MODEL 1
REMARK VINA RESULT:     -10.6      0.000      0.000
REMARK SMILES CC1=C(C)C[C@@H](C(=O)OCCOCCOCCOC(=O)c2ccc(-c3c4nc(c(-c5ccc(S(=O)(=O)[O-])cc5)c5ccc([nH]5)c(-c5ccc(S(=O)(=O)[O-])cc5)c5nc(c(-c6ccc(S(=O)(=O)[O-])cc6)c6ccc3[nH]6)C=C5)C=C4)cc2)[C@@H](C(=O)N2CCN(c3cccc(C(F)(F)F)c3)CC2)C1
REMARK SMILES IDX 13 1 12 2 11 3 10 4 9 5 7 6 8 7 6 8 1 9 2 10 3 11 100 12
REMARK SMILES IDX 4 13 5 14 81 15 82 16 83 17 84 18 85 19 99 20 86 21 98 22
REMARK SMILES IDX 87 23 88 24 89 25 97 26 90 27 92 28 91 29 93 30 94 31 95 32
REMARK SMILES IDX 96 33 14 34 15 35 16 36 17 37 18 38 19 39 20 40 21 41 22 42
REMARK SMILES IDX 80 43 23 44 79 45 24 46 25 47 26 48 73 49 27 50 78 51 72 52
REMARK SMILES IDX 74 53 28 54 77 55 71 56 70 57 29 59 59 60 40 61 58 62 41 63
REMARK SMILES IDX 44 64 57 65 75 66 42 67 43 68 56 70 76 71 45 72 30 73 31 74
REMARK SMILES IDX 39 75 32 76 38 77 33 78 34 79 35 80 36 81 37 82 60 83 61 84
REMARK SMILES IDX 69 85 62 86 68 87 63 88 64 89 65 90 66 91 67 92 46 93 47 94
REMARK SMILES IDX 55 95 48 96 54 97 49 98 50 99 51 100 52 101 53 102
REMARK H PARENT 74 58 44 69
REMARK Flexibility Score: inf
ROOT
ATOM      1  C   UNL A   1      34.923  31.844  28.550  1.00  0.00     0.188 C 
ENDROOT
BRANCH   1   2
ATOM      2  O   UNL A   1      34.462  30.987  27.511  1.00  0.00    -0.376 OA
BRANCH   2   3
ATOM      3  C   UNL A   1      33.059  31.062  27.276  1.00  0.00     0.202 C 
BRANCH   3   4
ATOM      4  C   UNL A   1      32.346  29.693  27.195  1.00  0.00     0.261 C 
BRANCH   4   5
ATOM      5  O   UNL A   1      31.595  29.444  25.974  1.00  0.00    -0.463 OA
BRANCH   5   6
ATOM      6  C   UNL A   1      32.273  28.829  24.973  1.00  0.00     0.310 C 
ATOM      7  O   UNL A   1      33.479  28.602  25.013  1.00  0.00    -0.252 OA
BRANCH   6   8
ATOM      8  C   UNL A   1      31.469  28.568  23.706  1.00  0.00     0.116 C 
ATOM      9  C   UNL A   1      27.071  28.639  23.157  1.00  0.00     0.039 C 
ATOM     10  C   UNL A   1      28.571  28.720  23.180  1.00  0.00    -0.074 C 
ATOM     11  C   UNL A   1      29.249  29.855  23.437  1.00  0.00    -0.073 C 
ATOM     12  C   UNL A   1      29.323  27.490  22.747  1.00  0.00     0.045 C 
ATOM     13  C   UNL A   1      28.615  31.194  23.699  1.00  0.00     0.039 C 
ATOM     14  C   UNL A   1      30.751  29.882  23.347  1.00  0.00     0.046 C 
ATOM     15  C   UNL A   1      30.670  27.262  23.447  1.00  0.00     0.097 C 
BRANCH  15  16
ATOM     16  C   UNL A   1      30.622  26.181  24.536  1.00  0.00     0.227 C 
ATOM     17  O   UNL A   1      29.735  26.199  25.388  1.00  0.00    -0.275 OA
ATOM     18  N   UNL A   1      31.561  25.173  24.489  1.00  0.00    -0.339 N 
ATOM     19  C   UNL A   1      31.078  23.806  24.393  1.00  0.00     0.141 C 
ATOM     20  C   UNL A   1      32.775  25.216  25.311  1.00  0.00     0.141 C 
ATOM     21  C   UNL A   1      32.077  22.979  23.584  1.00  0.00     0.138 C 
ATOM     22  C   UNL A   1      33.887  24.324  24.710  1.00  0.00     0.138 C 
ATOM     23  N   UNL A   1      33.374  23.009  24.278  1.00  0.00    -0.368 N 
BRANCH  23  24
ATOM     24  C   UNL A   1      34.013  21.824  24.551  1.00  0.00     0.037 A 
ATOM     25  C   UNL A   1      35.394  21.784  24.782  1.00  0.00     0.026 A 
ATOM     26  C   UNL A   1      33.316  20.612  24.537  1.00  0.00     0.039 A 
ATOM     27  C   UNL A   1      36.061  20.577  25.001  1.00  0.00     0.003 A 
ATOM     28  C   UNL A   1      33.972  19.385  24.723  1.00  0.00     0.058 A 
ATOM     29  C   UNL A   1      35.352  19.380  24.968  1.00  0.00     0.013 A 
BRANCH  28  30
ATOM     30  C   UNL A   1      33.208  18.090  24.652  1.00  0.00     0.416 C 
ATOM     31  F   UNL A   1      32.865  17.616  25.884  1.00  0.00    -0.166 F 
ATOM     32  F   UNL A   1      32.039  18.215  23.965  1.00  0.00    -0.166 F 
ATOM     33  F   UNL A   1      33.891  17.079  24.045  1.00  0.00    -0.166 F 
ENDBRANCH  28  30
ENDBRANCH  23  24
ENDBRANCH  15  16
ENDBRANCH   6   8
ENDBRANCH   5   6
ENDBRANCH   4   5
ENDBRANCH   3   4
ENDBRANCH   2   3
ENDBRANCH   1   2
BRANCH   1  34
ATOM     34  C   UNL A   1      35.913  32.897  28.081  1.00  0.00     0.188 C 
BRANCH  34  35
ATOM     35  O   UNL A   1      35.528  34.233  28.424  1.00  0.00    -0.376 OA
BRANCH  35  36
ATOM     36  C   UNL A   1      34.199  34.553  27.992  1.00  0.00     0.202 C 
BRANCH  36  37
ATOM     37  C   UNL A   1      33.361  35.408  28.959  1.00  0.00     0.261 C 
BRANCH  37  38
ATOM     38  O   UNL A   1      32.880  34.614  30.057  1.00  0.00    -0.460 OA
BRANCH  38  39
ATOM     39  C   UNL A   1      32.925  35.219  31.278  1.00  0.00     0.338 C 
ATOM     40  O   UNL A   1      32.103  35.974  31.748  1.00  0.00    -0.246 OA
BRANCH  39  41
ATOM     41  C   UNL A   1      34.074  34.660  32.041  1.00  0.00     0.060 A 
ATOM     42  C   UNL A   1      35.338  35.242  31.856  1.00  0.00     0.016 A 
ATOM     43  C   UNL A   1      33.914  33.603  32.940  1.00  0.00     0.016 A 
ATOM     44  C   UNL A   1      36.457  34.717  32.511  1.00  0.00     0.010 A 
ATOM     45  C   UNL A   1      35.032  33.080  33.594  1.00  0.00     0.010 A 
ATOM     46  C   UNL A   1      36.315  33.599  33.343  1.00  0.00    -0.014 A 
BRANCH  46  47
ATOM     47  C   UNL A   1      37.497  32.795  33.743  1.00  0.00     0.031 A 
ATOM     48  C   UNL A   1      38.101  33.078  35.096  1.00  0.00     0.074 A 
ATOM     49  C   UNL A   1      38.047  31.865  32.942  1.00  0.00     0.049 A 
ATOM     50  N   UNL A   1      39.203  32.620  35.631  1.00  0.00    -0.248 NA
ATOM     51  C   UNL A   1      37.361  34.021  35.952  1.00  0.00     0.031 C 
ATOM     52  C   UNL A   1      37.532  31.449  31.640  1.00  0.00     0.029 A 
ATOM     53  N   UNL A   1      39.182  31.110  33.114  1.00  0.00    -0.354 N 
ATOM     54  C   UNL A   1      39.298  33.233  36.875  1.00  0.00     0.074 A 
ATOM     55  C   UNL A   1      38.161  34.117  37.002  1.00  0.00     0.031 C 
ATOM     56  C   UNL A   1      38.355  30.516  31.126  1.00  0.00     0.029 A 
ATOM     57  C   UNL A   1      39.474  30.300  32.043  1.00  0.00     0.049 A 
ATOM     58  H   UNL A   1      39.734  31.145  33.929  1.00  0.00     0.167 HD
ATOM     59  C   UNL A   1      40.240  33.073  37.833  1.00  0.00     0.031 A 
ATOM     60  C   UNL A   1      40.535  29.497  31.821  1.00  0.00     0.031 A 
ATOM     61  C   UNL A   1      41.381  32.210  37.701  1.00  0.00     0.049 A 
ATOM     62  C   UNL A   1      41.626  29.405  32.861  1.00  0.00     0.074 A 
ATOM     63  C   UNL A   1      42.398  31.981  38.610  1.00  0.00     0.029 A 
ATOM     64  N   UNL A   1      41.659  31.437  36.585  1.00  0.00    -0.354 N 
ATOM     65  N   UNL A   1      41.706  29.989  34.034  1.00  0.00    -0.248 NA
ATOM     66  C   UNL A   1      42.772  28.539  32.546  1.00  0.00     0.031 C 
ATOM     67  C   UNL A   1      43.319  31.106  38.022  1.00  0.00     0.029 A 
ATOM     68  C   UNL A   1      42.842  30.742  36.772  1.00  0.00     0.049 A 
ATOM     69  H   UNL A   1      41.098  31.388  35.777  1.00  0.00     0.167 HD
ATOM     70  C   UNL A   1      42.888  29.531  34.609  1.00  0.00     0.074 A 
ATOM     71  C   UNL A   1      43.490  28.619  33.658  1.00  0.00     0.031 C 
ATOM     72  C   UNL A   1      43.425  29.832  35.819  1.00  0.00     0.031 A 
BRANCH  59  73
ATOM     73  C   UNL A   1      40.085  33.890  39.089  1.00  0.00    -0.014 A 
ATOM     74  C   UNL A   1      40.702  35.148  39.221  1.00  0.00     0.010 A 
ATOM     75  C   UNL A   1      39.323  33.387  40.158  1.00  0.00     0.010 A 
ATOM     76  C   UNL A   1      40.607  35.861  40.418  1.00  0.00     0.020 A 
ATOM     77  C   UNL A   1      39.199  34.111  41.347  1.00  0.00     0.020 A 
ATOM     78  C   UNL A   1      39.862  35.333  41.477  1.00  0.00     0.054 A 
BRANCH  78  79
ATOM     79  S   UNL A   1      39.760  36.276  43.023  1.00  0.00     0.124 S 
ATOM     80  O   UNL A   1      39.657  37.647  42.533  1.00  0.00    -0.237 OA
ATOM     81  O   UNL A   1      38.554  35.739  43.648  1.00  0.00    -0.237 OA
ATOM     82  O   UNL A   1      41.010  35.952  43.709  1.00  0.00    -0.744 OA
ENDBRANCH  78  79
ENDBRANCH  59  73
BRANCH  60  83
ATOM     83  C   UNL A   1      40.629  28.710  30.560  1.00  0.00    -0.014 A 
ATOM     84  C   UNL A   1      41.488  29.124  29.527  1.00  0.00     0.010 A 
ATOM     85  C   UNL A   1      39.854  27.549  30.377  1.00  0.00     0.010 A 
ATOM     86  C   UNL A   1      41.562  28.401  28.331  1.00  0.00     0.020 A 
ATOM     87  C   UNL A   1      39.945  26.809  29.193  1.00  0.00     0.020 A 
ATOM     88  C   UNL A   1      40.793  27.246  28.173  1.00  0.00     0.054 A 
BRANCH  88  89
ATOM     89  S   UNL A   1      40.947  26.297  26.634  1.00  0.00     0.124 S 
ATOM     90  O   UNL A   1      42.126  25.479  26.898  1.00  0.00    -0.237 OA
ATOM     91  O   UNL A   1      39.677  25.577  26.578  1.00  0.00    -0.237 OA
ATOM     92  O   UNL A   1      41.116  27.328  25.611  1.00  0.00    -0.744 OA
ENDBRANCH  88  89
ENDBRANCH  60  83
BRANCH  72  93
ATOM     93  C   UNL A   1      44.700  29.132  36.215  1.00  0.00    -0.014 A 
ATOM     94  C   UNL A   1      44.690  27.829  36.741  1.00  0.00     0.010 A 
ATOM     95  C   UNL A   1      45.933  29.773  35.993  1.00  0.00     0.010 A 
ATOM     96  C   UNL A   1      45.892  27.190  37.066  1.00  0.00     0.020 A 
ATOM     97  C   UNL A   1      47.137  29.127  36.289  1.00  0.00     0.020 A 
ATOM     98  C   UNL A   1      47.107  27.844  36.837  1.00  0.00     0.054 A 
BRANCH  98  99
ATOM     99  S   UNL A   1      48.653  26.977  37.223  1.00  0.00     0.124 S 
ATOM    100  O   UNL A   1      48.343  26.357  38.508  1.00  0.00    -0.237 OA
ATOM    101  O   UNL A   1      48.794  26.055  36.098  1.00  0.00    -0.237 OA
ATOM    102  O   UNL A   1      49.648  28.045  37.270  1.00  0.00    -0.744 OA
ENDBRANCH  98  99
ENDBRANCH  72  93
ENDBRANCH  46  47
ENDBRANCH  39  41
ENDBRANCH  38  39
ENDBRANCH  37  38
ENDBRANCH  36  37
ENDBRANCH  35  36
ENDBRANCH  34  35
ENDBRANCH   1  34
TORSDOF 23
ENDMDL
MODEL 2
REMARK VINA RESULT:     -10.4      3.170      3.796
REMARK SMILES CC1=C(C)C[C@@H](C(=O)OCCOCCOCCOC(=O)c2ccc(-c3c4nc(c(-c5ccc(S(=O)(=O)[O-])cc5)c5ccc([nH]5)c(-c5ccc(S(=O)(=O)[O-])cc5)c5nc(c(-c6ccc(S(=O)(=O)[O-])cc6)c6ccc3[nH]6)C=C5)C=C4)cc2)[C@@H](C(=O)N2CCN(c3cccc(C(F)(F)F)c3)CC2)C1
REMARK SMILES IDX 13 1 12 2 11 3 10 4 9 5 7 6 8 7 6 8 1 9 2 10 3 11 100 12
REMARK SMILES IDX 4 13 5 14 81 15 82 16 83 17 84 18 85 19 99 20 86 21 98 22
REMARK SMILES IDX 87 23 88 24 89 25 97 26 90 27 92 28 91 29 93 30 94 31 95 32
REMARK SMILES IDX 96 33 14 34 15 35 16 36 17 37 18 38 19 39 20 40 21 41 22 42
REMARK SMILES IDX 80 43 23 44 79 45 24 46 25 47 26 48 73 49 27 50 78 51 72 52
REMARK SMILES IDX 74 53 28 54 77 55 71 56 70 57 29 59 59 60 40 61 58 62 41 63
REMARK SMILES IDX 44 64 57 65 75 66 42 67 43 68 56 70 76 71 45 72 30 73 31 74
REMARK SMILES IDX 39 75 32 76 38 77 33 78 34 79 35 80 36 81 37 82 60 83 61 84
REMARK SMILES IDX 69 85 62 86 68 87 63 88 64 89 65 90 66 91 67 92 46 93 47 94
REMARK SMILES IDX 55 95 48 96 54 97 49 98 50 99 51 100 52 101 53 102
REMARK H PARENT 74 58 44 69
REMARK Flexibility Score: inf
ROOT
ATOM      1  C   UNL A   1      34.767  31.877  28.529  1.00  0.00     0.188 C 
ENDROOT
BRANCH   1   2
ATOM      2  O   UNL A   1      34.309  31.104  27.424  1.00  0.00    -0.376 OA
BRANCH   2   3
ATOM      3  C   UNL A   1      32.892  31.072  27.286  1.00  0.00     0.202 C 
BRANCH   3   4
ATOM      4  C   UNL A   1      32.288  29.652  27.181  1.00  0.00     0.261 C 
BRANCH   4   5
ATOM      5  O   UNL A   1      31.490  29.392  25.993  1.00  0.00    -0.463 OA
BRANCH   5   6
ATOM      6  C   UNL A   1      32.141  28.817  24.952  1.00  0.00     0.310 C 
ATOM      7  O   UNL A   1      33.330  28.515  24.983  1.00  0.00    -0.252 OA
BRANCH   6   8
ATOM      8  C   UNL A   1      31.338  28.706  23.662  1.00  0.00     0.116 C 
ATOM      9  C   UNL A   1      26.965  29.140  23.080  1.00  0.00     0.039 C 
ATOM     10  C   UNL A   1      28.467  29.109  23.122  1.00  0.00    -0.074 C 
ATOM     11  C   UNL A   1      29.222  30.170  23.466  1.00  0.00    -0.073 C 
ATOM     12  C   UNL A   1      29.133  27.860  22.609  1.00  0.00     0.045 C 
ATOM     13  C   UNL A   1      28.684  31.530  23.817  1.00  0.00     0.039 C 
ATOM     14  C   UNL A   1      30.724  30.091  23.391  1.00  0.00     0.046 C 
ATOM     15  C   UNL A   1      30.450  27.485  23.303  1.00  0.00     0.097 C 
BRANCH  15  16
ATOM     16  C   UNL A   1      30.308  26.335  24.311  1.00  0.00     0.227 C 
ATOM     17  O   UNL A   1      29.378  26.329  25.117  1.00  0.00    -0.275 OA
ATOM     18  N   UNL A   1      31.214  25.299  24.244  1.00  0.00    -0.339 N 
ATOM     19  C   UNL A   1      30.692  23.960  24.029  1.00  0.00     0.141 C 
ATOM     20  C   UNL A   1      32.383  25.242  25.127  1.00  0.00     0.141 C 
ATOM     21  C   UNL A   1      31.704  23.153  23.218  1.00  0.00     0.138 C 
ATOM     22  C   UNL A   1      33.495  24.352  24.524  1.00  0.00     0.138 C 
ATOM     23  N   UNL A   1      32.962  23.088  23.977  1.00  0.00    -0.368 N 
BRANCH  23  24
ATOM     24  C   UNL A   1      33.546  21.865  24.200  1.00  0.00     0.037 A 
ATOM     25  C   UNL A   1      32.773  20.700  24.288  1.00  0.00     0.026 A 
ATOM     26  C   UNL A   1      34.922  21.756  24.418  1.00  0.00     0.039 A 
ATOM     27  C   UNL A   1      33.352  19.462  24.575  1.00  0.00     0.003 A 
ATOM     28  C   UNL A   1      35.521  20.527  24.740  1.00  0.00     0.058 A 
ATOM     29  C   UNL A   1      34.722  19.377  24.804  1.00  0.00     0.013 A 
BRANCH  28  30
ATOM     30  C   UNL A   1      36.997  20.443  25.021  1.00  0.00     0.416 C 
ATOM     31  F   UNL A   1      37.338  21.031  26.204  1.00  0.00    -0.166 F 
ATOM     32  F   UNL A   1      37.436  19.156  25.107  1.00  0.00    -0.166 F 
ATOM     33  F   UNL A   1      37.774  21.040  24.075  1.00  0.00    -0.166 F 
ENDBRANCH  28  30
ENDBRANCH  23  24
ENDBRANCH  15  16
ENDBRANCH   6   8
ENDBRANCH   5   6
ENDBRANCH   4   5
ENDBRANCH   3   4
ENDBRANCH   2   3
ENDBRANCH   1   2
BRANCH   1  34
ATOM     34  C   UNL A   1      35.796  32.930  28.155  1.00  0.00     0.188 C 
BRANCH  34  35
ATOM     35  O   UNL A   1      35.380  34.266  28.462  1.00  0.00    -0.376 OA
BRANCH  35  36
ATOM     36  C   UNL A   1      34.060  34.557  27.986  1.00  0.00     0.202 C 
BRANCH  36  37
ATOM     37  C   UNL A   1      33.272  35.616  28.779  1.00  0.00     0.261 C 
BRANCH  37  38
ATOM     38  O   UNL A   1      32.571  35.013  29.880  1.00  0.00    -0.460 OA
BRANCH  38  39
ATOM     39  C   UNL A   1      32.621  35.705  31.053  1.00  0.00     0.338 C 
ATOM     40  O   UNL A   1      31.801  36.494  31.469  1.00  0.00    -0.246 OA
BRANCH  39  41
ATOM     41  C   UNL A   1      33.772  35.202  31.852  1.00  0.00     0.060 A 
ATOM     42  C   UNL A   1      34.358  36.068  32.788  1.00  0.00     0.016 A 
ATOM     43  C   UNL A   1      34.253  33.899  31.705  1.00  0.00     0.016 A 
ATOM     44  C   UNL A   1      35.474  35.658  33.524  1.00  0.00     0.010 A 
ATOM     45  C   UNL A   1      35.368  33.491  32.440  1.00  0.00     0.010 A 
ATOM     46  C   UNL A   1      36.016  34.384  33.312  1.00  0.00    -0.014 A 
BRANCH  46  47
ATOM     47  C   UNL A   1      37.388  34.056  33.775  1.00  0.00     0.031 A 
ATOM     48  C   UNL A   1      37.578  33.786  35.247  1.00  0.00     0.074 A 
ATOM     49  C   UNL A   1      38.445  34.021  32.943  1.00  0.00     0.049 A 
ATOM     50  N   UNL A   1      38.679  33.609  35.928  1.00  0.00    -0.248 NA
ATOM     51  C   UNL A   1      36.350  33.723  36.058  1.00  0.00     0.031 C 
ATOM     52  C   UNL A   1      38.396  34.202  31.495  1.00  0.00     0.029 A 
ATOM     53  N   UNL A   1      39.778  33.832  33.216  1.00  0.00    -0.354 N 
ATOM     54  C   UNL A   1      38.279  33.433  37.248  1.00  0.00     0.074 A 
ATOM     55  C   UNL A   1      36.838  33.557  37.276  1.00  0.00     0.031 C 
ATOM     56  C   UNL A   1      39.647  34.122  31.005  1.00  0.00     0.029 A 
ATOM     57  C   UNL A   1      40.587  33.927  32.109  1.00  0.00     0.049 A 
ATOM     58  H   UNL A   1      40.122  33.646  34.120  1.00  0.00     0.167 HD
ATOM     59  C   UNL A   1      39.036  33.185  38.342  1.00  0.00     0.031 A 
ATOM     60  C   UNL A   1      41.932  33.883  32.005  1.00  0.00     0.031 A 
ATOM     61  C   UNL A   1      40.469  33.082  38.320  1.00  0.00     0.049 A 
ATOM     62  C   UNL A   1      42.766  33.701  33.251  1.00  0.00     0.074 A 
ATOM     63  C   UNL A   1      41.332  32.839  39.373  1.00  0.00     0.029 A 
ATOM     64  N   UNL A   1      41.251  33.222  37.184  1.00  0.00    -0.354 N 
ATOM     65  N   UNL A   1      42.377  33.537  34.493  1.00  0.00    -0.248 NA
ATOM     66  C   UNL A   1      44.227  33.696  33.076  1.00  0.00     0.031 C 
ATOM     67  C   UNL A   1      42.642  32.881  38.881  1.00  0.00     0.029 A 
ATOM     68  C   UNL A   1      42.590  33.089  37.512  1.00  0.00     0.049 A 
ATOM     69  H   UNL A   1      40.906  33.390  36.277  1.00  0.00     0.167 HD
ATOM     70  C   UNL A   1      43.541  33.372  35.239  1.00  0.00     0.074 A 
ATOM     71  C   UNL A   1      44.648  33.452  34.309  1.00  0.00     0.031 C 
ATOM     72  C   UNL A   1      43.682  33.164  36.573  1.00  0.00     0.031 A 
BRANCH  59  73
ATOM     73  C   UNL A   1      38.316  33.053  39.658  1.00  0.00    -0.014 A 
ATOM     74  C   UNL A   1      38.231  34.136  40.554  1.00  0.00     0.010 A 
ATOM     75  C   UNL A   1      37.728  31.826  40.010  1.00  0.00     0.010 A 
ATOM     76  C   UNL A   1      37.621  33.976  41.800  1.00  0.00     0.020 A 
ATOM     77  C   UNL A   1      37.089  31.670  41.244  1.00  0.00     0.020 A 
ATOM     78  C   UNL A   1      37.060  32.741  42.140  1.00  0.00     0.054 A 
BRANCH  78  79
ATOM     79  S   UNL A   1      36.281  32.558  43.768  1.00  0.00     0.124 S 
ATOM     80  O   UNL A   1      35.445  33.753  43.836  1.00  0.00    -0.237 OA
ATOM     81  O   UNL A   1      35.561  31.294  43.639  1.00  0.00    -0.237 OA
ATOM     82  O   UNL A   1      37.412  32.535  44.693  1.00  0.00    -0.744 OA
ENDBRANCH  78  79
ENDBRANCH  59  73
BRANCH  60  83
ATOM     83  C   UNL A   1      42.586  34.015  30.673  1.00  0.00    -0.014 A 
ATOM     84  C   UNL A   1      42.908  35.285  30.163  1.00  0.00     0.010 A 
ATOM     85  C   UNL A   1      42.881  32.876  29.901  1.00  0.00     0.010 A 
ATOM     86  C   UNL A   1      43.501  35.416  28.903  1.00  0.00     0.020 A 
ATOM     87  C   UNL A   1      43.497  33.001  28.651  1.00  0.00     0.020 A 
ATOM     88  C   UNL A   1      43.795  34.272  28.156  1.00  0.00     0.054 A 
BRANCH  88  89
ATOM     89  S   UNL A   1      44.613  34.466  26.547  1.00  0.00     0.124 S 
ATOM     90  O   UNL A   1      44.817  33.080  26.141  1.00  0.00    -0.237 OA
ATOM     91  O   UNL A   1      43.620  35.212  25.777  1.00  0.00    -0.237 OA
ATOM     92  O   UNL A   1      45.829  35.211  26.869  1.00  0.00    -0.744 OA
ENDBRANCH  88  89
ENDBRANCH  60  83
BRANCH  72  93
ATOM     93  C   UNL A   1      45.075  32.953  37.108  1.00  0.00    -0.014 A 
ATOM     94  C   UNL A   1      45.846  34.022  37.593  1.00  0.00     0.010 A 
ATOM     95  C   UNL A   1      45.590  31.645  37.184  1.00  0.00     0.010 A 
ATOM     96  C   UNL A   1      47.122  33.791  38.118  1.00  0.00     0.020 A 
ATOM     97  C   UNL A   1      46.853  31.407  37.734  1.00  0.00     0.020 A 
ATOM     98  C   UNL A   1      47.617  32.484  38.185  1.00  0.00     0.054 A 
BRANCH  98  99
ATOM     99  S   UNL A   1      49.255  32.205  38.913  1.00  0.00     0.124 S 
ATOM    100  O   UNL A   1      50.011  33.349  38.412  1.00  0.00    -0.237 OA
ATOM    101  O   UNL A   1      48.975  32.215  40.347  1.00  0.00    -0.237 OA
ATOM    102  O   UNL A   1      49.658  30.908  38.374  1.00  0.00    -0.744 OA
ENDBRANCH  98  99
ENDBRANCH  72  93
ENDBRANCH  46  47
ENDBRANCH  39  41
ENDBRANCH  38  39
ENDBRANCH  37  38
ENDBRANCH  36  37
ENDBRANCH  35  36
ENDBRANCH  34  35
ENDBRANCH   1  34
TORSDOF 23
ENDMDL
MODEL 3
REMARK VINA RESULT:     -10.1      5.747     10.207
REMARK SMILES CC1=C(C)C[C@@H](C(=O)OCCOCCOCCOC(=O)c2ccc(-c3c4nc(c(-c5ccc(S(=O)(=O)[O-])cc5)c5ccc([nH]5)c(-c5ccc(S(=O)(=O)[O-])cc5)c5nc(c(-c6ccc(S(=O)(=O)[O-])cc6)c6ccc3[nH]6)C=C5)C=C4)cc2)[C@@H](C(=O)N2CCN(c3cccc(C(F)(F)F)c3)CC2)C1
REMARK SMILES IDX 13 1 12 2 11 3 10 4 9 5 7 6 8 7 6 8 1 9 2 10 3 11 100 12
REMARK SMILES IDX 4 13 5 14 81 15 82 16 83 17 84 18 85 19 99 20 86 21 98 22
REMARK SMILES IDX 87 23 88 24 89 25 97 26 90 27 92 28 91 29 93 30 94 31 95 32
REMARK SMILES IDX 96 33 14 34 15 35 16 36 17 37 18 38 19 39 20 40 21 41 22 42
REMARK SMILES IDX 80 43 23 44 79 45 24 46 25 47 26 48 73 49 27 50 78 51 72 52
REMARK SMILES IDX 74 53 28 54 77 55 71 56 70 57 29 59 59 60 40 61 58 62 41 63
REMARK SMILES IDX 44 64 57 65 75 66 42 67 43 68 56 70 76 71 45 72 30 73 31 74
REMARK SMILES IDX 39 75 32 76 38 77 33 78 34 79 35 80 36 81 37 82 60 83 61 84
REMARK SMILES IDX 69 85 62 86 68 87 63 88 64 89 65 90 66 91 67 92 46 93 47 94
REMARK SMILES IDX 55 95 48 96 54 97 49 98 50 99 51 100 52 101 53 102
REMARK H PARENT 74 58 44 69
REMARK Flexibility Score: inf
ROOT
ATOM      1  C   UNL A   1      34.725  31.328  28.570  1.00  0.00     0.188 C 
ENDROOT
BRANCH   1   2
ATOM      2  O   UNL A   1      34.184  31.312  27.252  1.00  0.00    -0.376 OA
BRANCH   2   3
ATOM      3  C   UNL A   1      32.762  31.249  27.209  1.00  0.00     0.202 C 
BRANCH   3   4
ATOM      4  C   UNL A   1      32.192  29.866  26.818  1.00  0.00     0.261 C 
BRANCH   4   5
ATOM      5  O   UNL A   1      31.415  29.828  25.588  1.00  0.00    -0.463 OA
BRANCH   5   6
ATOM      6  C   UNL A   1      32.050  29.326  24.499  1.00  0.00     0.310 C 
ATOM      7  O   UNL A   1      33.260  29.420  24.319  1.00  0.00    -0.252 OA
BRANCH   6   8
ATOM      8  C   UNL A   1      31.138  28.763  23.416  1.00  0.00     0.116 C 
ATOM      9  C   UNL A   1      26.750  28.148  23.540  1.00  0.00     0.039 C 
ATOM     10  C   UNL A   1      28.209  28.435  23.323  1.00  0.00    -0.074 C 
ATOM     11  C   UNL A   1      28.727  29.678  23.317  1.00  0.00    -0.073 C 
ATOM     12  C   UNL A   1      29.081  27.266  22.951  1.00  0.00     0.045 C 
ATOM     13  C   UNL A   1      27.931  30.942  23.489  1.00  0.00     0.039 C 
ATOM     14  C   UNL A   1      30.182  29.894  22.996  1.00  0.00     0.046 C 
ATOM     15  C   UNL A   1      30.527  27.336  23.462  1.00  0.00     0.097 C 
BRANCH  15  16
ATOM     16  C   UNL A   1      30.793  26.442  24.682  1.00  0.00     0.227 C 
ATOM     17  O   UNL A   1      30.171  26.623  25.729  1.00  0.00    -0.275 OA
ATOM     18  N   UNL A   1      31.697  25.411  24.544  1.00  0.00    -0.339 N 
ATOM     19  C   UNL A   1      31.224  24.061  24.803  1.00  0.00     0.141 C 
ATOM     20  C   UNL A   1      33.088  25.545  24.988  1.00  0.00     0.141 C 
ATOM     21  C   UNL A   1      31.975  23.087  23.897  1.00  0.00     0.138 C 
ATOM     22  C   UNL A   1      34.005  24.535  24.259  1.00  0.00     0.138 C 
ATOM     23  N   UNL A   1      33.411  23.185  24.199  1.00  0.00    -0.368 N 
BRANCH  23  24
ATOM     24  C   UNL A   1      34.116  22.039  24.475  1.00  0.00     0.037 A 
ATOM     25  C   UNL A   1      35.494  22.080  24.722  1.00  0.00     0.026 A 
ATOM     26  C   UNL A   1      33.492  20.788  24.448  1.00  0.00     0.039 A 
ATOM     27  C   UNL A   1      36.229  20.914  24.944  1.00  0.00     0.003 A 
ATOM     28  C   UNL A   1      34.218  19.601  24.636  1.00  0.00     0.058 A 
ATOM     29  C   UNL A   1      35.593  19.677  24.898  1.00  0.00     0.013 A 
BRANCH  28  30
ATOM     30  C   UNL A   1      33.534  18.263  24.551  1.00  0.00     0.416 C 
ATOM     31  F   UNL A   1      32.350  18.236  25.229  1.00  0.00    -0.166 F 
ATOM     32  F   UNL A   1      33.232  17.916  23.268  1.00  0.00    -0.166 F 
ATOM     33  F   UNL A   1      34.270  17.233  25.052  1.00  0.00    -0.166 F 
ENDBRANCH  28  30
ENDBRANCH  23  24
ENDBRANCH  15  16
ENDBRANCH   6   8
ENDBRANCH   5   6
ENDBRANCH   4   5
ENDBRANCH   3   4
ENDBRANCH   2   3
ENDBRANCH   1   2
BRANCH   1  34
ATOM     34  C   UNL A   1      34.619  32.678  29.258  1.00  0.00     0.188 C 
BRANCH  34  35
ATOM     35  O   UNL A   1      35.709  32.951  30.146  1.00  0.00    -0.376 OA
BRANCH  35  36
ATOM     36  C   UNL A   1      35.738  32.066  31.273  1.00  0.00     0.202 C 
BRANCH  36  37
ATOM     37  C   UNL A   1      36.849  32.323  32.307  1.00  0.00     0.261 C 
BRANCH  37  38
ATOM     38  O   UNL A   1      37.216  31.105  32.976  1.00  0.00    -0.460 OA
BRANCH  38  39
ATOM     39  C   UNL A   1      38.439  31.115  33.578  1.00  0.00     0.338 C 
ATOM     40  O   UNL A   1      38.683  31.407  34.729  1.00  0.00    -0.246 OA
BRANCH  39  41
ATOM     41  C   UNL A   1      39.435  30.528  32.641  1.00  0.00     0.060 A 
ATOM     42  C   UNL A   1      40.507  29.802  33.182  1.00  0.00     0.016 A 
ATOM     43  C   UNL A   1      39.309  30.665  31.257  1.00  0.00     0.016 A 
ATOM     44  C   UNL A   1      41.495  29.277  32.343  1.00  0.00     0.010 A 
ATOM     45  C   UNL A   1      40.296  30.141  30.420  1.00  0.00     0.010 A 
ATOM     46  C   UNL A   1      41.421  29.491  30.961  1.00  0.00    -0.014 A 
BRANCH  46  47
ATOM     47  C   UNL A   1      42.610  29.291  30.095  1.00  0.00     0.031 A 
ATOM     48  C   UNL A   1      42.724  27.975  29.367  1.00  0.00     0.074 A 
ATOM     49  C   UNL A   1      43.578  30.216  29.969  1.00  0.00     0.049 A 
ATOM     50  N   UNL A   1      43.713  27.494  28.661  1.00  0.00    -0.248 NA
ATOM     51  C   UNL A   1      41.561  27.076  29.466  1.00  0.00     0.031 C 
ATOM     52  C   UNL A   1      43.568  31.548  30.566  1.00  0.00     0.029 A 
ATOM     53  N   UNL A   1      44.775  30.156  29.296  1.00  0.00    -0.354 N 
ATOM     54  C   UNL A   1      43.301  26.232  28.249  1.00  0.00     0.074 A 
ATOM     55  C   UNL A   1      41.986  26.010  28.809  1.00  0.00     0.031 C 
ATOM     56  C   UNL A   1      44.710  32.180  30.238  1.00  0.00     0.029 A 
ATOM     57  C   UNL A   1      45.549  31.282  29.445  1.00  0.00     0.049 A 
ATOM     58  H   UNL A   1      45.052  29.379  28.758  1.00  0.00     0.167 HD
ATOM     59  C   UNL A   1      43.950  25.337  27.468  1.00  0.00     0.031 A 
ATOM     60  C   UNL A   1      46.798  31.545  29.009  1.00  0.00     0.031 A 
ATOM     61  C   UNL A   1      45.264  25.547  26.927  1.00  0.00     0.049 A 
ATOM     62  C   UNL A   1      47.545  30.495  28.220  1.00  0.00     0.074 A 
ATOM     63  C   UNL A   1      46.013  24.702  26.129  1.00  0.00     0.029 A 
ATOM     64  N   UNL A   1      46.027  26.686  27.132  1.00  0.00    -0.354 N 
ATOM     65  N   UNL A   1      47.146  29.305  27.836  1.00  0.00    -0.248 NA
ATOM     66  C   UNL A   1      48.916  30.829  27.802  1.00  0.00     0.031 C 
ATOM     67  C   UNL A   1      47.252  25.309  25.893  1.00  0.00     0.029 A 
ATOM     68  C   UNL A   1      47.249  26.559  26.493  1.00  0.00     0.049 A 
ATOM     69  H   UNL A   1      45.743  27.470  27.656  1.00  0.00     0.167 HD
ATOM     70  C   UNL A   1      48.199  28.767  27.102  1.00  0.00     0.074 A 
ATOM     71  C   UNL A   1      49.252  29.761  27.092  1.00  0.00     0.031 C 
ATOM     72  C   UNL A   1      48.285  27.561  26.485  1.00  0.00     0.031 A 
BRANCH  59  73
ATOM     73  C   UNL A   1      43.250  24.031  27.197  1.00  0.00    -0.014 A 
ATOM     74  C   UNL A   1      42.643  23.774  25.953  1.00  0.00     0.010 A 
ATOM     75  C   UNL A   1      43.187  23.052  28.204  1.00  0.00     0.010 A 
ATOM     76  C   UNL A   1      41.938  22.587  25.742  1.00  0.00     0.020 A 
ATOM     77  C   UNL A   1      42.509  21.849  27.986  1.00  0.00     0.020 A 
ATOM     78  C   UNL A   1      41.869  21.635  26.764  1.00  0.00     0.054 A 
BRANCH  78  79
ATOM     79  S   UNL A   1      40.941  20.106  26.466  1.00  0.00     0.124 S 
ATOM     80  O   UNL A   1      40.921  19.503  27.796  1.00  0.00    -0.237 OA
ATOM     81  O   UNL A   1      39.655  20.599  25.981  1.00  0.00    -0.237 OA
ATOM     82  O   UNL A   1      41.747  19.398  25.474  1.00  0.00    -0.744 OA
ENDBRANCH  78  79
ENDBRANCH  59  73
BRANCH  60  83
ATOM     83  C   UNL A   1      47.435  32.859  29.304  1.00  0.00    -0.014 A 
ATOM     84  C   UNL A   1      47.287  33.936  28.414  1.00  0.00     0.010 A 
ATOM     85  C   UNL A   1      48.202  33.039  30.471  1.00  0.00     0.010 A 
ATOM     86  C   UNL A   1      47.902  35.164  28.675  1.00  0.00     0.020 A 
ATOM     87  C   UNL A   1      48.798  34.274  30.748  1.00  0.00     0.020 A 
ATOM     88  C   UNL A   1      48.652  35.327  29.843  1.00  0.00     0.054 A 
BRANCH  88  89
ATOM     89  S   UNL A   1      49.396  36.947  30.185  1.00  0.00     0.124 S 
ATOM     90  O   UNL A   1      50.132  37.210  28.953  1.00  0.00    -0.237 OA
ATOM     91  O   UNL A   1      48.225  37.790  30.415  1.00  0.00    -0.237 OA
ATOM     92  O   UNL A   1      50.220  36.702  31.367  1.00  0.00    -0.744 OA
ENDBRANCH  88  89
ENDBRANCH  60  83
BRANCH  72  93
ATOM     93  C   UNL A   1      49.535  27.263  25.698  1.00  0.00    -0.014 A 
ATOM     94  C   UNL A   1      49.568  27.381  24.298  1.00  0.00     0.010 A 
ATOM     95  C   UNL A   1      50.714  26.920  26.385  1.00  0.00     0.010 A 
ATOM     96  C   UNL A   1      50.753  27.134  23.596  1.00  0.00     0.020 A 
ATOM     97  C   UNL A   1      51.907  26.700  25.690  1.00  0.00     0.020 A 
ATOM     98  C   UNL A   1      51.914  26.795  24.297  1.00  0.00     0.054 A 
BRANCH  98  99
ATOM     99  S   UNL A   1      53.450  26.524  23.369  1.00  0.00     0.124 S 
ATOM    100  O   UNL A   1      54.203  27.739  23.666  1.00  0.00    -0.237 OA
ATOM    101  O   UNL A   1      53.974  25.297  23.966  1.00  0.00    -0.237 OA
ATOM    102  O   UNL A   1      53.001  26.392  21.985  1.00  0.00    -0.744 OA
ENDBRANCH  98  99
ENDBRANCH  72  93
ENDBRANCH  46  47
ENDBRANCH  39  41
ENDBRANCH  38  39
ENDBRANCH  37  38
ENDBRANCH  36  37
ENDBRANCH  35  36
ENDBRANCH  34  35
ENDBRANCH   1  34
TORSDOF 23
ENDMDL
