MODEL 1
REMARK VINA RESULT:     -10.2      0.000      0.000
REMARK SMILES Cc1cc(Br)cc2c1O[C@H](C(F)(F)F)C(C(=O)OCCOCCOCCOC(=O)c1ccc(-c3c4nc(c(-c5ccc(S(=O)(=O)[O-])cc5)c5ccc([nH]5)c(-c5ccc(S(=O)(=O)[O-])cc5)c5nc(c(-c6ccc(S(=O)(=O)[O-])cc6)c6ccc3[nH]6)C=C5)C=C4)cc1)=C2
REMARK SMILES IDX 23 1 22 2 21 3 20 4 19 5 18 6 16 7 17 8 15 9 1 10 2 11 3 12
REMARK SMILES IDX 8 13 4 14 7 15 9 16 5 17 6 18 90 19 10 20 11 21 12 22 13 23
REMARK SMILES IDX 14 24 24 25 25 26 26 27 27 28 28 29 29 30 30 31 31 32 89 33
REMARK SMILES IDX 32 34 88 35 33 36 34 37 35 38 82 39 36 40 87 41 81 42 83 43
REMARK SMILES IDX 37 44 86 45 80 46 79 47 38 49 68 50 49 51 67 52 50 53 53 54
REMARK SMILES IDX 66 55 84 56 51 57 52 58 65 60 85 61 54 62 39 63 40 64 48 65
REMARK SMILES IDX 41 66 47 67 42 68 43 69 44 70 45 71 46 72 69 73 70 74 78 75
REMARK SMILES IDX 71 76 77 77 72 78 73 79 74 80 75 81 76 82 55 83 56 84 64 85
REMARK SMILES IDX 57 86 63 87 58 88 59 89 60 90 61 91 62 92
REMARK H PARENT 83 48 53 59
REMARK Flexibility Score: inf
ROOT
ATOM      1  C   UNL A   1      32.320  29.145  26.103  1.00  0.00     0.188 C 
ENDROOT
BRANCH   1   2
ATOM      2  C   UNL A   1      31.717  27.938  25.352  1.00  0.00     0.188 C 
BRANCH   2   3
ATOM      3  O   UNL A   1      30.642  28.143  24.439  1.00  0.00    -0.376 OA
BRANCH   3   4
ATOM      4  C   UNL A   1      29.906  27.031  23.945  1.00  0.00     0.202 C 
BRANCH   4   5
ATOM      5  C   UNL A   1      30.258  25.623  24.442  1.00  0.00     0.261 C 
BRANCH   5   6
ATOM      6  O   UNL A   1      30.565  24.692  23.391  1.00  0.00    -0.460 OA
BRANCH   6   7
ATOM      7  C   UNL A   1      31.781  24.846  22.817  1.00  0.00     0.338 C 
ATOM      8  O   UNL A   1      32.149  25.779  22.121  1.00  0.00    -0.246 OA
BRANCH   7   9
ATOM      9  C   UNL A   1      32.676  23.753  23.243  1.00  0.00     0.087 C 
ATOM     10  C   UNL A   1      36.411  20.925  25.319  1.00  0.00     0.048 C 
ATOM     11  C   UNL A   1      35.043  20.655  24.760  1.00  0.00    -0.007 A 
ATOM     12  C   UNL A   1      34.490  19.370  24.866  1.00  0.00     0.023 A 
ATOM     13  C   UNL A   1      34.273  21.687  24.195  1.00  0.00     0.130 A 
ATOM     14  C   UNL A   1      33.203  19.118  24.398  1.00  0.00     0.019 A 
ATOM     15  C   UNL A   1      32.966  21.434  23.760  1.00  0.00     0.019 A 
ATOM     16  O   UNL A   1      34.861  22.919  24.113  1.00  0.00    -0.475 OA
ATOM     17  Br  UNL A   1      32.475  17.380  24.549  1.00  0.00    -0.051 Br
ATOM     18  C   UNL A   1      32.438  20.142  23.845  1.00  0.00     0.027 A 
ATOM     19  C   UNL A   1      32.138  22.528  23.281  1.00  0.00     0.027 C 
ATOM     20  C   UNL A   1      34.100  24.053  23.612  1.00  0.00     0.316 C 
BRANCH  20  21
ATOM     21  C   UNL A   1      34.219  25.187  24.640  1.00  0.00     0.430 C 
ATOM     22  F   UNL A   1      35.359  25.069  25.367  1.00  0.00    -0.167 F 
ATOM     23  F   UNL A   1      34.270  26.404  24.050  1.00  0.00    -0.167 F 
ATOM     24  F   UNL A   1      33.186  25.200  25.510  1.00  0.00    -0.167 F 
ENDBRANCH  20  21
ENDBRANCH   7   9
ENDBRANCH   6   7
ENDBRANCH   5   6
ENDBRANCH   4   5
ENDBRANCH   3   4
ENDBRANCH   2   3
ENDBRANCH   1   2
BRANCH   1  25
ATOM     25  O   UNL A   1      33.691  29.347  25.846  1.00  0.00    -0.376 OA
BRANCH  25  26
ATOM     26  C   UNL A   1      34.619  29.222  26.911  1.00  0.00     0.202 C 
BRANCH  26  27
ATOM     27  C   UNL A   1      35.065  30.418  27.775  1.00  0.00     0.261 C 
BRANCH  27  28
ATOM     28  O   UNL A   1      36.454  30.533  28.097  1.00  0.00    -0.460 OA
BRANCH  28  29
ATOM     29  C   UNL A   1      36.908  29.810  29.147  1.00  0.00     0.338 C 
ATOM     30  O   UNL A   1      36.272  29.457  30.123  1.00  0.00    -0.246 OA
BRANCH  29  31
ATOM     31  C   UNL A   1      38.279  29.361  28.818  1.00  0.00     0.060 A 
ATOM     32  C   UNL A   1      39.097  28.867  29.841  1.00  0.00     0.016 A 
ATOM     33  C   UNL A   1      38.748  29.425  27.503  1.00  0.00     0.016 A 
ATOM     34  C   UNL A   1      40.402  28.459  29.555  1.00  0.00     0.010 A 
ATOM     35  C   UNL A   1      40.061  29.038  27.222  1.00  0.00     0.010 A 
ATOM     36  C   UNL A   1      40.903  28.579  28.250  1.00  0.00    -0.014 A 
BRANCH  36  37
ATOM     37  C   UNL A   1      42.349  28.397  27.981  1.00  0.00     0.031 A 
ATOM     38  C   UNL A   1      43.276  29.551  28.243  1.00  0.00     0.074 A 
ATOM     39  C   UNL A   1      42.831  27.235  27.504  1.00  0.00     0.049 A 
ATOM     40  N   UNL A   1      44.553  29.664  27.989  1.00  0.00    -0.248 NA
ATOM     41  C   UNL A   1      42.681  30.739  28.880  1.00  0.00     0.031 C 
ATOM     42  C   UNL A   1      42.048  26.023  27.271  1.00  0.00     0.029 A 
ATOM     43  N   UNL A   1      44.105  26.893  27.124  1.00  0.00    -0.354 N 
ATOM     44  C   UNL A   1      44.916  30.929  28.434  1.00  0.00     0.074 A 
ATOM     45  C   UNL A   1      43.721  31.557  28.953  1.00  0.00     0.031 C 
ATOM     46  C   UNL A   1      42.859  25.071  26.776  1.00  0.00     0.029 A 
ATOM     47  C   UNL A   1      44.206  25.619  26.620  1.00  0.00     0.049 A 
ATOM     48  H   UNL A   1      44.874  27.503  27.205  1.00  0.00     0.167 HD
ATOM     49  C   UNL A   1      46.135  31.518  28.412  1.00  0.00     0.031 A 
ATOM     50  C   UNL A   1      45.259  24.980  26.071  1.00  0.00     0.031 A 
ATOM     51  C   UNL A   1      47.315  30.908  27.861  1.00  0.00     0.049 A 
ATOM     52  C   UNL A   1      46.583  25.691  25.962  1.00  0.00     0.074 A 
ATOM     53  C   UNL A   1      48.591  31.435  27.760  1.00  0.00     0.029 A 
ATOM     54  N   UNL A   1      47.365  29.633  27.316  1.00  0.00    -0.354 N 
ATOM     55  N   UNL A   1      46.903  26.901  26.355  1.00  0.00    -0.248 NA
ATOM     56  C   UNL A   1      47.687  24.947  25.339  1.00  0.00     0.031 C 
ATOM     57  C   UNL A   1      49.402  30.497  27.113  1.00  0.00     0.029 A 
ATOM     58  C   UNL A   1      48.646  29.362  26.866  1.00  0.00     0.049 A 
ATOM     59  H   UNL A   1      46.603  29.014  27.258  1.00  0.00     0.167 HD
ATOM     60  C   UNL A   1      48.255  27.051  26.056  1.00  0.00     0.074 A 
ATOM     61  C   UNL A   1      48.691  25.807  25.456  1.00  0.00     0.031 C 
ATOM     62  C   UNL A   1      49.064  28.120  26.268  1.00  0.00     0.031 A 
BRANCH  49  63
ATOM     63  C   UNL A   1      46.242  32.910  28.971  1.00  0.00    -0.014 A 
ATOM     64  C   UNL A   1      46.571  33.125  30.321  1.00  0.00     0.010 A 
ATOM     65  C   UNL A   1      46.051  34.019  28.126  1.00  0.00     0.010 A 
ATOM     66  C   UNL A   1      46.682  34.425  30.822  1.00  0.00     0.020 A 
ATOM     67  C   UNL A   1      46.185  35.319  28.618  1.00  0.00     0.020 A 
ATOM     68  C   UNL A   1      46.488  35.515  29.967  1.00  0.00     0.054 A 
BRANCH  68  69
ATOM     69  S   UNL A   1      46.672  37.189  30.639  1.00  0.00     0.124 S 
ATOM     70  O   UNL A   1      46.137  37.033  31.989  1.00  0.00    -0.237 OA
ATOM     71  O   UNL A   1      48.114  37.409  30.556  1.00  0.00    -0.237 OA
ATOM     72  O   UNL A   1      45.865  38.014  29.741  1.00  0.00    -0.744 OA
ENDBRANCH  68  69
ENDBRANCH  49  63
BRANCH  50  73
ATOM     73  C   UNL A   1      45.103  23.586  25.569  1.00  0.00    -0.014 A 
ATOM     74  C   UNL A   1      44.549  23.342  24.300  1.00  0.00     0.010 A 
ATOM     75  C   UNL A   1      45.518  22.495  26.355  1.00  0.00     0.010 A 
ATOM     76  C   UNL A   1      44.406  22.034  23.830  1.00  0.00     0.020 A 
ATOM     77  C   UNL A   1      45.399  21.187  25.878  1.00  0.00     0.020 A 
ATOM     78  C   UNL A   1      44.837  20.964  24.620  1.00  0.00     0.054 A 
BRANCH  78  79
ATOM     79  S   UNL A   1      44.700  19.280  23.959  1.00  0.00     0.124 S 
ATOM     80  O   UNL A   1      44.585  19.523  22.525  1.00  0.00    -0.237 OA
ATOM     81  O   UNL A   1      45.950  18.666  24.401  1.00  0.00    -0.237 OA
ATOM     82  O   UNL A   1      43.496  18.756  24.603  1.00  0.00    -0.744 OA
ENDBRANCH  78  79
ENDBRANCH  50  73
BRANCH  62  83
ATOM     83  C   UNL A   1      50.517  27.977  25.895  1.00  0.00    -0.014 A 
ATOM     84  C   UNL A   1      51.475  27.536  26.825  1.00  0.00     0.010 A 
ATOM     85  C   UNL A   1      50.918  28.248  24.573  1.00  0.00     0.010 A 
ATOM     86  C   UNL A   1      52.816  27.409  26.449  1.00  0.00     0.020 A 
ATOM     87  C   UNL A   1      52.252  28.096  24.187  1.00  0.00     0.020 A 
ATOM     88  C   UNL A   1      53.196  27.694  25.134  1.00  0.00     0.054 A 
BRANCH  88  89
ATOM     89  S   UNL A   1      54.938  27.501  24.666  1.00  0.00     0.124 S 
ATOM     90  O   UNL A   1      55.532  27.012  25.908  1.00  0.00    -0.237 OA
ATOM     91  O   UNL A   1      54.873  26.531  23.576  1.00  0.00    -0.237 OA
ATOM     92  O   UNL A   1      55.343  28.848  24.270  1.00  0.00    -0.744 OA
ENDBRANCH  88  89
ENDBRANCH  62  83
ENDBRANCH  36  37
ENDBRANCH  29  31
ENDBRANCH  28  29
ENDBRANCH  27  28
ENDBRANCH  26  27
ENDBRANCH  25  26
ENDBRANCH   1  25
TORSDOF 21
ENDMDL
MODEL 2
REMARK VINA RESULT:     -10.0      6.196     11.173
REMARK SMILES Cc1cc(Br)cc2c1O[C@H](C(F)(F)F)C(C(=O)OCCOCCOCCOC(=O)c1ccc(-c3c4nc(c(-c5ccc(S(=O)(=O)[O-])cc5)c5ccc([nH]5)c(-c5ccc(S(=O)(=O)[O-])cc5)c5nc(c(-c6ccc(S(=O)(=O)[O-])cc6)c6ccc3[nH]6)C=C5)C=C4)cc1)=C2
REMARK SMILES IDX 23 1 22 2 21 3 20 4 19 5 18 6 16 7 17 8 15 9 1 10 2 11 3 12
REMARK SMILES IDX 8 13 4 14 7 15 9 16 5 17 6 18 90 19 10 20 11 21 12 22 13 23
REMARK SMILES IDX 14 24 24 25 25 26 26 27 27 28 28 29 29 30 30 31 31 32 89 33
REMARK SMILES IDX 32 34 88 35 33 36 34 37 35 38 82 39 36 40 87 41 81 42 83 43
REMARK SMILES IDX 37 44 86 45 80 46 79 47 38 49 68 50 49 51 67 52 50 53 53 54
REMARK SMILES IDX 66 55 84 56 51 57 52 58 65 60 85 61 54 62 39 63 40 64 48 65
REMARK SMILES IDX 41 66 47 67 42 68 43 69 44 70 45 71 46 72 69 73 70 74 78 75
REMARK SMILES IDX 71 76 77 77 72 78 73 79 74 80 75 81 76 82 55 83 56 84 64 85
REMARK SMILES IDX 57 86 63 87 58 88 59 89 60 90 61 91 62 92
REMARK H PARENT 83 48 53 59
REMARK Flexibility Score: inf
ROOT
ATOM      1  C   UNL A   1      31.841  29.196  26.334  1.00  0.00     0.188 C 
ENDROOT
BRANCH   1   2
ATOM      2  C   UNL A   1      32.005  27.662  26.378  1.00  0.00     0.188 C 
BRANCH   2   3
ATOM      3  O   UNL A   1      30.973  26.860  26.947  1.00  0.00    -0.376 OA
BRANCH   3   4
ATOM      4  C   UNL A   1      30.250  25.947  26.132  1.00  0.00     0.202 C 
BRANCH   4   5
ATOM      5  C   UNL A   1      30.649  24.466  26.136  1.00  0.00     0.261 C 
BRANCH   5   6
ATOM      6  O   UNL A   1      30.649  23.858  24.833  1.00  0.00    -0.460 OA
BRANCH   6   7
ATOM      7  C   UNL A   1      31.692  24.190  24.038  1.00  0.00     0.338 C 
ATOM      8  O   UNL A   1      31.823  25.218  23.394  1.00  0.00    -0.246 OA
BRANCH   7   9
ATOM      9  C   UNL A   1      32.744  23.160  24.137  1.00  0.00     0.087 C 
ATOM     10  C   UNL A   1      37.048  20.537  25.063  1.00  0.00     0.048 C 
ATOM     11  C   UNL A   1      35.621  20.185  24.752  1.00  0.00    -0.007 A 
ATOM     12  C   UNL A   1      35.210  18.844  24.799  1.00  0.00     0.023 A 
ATOM     13  C   UNL A   1      34.668  21.185  24.485  1.00  0.00     0.130 A 
ATOM     14  C   UNL A   1      33.879  18.509  24.563  1.00  0.00     0.019 A 
ATOM     15  C   UNL A   1      33.325  20.843  24.286  1.00  0.00     0.019 A 
ATOM     16  O   UNL A   1      35.123  22.473  24.448  1.00  0.00    -0.475 OA
ATOM     17  Br  UNL A   1      33.344  16.697  24.630  1.00  0.00    -0.051 Br
ATOM     18  C   UNL A   1      32.934  19.500  24.307  1.00  0.00     0.027 A 
ATOM     19  C   UNL A   1      32.328  21.887  24.123  1.00  0.00     0.027 C 
ATOM     20  C   UNL A   1      34.183  23.567  24.256  1.00  0.00     0.316 C 
BRANCH  20  21
ATOM     21  C   UNL A   1      34.419  24.590  25.377  1.00  0.00     0.430 C 
ATOM     22  F   UNL A   1      35.693  24.523  25.839  1.00  0.00    -0.167 F 
ATOM     23  F   UNL A   1      34.236  25.862  24.951  1.00  0.00    -0.167 F 
ATOM     24  F   UNL A   1      33.598  24.391  26.431  1.00  0.00    -0.167 F 
ENDBRANCH  20  21
ENDBRANCH   7   9
ENDBRANCH   6   7
ENDBRANCH   5   6
ENDBRANCH   4   5
ENDBRANCH   3   4
ENDBRANCH   2   3
ENDBRANCH   1   2
BRANCH   1  25
ATOM     25  O   UNL A   1      33.061  29.897  26.256  1.00  0.00    -0.376 OA
BRANCH  25  26
ATOM     26  C   UNL A   1      33.383  30.839  27.265  1.00  0.00     0.202 C 
BRANCH  26  27
ATOM     27  C   UNL A   1      32.751  32.244  27.328  1.00  0.00     0.261 C 
BRANCH  27  28
ATOM     28  O   UNL A   1      33.627  33.371  27.428  1.00  0.00    -0.460 OA
BRANCH  28  29
ATOM     29  C   UNL A   1      33.495  34.163  28.516  1.00  0.00     0.338 C 
ATOM     30  O   UNL A   1      32.552  34.883  28.789  1.00  0.00    -0.246 OA
BRANCH  29  31
ATOM     31  C   UNL A   1      34.626  33.865  29.422  1.00  0.00     0.060 A 
ATOM     32  C   UNL A   1      35.920  34.242  29.041  1.00  0.00     0.016 A 
ATOM     33  C   UNL A   1      34.404  33.222  30.643  1.00  0.00     0.016 A 
ATOM     34  C   UNL A   1      37.004  33.950  29.873  1.00  0.00     0.010 A 
ATOM     35  C   UNL A   1      35.493  32.912  31.463  1.00  0.00     0.010 A 
ATOM     36  C   UNL A   1      36.799  33.249  31.070  1.00  0.00    -0.014 A 
BRANCH  36  37
ATOM     37  C   UNL A   1      37.951  32.710  31.831  1.00  0.00     0.031 A 
ATOM     38  C   UNL A   1      38.701  31.538  31.258  1.00  0.00     0.074 A 
ATOM     39  C   UNL A   1      38.321  33.240  33.011  1.00  0.00     0.049 A 
ATOM     40  N   UNL A   1      39.668  30.835  31.786  1.00  0.00    -0.248 NA
ATOM     41  C   UNL A   1      38.306  31.104  29.907  1.00  0.00     0.031 C 
ATOM     42  C   UNL A   1      37.719  34.414  33.640  1.00  0.00     0.029 A 
ATOM     43  N   UNL A   1      39.296  32.846  33.893  1.00  0.00    -0.354 N 
ATOM     44  C   UNL A   1      40.000  29.877  30.834  1.00  0.00     0.074 A 
ATOM     45  C   UNL A   1      39.115  30.074  29.707  1.00  0.00     0.031 C 
ATOM     46  C   UNL A   1      38.332  34.639  34.815  1.00  0.00     0.029 A 
ATOM     47  C   UNL A   1      39.340  33.603  35.039  1.00  0.00     0.049 A 
ATOM     48  H   UNL A   1      39.906  32.092  33.722  1.00  0.00     0.167 HD
ATOM     49  C   UNL A   1      40.953  28.919  30.894  1.00  0.00     0.031 A 
ATOM     50  C   UNL A   1      40.089  33.458  36.151  1.00  0.00     0.031 A 
ATOM     51  C   UNL A   1      41.807  28.700  32.031  1.00  0.00     0.049 A 
ATOM     52  C   UNL A   1      41.073  32.321  36.238  1.00  0.00     0.074 A 
ATOM     53  C   UNL A   1      42.782  27.733  32.202  1.00  0.00     0.029 A 
ATOM     54  N   UNL A   1      41.788  29.459  33.192  1.00  0.00    -0.354 N 
ATOM     55  N   UNL A   1      41.352  31.401  35.345  1.00  0.00    -0.248 NA
ATOM     56  C   UNL A   1      41.847  32.207  37.482  1.00  0.00     0.031 C 
ATOM     57  C   UNL A   1      43.321  27.878  33.485  1.00  0.00     0.029 A 
ATOM     58  C   UNL A   1      42.725  28.974  34.088  1.00  0.00     0.049 A 
ATOM     59  H   UNL A   1      41.195  30.228  33.353  1.00  0.00     0.167 HD
ATOM     60  C   UNL A   1      42.357  30.619  35.908  1.00  0.00     0.074 A 
ATOM     61  C   UNL A   1      42.640  31.177  37.213  1.00  0.00     0.031 C 
ATOM     62  C   UNL A   1      42.993  29.539  35.386  1.00  0.00     0.031 A 
BRANCH  49  63
ATOM     63  C   UNL A   1      41.097  28.011  29.704  1.00  0.00    -0.014 A 
ATOM     64  C   UNL A   1      42.181  28.144  28.817  1.00  0.00     0.010 A 
ATOM     65  C   UNL A   1      40.160  26.984  29.491  1.00  0.00     0.010 A 
ATOM     66  C   UNL A   1      42.310  27.283  27.725  1.00  0.00     0.020 A 
ATOM     67  C   UNL A   1      40.298  26.105  28.414  1.00  0.00     0.020 A 
ATOM     68  C   UNL A   1      41.367  26.268  27.529  1.00  0.00     0.054 A 
BRANCH  68  69
ATOM     69  S   UNL A   1      41.580  25.145  26.121  1.00  0.00     0.124 S 
ATOM     70  O   UNL A   1      41.567  26.071  24.992  1.00  0.00    -0.237 OA
ATOM     71  O   UNL A   1      42.868  24.518  26.406  1.00  0.00    -0.237 OA
ATOM     72  O   UNL A   1      40.423  24.255  26.210  1.00  0.00    -0.744 OA
ENDBRANCH  68  69
ENDBRANCH  49  63
BRANCH  50  73
ATOM     73  C   UNL A   1      39.929  34.412  37.284  1.00  0.00    -0.014 A 
ATOM     74  C   UNL A   1      40.621  35.636  37.290  1.00  0.00     0.010 A 
ATOM     75  C   UNL A   1      39.076  34.104  38.360  1.00  0.00     0.010 A 
ATOM     76  C   UNL A   1      40.468  36.530  38.353  1.00  0.00     0.020 A 
ATOM     77  C   UNL A   1      38.902  35.006  39.412  1.00  0.00     0.020 A 
ATOM     78  C   UNL A   1      39.605  36.212  39.406  1.00  0.00     0.054 A 
BRANCH  78  79
ATOM     79  S   UNL A   1      39.374  37.419  40.741  1.00  0.00     0.124 S 
ATOM     80  O   UNL A   1      38.799  36.596  41.800  1.00  0.00    -0.237 OA
ATOM     81  O   UNL A   1      40.737  37.892  40.976  1.00  0.00    -0.237 OA
ATOM     82  O   UNL A   1      38.471  38.408  40.156  1.00  0.00    -0.744 OA
ENDBRANCH  78  79
ENDBRANCH  50  73
BRANCH  62  83
ATOM     83  C   UNL A   1      44.095  28.919  36.204  1.00  0.00    -0.014 A 
ATOM     84  C   UNL A   1      43.905  27.711  36.898  1.00  0.00     0.010 A 
ATOM     85  C   UNL A   1      45.359  29.539  36.240  1.00  0.00     0.010 A 
ATOM     86  C   UNL A   1      44.948  27.156  37.647  1.00  0.00     0.020 A 
ATOM     87  C   UNL A   1      46.411  28.973  36.964  1.00  0.00     0.020 A 
ATOM     88  C   UNL A   1      46.192  27.793  37.679  1.00  0.00     0.054 A 
BRANCH  88  89
ATOM     89  S   UNL A   1      47.534  27.042  38.640  1.00  0.00     0.124 S 
ATOM     90  O   UNL A   1      48.082  28.196  39.349  1.00  0.00    -0.237 OA
ATOM     91  O   UNL A   1      46.830  26.070  39.472  1.00  0.00    -0.237 OA
ATOM     92  O   UNL A   1      48.410  26.463  37.623  1.00  0.00    -0.744 OA
ENDBRANCH  88  89
ENDBRANCH  62  83
ENDBRANCH  36  37
ENDBRANCH  29  31
ENDBRANCH  28  29
ENDBRANCH  27  28
ENDBRANCH  26  27
ENDBRANCH  25  26
ENDBRANCH   1  25
TORSDOF 21
ENDMDL
MODEL 3
REMARK VINA RESULT:     -10.0      1.532      2.086
REMARK SMILES Cc1cc(Br)cc2c1O[C@H](C(F)(F)F)C(C(=O)OCCOCCOCCOC(=O)c1ccc(-c3c4nc(c(-c5ccc(S(=O)(=O)[O-])cc5)c5ccc([nH]5)c(-c5ccc(S(=O)(=O)[O-])cc5)c5nc(c(-c6ccc(S(=O)(=O)[O-])cc6)c6ccc3[nH]6)C=C5)C=C4)cc1)=C2
REMARK SMILES IDX 23 1 22 2 21 3 20 4 19 5 18 6 16 7 17 8 15 9 1 10 2 11 3 12
REMARK SMILES IDX 8 13 4 14 7 15 9 16 5 17 6 18 90 19 10 20 11 21 12 22 13 23
REMARK SMILES IDX 14 24 24 25 25 26 26 27 27 28 28 29 29 30 30 31 31 32 89 33
REMARK SMILES IDX 32 34 88 35 33 36 34 37 35 38 82 39 36 40 87 41 81 42 83 43
REMARK SMILES IDX 37 44 86 45 80 46 79 47 38 49 68 50 49 51 67 52 50 53 53 54
REMARK SMILES IDX 66 55 84 56 51 57 52 58 65 60 85 61 54 62 39 63 40 64 48 65
REMARK SMILES IDX 41 66 47 67 42 68 43 69 44 70 45 71 46 72 69 73 70 74 78 75
REMARK SMILES IDX 71 76 77 77 72 78 73 79 74 80 75 81 76 82 55 83 56 84 64 85
REMARK SMILES IDX 57 86 63 87 58 88 59 89 60 90 61 91 62 92
REMARK H PARENT 83 48 53 59
REMARK Flexibility Score: inf
ROOT
ATOM      1  C   UNL A   1      32.395  29.082  26.191  1.00  0.00     0.188 C 
ENDROOT
BRANCH   1   2
ATOM      2  C   UNL A   1      31.841  27.811  25.512  1.00  0.00     0.188 C 
BRANCH   2   3
ATOM      3  O   UNL A   1      30.618  27.878  24.783  1.00  0.00    -0.376 OA
BRANCH   3   4
ATOM      4  C   UNL A   1      29.877  26.692  24.525  1.00  0.00     0.202 C 
BRANCH   4   5
ATOM      5  C   UNL A   1      30.327  25.376  25.170  1.00  0.00     0.261 C 
BRANCH   5   6
ATOM      6  O   UNL A   1      30.582  24.320  24.228  1.00  0.00    -0.460 OA
BRANCH   6   7
ATOM      7  C   UNL A   1      31.694  24.472  23.473  1.00  0.00     0.338 C 
ATOM      8  O   UNL A   1      31.850  25.254  22.549  1.00  0.00    -0.246 OA
BRANCH   7   9
ATOM      9  C   UNL A   1      32.775  23.616  23.997  1.00  0.00     0.087 C 
ATOM     10  C   UNL A   1      36.019  19.776  24.997  1.00  0.00     0.048 C 
ATOM     11  C   UNL A   1      36.022  21.266  25.194  1.00  0.00    -0.007 A 
ATOM     12  C   UNL A   1      37.182  21.901  25.664  1.00  0.00     0.023 A 
ATOM     13  C   UNL A   1      34.906  22.047  24.848  1.00  0.00     0.130 A 
ATOM     14  C   UNL A   1      37.216  23.286  25.802  1.00  0.00     0.019 A 
ATOM     15  C   UNL A   1      34.961  23.442  24.956  1.00  0.00     0.019 A 
ATOM     16  O   UNL A   1      33.802  21.377  24.399  1.00  0.00    -0.475 OA
ATOM     17  Br  UNL A   1      38.788  24.125  26.437  1.00  0.00    -0.051 Br
ATOM     18  C   UNL A   1      36.113  24.061  25.452  1.00  0.00     0.027 A 
ATOM     19  C   UNL A   1      33.846  24.249  24.491  1.00  0.00     0.027 C 
ATOM     20  C   UNL A   1      32.636  22.122  23.949  1.00  0.00     0.316 C 
BRANCH  20  21
ATOM     21  C   UNL A   1      32.264  21.607  22.551  1.00  0.00     0.430 C 
ATOM     22  F   UNL A   1      32.553  20.287  22.423  1.00  0.00    -0.167 F 
ATOM     23  F   UNL A   1      30.939  21.731  22.300  1.00  0.00    -0.167 F 
ATOM     24  F   UNL A   1      32.926  22.260  21.571  1.00  0.00    -0.167 F 
ENDBRANCH  20  21
ENDBRANCH   7   9
ENDBRANCH   6   7
ENDBRANCH   5   6
ENDBRANCH   4   5
ENDBRANCH   3   4
ENDBRANCH   2   3
ENDBRANCH   1   2
BRANCH   1  25
ATOM     25  O   UNL A   1      33.734  29.368  25.855  1.00  0.00    -0.376 OA
BRANCH  25  26
ATOM     26  C   UNL A   1      34.735  29.254  26.852  1.00  0.00     0.202 C 
BRANCH  26  27
ATOM     27  C   UNL A   1      35.107  30.411  27.800  1.00  0.00     0.261 C 
BRANCH  27  28
ATOM     28  O   UNL A   1      36.476  30.543  28.195  1.00  0.00    -0.460 OA
BRANCH  28  29
ATOM     29  C   UNL A   1      36.907  29.755  29.205  1.00  0.00     0.338 C 
ATOM     30  O   UNL A   1      36.255  29.352  30.151  1.00  0.00    -0.246 OA
BRANCH  29  31
ATOM     31  C   UNL A   1      38.278  29.312  28.868  1.00  0.00     0.060 A 
ATOM     32  C   UNL A   1      39.103  28.816  29.886  1.00  0.00     0.016 A 
ATOM     33  C   UNL A   1      38.741  29.383  27.551  1.00  0.00     0.016 A 
ATOM     34  C   UNL A   1      40.408  28.413  29.592  1.00  0.00     0.010 A 
ATOM     35  C   UNL A   1      40.054  29.001  27.264  1.00  0.00     0.010 A 
ATOM     36  C   UNL A   1      40.902  28.540  28.286  1.00  0.00    -0.014 A 
BRANCH  36  37
ATOM     37  C   UNL A   1      42.347  28.364  28.010  1.00  0.00     0.031 A 
ATOM     38  C   UNL A   1      43.274  29.517  28.280  1.00  0.00     0.074 A 
ATOM     39  C   UNL A   1      42.830  27.207  27.520  1.00  0.00     0.049 A 
ATOM     40  N   UNL A   1      44.549  29.634  28.022  1.00  0.00    -0.248 NA
ATOM     41  C   UNL A   1      42.678  30.697  28.931  1.00  0.00     0.031 C 
ATOM     42  C   UNL A   1      42.049  25.996  27.277  1.00  0.00     0.029 A 
ATOM     43  N   UNL A   1      44.104  26.872  27.132  1.00  0.00    -0.354 N 
ATOM     44  C   UNL A   1      44.912  30.896  28.478  1.00  0.00     0.074 A 
ATOM     45  C   UNL A   1      43.717  31.516  29.008  1.00  0.00     0.031 C 
ATOM     46  C   UNL A   1      42.860  25.051  26.769  1.00  0.00     0.029 A 
ATOM     47  C   UNL A   1      44.205  25.602  26.614  1.00  0.00     0.049 A 
ATOM     48  H   UNL A   1      44.871  27.482  27.215  1.00  0.00     0.167 HD
ATOM     49  C   UNL A   1      46.129  31.488  28.457  1.00  0.00     0.031 A 
ATOM     50  C   UNL A   1      45.257  24.971  26.055  1.00  0.00     0.031 A 
ATOM     51  C   UNL A   1      47.309  30.885  27.896  1.00  0.00     0.049 A 
ATOM     52  C   UNL A   1      46.579  25.686  25.948  1.00  0.00     0.074 A 
ATOM     53  C   UNL A   1      48.583  31.416  27.796  1.00  0.00     0.029 A 
ATOM     54  N   UNL A   1      47.359  29.616  27.338  1.00  0.00    -0.354 N 
ATOM     55  N   UNL A   1      46.899  26.893  26.353  1.00  0.00    -0.248 NA
ATOM     56  C   UNL A   1      47.682  24.951  25.314  1.00  0.00     0.031 C 
ATOM     57  C   UNL A   1      49.393  30.486  27.136  1.00  0.00     0.029 A 
ATOM     58  C   UNL A   1      48.639  29.351  26.882  1.00  0.00     0.049 A 
ATOM     59  H   UNL A   1      46.598  28.996  27.277  1.00  0.00     0.167 HD
ATOM     60  C   UNL A   1      48.250  27.048  26.050  1.00  0.00     0.074 A 
ATOM     61  C   UNL A   1      48.685  25.811  25.436  1.00  0.00     0.031 C 
ATOM     62  C   UNL A   1      49.057  28.116  26.270  1.00  0.00     0.031 A 
BRANCH  49  63
ATOM     63  C   UNL A   1      46.235  32.874  29.030  1.00  0.00    -0.014 A 
ATOM     64  C   UNL A   1      46.567  33.076  30.381  1.00  0.00     0.010 A 
ATOM     65  C   UNL A   1      46.041  33.991  28.196  1.00  0.00     0.010 A 
ATOM     66  C   UNL A   1      46.678  34.371  30.895  1.00  0.00     0.020 A 
ATOM     67  C   UNL A   1      46.175  35.287  28.700  1.00  0.00     0.020 A 
ATOM     68  C   UNL A   1      46.481  35.469  30.051  1.00  0.00     0.054 A 
BRANCH  68  69
ATOM     69  S   UNL A   1      46.664  37.137  30.739  1.00  0.00     0.124 S 
ATOM     70  O   UNL A   1      47.008  37.917  29.553  1.00  0.00    -0.237 OA
ATOM     71  O   UNL A   1      45.340  37.398  31.299  1.00  0.00    -0.237 OA
ATOM     72  O   UNL A   1      47.737  36.992  31.721  1.00  0.00    -0.744 OA
ENDBRANCH  68  69
ENDBRANCH  49  63
BRANCH  50  73
ATOM     73  C   UNL A   1      45.102  23.582  25.540  1.00  0.00    -0.014 A 
ATOM     74  C   UNL A   1      44.680  23.354  24.218  1.00  0.00     0.010 A 
ATOM     75  C   UNL A   1      45.385  22.480  26.367  1.00  0.00     0.010 A 
ATOM     76  C   UNL A   1      44.538  22.050  23.736  1.00  0.00     0.020 A 
ATOM     77  C   UNL A   1      45.267  21.175  25.881  1.00  0.00     0.020 A 
ATOM     78  C   UNL A   1      44.837  20.968  24.569  1.00  0.00     0.054 A 
BRANCH  78  79
ATOM     79  S   UNL A   1      44.707  19.287  23.898  1.00  0.00     0.124 S 
ATOM     80  O   UNL A   1      43.547  18.763  24.611  1.00  0.00    -0.237 OA
ATOM     81  O   UNL A   1      44.517  19.532  22.471  1.00  0.00    -0.237 OA
ATOM     82  O   UNL A   1      45.988  18.677  24.253  1.00  0.00    -0.744 OA
ENDBRANCH  78  79
ENDBRANCH  50  73
BRANCH  62  83
ATOM     83  C   UNL A   1      50.508  27.980  25.890  1.00  0.00    -0.014 A 
ATOM     84  C   UNL A   1      51.459  27.469  26.790  1.00  0.00     0.010 A 
ATOM     85  C   UNL A   1      50.915  28.330  24.588  1.00  0.00     0.010 A 
ATOM     86  C   UNL A   1      52.800  27.350  26.409  1.00  0.00     0.020 A 
ATOM     87  C   UNL A   1      52.248  28.187  24.194  1.00  0.00     0.020 A 
ATOM     88  C   UNL A   1      53.186  27.714  25.115  1.00  0.00     0.054 A 
BRANCH  88  89
ATOM     89  S   UNL A   1      54.926  27.530  24.638  1.00  0.00     0.124 S 
ATOM     90  O   UNL A   1      55.040  28.483  23.536  1.00  0.00    -0.237 OA
ATOM     91  O   UNL A   1      55.636  27.896  25.860  1.00  0.00    -0.237 OA
ATOM     92  O   UNL A   1      55.036  26.123  24.258  1.00  0.00    -0.744 OA
ENDBRANCH  88  89
ENDBRANCH  62  83
ENDBRANCH  36  37
ENDBRANCH  29  31
ENDBRANCH  28  29
ENDBRANCH  27  28
ENDBRANCH  26  27
ENDBRANCH  25  26
ENDBRANCH   1  25
TORSDOF 21
ENDMDL
