MODEL 1
REMARK VINA RESULT:      -9.3      0.000      0.000
REMARK SMILES CC(C)[NH2+][C@@]1(C(=O)OCCOCCOCCOC(=O)c2ccc(-c3c4nc(c(-c5ccc(S(=O)(=O)[O-])cc5)c5ccc([nH]5)c(-c5ccc(S(=O)(=O)[O-])cc5)c5nc(c(-c6ccc(S(=O)(=O)[O-])cc6)c6ccc3[nH]6)C=C5)C=C4)cc2)CC[C@@H](Sc2cccc(Br)c2)C1
REMARK SMILES IDX 13 1 12 2 11 3 10 4 9 5 8 6 6 7 7 8 5 9 80 10 91 11 81 12
REMARK SMILES IDX 82 13 4 14 2 17 1 18 3 19 83 20 84 21 85 22 90 23 86 24
REMARK SMILES IDX 88 25 87 26 89 27 14 28 15 29 16 30 17 31 18 32 19 33 20 34
REMARK SMILES IDX 21 35 79 36 22 37 78 38 23 39 24 40 25 41 72 42 26 43 77 44
REMARK SMILES IDX 71 45 73 46 27 47 76 48 70 49 69 50 28 52 58 53 39 54 57 55
REMARK SMILES IDX 40 56 43 57 56 58 74 59 41 60 42 61 55 63 75 64 44 65 29 66
REMARK SMILES IDX 30 67 38 68 31 69 37 70 32 71 33 72 34 73 35 74 36 75 59 76
REMARK SMILES IDX 60 77 68 78 61 79 67 80 62 81 63 82 64 83 65 84 66 85 45 86
REMARK SMILES IDX 46 87 54 88 47 89 53 90 48 91 49 92 50 93 51 94 52 95
REMARK H PARENT 4 15 4 16 73 51 43 62
REMARK Flexibility Score: inf
ROOT
ATOM      1  C   UNL A   1      39.754  22.090  26.476  1.00  0.00     0.188 C 
ENDROOT
BRANCH   1   2
ATOM      2  C   UNL A   1      39.049  21.048  25.601  1.00  0.00     0.188 C 
BRANCH   2   3
ATOM      3  O   UNL A   1      37.833  21.465  24.992  1.00  0.00    -0.376 OA
BRANCH   3   4
ATOM      4  C   UNL A   1      37.359  22.769  25.333  1.00  0.00     0.202 C 
BRANCH   4   5
ATOM      5  C   UNL A   1      36.055  22.877  26.149  1.00  0.00     0.261 C 
BRANCH   5   6
ATOM      6  O   UNL A   1      35.016  21.936  25.772  1.00  0.00    -0.459 OA
BRANCH   6   7
ATOM      7  C   UNL A   1      33.907  21.935  26.567  1.00  0.00     0.368 C 
ATOM      8  O   UNL A   1      33.964  21.887  27.794  1.00  0.00    -0.245 OA
BRANCH   7   9
ATOM      9  C   UNL A   1      32.541  22.057  25.787  1.00  0.00     0.195 C 
ATOM     10  C   UNL A   1      32.837  23.026  24.622  1.00  0.00     0.082 C 
ATOM     11  C   UNL A   1      31.388  22.791  26.510  1.00  0.00     0.096 C 
ATOM     12  C   UNL A   1      32.743  24.411  25.269  1.00  0.00     0.022 C 
ATOM     13  C   UNL A   1      31.641  24.289  26.320  1.00  0.00     0.059 C 
BRANCH   9  14
ATOM     14  N   UNL A   1      32.133  20.662  25.497  1.00  0.00    -0.330 N 
ATOM     15  H   UNL A   1      32.179  20.157  26.382  1.00  0.00     0.347 HD
ATOM     16  H   UNL A   1      31.220  20.781  25.058  1.00  0.00     0.347 HD
BRANCH  14  17
ATOM     17  C   UNL A   1      32.858  19.856  24.520  1.00  0.00     0.176 C 
ATOM     18  C   UNL A   1      32.944  18.422  25.060  1.00  0.00     0.075 C 
ATOM     19  C   UNL A   1      32.154  19.798  23.168  1.00  0.00     0.075 C 
ENDBRANCH  14  17
ENDBRANCH   9  14
BRANCH  13  20
ATOM     20  S   UNL A   1      30.103  25.276  26.043  1.00  0.00    -0.122 SA
BRANCH  20  21
ATOM     21  C   UNL A   1      30.689  26.875  25.510  1.00  0.00     0.009 A 
ATOM     22  C   UNL A   1      30.496  27.278  24.184  1.00  0.00     0.015 A 
ATOM     23  C   UNL A   1      31.446  27.687  26.360  1.00  0.00     0.030 A 
ATOM     24  C   UNL A   1      30.986  28.506  23.730  1.00  0.00     0.002 A 
ATOM     25  C   UNL A   1      31.934  28.916  25.902  1.00  0.00     0.019 A 
ATOM     26  C   UNL A   1      31.697  29.335  24.596  1.00  0.00     0.016 A 
ATOM     27  Br  UNL A   1      32.917  30.035  27.070  1.00  0.00    -0.051 Br
ENDBRANCH  20  21
ENDBRANCH  13  20
ENDBRANCH   7   9
ENDBRANCH   6   7
ENDBRANCH   5   6
ENDBRANCH   4   5
ENDBRANCH   3   4
ENDBRANCH   2   3
ENDBRANCH   1   2
BRANCH   1  28
ATOM     28  O   UNL A   1      40.725  21.553  27.350  1.00  0.00    -0.376 OA
BRANCH  28  29
ATOM     29  C   UNL A   1      40.919  20.148  27.434  1.00  0.00     0.202 C 
BRANCH  29  30
ATOM     30  C   UNL A   1      42.160  19.481  26.795  1.00  0.00     0.261 C 
BRANCH  30  31
ATOM     31  O   UNL A   1      42.381  19.677  25.387  1.00  0.00    -0.460 OA
BRANCH  31  32
ATOM     32  C   UNL A   1      43.658  19.852  24.967  1.00  0.00     0.338 C 
ATOM     33  O   UNL A   1      44.288  19.098  24.242  1.00  0.00    -0.246 OA
BRANCH  32  34
ATOM     34  C   UNL A   1      44.050  21.259  25.274  1.00  0.00     0.060 A 
ATOM     35  C   UNL A   1      45.180  21.474  26.079  1.00  0.00     0.016 A 
ATOM     36  C   UNL A   1      43.392  22.351  24.699  1.00  0.00     0.016 A 
ATOM     37  C   UNL A   1      45.625  22.774  26.347  1.00  0.00     0.010 A 
ATOM     38  C   UNL A   1      43.825  23.652  24.985  1.00  0.00     0.010 A 
ATOM     39  C   UNL A   1      44.922  23.875  25.840  1.00  0.00    -0.014 A 
BRANCH  39  40
ATOM     40  C   UNL A   1      45.178  25.240  26.372  1.00  0.00     0.031 A 
ATOM     41  C   UNL A   1      46.532  25.853  26.114  1.00  0.00     0.074 A 
ATOM     42  C   UNL A   1      44.252  25.935  27.061  1.00  0.00     0.049 A 
ATOM     43  N   UNL A   1      47.027  26.987  26.534  1.00  0.00    -0.248 NA
ATOM     44  C   UNL A   1      47.450  25.074  25.265  1.00  0.00     0.031 C 
ATOM     45  C   UNL A   1      42.887  25.494  27.339  1.00  0.00     0.029 A 
ATOM     46  N   UNL A   1      44.335  27.168  27.667  1.00  0.00    -0.354 N 
ATOM     47  C   UNL A   1      48.316  27.052  26.017  1.00  0.00     0.074 A 
ATOM     48  C   UNL A   1      48.536  25.832  25.271  1.00  0.00     0.031 C 
ATOM     49  C   UNL A   1      42.265  26.435  28.074  1.00  0.00     0.029 A 
ATOM     50  C   UNL A   1      43.198  27.528  28.353  1.00  0.00     0.049 A 
ATOM     51  H   UNL A   1      45.135  27.739  27.615  1.00  0.00     0.167 HD
ATOM     52  C   UNL A   1      49.237  28.036  26.146  1.00  0.00     0.031 A 
ATOM     53  C   UNL A   1      42.948  28.598  29.137  1.00  0.00     0.031 A 
ATOM     54  C   UNL A   1      49.028  29.244  26.897  1.00  0.00     0.049 A 
ATOM     55  C   UNL A   1      44.023  29.641  29.340  1.00  0.00     0.074 A 
ATOM     56  C   UNL A   1      49.900  30.305  27.073  1.00  0.00     0.029 A 
ATOM     57  N   UNL A   1      47.875  29.551  27.602  1.00  0.00    -0.354 N 
ATOM     58  N   UNL A   1      45.229  29.698  28.825  1.00  0.00    -0.248 NA
ATOM     59  C   UNL A   1      43.699  30.771  30.226  1.00  0.00     0.031 C 
ATOM     60  C   UNL A   1      49.300  31.223  27.939  1.00  0.00     0.029 A 
ATOM     61  C   UNL A   1      48.025  30.771  28.239  1.00  0.00     0.049 A 
ATOM     62  H   UNL A   1      47.071  28.987  27.643  1.00  0.00     0.167 HD
ATOM     63  C   UNL A   1      45.788  30.885  29.295  1.00  0.00     0.074 A 
ATOM     64  C   UNL A   1      44.788  31.520  30.124  1.00  0.00     0.031 C 
ATOM     65  C   UNL A   1      47.019  31.404  29.055  1.00  0.00     0.031 A 
BRANCH  52  66
ATOM     66  C   UNL A   1      50.576  27.830  25.489  1.00  0.00    -0.014 A 
ATOM     67  C   UNL A   1      51.704  27.438  26.232  1.00  0.00     0.010 A 
ATOM     68  C   UNL A   1      50.693  27.979  24.094  1.00  0.00     0.010 A 
ATOM     69  C   UNL A   1      52.930  27.226  25.597  1.00  0.00     0.020 A 
ATOM     70  C   UNL A   1      51.909  27.739  23.451  1.00  0.00     0.020 A 
ATOM     71  C   UNL A   1      53.024  27.376  24.209  1.00  0.00     0.054 A 
BRANCH  71  72
ATOM     72  S   UNL A   1      54.618  27.053  23.407  1.00  0.00     0.124 S 
ATOM     73  O   UNL A   1      54.203  26.666  22.059  1.00  0.00    -0.237 OA
ATOM     74  O   UNL A   1      55.293  28.344  23.508  1.00  0.00    -0.237 OA
ATOM     75  O   UNL A   1      55.201  25.981  24.209  1.00  0.00    -0.744 OA
ENDBRANCH  71  72
ENDBRANCH  52  66
BRANCH  53  76
ATOM     76  C   UNL A   1      41.633  28.737  29.828  1.00  0.00    -0.014 A 
ATOM     77  C   UNL A   1      40.588  29.479  29.250  1.00  0.00     0.010 A 
ATOM     78  C   UNL A   1      41.433  28.156  31.096  1.00  0.00     0.010 A 
ATOM     79  C   UNL A   1      39.380  29.661  29.934  1.00  0.00     0.020 A 
ATOM     80  C   UNL A   1      40.216  28.308  31.768  1.00  0.00     0.020 A 
ATOM     81  C   UNL A   1      39.202  29.072  31.189  1.00  0.00     0.054 A 
BRANCH  81  82
ATOM     82  S   UNL A   1      37.616  29.294  32.043  1.00  0.00     0.124 S 
ATOM     83  O   UNL A   1      37.622  28.183  32.989  1.00  0.00    -0.237 OA
ATOM     84  O   UNL A   1      37.759  30.625  32.628  1.00  0.00    -0.237 OA
ATOM     85  O   UNL A   1      36.631  29.195  30.968  1.00  0.00    -0.744 OA
ENDBRANCH  81  82
ENDBRANCH  53  76
BRANCH  65  86
ATOM     86  C   UNL A   1      47.346  32.751  29.648  1.00  0.00    -0.014 A 
ATOM     87  C   UNL A   1      47.028  33.948  28.983  1.00  0.00     0.010 A 
ATOM     88  C   UNL A   1      47.922  32.817  30.932  1.00  0.00     0.010 A 
ATOM     89  C   UNL A   1      47.309  35.184  29.576  1.00  0.00     0.020 A 
ATOM     90  C   UNL A   1      48.174  34.050  31.541  1.00  0.00     0.020 A 
ATOM     91  C   UNL A   1      47.878  35.226  30.852  1.00  0.00     0.054 A 
BRANCH  91  92
ATOM     92  S   UNL A   1      48.190  36.841  31.619  1.00  0.00     0.124 S 
ATOM     93  O   UNL A   1      48.357  36.484  33.025  1.00  0.00    -0.237 OA
ATOM     94  O   UNL A   1      49.401  37.291  30.936  1.00  0.00    -0.237 OA
ATOM     95  O   UNL A   1      46.986  37.611  31.311  1.00  0.00    -0.744 OA
ENDBRANCH  91  92
ENDBRANCH  65  86
ENDBRANCH  39  40
ENDBRANCH  32  34
ENDBRANCH  31  32
ENDBRANCH  30  31
ENDBRANCH  29  30
ENDBRANCH  28  29
ENDBRANCH   1  28
TORSDOF 24
ENDMDL
MODEL 2
REMARK VINA RESULT:      -8.7      1.862      8.496
REMARK SMILES CC(C)[NH2+][C@@]1(C(=O)OCCOCCOCCOC(=O)c2ccc(-c3c4nc(c(-c5ccc(S(=O)(=O)[O-])cc5)c5ccc([nH]5)c(-c5ccc(S(=O)(=O)[O-])cc5)c5nc(c(-c6ccc(S(=O)(=O)[O-])cc6)c6ccc3[nH]6)C=C5)C=C4)cc2)CC[C@@H](Sc2cccc(Br)c2)C1
REMARK SMILES IDX 13 1 12 2 11 3 10 4 9 5 8 6 6 7 7 8 5 9 80 10 91 11 81 12
REMARK SMILES IDX 82 13 4 14 2 17 1 18 3 19 83 20 84 21 85 22 90 23 86 24
REMARK SMILES IDX 88 25 87 26 89 27 14 28 15 29 16 30 17 31 18 32 19 33 20 34
REMARK SMILES IDX 21 35 79 36 22 37 78 38 23 39 24 40 25 41 72 42 26 43 77 44
REMARK SMILES IDX 71 45 73 46 27 47 76 48 70 49 69 50 28 52 58 53 39 54 57 55
REMARK SMILES IDX 40 56 43 57 56 58 74 59 41 60 42 61 55 63 75 64 44 65 29 66
REMARK SMILES IDX 30 67 38 68 31 69 37 70 32 71 33 72 34 73 35 74 36 75 59 76
REMARK SMILES IDX 60 77 68 78 61 79 67 80 62 81 63 82 64 83 65 84 66 85 45 86
REMARK SMILES IDX 46 87 54 88 47 89 53 90 48 91 49 92 50 93 51 94 52 95
REMARK H PARENT 4 15 4 16 73 51 43 62
REMARK Flexibility Score: inf
ROOT
ATOM      1  C   UNL A   1      36.524  20.590  24.698  1.00  0.00     0.188 C 
ENDROOT
BRANCH   1   2
ATOM      2  C   UNL A   1      35.385  20.986  25.643  1.00  0.00     0.188 C 
BRANCH   2   3
ATOM      3  O   UNL A   1      34.110  20.428  25.351  1.00  0.00    -0.376 OA
BRANCH   3   4
ATOM      4  C   UNL A   1      32.971  21.238  25.647  1.00  0.00     0.202 C 
BRANCH   4   5
ATOM      5  C   UNL A   1      32.902  21.915  27.031  1.00  0.00     0.261 C 
BRANCH   5   6
ATOM      6  O   UNL A   1      32.895  23.367  27.004  1.00  0.00    -0.459 OA
BRANCH   6   7
ATOM      7  C   UNL A   1      31.663  23.948  26.938  1.00  0.00     0.368 C 
ATOM      8  O   UNL A   1      30.668  23.470  27.479  1.00  0.00    -0.245 OA
BRANCH   7   9
ATOM      9  C   UNL A   1      31.625  25.319  26.157  1.00  0.00     0.195 C 
ATOM     10  C   UNL A   1      30.194  25.407  25.584  1.00  0.00     0.082 C 
ATOM     11  C   UNL A   1      32.476  25.412  24.870  1.00  0.00     0.096 C 
ATOM     12  C   UNL A   1      30.254  24.540  24.323  1.00  0.00     0.022 C 
ATOM     13  C   UNL A   1      31.659  24.747  23.759  1.00  0.00     0.059 C 
BRANCH   9  14
ATOM     14  N   UNL A   1      32.091  26.334  27.132  1.00  0.00    -0.330 N 
ATOM     15  H   UNL A   1      31.391  26.367  27.872  1.00  0.00     0.347 HD
ATOM     16  H   UNL A   1      33.027  26.006  27.368  1.00  0.00     0.347 HD
BRANCH  14  17
ATOM     17  C   UNL A   1      32.327  27.715  26.721  1.00  0.00     0.176 C 
ATOM     18  C   UNL A   1      31.528  28.630  27.658  1.00  0.00     0.075 C 
ATOM     19  C   UNL A   1      33.795  28.116  26.827  1.00  0.00     0.075 C 
ENDBRANCH  14  17
ENDBRANCH   9  14
BRANCH  13  20
ATOM     20  S   UNL A   1      31.790  25.597  22.125  1.00  0.00    -0.122 SA
BRANCH  20  21
ATOM     21  C   UNL A   1      31.214  27.258  22.437  1.00  0.00     0.009 A 
ATOM     22  C   UNL A   1      32.136  28.266  22.744  1.00  0.00     0.015 A 
ATOM     23  C   UNL A   1      29.849  27.548  22.503  1.00  0.00     0.030 A 
ATOM     24  C   UNL A   1      31.707  29.562  23.039  1.00  0.00     0.002 A 
ATOM     25  C   UNL A   1      29.422  28.848  22.797  1.00  0.00     0.019 A 
ATOM     26  C   UNL A   1      30.345  29.859  23.052  1.00  0.00     0.016 A 
ATOM     27  Br  UNL A   1      27.574  29.250  22.836  1.00  0.00    -0.051 Br
ENDBRANCH  20  21
ENDBRANCH  13  20
ENDBRANCH   7   9
ENDBRANCH   6   7
ENDBRANCH   5   6
ENDBRANCH   4   5
ENDBRANCH   3   4
ENDBRANCH   2   3
ENDBRANCH   1   2
BRANCH   1  28
ATOM     28  O   UNL A   1      37.544  21.560  24.579  1.00  0.00    -0.376 OA
BRANCH  28  29
ATOM     29  C   UNL A   1      38.611  21.603  25.517  1.00  0.00     0.202 C 
BRANCH  29  30
ATOM     30  C   UNL A   1      39.306  20.302  25.984  1.00  0.00     0.261 C 
BRANCH  30  31
ATOM     31  O   UNL A   1      40.745  20.264  25.969  1.00  0.00    -0.460 OA
BRANCH  31  32
ATOM     32  C   UNL A   1      41.388  20.258  27.162  1.00  0.00     0.338 C 
ATOM     33  O   UNL A   1      41.490  19.307  27.921  1.00  0.00    -0.246 OA
BRANCH  32  34
ATOM     34  C   UNL A   1      42.209  21.501  27.244  1.00  0.00     0.060 A 
ATOM     35  C   UNL A   1      42.806  21.825  28.473  1.00  0.00     0.016 A 
ATOM     36  C   UNL A   1      42.482  22.281  26.115  1.00  0.00     0.016 A 
ATOM     37  C   UNL A   1      43.635  22.947  28.587  1.00  0.00     0.010 A 
ATOM     38  C   UNL A   1      43.295  23.416  26.236  1.00  0.00     0.010 A 
ATOM     39  C   UNL A   1      43.848  23.777  27.479  1.00  0.00    -0.014 A 
BRANCH  39  40
ATOM     40  C   UNL A   1      44.446  25.128  27.656  1.00  0.00     0.031 A 
ATOM     41  C   UNL A   1      43.575  26.211  28.241  1.00  0.00     0.074 A 
ATOM     42  C   UNL A   1      45.721  25.407  27.319  1.00  0.00     0.049 A 
ATOM     43  N   UNL A   1      43.831  27.481  28.422  1.00  0.00    -0.248 NA
ATOM     44  C   UNL A   1      42.230  25.801  28.679  1.00  0.00     0.031 C 
ATOM     45  C   UNL A   1      46.693  24.450  26.795  1.00  0.00     0.029 A 
ATOM     46  N   UNL A   1      46.411  26.596  27.359  1.00  0.00    -0.354 N 
ATOM     47  C   UNL A   1      42.679  28.023  28.978  1.00  0.00     0.074 A 
ATOM     48  C   UNL A   1      41.713  26.952  29.084  1.00  0.00     0.031 C 
ATOM     49  C   UNL A   1      47.849  25.093  26.548  1.00  0.00     0.029 A 
ATOM     50  C   UNL A   1      47.690  26.515  26.858  1.00  0.00     0.049 A 
ATOM     51  H   UNL A   1      46.024  27.430  27.713  1.00  0.00     0.167 HD
ATOM     52  C   UNL A   1      42.441  29.297  29.371  1.00  0.00     0.031 A 
ATOM     53  C   UNL A   1      48.613  27.477  26.648  1.00  0.00     0.031 A 
ATOM     54  C   UNL A   1      43.394  30.369  29.256  1.00  0.00     0.049 A 
ATOM     55  C   UNL A   1      48.293  28.909  27.011  1.00  0.00     0.074 A 
ATOM     56  C   UNL A   1      43.246  31.691  29.639  1.00  0.00     0.029 A 
ATOM     57  N   UNL A   1      44.663  30.248  28.713  1.00  0.00    -0.354 N 
ATOM     58  N   UNL A   1      47.206  29.401  27.557  1.00  0.00    -0.248 NA
ATOM     59  C   UNL A   1      49.331  29.916  26.734  1.00  0.00     0.031 C 
ATOM     60  C   UNL A   1      44.401  32.383  29.268  1.00  0.00     0.029 A 
ATOM     61  C   UNL A   1      45.298  31.478  28.723  1.00  0.00     0.049 A 
ATOM     62  H   UNL A   1      45.054  29.412  28.372  1.00  0.00     0.167 HD
ATOM     63  C   UNL A   1      47.447  30.764  27.723  1.00  0.00     0.074 A 
ATOM     64  C   UNL A   1      48.783  31.017  27.230  1.00  0.00     0.031 C 
ATOM     65  C   UNL A   1      46.634  31.719  28.242  1.00  0.00     0.031 A 
BRANCH  52  66
ATOM     66  C   UNL A   1      41.079  29.614  29.928  1.00  0.00    -0.014 A 
ATOM     67  C   UNL A   1      40.026  30.032  29.095  1.00  0.00     0.010 A 
ATOM     68  C   UNL A   1      40.835  29.437  31.303  1.00  0.00     0.010 A 
ATOM     69  C   UNL A   1      38.762  30.294  29.631  1.00  0.00     0.020 A 
ATOM     70  C   UNL A   1      39.566  29.668  31.838  1.00  0.00     0.020 A 
ATOM     71  C   UNL A   1      38.541  30.108  30.999  1.00  0.00     0.054 A 
BRANCH  71  72
ATOM     72  S   UNL A   1      36.879  30.415  31.659  1.00  0.00     0.124 S 
ATOM     73  O   UNL A   1      36.067  29.488  30.872  1.00  0.00    -0.237 OA
ATOM     74  O   UNL A   1      37.029  30.074  33.071  1.00  0.00    -0.237 OA
ATOM     75  O   UNL A   1      36.650  31.831  31.382  1.00  0.00    -0.744 OA
ENDBRANCH  71  72
ENDBRANCH  52  66
BRANCH  53  76
ATOM     76  C   UNL A   1      49.928  27.139  26.030  1.00  0.00    -0.014 A 
ATOM     77  C   UNL A   1      51.036  26.802  26.829  1.00  0.00     0.010 A 
ATOM     78  C   UNL A   1      50.091  27.193  24.633  1.00  0.00     0.010 A 
ATOM     79  C   UNL A   1      52.284  26.550  26.247  1.00  0.00     0.020 A 
ATOM     80  C   UNL A   1      51.327  26.911  24.044  1.00  0.00     0.020 A 
ATOM     81  C   UNL A   1      52.421  26.606  24.857  1.00  0.00     0.054 A 
BRANCH  81  82
ATOM     82  S   UNL A   1      54.041  26.245  24.122  1.00  0.00     0.124 S 
ATOM     83  O   UNL A   1      54.825  27.407  24.528  1.00  0.00    -0.237 OA
ATOM     84  O   UNL A   1      54.402  24.982  24.762  1.00  0.00    -0.237 OA
ATOM     85  O   UNL A   1      53.755  26.152  22.692  1.00  0.00    -0.744 OA
ENDBRANCH  81  82
ENDBRANCH  53  76
BRANCH  65  86
ATOM     86  C   UNL A   1      47.177  33.122  28.360  1.00  0.00    -0.014 A 
ATOM     87  C   UNL A   1      47.907  33.539  29.487  1.00  0.00     0.010 A 
ATOM     88  C   UNL A   1      47.010  34.017  27.286  1.00  0.00     0.010 A 
ATOM     89  C   UNL A   1      48.431  34.835  29.551  1.00  0.00     0.020 A 
ATOM     90  C   UNL A   1      47.561  35.302  27.332  1.00  0.00     0.020 A 
ATOM     91  C   UNL A   1      48.256  35.707  28.472  1.00  0.00     0.054 A 
BRANCH  91  92
ATOM     92  S   UNL A   1      48.986  37.366  28.560  1.00  0.00     0.124 S 
ATOM     93  O   UNL A   1      48.401  38.018  27.391  1.00  0.00    -0.237 OA
ATOM     94  O   UNL A   1      48.513  37.855  29.854  1.00  0.00    -0.237 OA
ATOM     95  O   UNL A   1      50.424  37.119  28.482  1.00  0.00    -0.744 OA
ENDBRANCH  91  92
ENDBRANCH  65  86
ENDBRANCH  39  40
ENDBRANCH  32  34
ENDBRANCH  31  32
ENDBRANCH  30  31
ENDBRANCH  29  30
ENDBRANCH  28  29
ENDBRANCH   1  28
TORSDOF 24
ENDMDL
MODEL 3
REMARK VINA RESULT:      -8.7      4.884      7.239
REMARK SMILES CC(C)[NH2+][C@@]1(C(=O)OCCOCCOCCOC(=O)c2ccc(-c3c4nc(c(-c5ccc(S(=O)(=O)[O-])cc5)c5ccc([nH]5)c(-c5ccc(S(=O)(=O)[O-])cc5)c5nc(c(-c6ccc(S(=O)(=O)[O-])cc6)c6ccc3[nH]6)C=C5)C=C4)cc2)CC[C@@H](Sc2cccc(Br)c2)C1
REMARK SMILES IDX 13 1 12 2 11 3 10 4 9 5 8 6 6 7 7 8 5 9 80 10 91 11 81 12
REMARK SMILES IDX 82 13 4 14 2 17 1 18 3 19 83 20 84 21 85 22 90 23 86 24
REMARK SMILES IDX 88 25 87 26 89 27 14 28 15 29 16 30 17 31 18 32 19 33 20 34
REMARK SMILES IDX 21 35 79 36 22 37 78 38 23 39 24 40 25 41 72 42 26 43 77 44
REMARK SMILES IDX 71 45 73 46 27 47 76 48 70 49 69 50 28 52 58 53 39 54 57 55
REMARK SMILES IDX 40 56 43 57 56 58 74 59 41 60 42 61 55 63 75 64 44 65 29 66
REMARK SMILES IDX 30 67 38 68 31 69 37 70 32 71 33 72 34 73 35 74 36 75 59 76
REMARK SMILES IDX 60 77 68 78 61 79 67 80 62 81 63 82 64 83 65 84 66 85 45 86
REMARK SMILES IDX 46 87 54 88 47 89 53 90 48 91 49 92 50 93 51 94 52 95
REMARK H PARENT 4 15 4 16 73 51 43 62
REMARK Flexibility Score: inf
ROOT
ATOM      1  C   UNL A   1      39.872  21.556  26.499  1.00  0.00     0.188 C 
ENDROOT
BRANCH   1   2
ATOM      2  C   UNL A   1      39.664  20.197  25.821  1.00  0.00     0.188 C 
BRANCH   2   3
ATOM      3  O   UNL A   1      38.471  20.057  25.060  1.00  0.00    -0.376 OA
BRANCH   3   4
ATOM      4  C   UNL A   1      37.523  21.122  25.150  1.00  0.00     0.202 C 
BRANCH   4   5
ATOM      5  C   UNL A   1      36.024  20.771  25.047  1.00  0.00     0.261 C 
BRANCH   5   6
ATOM      6  O   UNL A   1      35.118  21.885  25.261  1.00  0.00    -0.459 OA
BRANCH   6   7
ATOM      7  C   UNL A   1      34.156  21.686  26.208  1.00  0.00     0.368 C 
ATOM      8  O   UNL A   1      34.413  21.526  27.399  1.00  0.00    -0.245 OA
BRANCH   7   9
ATOM      9  C   UNL A   1      32.677  21.736  25.661  1.00  0.00     0.195 C 
ATOM     10  C   UNL A   1      32.773  22.524  24.336  1.00  0.00     0.082 C 
ATOM     11  C   UNL A   1      31.667  22.595  26.455  1.00  0.00     0.096 C 
ATOM     12  C   UNL A   1      32.795  23.987  24.787  1.00  0.00     0.022 C 
ATOM     13  C   UNL A   1      31.888  24.044  26.015  1.00  0.00     0.059 C 
BRANCH   9  14
ATOM     14  N   UNL A   1      32.221  20.325  25.646  1.00  0.00    -0.330 N 
ATOM     15  H   UNL A   1      32.204  20.016  26.617  1.00  0.00     0.347 HD
ATOM     16  H   UNL A   1      31.335  20.381  25.142  1.00  0.00     0.347 HD
BRANCH  14  17
ATOM     17  C   UNL A   1      32.953  19.308  24.898  1.00  0.00     0.176 C 
ATOM     18  C   UNL A   1      32.808  17.975  25.644  1.00  0.00     0.075 C 
ATOM     19  C   UNL A   1      32.407  19.109  23.488  1.00  0.00     0.075 C 
ENDBRANCH  14  17
ENDBRANCH   9  14
BRANCH  13  20
ATOM     20  S   UNL A   1      30.329  25.024  25.864  1.00  0.00    -0.122 SA
BRANCH  20  21
ATOM     21  C   UNL A   1      30.875  26.666  25.424  1.00  0.00     0.009 A 
ATOM     22  C   UNL A   1      31.702  27.379  26.299  1.00  0.00     0.015 A 
ATOM     23  C   UNL A   1      30.392  27.305  24.279  1.00  0.00     0.030 A 
ATOM     24  C   UNL A   1      32.104  28.684  26.000  1.00  0.00     0.002 A 
ATOM     25  C   UNL A   1      30.798  28.610  23.981  1.00  0.00     0.019 A 
ATOM     26  C   UNL A   1      31.662  29.298  24.830  1.00  0.00     0.016 A 
ATOM     27  Br  UNL A   1      30.184  29.455  22.403  1.00  0.00    -0.051 Br
ENDBRANCH  20  21
ENDBRANCH  13  20
ENDBRANCH   7   9
ENDBRANCH   6   7
ENDBRANCH   5   6
ENDBRANCH   4   5
ENDBRANCH   3   4
ENDBRANCH   2   3
ENDBRANCH   1   2
BRANCH   1  28
ATOM     28  O   UNL A   1      41.226  21.893  26.720  1.00  0.00    -0.376 OA
BRANCH  28  29
ATOM     29  C   UNL A   1      42.255  20.950  26.454  1.00  0.00     0.202 C 
BRANCH  29  30
ATOM     30  C   UNL A   1      43.262  21.181  25.302  1.00  0.00     0.261 C 
BRANCH  30  31
ATOM     31  O   UNL A   1      43.150  22.399  24.543  1.00  0.00    -0.460 OA
BRANCH  31  32
ATOM     32  C   UNL A   1      44.266  23.152  24.390  1.00  0.00     0.338 C 
ATOM     33  O   UNL A   1      44.977  23.193  23.398  1.00  0.00    -0.246 OA
BRANCH  32  34
ATOM     34  C   UNL A   1      44.301  24.147  25.501  1.00  0.00     0.060 A 
ATOM     35  C   UNL A   1      45.545  24.680  25.878  1.00  0.00     0.016 A 
ATOM     36  C   UNL A   1      43.132  24.634  26.093  1.00  0.00     0.016 A 
ATOM     37  C   UNL A   1      45.625  25.661  26.873  1.00  0.00     0.010 A 
ATOM     38  C   UNL A   1      43.216  25.601  27.104  1.00  0.00     0.010 A 
ATOM     39  C   UNL A   1      44.465  26.095  27.526  1.00  0.00    -0.014 A 
BRANCH  39  40
ATOM     40  C   UNL A   1      44.560  26.879  28.787  1.00  0.00     0.031 A 
ATOM     41  C   UNL A   1      44.777  26.120  30.072  1.00  0.00     0.074 A 
ATOM     42  C   UNL A   1      44.464  28.223  28.814  1.00  0.00     0.049 A 
ATOM     43  N   UNL A   1      44.815  26.559  31.303  1.00  0.00    -0.248 NA
ATOM     44  C   UNL A   1      44.975  24.666  29.946  1.00  0.00     0.031 C 
ATOM     45  C   UNL A   1      44.309  29.090  27.649  1.00  0.00     0.029 A 
ATOM     46  N   UNL A   1      44.471  29.093  29.880  1.00  0.00    -0.354 N 
ATOM     47  C   UNL A   1      45.026  25.438  32.097  1.00  0.00     0.074 A 
ATOM     48  C   UNL A   1      45.084  24.295  31.213  1.00  0.00     0.031 C 
ATOM     49  C   UNL A   1      44.220  30.368  28.064  1.00  0.00     0.029 A 
ATOM     50  C   UNL A   1      44.272  30.407  29.526  1.00  0.00     0.049 A 
ATOM     51  H   UNL A   1      44.606  28.801  30.811  1.00  0.00     0.167 HD
ATOM     52  C   UNL A   1      45.163  25.360  33.443  1.00  0.00     0.031 A 
ATOM     53  C   UNL A   1      44.121  31.509  30.292  1.00  0.00     0.031 A 
ATOM     54  C   UNL A   1      45.094  26.492  34.327  1.00  0.00     0.049 A 
ATOM     55  C   UNL A   1      44.188  31.386  31.797  1.00  0.00     0.074 A 
ATOM     56  C   UNL A   1      45.234  26.511  35.704  1.00  0.00     0.029 A 
ATOM     57  N   UNL A   1      44.858  27.798  33.929  1.00  0.00    -0.354 N 
ATOM     58  N   UNL A   1      44.411  30.321  32.531  1.00  0.00    -0.248 NA
ATOM     59  C   UNL A   1      43.991  32.618  32.577  1.00  0.00     0.031 C 
ATOM     60  C   UNL A   1      45.017  27.820  36.145  1.00  0.00     0.029 A 
ATOM     61  C   UNL A   1      44.818  28.627  35.037  1.00  0.00     0.049 A 
ATOM     62  H   UNL A   1      44.737  28.092  32.998  1.00  0.00     0.167 HD
ATOM     63  C   UNL A   1      44.417  30.764  33.853  1.00  0.00     0.074 A 
ATOM     64  C   UNL A   1      44.188  32.192  33.817  1.00  0.00     0.031 C 
ATOM     65  C   UNL A   1      44.602  30.051  34.993  1.00  0.00     0.031 A 
BRANCH  52  66
ATOM     66  C   UNL A   1      45.364  23.996  34.047  1.00  0.00    -0.014 A 
ATOM     67  C   UNL A   1      46.644  23.534  34.403  1.00  0.00     0.010 A 
ATOM     68  C   UNL A   1      44.245  23.185  34.312  1.00  0.00     0.010 A 
ATOM     69  C   UNL A   1      46.803  22.275  34.988  1.00  0.00     0.020 A 
ATOM     70  C   UNL A   1      44.397  21.939  34.924  1.00  0.00     0.020 A 
ATOM     71  C   UNL A   1      45.677  21.486  35.246  1.00  0.00     0.054 A 
BRANCH  71  72
ATOM     72  S   UNL A   1      45.911  19.875  36.044  1.00  0.00     0.124 S 
ATOM     73  O   UNL A   1      44.932  19.047  35.343  1.00  0.00    -0.237 OA
ATOM     74  O   UNL A   1      47.310  19.574  35.752  1.00  0.00    -0.237 OA
ATOM     75  O   UNL A   1      45.611  20.135  37.450  1.00  0.00    -0.744 OA
ENDBRANCH  71  72
ENDBRANCH  52  66
BRANCH  53  76
ATOM     76  C   UNL A   1      43.856  32.835  29.662  1.00  0.00    -0.014 A 
ATOM     77  C   UNL A   1      42.571  33.407  29.695  1.00  0.00     0.010 A 
ATOM     78  C   UNL A   1      44.885  33.519  28.987  1.00  0.00     0.010 A 
ATOM     79  C   UNL A   1      42.314  34.620  29.045  1.00  0.00     0.020 A 
ATOM     80  C   UNL A   1      44.641  34.746  28.364  1.00  0.00     0.020 A 
ATOM     81  C   UNL A   1      43.352  35.282  28.385  1.00  0.00     0.054 A 
BRANCH  81  82
ATOM     82  S   UNL A   1      43.003  36.869  27.576  1.00  0.00     0.124 S 
ATOM     83  O   UNL A   1      41.917  37.397  28.396  1.00  0.00    -0.237 OA
ATOM     84  O   UNL A   1      44.281  37.568  27.691  1.00  0.00    -0.237 OA
ATOM     85  O   UNL A   1      42.630  36.486  26.216  1.00  0.00    -0.744 OA
ENDBRANCH  81  82
ENDBRANCH  53  76
BRANCH  65  86
ATOM     86  C   UNL A   1      44.621  30.802  36.301  1.00  0.00    -0.014 A 
ATOM     87  C   UNL A   1      43.457  30.978  37.069  1.00  0.00     0.010 A 
ATOM     88  C   UNL A   1      45.847  31.279  36.803  1.00  0.00     0.010 A 
ATOM     89  C   UNL A   1      43.513  31.645  38.298  1.00  0.00     0.020 A 
ATOM     90  C   UNL A   1      45.913  31.917  38.045  1.00  0.00     0.020 A 
ATOM     91  C   UNL A   1      44.741  32.108  38.778  1.00  0.00     0.054 A 
BRANCH  91  92
ATOM     92  S   UNL A   1      44.795  32.928  40.396  1.00  0.00     0.124 S 
ATOM     93  O   UNL A   1      46.127  33.529  40.389  1.00  0.00    -0.237 OA
ATOM     94  O   UNL A   1      43.681  33.871  40.314  1.00  0.00    -0.237 OA
ATOM     95  O   UNL A   1      44.610  31.835  41.348  1.00  0.00    -0.744 OA
ENDBRANCH  91  92
ENDBRANCH  65  86
ENDBRANCH  39  40
ENDBRANCH  32  34
ENDBRANCH  31  32
ENDBRANCH  30  31
ENDBRANCH  29  30
ENDBRANCH  28  29
ENDBRANCH   1  28
TORSDOF 24
ENDMDL
