MODEL 1
REMARK VINA RESULT:     -11.5      0.000      0.000
REMARK SMILES COc1ccc2c(c1)c(CC(=O)OCCOCCOCCOC(=O)c1ccc(-c3c4nc(c(-c5ccc(S(=O)(=O)[O-])cc5)c5ccc([nH]5)c(-c5ccc(S(=O)(=O)[O-])cc5)c5nc(c(-c6ccc(S(=O)(=O)[O-])cc6)c6ccc3[nH]6)C=C5)C=C4)cc1)c(C)n2Cc1ccc(Br)cc1
REMARK SMILES IDX 17 1 16 2 15 3 14 4 13 5 11 6 12 7 10 8 9 9 3 10 4 11 8 12
REMARK SMILES IDX 5 13 7 14 6 15 87 16 85 17 86 18 2 19 1 20 88 21 89 22 90 23
REMARK SMILES IDX 95 24 91 25 94 26 92 27 93 28 18 29 19 30 20 31 21 32 22 33
REMARK SMILES IDX 23 34 24 35 25 36 26 37 84 38 27 39 83 40 28 41 29 42 30 43
REMARK SMILES IDX 77 44 31 45 82 46 76 47 78 48 32 49 81 50 75 51 74 52 33 54
REMARK SMILES IDX 63 55 44 56 62 57 45 58 48 59 61 60 79 61 46 62 47 63 60 65
REMARK SMILES IDX 80 66 49 67 34 68 35 69 43 70 36 71 42 72 37 73 38 74 39 75
REMARK SMILES IDX 40 76 41 77 64 78 65 79 73 80 66 81 72 82 67 83 68 84 69 85
REMARK SMILES IDX 70 86 71 87 50 88 51 89 59 90 52 91 58 92 53 93 54 94 55 95
REMARK SMILES IDX 56 96 57 97
REMARK H PARENT 78 53 48 64
REMARK Flexibility Score: inf
ROOT
ATOM      1  C   UNL A   1      35.576  23.150  25.174  1.00  0.00     0.188 C 
ENDROOT
BRANCH   1   2
ATOM      2  O   UNL A   1      34.265  22.713  25.499  1.00  0.00    -0.376 OA
BRANCH   2   3
ATOM      3  C   UNL A   1      33.779  22.969  26.813  1.00  0.00     0.202 C 
BRANCH   3   4
ATOM      4  C   UNL A   1      32.392  22.404  27.151  1.00  0.00     0.261 C 
BRANCH   4   5
ATOM      5  O   UNL A   1      31.540  23.470  27.619  1.00  0.00    -0.463 OA
BRANCH   5   6
ATOM      6  C   UNL A   1      30.254  23.454  27.185  1.00  0.00     0.310 C 
ATOM      7  O   UNL A   1      29.415  22.671  27.612  1.00  0.00    -0.252 OA
BRANCH   6   8
ATOM      8  C   UNL A   1      29.938  24.649  26.293  1.00  0.00     0.160 C 
BRANCH   8   9
ATOM      9  C   UNL A   1      30.908  25.071  25.249  1.00  0.00    -0.008 A 
ATOM     10  C   UNL A   1      32.077  22.491  22.664  1.00  0.00     0.119 A 
ATOM     11  C   UNL A   1      33.026  23.294  22.054  1.00  0.00     0.048 A 
ATOM     12  C   UNL A   1      31.263  23.005  23.676  1.00  0.00     0.057 A 
ATOM     13  C   UNL A   1      33.206  24.620  22.471  1.00  0.00     0.031 A 
ATOM     14  C   UNL A   1      31.452  24.315  24.159  1.00  0.00     0.007 A 
ATOM     15  C   UNL A   1      32.432  25.100  23.545  1.00  0.00     0.049 A 
ATOM     16  N   UNL A   1      32.412  26.318  24.198  1.00  0.00    -0.340 N 
ATOM     17  C   UNL A   1      31.726  26.181  25.382  1.00  0.00     0.020 A 
ATOM     18  C   UNL A   1      31.868  27.080  26.564  1.00  0.00     0.065 C 
BRANCH  10  19
ATOM     19  O   UNL A   1      31.856  21.195  22.278  1.00  0.00    -0.497 OA
ATOM     20  C   UNL A   1      32.614  20.263  23.053  1.00  0.00     0.278 C 
ENDBRANCH  10  19
BRANCH  16  21
ATOM     21  C   UNL A   1      32.928  27.581  23.683  1.00  0.00     0.157 C 
BRANCH  21  22
ATOM     22  C   UNL A   1      31.761  28.523  23.454  1.00  0.00    -0.028 A 
ATOM     23  C   UNL A   1      31.530  29.596  24.329  1.00  0.00     0.007 A 
ATOM     24  C   UNL A   1      30.800  28.231  22.474  1.00  0.00     0.007 A 
ATOM     25  C   UNL A   1      30.336  30.316  24.277  1.00  0.00     0.016 A 
ATOM     26  C   UNL A   1      29.620  28.974  22.398  1.00  0.00     0.016 A 
ATOM     27  C   UNL A   1      29.384  29.998  23.314  1.00  0.00     0.017 A 
ATOM     28  Br  UNL A   1      27.749  30.944  23.263  1.00  0.00    -0.051 Br
ENDBRANCH  21  22
ENDBRANCH  16  21
ENDBRANCH   8   9
ENDBRANCH   6   8
ENDBRANCH   5   6
ENDBRANCH   4   5
ENDBRANCH   3   4
ENDBRANCH   2   3
ENDBRANCH   1   2
BRANCH   1  29
ATOM     29  C   UNL A   1      36.759  22.461  25.866  1.00  0.00     0.188 C 
BRANCH  29  30
ATOM     30  O   UNL A   1      37.877  22.071  25.092  1.00  0.00    -0.376 OA
BRANCH  30  31
ATOM     31  C   UNL A   1      38.321  20.736  25.279  1.00  0.00     0.202 C 
BRANCH  31  32
ATOM     32  C   UNL A   1      39.536  20.603  26.210  1.00  0.00     0.261 C 
BRANCH  32  33
ATOM     33  O   UNL A   1      40.352  21.794  26.126  1.00  0.00    -0.460 OA
BRANCH  33  34
ATOM     34  C   UNL A   1      41.082  22.060  27.240  1.00  0.00     0.338 C 
ATOM     35  O   UNL A   1      42.076  21.449  27.608  1.00  0.00    -0.246 OA
BRANCH  34  36
ATOM     36  C   UNL A   1      40.736  23.436  27.691  1.00  0.00     0.060 A 
ATOM     37  C   UNL A   1      39.567  24.121  27.338  1.00  0.00     0.016 A 
ATOM     38  C   UNL A   1      41.768  24.131  28.321  1.00  0.00     0.016 A 
ATOM     39  C   UNL A   1      39.460  25.508  27.579  1.00  0.00     0.010 A 
ATOM     40  C   UNL A   1      41.687  25.508  28.497  1.00  0.00     0.010 A 
ATOM     41  C   UNL A   1      40.534  26.217  28.131  1.00  0.00    -0.014 A 
BRANCH  41  42
ATOM     42  C   UNL A   1      40.483  27.627  28.555  1.00  0.00     0.031 A 
ATOM     43  C   UNL A   1      41.570  28.473  28.035  1.00  0.00     0.074 A 
ATOM     44  C   UNL A   1      39.617  28.264  29.374  1.00  0.00     0.049 A 
ATOM     45  N   UNL A   1      42.558  28.848  28.777  1.00  0.00    -0.248 NA
ATOM     46  C   UNL A   1      41.674  28.869  26.634  1.00  0.00     0.031 C 
ATOM     47  C   UNL A   1      38.684  27.681  30.321  1.00  0.00     0.029 A 
ATOM     48  N   UNL A   1      39.388  29.620  29.504  1.00  0.00    -0.354 N 
ATOM     49  C   UNL A   1      43.361  29.645  27.992  1.00  0.00     0.074 A 
ATOM     50  C   UNL A   1      42.832  29.537  26.650  1.00  0.00     0.031 C 
ATOM     51  C   UNL A   1      37.889  28.652  30.832  1.00  0.00     0.029 A 
ATOM     52  C   UNL A   1      38.263  29.943  30.257  1.00  0.00     0.049 A 
ATOM     53  H   UNL A   1      39.971  30.301  29.097  1.00  0.00     0.167 HD
ATOM     54  C   UNL A   1      44.320  30.433  28.546  1.00  0.00     0.031 A 
ATOM     55  C   UNL A   1      37.956  31.098  30.901  1.00  0.00     0.031 A 
ATOM     56  C   UNL A   1      44.518  30.156  29.950  1.00  0.00     0.049 A 
ATOM     57  C   UNL A   1      39.234  31.603  31.454  1.00  0.00     0.074 A 
ATOM     58  C   UNL A   1      44.995  29.078  30.668  1.00  0.00     0.029 A 
ATOM     59  N   UNL A   1      43.853  30.958  30.848  1.00  0.00    -0.354 N 
ATOM     60  N   UNL A   1      39.855  31.043  32.454  1.00  0.00    -0.248 NA
ATOM     61  C   UNL A   1      40.010  32.591  30.717  1.00  0.00     0.031 C 
ATOM     62  C   UNL A   1      44.283  29.089  31.902  1.00  0.00     0.029 A 
ATOM     63  C   UNL A   1      43.408  30.177  31.891  1.00  0.00     0.049 A 
ATOM     64  H   UNL A   1      43.716  31.928  30.760  1.00  0.00     0.167 HD
ATOM     65  C   UNL A   1      41.197  31.272  32.204  1.00  0.00     0.074 A 
ATOM     66  C   UNL A   1      41.219  32.355  31.231  1.00  0.00     0.031 C 
ATOM     67  C   UNL A   1      42.155  30.385  32.602  1.00  0.00     0.031 A 
BRANCH  54  68
ATOM     68  C   UNL A   1      44.927  31.618  27.865  1.00  0.00    -0.014 A 
ATOM     69  C   UNL A   1      44.405  32.919  27.999  1.00  0.00     0.010 A 
ATOM     70  C   UNL A   1      46.166  31.480  27.212  1.00  0.00     0.010 A 
ATOM     71  C   UNL A   1      45.051  34.028  27.455  1.00  0.00     0.020 A 
ATOM     72  C   UNL A   1      46.847  32.594  26.701  1.00  0.00     0.020 A 
ATOM     73  C   UNL A   1      46.274  33.859  26.816  1.00  0.00     0.054 A 
BRANCH  73  74
ATOM     74  S   UNL A   1      47.138  35.335  26.227  1.00  0.00     0.124 S 
ATOM     75  O   UNL A   1      47.926  35.710  27.398  1.00  0.00    -0.237 OA
ATOM     76  O   UNL A   1      47.901  34.820  25.093  1.00  0.00    -0.237 OA
ATOM     77  O   UNL A   1      46.055  36.252  25.880  1.00  0.00    -0.744 OA
ENDBRANCH  73  74
ENDBRANCH  54  68
BRANCH  55  78
ATOM     78  C   UNL A   1      36.889  32.032  30.434  1.00  0.00    -0.014 A 
ATOM     79  C   UNL A   1      35.849  32.473  31.276  1.00  0.00     0.010 A 
ATOM     80  C   UNL A   1      36.869  32.463  29.092  1.00  0.00     0.010 A 
ATOM     81  C   UNL A   1      34.823  33.302  30.798  1.00  0.00     0.020 A 
ATOM     82  C   UNL A   1      35.837  33.285  28.603  1.00  0.00     0.020 A 
ATOM     83  C   UNL A   1      34.814  33.692  29.459  1.00  0.00     0.054 A 
BRANCH  83  84
ATOM     84  S   UNL A   1      33.428  34.703  28.861  1.00  0.00     0.124 S 
ATOM     85  O   UNL A   1      32.673  34.946  30.087  1.00  0.00    -0.237 OA
ATOM     86  O   UNL A   1      34.110  35.871  28.306  1.00  0.00    -0.237 OA
ATOM     87  O   UNL A   1      32.767  33.846  27.880  1.00  0.00    -0.744 OA
ENDBRANCH  83  84
ENDBRANCH  55  78
BRANCH  67  88
ATOM     88  C   UNL A   1      41.775  29.327  33.622  1.00  0.00    -0.014 A 
ATOM     89  C   UNL A   1      42.037  29.567  34.982  1.00  0.00     0.010 A 
ATOM     90  C   UNL A   1      41.353  28.037  33.249  1.00  0.00     0.010 A 
ATOM     91  C   UNL A   1      41.939  28.537  35.926  1.00  0.00     0.020 A 
ATOM     92  C   UNL A   1      41.228  27.005  34.188  1.00  0.00     0.020 A 
ATOM     93  C   UNL A   1      41.561  27.255  35.518  1.00  0.00     0.054 A 
BRANCH  93  94
ATOM     94  S   UNL A   1      41.568  25.912  36.737  1.00  0.00     0.124 S 
ATOM     95  O   UNL A   1      42.900  26.040  37.327  1.00  0.00    -0.237 OA
ATOM     96  O   UNL A   1      40.458  26.267  37.619  1.00  0.00    -0.237 OA
ATOM     97  O   UNL A   1      41.360  24.706  35.938  1.00  0.00    -0.744 OA
ENDBRANCH  93  94
ENDBRANCH  67  88
ENDBRANCH  41  42
ENDBRANCH  34  36
ENDBRANCH  33  34
ENDBRANCH  32  33
ENDBRANCH  31  32
ENDBRANCH  30  31
ENDBRANCH  29  30
ENDBRANCH   1  29
TORSDOF 24
ENDMDL
MODEL 2
REMARK VINA RESULT:     -10.0      1.924      2.642
REMARK SMILES COc1ccc2c(c1)c(CC(=O)OCCOCCOCCOC(=O)c1ccc(-c3c4nc(c(-c5ccc(S(=O)(=O)[O-])cc5)c5ccc([nH]5)c(-c5ccc(S(=O)(=O)[O-])cc5)c5nc(c(-c6ccc(S(=O)(=O)[O-])cc6)c6ccc3[nH]6)C=C5)C=C4)cc1)c(C)n2Cc1ccc(Br)cc1
REMARK SMILES IDX 17 1 16 2 15 3 14 4 13 5 11 6 12 7 10 8 9 9 3 10 4 11 8 12
REMARK SMILES IDX 5 13 7 14 6 15 87 16 85 17 86 18 2 19 1 20 88 21 89 22 90 23
REMARK SMILES IDX 95 24 91 25 94 26 92 27 93 28 18 29 19 30 20 31 21 32 22 33
REMARK SMILES IDX 23 34 24 35 25 36 26 37 84 38 27 39 83 40 28 41 29 42 30 43
REMARK SMILES IDX 77 44 31 45 82 46 76 47 78 48 32 49 81 50 75 51 74 52 33 54
REMARK SMILES IDX 63 55 44 56 62 57 45 58 48 59 61 60 79 61 46 62 47 63 60 65
REMARK SMILES IDX 80 66 49 67 34 68 35 69 43 70 36 71 42 72 37 73 38 74 39 75
REMARK SMILES IDX 40 76 41 77 64 78 65 79 73 80 66 81 72 82 67 83 68 84 69 85
REMARK SMILES IDX 70 86 71 87 50 88 51 89 59 90 52 91 58 92 53 93 54 94 55 95
REMARK SMILES IDX 56 96 57 97
REMARK H PARENT 78 53 48 64
REMARK Flexibility Score: inf
ROOT
ATOM      1  C   UNL A   1      35.838  21.226  25.747  1.00  0.00     0.188 C 
ENDROOT
BRANCH   1   2
ATOM      2  O   UNL A   1      35.489  22.547  26.129  1.00  0.00    -0.376 OA
BRANCH   2   3
ATOM      3  C   UNL A   1      34.264  23.086  25.641  1.00  0.00     0.202 C 
BRANCH   3   4
ATOM      4  C   UNL A   1      33.020  22.853  26.509  1.00  0.00     0.261 C 
BRANCH   4   5
ATOM      5  O   UNL A   1      32.268  24.080  26.610  1.00  0.00    -0.463 OA
BRANCH   5   6
ATOM      6  C   UNL A   1      30.920  23.959  26.707  1.00  0.00     0.310 C 
ATOM      7  O   UNL A   1      30.373  23.139  27.435  1.00  0.00    -0.252 OA
BRANCH   6   8
ATOM      8  C   UNL A   1      30.191  25.092  25.993  1.00  0.00     0.160 C 
BRANCH   8   9
ATOM      9  C   UNL A   1      30.968  26.201  25.380  1.00  0.00    -0.008 A 
ATOM     10  C   UNL A   1      32.958  25.509  22.175  1.00  0.00     0.119 A 
ATOM     11  C   UNL A   1      33.583  26.743  22.106  1.00  0.00     0.048 A 
ATOM     12  C   UNL A   1      32.011  25.253  23.170  1.00  0.00     0.057 A 
ATOM     13  C   UNL A   1      33.302  27.735  23.055  1.00  0.00     0.031 A 
ATOM     14  C   UNL A   1      31.744  26.205  24.174  1.00  0.00     0.007 A 
ATOM     15  C   UNL A   1      32.404  27.435  24.098  1.00  0.00     0.049 A 
ATOM     16  N   UNL A   1      31.969  28.171  25.183  1.00  0.00    -0.340 N 
ATOM     17  C   UNL A   1      31.362  27.326  26.084  1.00  0.00     0.020 A 
ATOM     18  C   UNL A   1      31.185  27.608  27.539  1.00  0.00     0.065 C 
BRANCH  10  19
ATOM     19  O   UNL A   1      33.190  24.517  21.259  1.00  0.00    -0.497 OA
ATOM     20  C   UNL A   1      33.060  23.213  21.830  1.00  0.00     0.278 C 
ENDBRANCH  10  19
BRANCH  16  21
ATOM     21  C   UNL A   1      32.031  29.621  25.322  1.00  0.00     0.157 C 
BRANCH  21  22
ATOM     22  C   UNL A   1      33.214  29.972  26.204  1.00  0.00    -0.028 A 
ATOM     23  C   UNL A   1      34.291  29.083  26.340  1.00  0.00     0.007 A 
ATOM     24  C   UNL A   1      33.166  31.105  27.030  1.00  0.00     0.007 A 
ATOM     25  C   UNL A   1      35.260  29.277  27.325  1.00  0.00     0.016 A 
ATOM     26  C   UNL A   1      34.154  31.321  27.993  1.00  0.00     0.016 A 
ATOM     27  C   UNL A   1      35.183  30.394  28.150  1.00  0.00     0.017 A 
ATOM     28  Br  UNL A   1      36.471  30.643  29.512  1.00  0.00    -0.051 Br
ENDBRANCH  21  22
ENDBRANCH  16  21
ENDBRANCH   8   9
ENDBRANCH   6   8
ENDBRANCH   5   6
ENDBRANCH   4   5
ENDBRANCH   3   4
ENDBRANCH   2   3
ENDBRANCH   1   2
BRANCH   1  29
ATOM     29  C   UNL A   1      36.956  21.044  24.712  1.00  0.00     0.188 C 
BRANCH  29  30
ATOM     30  O   UNL A   1      37.980  20.101  24.964  1.00  0.00    -0.376 OA
BRANCH  30  31
ATOM     31  C   UNL A   1      39.089  20.579  25.709  1.00  0.00     0.202 C 
BRANCH  31  32
ATOM     32  C   UNL A   1      39.120  22.104  25.882  1.00  0.00     0.261 C 
BRANCH  32  33
ATOM     33  O   UNL A   1      40.487  22.556  26.017  1.00  0.00    -0.460 OA
BRANCH  33  34
ATOM     34  C   UNL A   1      41.000  22.445  27.270  1.00  0.00     0.338 C 
ATOM     35  O   UNL A   1      41.758  21.567  27.658  1.00  0.00    -0.246 OA
BRANCH  34  36
ATOM     36  C   UNL A   1      40.832  23.759  27.947  1.00  0.00     0.060 A 
ATOM     37  C   UNL A   1      39.656  24.520  27.933  1.00  0.00     0.016 A 
ATOM     38  C   UNL A   1      42.008  24.334  28.427  1.00  0.00     0.016 A 
ATOM     39  C   UNL A   1      39.680  25.866  28.358  1.00  0.00     0.010 A 
ATOM     40  C   UNL A   1      42.043  25.678  28.783  1.00  0.00     0.010 A 
ATOM     41  C   UNL A   1      40.882  26.463  28.755  1.00  0.00    -0.014 A 
BRANCH  41  42
ATOM     42  C   UNL A   1      40.999  27.807  29.349  1.00  0.00     0.031 A 
ATOM     43  C   UNL A   1      41.950  28.706  28.674  1.00  0.00     0.074 A 
ATOM     44  C   UNL A   1      40.397  28.338  30.436  1.00  0.00     0.049 A 
ATOM     45  N   UNL A   1      43.109  28.973  29.176  1.00  0.00    -0.248 NA
ATOM     46  C   UNL A   1      41.708  29.279  27.354  1.00  0.00     0.031 C 
ATOM     47  C   UNL A   1      39.714  27.644  31.513  1.00  0.00     0.029 A 
ATOM     48  N   UNL A   1      40.264  29.668  30.787  1.00  0.00    -0.354 N 
ATOM     49  C   UNL A   1      43.716  29.859  28.314  1.00  0.00     0.074 A 
ATOM     50  C   UNL A   1      42.858  29.931  27.153  1.00  0.00     0.031 C 
ATOM     51  C   UNL A   1      39.117  28.546  32.328  1.00  0.00     0.029 A 
ATOM     52  C   UNL A   1      39.384  29.898  31.840  1.00  0.00     0.049 A 
ATOM     53  H   UNL A   1      40.752  30.391  30.331  1.00  0.00     0.167 HD
ATOM     54  C   UNL A   1      44.817  30.561  28.694  1.00  0.00     0.031 A 
ATOM     55  C   UNL A   1      39.298  30.963  32.680  1.00  0.00     0.031 A 
ATOM     56  C   UNL A   1      45.356  30.103  29.953  1.00  0.00     0.049 A 
ATOM     57  C   UNL A   1      40.695  31.382  32.941  1.00  0.00     0.074 A 
ATOM     58  C   UNL A   1      45.956  28.937  30.385  1.00  0.00     0.029 A 
ATOM     59  N   UNL A   1      44.975  30.786  31.085  1.00  0.00    -0.354 N 
ATOM     60  N   UNL A   1      41.527  30.692  33.669  1.00  0.00    -0.248 NA
ATOM     61  C   UNL A   1      41.296  32.451  32.155  1.00  0.00     0.031 C 
ATOM     62  C   UNL A   1      45.584  28.793  31.753  1.00  0.00     0.029 A 
ATOM     63  C   UNL A   1      44.781  29.880  32.103  1.00  0.00     0.049 A 
ATOM     64  H   UNL A   1      44.860  31.761  31.156  1.00  0.00     0.167 HD
ATOM     65  C   UNL A   1      42.769  30.942  33.110  1.00  0.00     0.074 A 
ATOM     66  C   UNL A   1      42.586  32.142  32.306  1.00  0.00     0.031 C 
ATOM     67  C   UNL A   1      43.760  30.003  33.134  1.00  0.00     0.031 A 
BRANCH  54  68
ATOM     68  C   UNL A   1      45.277  31.821  28.032  1.00  0.00    -0.014 A 
ATOM     69  C   UNL A   1      44.698  33.075  28.301  1.00  0.00     0.010 A 
ATOM     70  C   UNL A   1      46.445  31.800  27.246  1.00  0.00     0.010 A 
ATOM     71  C   UNL A   1      45.216  34.253  27.765  1.00  0.00     0.020 A 
ATOM     72  C   UNL A   1      47.001  32.983  26.740  1.00  0.00     0.020 A 
ATOM     73  C   UNL A   1      46.372  34.201  26.994  1.00  0.00     0.054 A 
BRANCH  73  74
ATOM     74  S   UNL A   1      47.080  35.761  26.414  1.00  0.00     0.124 S 
ATOM     75  O   UNL A   1      45.883  36.539  26.106  1.00  0.00    -0.237 OA
ATOM     76  O   UNL A   1      47.842  36.210  27.576  1.00  0.00    -0.237 OA
ATOM     77  O   UNL A   1      47.885  35.365  25.260  1.00  0.00    -0.744 OA
ENDBRANCH  73  74
ENDBRANCH  54  68
BRANCH  55  78
ATOM     78  C   UNL A   1      38.187  31.957  32.623  1.00  0.00    -0.014 A 
ATOM     79  C   UNL A   1      37.110  31.939  33.531  1.00  0.00     0.010 A 
ATOM     80  C   UNL A   1      38.162  32.929  31.603  1.00  0.00     0.010 A 
ATOM     81  C   UNL A   1      36.045  32.845  33.422  1.00  0.00     0.020 A 
ATOM     82  C   UNL A   1      37.092  33.834  31.479  1.00  0.00     0.020 A 
ATOM     83  C   UNL A   1      36.034  33.780  32.386  1.00  0.00     0.054 A 
BRANCH  83  84
ATOM     84  S   UNL A   1      34.601  34.886  32.234  1.00  0.00     0.124 S 
ATOM     85  O   UNL A   1      33.542  34.108  32.871  1.00  0.00    -0.237 OA
ATOM     86  O   UNL A   1      35.039  36.068  32.974  1.00  0.00    -0.237 OA
ATOM     87  O   UNL A   1      34.456  35.075  30.793  1.00  0.00    -0.744 OA
ENDBRANCH  83  84
ENDBRANCH  55  78
BRANCH  67  88
ATOM     88  C   UNL A   1      43.611  28.825  34.079  1.00  0.00    -0.014 A 
ATOM     89  C   UNL A   1      42.998  27.649  33.614  1.00  0.00     0.010 A 
ATOM     90  C   UNL A   1      43.883  28.926  35.457  1.00  0.00     0.010 A 
ATOM     91  C   UNL A   1      42.614  26.637  34.502  1.00  0.00     0.020 A 
ATOM     92  C   UNL A   1      43.526  27.910  36.353  1.00  0.00     0.020 A 
ATOM     93  C   UNL A   1      42.857  26.786  35.871  1.00  0.00     0.054 A 
BRANCH  93  94
ATOM     94  S   UNL A   1      42.235  25.520  37.012  1.00  0.00     0.124 S 
ATOM     95  O   UNL A   1      43.447  25.136  37.733  1.00  0.00    -0.237 OA
ATOM     96  O   UNL A   1      41.245  26.251  37.800  1.00  0.00    -0.237 OA
ATOM     97  O   UNL A   1      41.686  24.490  36.133  1.00  0.00    -0.744 OA
ENDBRANCH  93  94
ENDBRANCH  67  88
ENDBRANCH  41  42
ENDBRANCH  34  36
ENDBRANCH  33  34
ENDBRANCH  32  33
ENDBRANCH  31  32
ENDBRANCH  30  31
ENDBRANCH  29  30
ENDBRANCH   1  29
TORSDOF 24
ENDMDL
MODEL 3
REMARK VINA RESULT:      -9.6      2.905      4.830
REMARK SMILES COc1ccc2c(c1)c(CC(=O)OCCOCCOCCOC(=O)c1ccc(-c3c4nc(c(-c5ccc(S(=O)(=O)[O-])cc5)c5ccc([nH]5)c(-c5ccc(S(=O)(=O)[O-])cc5)c5nc(c(-c6ccc(S(=O)(=O)[O-])cc6)c6ccc3[nH]6)C=C5)C=C4)cc1)c(C)n2Cc1ccc(Br)cc1
REMARK SMILES IDX 17 1 16 2 15 3 14 4 13 5 11 6 12 7 10 8 9 9 3 10 4 11 8 12
REMARK SMILES IDX 5 13 7 14 6 15 87 16 85 17 86 18 2 19 1 20 88 21 89 22 90 23
REMARK SMILES IDX 95 24 91 25 94 26 92 27 93 28 18 29 19 30 20 31 21 32 22 33
REMARK SMILES IDX 23 34 24 35 25 36 26 37 84 38 27 39 83 40 28 41 29 42 30 43
REMARK SMILES IDX 77 44 31 45 82 46 76 47 78 48 32 49 81 50 75 51 74 52 33 54
REMARK SMILES IDX 63 55 44 56 62 57 45 58 48 59 61 60 79 61 46 62 47 63 60 65
REMARK SMILES IDX 80 66 49 67 34 68 35 69 43 70 36 71 42 72 37 73 38 74 39 75
REMARK SMILES IDX 40 76 41 77 64 78 65 79 73 80 66 81 72 82 67 83 68 84 69 85
REMARK SMILES IDX 70 86 71 87 50 88 51 89 59 90 52 91 58 92 53 93 54 94 55 95
REMARK SMILES IDX 56 96 57 97
REMARK H PARENT 78 53 48 64
REMARK Flexibility Score: inf
ROOT
ATOM      1  C   UNL A   1      41.140  20.493  27.250  1.00  0.00     0.188 C 
ENDROOT
BRANCH   1   2
ATOM      2  O   UNL A   1      40.378  20.684  26.069  1.00  0.00    -0.376 OA
BRANCH   2   3
ATOM      3  C   UNL A   1      39.139  21.379  26.172  1.00  0.00     0.202 C 
BRANCH   3   4
ATOM      4  C   UNL A   1      39.200  22.908  26.051  1.00  0.00     0.261 C 
BRANCH   4   5
ATOM      5  O   UNL A   1      37.925  23.470  26.424  1.00  0.00    -0.463 OA
BRANCH   5   6
ATOM      6  C   UNL A   1      37.043  23.695  25.417  1.00  0.00     0.310 C 
ATOM      7  O   UNL A   1      37.189  23.243  24.288  1.00  0.00    -0.252 OA
BRANCH   6   8
ATOM      8  C   UNL A   1      35.769  24.369  25.913  1.00  0.00     0.160 C 
BRANCH   8   9
ATOM      9  C   UNL A   1      34.457  23.996  25.322  1.00  0.00    -0.008 A 
ATOM     10  C   UNL A   1      33.141  26.009  22.334  1.00  0.00     0.119 A 
ATOM     11  C   UNL A   1      31.899  25.400  22.265  1.00  0.00     0.048 A 
ATOM     12  C   UNL A   1      34.094  25.566  23.253  1.00  0.00     0.057 A 
ATOM     13  C   UNL A   1      31.571  24.357  23.143  1.00  0.00     0.031 A 
ATOM     14  C   UNL A   1      33.782  24.558  24.188  1.00  0.00     0.007 A 
ATOM     15  C   UNL A   1      32.514  23.973  24.115  1.00  0.00     0.049 A 
ATOM     16  N   UNL A   1      32.469  23.032  25.126  1.00  0.00    -0.340 N 
ATOM     17  C   UNL A   1      33.499  23.269  26.007  1.00  0.00     0.020 A 
ATOM     18  C   UNL A   1      33.534  22.812  27.427  1.00  0.00     0.065 C 
BRANCH  10  19
ATOM     19  O   UNL A   1      33.509  27.021  21.486  1.00  0.00    -0.497 OA
ATOM     20  C   UNL A   1      33.921  28.194  22.191  1.00  0.00     0.278 C 
ENDBRANCH  10  19
BRANCH  16  21
ATOM     21  C   UNL A   1      31.557  21.897  25.206  1.00  0.00     0.157 C 
BRANCH  21  22
ATOM     22  C   UNL A   1      32.287  20.656  24.728  1.00  0.00    -0.028 A 
ATOM     23  C   UNL A   1      32.179  20.236  23.393  1.00  0.00     0.007 A 
ATOM     24  C   UNL A   1      32.931  19.817  25.650  1.00  0.00     0.007 A 
ATOM     25  C   UNL A   1      32.637  18.978  23.000  1.00  0.00     0.016 A 
ATOM     26  C   UNL A   1      33.422  18.573  25.250  1.00  0.00     0.016 A 
ATOM     27  C   UNL A   1      33.253  18.150  23.933  1.00  0.00     0.017 A 
ATOM     28  Br  UNL A   1      33.840  16.430  23.416  1.00  0.00    -0.051 Br
ENDBRANCH  21  22
ENDBRANCH  16  21
ENDBRANCH   8   9
ENDBRANCH   6   8
ENDBRANCH   5   6
ENDBRANCH   4   5
ENDBRANCH   3   4
ENDBRANCH   2   3
ENDBRANCH   1   2
BRANCH   1  29
ATOM     29  C   UNL A   1      41.666  21.737  27.978  1.00  0.00     0.188 C 
BRANCH  29  30
ATOM     30  O   UNL A   1      43.038  22.068  27.871  1.00  0.00    -0.376 OA
BRANCH  30  31
ATOM     31  C   UNL A   1      43.329  23.277  27.189  1.00  0.00     0.202 C 
BRANCH  31  32
ATOM     32  C   UNL A   1      42.764  23.346  25.762  1.00  0.00     0.261 C 
BRANCH  32  33
ATOM     33  O   UNL A   1      42.794  24.711  25.287  1.00  0.00    -0.460 OA
BRANCH  33  34
ATOM     34  C   UNL A   1      43.982  25.347  25.463  1.00  0.00     0.338 C 
ATOM     35  O   UNL A   1      44.992  25.176  24.794  1.00  0.00    -0.246 OA
BRANCH  34  36
ATOM     36  C   UNL A   1      43.733  26.551  26.301  1.00  0.00     0.060 A 
ATOM     37  C   UNL A   1      44.389  26.835  27.505  1.00  0.00     0.016 A 
ATOM     38  C   UNL A   1      42.614  27.303  25.942  1.00  0.00     0.016 A 
ATOM     39  C   UNL A   1      43.891  27.842  28.361  1.00  0.00     0.010 A 
ATOM     40  C   UNL A   1      42.087  28.248  26.817  1.00  0.00     0.010 A 
ATOM     41  C   UNL A   1      42.717  28.532  28.036  1.00  0.00    -0.014 A 
BRANCH  41  42
ATOM     42  C   UNL A   1      42.189  29.691  28.779  1.00  0.00     0.031 A 
ATOM     43  C   UNL A   1      43.093  30.852  28.843  1.00  0.00     0.074 A 
ATOM     44  C   UNL A   1      41.022  29.848  29.440  1.00  0.00     0.049 A 
ATOM     45  N   UNL A   1      43.749  31.148  29.916  1.00  0.00    -0.248 NA
ATOM     46  C   UNL A   1      43.396  31.693  27.690  1.00  0.00     0.031 C 
ATOM     47  C   UNL A   1      40.095  28.822  29.882  1.00  0.00     0.029 A 
ATOM     48  N   UNL A   1      40.409  31.018  29.845  1.00  0.00    -0.354 N 
ATOM     49  C   UNL A   1      44.458  32.295  29.640  1.00  0.00     0.074 A 
ATOM     50  C   UNL A   1      44.294  32.529  28.222  1.00  0.00     0.031 C 
ATOM     51  C   UNL A   1      38.973  29.403  30.369  1.00  0.00     0.029 A 
ATOM     52  C   UNL A   1      39.100  30.857  30.289  1.00  0.00     0.049 A 
ATOM     53  H   UNL A   1      40.860  31.893  29.822  1.00  0.00     0.167 HD
ATOM     54  C   UNL A   1      45.017  33.029  30.639  1.00  0.00     0.031 A 
ATOM     55  C   UNL A   1      38.352  31.659  31.091  1.00  0.00     0.031 A 
ATOM     56  C   UNL A   1      44.963  32.355  31.915  1.00  0.00     0.049 A 
ATOM     57  C   UNL A   1      39.287  32.192  32.109  1.00  0.00     0.074 A 
ATOM     58  C   UNL A   1      45.542  31.215  32.435  1.00  0.00     0.029 A 
ATOM     59  N   UNL A   1      43.920  32.678  32.752  1.00  0.00    -0.354 N 
ATOM     60  N   UNL A   1      39.796  31.468  33.065  1.00  0.00    -0.248 NA
ATOM     61  C   UNL A   1      39.909  33.496  31.919  1.00  0.00     0.031 C 
ATOM     62  C   UNL A   1      44.596  30.687  33.361  1.00  0.00     0.029 A 
ATOM     63  C   UNL A   1      43.483  31.531  33.375  1.00  0.00     0.049 A 
ATOM     64  H   UNL A   1      43.548  33.579  32.884  1.00  0.00     0.167 HD
ATOM     65  C   UNL A   1      41.045  32.019  33.293  1.00  0.00     0.074 A 
ATOM     66  C   UNL A   1      40.989  33.342  32.688  1.00  0.00     0.031 C 
ATOM     67  C   UNL A   1      42.094  31.252  33.711  1.00  0.00     0.031 A 
BRANCH  54  68
ATOM     68  C   UNL A   1      45.414  34.464  30.502  1.00  0.00    -0.014 A 
ATOM     69  C   UNL A   1      46.718  34.860  30.144  1.00  0.00     0.010 A 
ATOM     70  C   UNL A   1      44.423  35.463  30.552  1.00  0.00     0.010 A 
ATOM     71  C   UNL A   1      47.040  36.195  29.906  1.00  0.00     0.020 A 
ATOM     72  C   UNL A   1      44.726  36.802  30.270  1.00  0.00     0.020 A 
ATOM     73  C   UNL A   1      46.038  37.158  29.962  1.00  0.00     0.054 A 
BRANCH  73  74
ATOM     74  S   UNL A   1      46.470  38.861  29.533  1.00  0.00     0.124 S 
ATOM     75  O   UNL A   1      46.802  38.740  28.116  1.00  0.00    -0.237 OA
ATOM     76  O   UNL A   1      45.236  39.583  29.830  1.00  0.00    -0.237 OA
ATOM     77  O   UNL A   1      47.594  39.164  30.416  1.00  0.00    -0.744 OA
ENDBRANCH  73  74
ENDBRANCH  54  68
BRANCH  55  78
ATOM     78  C   UNL A   1      37.205  32.471  30.588  1.00  0.00    -0.014 A 
ATOM     79  C   UNL A   1      35.988  32.574  31.291  1.00  0.00     0.010 A 
ATOM     80  C   UNL A   1      37.297  33.126  29.344  1.00  0.00     0.010 A 
ATOM     81  C   UNL A   1      34.902  33.293  30.771  1.00  0.00     0.020 A 
ATOM     82  C   UNL A   1      36.208  33.839  28.810  1.00  0.00     0.020 A 
ATOM     83  C   UNL A   1      35.012  33.910  29.525  1.00  0.00     0.054 A 
BRANCH  83  84
ATOM     84  S   UNL A   1      33.558  34.768  28.851  1.00  0.00     0.124 S 
ATOM     85  O   UNL A   1      34.148  35.984  28.300  1.00  0.00    -0.237 OA
ATOM     86  O   UNL A   1      33.062  33.811  27.864  1.00  0.00    -0.237 OA
ATOM     87  O   UNL A   1      32.697  34.962  30.015  1.00  0.00    -0.744 OA
ENDBRANCH  83  84
ENDBRANCH  55  78
BRANCH  67  88
ATOM     88  C   UNL A   1      41.798  29.868  34.261  1.00  0.00    -0.014 A 
ATOM     89  C   UNL A   1      41.866  29.657  35.649  1.00  0.00     0.010 A 
ATOM     90  C   UNL A   1      41.652  28.742  33.428  1.00  0.00     0.010 A 
ATOM     91  C   UNL A   1      41.849  28.362  36.181  1.00  0.00     0.020 A 
ATOM     92  C   UNL A   1      41.610  27.443  33.950  1.00  0.00     0.020 A 
ATOM     93  C   UNL A   1      41.748  27.261  35.325  1.00  0.00     0.054 A 
BRANCH  93  94
ATOM     94  S   UNL A   1      41.859  25.593  36.030  1.00  0.00     0.124 S 
ATOM     95  O   UNL A   1      42.537  25.842  37.301  1.00  0.00    -0.237 OA
ATOM     96  O   UNL A   1      40.458  25.192  36.139  1.00  0.00    -0.237 OA
ATOM     97  O   UNL A   1      42.641  24.845  35.049  1.00  0.00    -0.744 OA
ENDBRANCH  93  94
ENDBRANCH  67  88
ENDBRANCH  41  42
ENDBRANCH  34  36
ENDBRANCH  33  34
ENDBRANCH  32  33
ENDBRANCH  31  32
ENDBRANCH  30  31
ENDBRANCH  29  30
ENDBRANCH   1  29
TORSDOF 24
ENDMDL
