MODEL 1
REMARK VINA RESULT:      -8.1      0.000      0.000
REMARK SMILES CC[C@@H](Oc1cccc(/C=C2/SC(=O)N(c3cccc(OC)c3)C2=O)c1)C(=O)OCCOCCOCCOC(=O)c1ccc(-c2c3nc(c(-c4ccc(S(=O)(=O)[O-])cc4)c4ccc([nH]4)c(-c4ccc(S(=O)(=O)[O-])cc4)c4nc(c(-c5ccc(S(=O)(=O)[O-])cc5)c5ccc2[nH]5)C=C4)C=C3)cc1
REMARK SMILES IDX 33 1 32 2 31 3 30 4 29 5 27 6 28 7 3 8 2 9 1 10 4 11 5 12
REMARK SMILES IDX 6 13 26 14 7 15 9 16 8 17 10 18 11 19 12 20 24 21 13 22
REMARK SMILES IDX 15 23 25 24 14 25 16 26 17 27 23 28 18 29 20 30 19 31 21 32
REMARK SMILES IDX 22 33 34 34 35 35 36 36 37 37 38 38 39 39 40 40 41 41 42 42
REMARK SMILES IDX 100 43 43 44 99 45 44 46 45 47 46 48 93 49 47 50 98 51 92 52
REMARK SMILES IDX 94 53 48 54 97 55 91 56 90 57 49 59 79 60 60 61 78 62 61 63
REMARK SMILES IDX 64 64 77 65 95 66 62 67 63 68 76 70 96 71 65 72 50 73 51 74
REMARK SMILES IDX 59 75 52 76 58 77 53 78 54 79 55 80 56 81 57 82 80 83 81 84
REMARK SMILES IDX 89 85 82 86 88 87 83 88 84 89 85 90 86 91 87 92 66 93 67 94
REMARK SMILES IDX 75 95 68 96 74 97 69 98 70 99 71 100 72 101 73 102
REMARK H PARENT 94 58 64 69
REMARK Flexibility Score: inf
ROOT
ATOM      1  C   UNL A   1      44.451  19.105  24.384  1.00  0.00     0.188 C 
ENDROOT
BRANCH   1   2
ATOM      2  O   UNL A   1      43.120  19.053  24.880  1.00  0.00    -0.376 OA
BRANCH   2   3
ATOM      3  C   UNL A   1      42.847  19.758  26.086  1.00  0.00     0.202 C 
BRANCH   3   4
ATOM      4  C   UNL A   1      41.858  20.930  26.005  1.00  0.00     0.261 C 
BRANCH   4   5
ATOM      5  O   UNL A   1      41.356  21.376  27.276  1.00  0.00    -0.461 OA
BRANCH   5   6
ATOM      6  C   UNL A   1      40.427  22.377  27.241  1.00  0.00     0.347 C 
ATOM      7  O   UNL A   1      39.308  22.264  26.749  1.00  0.00    -0.248 OA
BRANCH   6   8
ATOM      8  C   UNL A   1      40.920  23.684  27.880  1.00  0.00     0.282 C 
BRANCH   8   9
ATOM      9  C   UNL A   1      42.431  23.950  27.700  1.00  0.00     0.054 C 
ATOM     10  C   UNL A   1      43.241  23.719  28.977  1.00  0.00     0.008 C 
ENDBRANCH   8   9
BRANCH   8  11
ATOM     11  O   UNL A   1      40.091  24.665  27.221  1.00  0.00    -0.479 OA
BRANCH  11  12
ATOM     12  C   UNL A   1      40.526  25.947  27.375  1.00  0.00     0.121 A 
ATOM     13  C   UNL A   1      40.813  26.751  26.279  1.00  0.00     0.046 A 
ATOM     14  C   UNL A   1      40.812  26.394  28.657  1.00  0.00     0.054 A 
ATOM     15  C   UNL A   1      41.347  28.027  26.491  1.00  0.00     0.004 A 
ATOM     16  C   UNL A   1      41.345  27.665  28.890  1.00  0.00    -0.021 A 
ATOM     17  C   UNL A   1      41.598  28.491  27.792  1.00  0.00     0.008 A 
BRANCH  16  18
ATOM     18  C   UNL A   1      41.496  28.130  30.279  1.00  0.00     0.029 C 
ATOM     19  C   UNL A   1      40.659  28.978  30.903  1.00  0.00     0.083 C 
ATOM     20  S   UNL A   1      41.083  29.857  32.315  1.00  0.00    -0.022 SA
ATOM     21  C   UNL A   1      39.327  29.446  30.418  1.00  0.00     0.272 C 
ATOM     22  C   UNL A   1      39.851  31.084  32.000  1.00  0.00     0.298 C 
ATOM     23  N   UNL A   1      39.031  30.689  30.958  1.00  0.00    -0.236 N 
ATOM     24  O   UNL A   1      38.648  28.773  29.655  1.00  0.00    -0.268 OA
ATOM     25  O   UNL A   1      39.786  32.084  32.695  1.00  0.00    -0.260 OA
BRANCH  23  26
ATOM     26  C   UNL A   1      37.938  31.493  30.482  1.00  0.00     0.057 A 
ATOM     27  C   UNL A   1      38.068  32.295  29.336  1.00  0.00     0.027 A 
ATOM     28  C   UNL A   1      36.710  31.543  31.172  1.00  0.00     0.073 A 
ATOM     29  C   UNL A   1      37.025  33.110  28.890  1.00  0.00     0.006 A 
ATOM     30  C   UNL A   1      35.668  32.379  30.745  1.00  0.00     0.120 A 
ATOM     31  C   UNL A   1      35.830  33.149  29.595  1.00  0.00     0.046 A 
BRANCH  30  32
ATOM     32  O   UNL A   1      34.452  32.533  31.355  1.00  0.00    -0.497 OA
ATOM     33  C   UNL A   1      34.459  33.039  32.684  1.00  0.00     0.278 C 
ENDBRANCH  30  32
ENDBRANCH  23  26
ENDBRANCH  16  18
ENDBRANCH  11  12
ENDBRANCH   8  11
ENDBRANCH   6   8
ENDBRANCH   5   6
ENDBRANCH   4   5
ENDBRANCH   3   4
ENDBRANCH   2   3
ENDBRANCH   1   2
BRANCH   1  34
ATOM     34  C   UNL A   1      45.561  19.365  25.402  1.00  0.00     0.188 C 
BRANCH  34  35
ATOM     35  O   UNL A   1      46.394  20.489  25.129  1.00  0.00    -0.376 OA
BRANCH  35  36
ATOM     36  C   UNL A   1      45.739  21.763  25.169  1.00  0.00     0.202 C 
BRANCH  36  37
ATOM     37  C   UNL A   1      46.282  22.840  24.206  1.00  0.00     0.261 C 
BRANCH  37  38
ATOM     38  O   UNL A   1      45.832  24.180  24.495  1.00  0.00    -0.460 OA
BRANCH  38  39
ATOM     39  C   UNL A   1      46.781  25.118  24.733  1.00  0.00     0.338 C 
ATOM     40  O   UNL A   1      47.688  25.432  23.983  1.00  0.00    -0.246 OA
BRANCH  39  41
ATOM     41  C   UNL A   1      46.376  25.897  25.935  1.00  0.00     0.060 A 
ATOM     42  C   UNL A   1      47.378  26.541  26.674  1.00  0.00     0.016 A 
ATOM     43  C   UNL A   1      45.034  26.064  26.291  1.00  0.00     0.016 A 
ATOM     44  C   UNL A   1      47.047  27.310  27.793  1.00  0.00     0.010 A 
ATOM     45  C   UNL A   1      44.703  26.828  27.417  1.00  0.00     0.010 A 
ATOM     46  C   UNL A   1      45.709  27.424  28.196  1.00  0.00    -0.014 A 
BRANCH  46  47
ATOM     47  C   UNL A   1      45.384  27.971  29.538  1.00  0.00     0.031 A 
ATOM     48  C   UNL A   1      44.999  29.425  29.635  1.00  0.00     0.074 A 
ATOM     49  C   UNL A   1      45.401  27.211  30.648  1.00  0.00     0.049 A 
ATOM     50  N   UNL A   1      44.691  30.135  30.689  1.00  0.00    -0.248 NA
ATOM     51  C   UNL A   1      44.956  30.175  28.368  1.00  0.00     0.031 C 
ATOM     52  C   UNL A   1      45.715  25.785  30.700  1.00  0.00     0.029 A 
ATOM     53  N   UNL A   1      45.149  27.548  31.957  1.00  0.00    -0.354 N 
ATOM     54  C   UNL A   1      44.417  31.411  30.214  1.00  0.00     0.074 A 
ATOM     55  C   UNL A   1      44.628  31.389  28.784  1.00  0.00     0.031 C 
ATOM     56  C   UNL A   1      45.644  25.370  31.979  1.00  0.00     0.029 A 
ATOM     57  C   UNL A   1      45.309  26.505  32.839  1.00  0.00     0.049 A 
ATOM     58  H   UNL A   1      44.878  28.452  32.238  1.00  0.00     0.167 HD
ATOM     59  C   UNL A   1      44.015  32.507  30.901  1.00  0.00     0.031 A 
ATOM     60  C   UNL A   1      45.214  26.473  34.185  1.00  0.00     0.031 A 
ATOM     61  C   UNL A   1      43.828  32.549  32.325  1.00  0.00     0.049 A 
ATOM     62  C   UNL A   1      44.851  27.729  34.941  1.00  0.00     0.074 A 
ATOM     63  C   UNL A   1      43.424  33.618  33.106  1.00  0.00     0.029 A 
ATOM     64  N   UNL A   1      44.039  31.483  33.183  1.00  0.00    -0.354 N 
ATOM     65  N   UNL A   1      44.570  28.922  34.474  1.00  0.00    -0.248 NA
ATOM     66  C   UNL A   1      44.785  27.629  36.408  1.00  0.00     0.031 C 
ATOM     67  C   UNL A   1      43.444  33.212  34.444  1.00  0.00     0.029 A 
ATOM     68  C   UNL A   1      43.799  31.873  34.490  1.00  0.00     0.049 A 
ATOM     69  H   UNL A   1      44.318  30.581  32.905  1.00  0.00     0.167 HD
ATOM     70  C   UNL A   1      44.268  29.704  35.586  1.00  0.00     0.074 A 
ATOM     71  C   UNL A   1      44.388  28.847  36.747  1.00  0.00     0.031 C 
ATOM     72  C   UNL A   1      43.918  31.014  35.640  1.00  0.00     0.031 A 
BRANCH  59  73
ATOM     73  C   UNL A   1      43.786  33.765  30.110  1.00  0.00    -0.014 A 
ATOM     74  C   UNL A   1      42.548  34.019  29.494  1.00  0.00     0.010 A 
ATOM     75  C   UNL A   1      44.817  34.716  29.999  1.00  0.00     0.010 A 
ATOM     76  C   UNL A   1      42.358  35.183  28.746  1.00  0.00     0.020 A 
ATOM     77  C   UNL A   1      44.621  35.894  29.275  1.00  0.00     0.020 A 
ATOM     78  C   UNL A   1      43.398  36.111  28.638  1.00  0.00     0.054 A 
BRANCH  78  79
ATOM     79  S   UNL A   1      43.120  37.621  27.672  1.00  0.00     0.124 S 
ATOM     80  O   UNL A   1      42.929  38.617  28.722  1.00  0.00    -0.237 OA
ATOM     81  O   UNL A   1      44.360  37.744  26.908  1.00  0.00    -0.237 OA
ATOM     82  O   UNL A   1      41.933  37.313  26.880  1.00  0.00    -0.744 OA
ENDBRANCH  78  79
ENDBRANCH  59  73
BRANCH  60  83
ATOM     83  C   UNL A   1      45.494  25.209  34.924  1.00  0.00    -0.014 A 
ATOM     84  C   UNL A   1      46.809  24.853  35.272  1.00  0.00     0.010 A 
ATOM     85  C   UNL A   1      44.440  24.341  35.262  1.00  0.00     0.010 A 
ATOM     86  C   UNL A   1      47.067  23.645  35.927  1.00  0.00     0.020 A 
ATOM     87  C   UNL A   1      44.690  23.145  35.942  1.00  0.00     0.020 A 
ATOM     88  C   UNL A   1      46.005  22.799  36.259  1.00  0.00     0.054 A 
BRANCH  88  89
ATOM     89  S   UNL A   1      46.356  21.257  37.151  1.00  0.00     0.124 S 
ATOM     90  O   UNL A   1      45.801  21.536  38.470  1.00  0.00    -0.237 OA
ATOM     91  O   UNL A   1      45.636  20.264  36.358  1.00  0.00    -0.237 OA
ATOM     92  O   UNL A   1      47.812  21.154  37.091  1.00  0.00    -0.744 OA
ENDBRANCH  88  89
ENDBRANCH  60  83
BRANCH  72  93
ATOM     93  C   UNL A   1      43.600  31.605  36.990  1.00  0.00    -0.014 A 
ATOM     94  C   UNL A   1      44.607  32.148  37.808  1.00  0.00     0.010 A 
ATOM     95  C   UNL A   1      42.260  31.680  37.415  1.00  0.00     0.010 A 
ATOM     96  C   UNL A   1      44.282  32.729  39.038  1.00  0.00     0.020 A 
ATOM     97  C   UNL A   1      41.928  32.284  38.631  1.00  0.00     0.020 A 
ATOM     98  C   UNL A   1      42.943  32.793  39.442  1.00  0.00     0.054 A 
BRANCH  98  99
ATOM     99  S   UNL A   1      42.542  33.595  41.019  1.00  0.00     0.124 S 
ATOM    100  O   UNL A   1      43.465  34.726  41.028  1.00  0.00    -0.237 OA
ATOM    101  O   UNL A   1      41.131  33.936  40.857  1.00  0.00    -0.237 OA
ATOM    102  O   UNL A   1      42.816  32.560  42.014  1.00  0.00    -0.744 OA
ENDBRANCH  98  99
ENDBRANCH  72  93
ENDBRANCH  46  47
ENDBRANCH  39  41
ENDBRANCH  38  39
ENDBRANCH  37  38
ENDBRANCH  36  37
ENDBRANCH  35  36
ENDBRANCH  34  35
ENDBRANCH   1  34
TORSDOF 26
ENDMDL
MODEL 2
REMARK VINA RESULT:      -7.4      4.181      6.216
REMARK SMILES CC[C@@H](Oc1cccc(/C=C2/SC(=O)N(c3cccc(OC)c3)C2=O)c1)C(=O)OCCOCCOCCOC(=O)c1ccc(-c2c3nc(c(-c4ccc(S(=O)(=O)[O-])cc4)c4ccc([nH]4)c(-c4ccc(S(=O)(=O)[O-])cc4)c4nc(c(-c5ccc(S(=O)(=O)[O-])cc5)c5ccc2[nH]5)C=C4)C=C3)cc1
REMARK SMILES IDX 33 1 32 2 31 3 30 4 29 5 27 6 28 7 3 8 2 9 1 10 4 11 5 12
REMARK SMILES IDX 6 13 26 14 7 15 9 16 8 17 10 18 11 19 12 20 24 21 13 22
REMARK SMILES IDX 15 23 25 24 14 25 16 26 17 27 23 28 18 29 20 30 19 31 21 32
REMARK SMILES IDX 22 33 34 34 35 35 36 36 37 37 38 38 39 39 40 40 41 41 42 42
REMARK SMILES IDX 100 43 43 44 99 45 44 46 45 47 46 48 93 49 47 50 98 51 92 52
REMARK SMILES IDX 94 53 48 54 97 55 91 56 90 57 49 59 79 60 60 61 78 62 61 63
REMARK SMILES IDX 64 64 77 65 95 66 62 67 63 68 76 70 96 71 65 72 50 73 51 74
REMARK SMILES IDX 59 75 52 76 58 77 53 78 54 79 55 80 56 81 57 82 80 83 81 84
REMARK SMILES IDX 89 85 82 86 88 87 83 88 84 89 85 90 86 91 87 92 66 93 67 94
REMARK SMILES IDX 75 95 68 96 74 97 69 98 70 99 71 100 72 101 73 102
REMARK H PARENT 94 58 64 69
REMARK Flexibility Score: inf
ROOT
ATOM      1  C   UNL A   1      45.683  19.287  24.125  1.00  0.00     0.188 C 
ENDROOT
BRANCH   1   2
ATOM      2  O   UNL A   1      44.630  18.377  24.414  1.00  0.00    -0.376 OA
BRANCH   2   3
ATOM      3  C   UNL A   1      44.145  18.348  25.753  1.00  0.00     0.202 C 
BRANCH   3   4
ATOM      4  C   UNL A   1      42.908  19.200  26.070  1.00  0.00     0.261 C 
BRANCH   4   5
ATOM      5  O   UNL A   1      42.680  20.283  25.152  1.00  0.00    -0.461 OA
BRANCH   5   6
ATOM      6  C   UNL A   1      42.032  21.376  25.657  1.00  0.00     0.347 C 
ATOM      7  O   UNL A   1      42.268  22.533  25.323  1.00  0.00    -0.248 OA
BRANCH   6   8
ATOM      8  C   UNL A   1      40.967  21.019  26.704  1.00  0.00     0.282 C 
BRANCH   8   9
ATOM      9  C   UNL A   1      40.678  22.142  27.726  1.00  0.00     0.054 C 
ATOM     10  C   UNL A   1      41.793  22.318  28.759  1.00  0.00     0.008 C 
ENDBRANCH   8   9
BRANCH   8  11
ATOM     11  O   UNL A   1      39.829  20.707  25.872  1.00  0.00    -0.479 OA
BRANCH  11  12
ATOM     12  C   UNL A   1      38.846  21.650  25.907  1.00  0.00     0.121 A 
ATOM     13  C   UNL A   1      39.079  22.919  26.421  1.00  0.00     0.046 A 
ATOM     14  C   UNL A   1      37.562  21.273  25.543  1.00  0.00     0.054 A 
ATOM     15  C   UNL A   1      38.012  23.820  26.521  1.00  0.00     0.004 A 
ATOM     16  C   UNL A   1      36.483  22.158  25.635  1.00  0.00    -0.021 A 
ATOM     17  C   UNL A   1      36.721  23.448  26.114  1.00  0.00     0.008 A 
BRANCH  16  18
ATOM     18  C   UNL A   1      35.174  21.742  25.104  1.00  0.00     0.029 C 
ATOM     19  C   UNL A   1      34.327  22.539  24.429  1.00  0.00     0.083 C 
ATOM     20  S   UNL A   1      32.657  22.194  24.233  1.00  0.00    -0.022 SA
ATOM     21  C   UNL A   1      34.608  23.906  23.900  1.00  0.00     0.272 C 
ATOM     22  C   UNL A   1      32.273  23.895  23.947  1.00  0.00     0.298 C 
ATOM     23  N   UNL A   1      33.432  24.636  23.811  1.00  0.00    -0.236 N 
ATOM     24  O   UNL A   1      35.742  24.261  23.606  1.00  0.00    -0.268 OA
ATOM     25  O   UNL A   1      31.111  24.255  23.851  1.00  0.00    -0.260 OA
BRANCH  23  26
ATOM     26  C   UNL A   1      33.424  26.054  23.570  1.00  0.00     0.057 A 
ATOM     27  C   UNL A   1      33.533  26.573  22.269  1.00  0.00     0.027 A 
ATOM     28  C   UNL A   1      33.353  26.978  24.632  1.00  0.00     0.073 A 
ATOM     29  C   UNL A   1      33.567  27.948  22.030  1.00  0.00     0.006 A 
ATOM     30  C   UNL A   1      33.413  28.360  24.400  1.00  0.00     0.120 A 
ATOM     31  C   UNL A   1      33.507  28.837  23.095  1.00  0.00     0.046 A 
BRANCH  30  32
ATOM     32  O   UNL A   1      33.388  29.341  25.355  1.00  0.00    -0.497 OA
ATOM     33  C   UNL A   1      32.146  30.001  25.568  1.00  0.00     0.278 C 
ENDBRANCH  30  32
ENDBRANCH  23  26
ENDBRANCH  16  18
ENDBRANCH  11  12
ENDBRANCH   8  11
ENDBRANCH   6   8
ENDBRANCH   5   6
ENDBRANCH   4   5
ENDBRANCH   3   4
ENDBRANCH   2   3
ENDBRANCH   1   2
BRANCH   1  34
ATOM     34  C   UNL A   1      46.257  20.080  25.299  1.00  0.00     0.188 C 
BRANCH  34  35
ATOM     35  O   UNL A   1      46.326  21.491  25.111  1.00  0.00    -0.376 OA
BRANCH  35  36
ATOM     36  C   UNL A   1      45.558  22.273  26.034  1.00  0.00     0.202 C 
BRANCH  36  37
ATOM     37  C   UNL A   1      45.497  23.790  25.759  1.00  0.00     0.261 C 
BRANCH  37  38
ATOM     38  O   UNL A   1      44.617  24.521  26.638  1.00  0.00    -0.460 OA
BRANCH  38  39
ATOM     39  C   UNL A   1      44.022  25.632  26.140  1.00  0.00     0.338 C 
ATOM     40  O   UNL A   1      43.782  25.856  24.967  1.00  0.00    -0.246 OA
BRANCH  39  41
ATOM     41  C   UNL A   1      43.458  26.409  27.278  1.00  0.00     0.060 A 
ATOM     42  C   UNL A   1      43.712  27.786  27.327  1.00  0.00     0.016 A 
ATOM     43  C   UNL A   1      42.628  25.820  28.238  1.00  0.00     0.016 A 
ATOM     44  C   UNL A   1      43.180  28.566  28.359  1.00  0.00     0.010 A 
ATOM     45  C   UNL A   1      42.102  26.599  29.275  1.00  0.00     0.010 A 
ATOM     46  C   UNL A   1      42.405  27.969  29.362  1.00  0.00    -0.014 A 
BRANCH  46  47
ATOM     47  C   UNL A   1      42.101  28.719  30.608  1.00  0.00     0.031 A 
ATOM     48  C   UNL A   1      40.894  29.621  30.613  1.00  0.00     0.074 A 
ATOM     49  C   UNL A   1      42.848  28.598  31.721  1.00  0.00     0.049 A 
ATOM     50  N   UNL A   1      40.434  30.388  31.567  1.00  0.00    -0.248 NA
ATOM     51  C   UNL A   1      40.102  29.659  29.372  1.00  0.00     0.031 C 
ATOM     52  C   UNL A   1      44.017  27.735  31.873  1.00  0.00     0.029 A 
ATOM     53  N   UNL A   1      42.728  29.220  32.941  1.00  0.00    -0.354 N 
ATOM     54  C   UNL A   1      39.301  30.998  31.044  1.00  0.00     0.074 A 
ATOM     55  C   UNL A   1      39.161  30.540  29.680  1.00  0.00     0.031 C 
ATOM     56  C   UNL A   1      44.511  27.887  33.117  1.00  0.00     0.029 A 
ATOM     57  C   UNL A   1      43.713  28.879  33.837  1.00  0.00     0.049 A 
ATOM     58  H   UNL A   1      42.001  29.849  33.155  1.00  0.00     0.167 HD
ATOM     59  C   UNL A   1      38.443  31.857  31.643  1.00  0.00     0.031 A 
ATOM     60  C   UNL A   1      43.954  29.329  35.087  1.00  0.00     0.031 A 
ATOM     61  C   UNL A   1      38.585  32.341  32.989  1.00  0.00     0.049 A 
ATOM     62  C   UNL A   1      43.035  30.353  35.705  1.00  0.00     0.074 A 
ATOM     63  C   UNL A   1      37.764  33.215  33.679  1.00  0.00     0.029 A 
ATOM     64  N   UNL A   1      39.619  32.002  33.846  1.00  0.00    -0.354 N 
ATOM     65  N   UNL A   1      41.952  30.900  35.206  1.00  0.00    -0.248 NA
ATOM     66  C   UNL A   1      43.368  30.815  37.063  1.00  0.00     0.031 C 
ATOM     67  C   UNL A   1      38.331  33.447  34.935  1.00  0.00     0.029 A 
ATOM     68  C   UNL A   1      39.471  32.669  35.051  1.00  0.00     0.049 A 
ATOM     69  H   UNL A   1      40.351  31.379  33.631  1.00  0.00     0.167 HD
ATOM     70  C   UNL A   1      41.463  31.748  36.198  1.00  0.00     0.074 A 
ATOM     71  C   UNL A   1      42.358  31.632  37.329  1.00  0.00     0.031 C 
ATOM     72  C   UNL A   1      40.365  32.546  36.174  1.00  0.00     0.031 A 
BRANCH  59  73
ATOM     73  C   UNL A   1      37.286  32.355  30.822  1.00  0.00    -0.014 A 
ATOM     74  C   UNL A   1      36.008  31.781  30.946  1.00  0.00     0.010 A 
ATOM     75  C   UNL A   1      37.475  33.424  29.928  1.00  0.00     0.010 A 
ATOM     76  C   UNL A   1      34.948  32.241  30.162  1.00  0.00     0.020 A 
ATOM     77  C   UNL A   1      36.411  33.905  29.161  1.00  0.00     0.020 A 
ATOM     78  C   UNL A   1      35.159  33.298  29.271  1.00  0.00     0.054 A 
BRANCH  78  79
ATOM     79  S   UNL A   1      33.763  33.884  28.272  1.00  0.00     0.124 S 
ATOM     80  O   UNL A   1      33.300  32.647  27.649  1.00  0.00    -0.237 OA
ATOM     81  O   UNL A   1      32.867  34.454  29.277  1.00  0.00    -0.237 OA
ATOM     82  O   UNL A   1      34.368  34.852  27.362  1.00  0.00    -0.744 OA
ENDBRANCH  78  79
ENDBRANCH  59  73
BRANCH  60  83
ATOM     83  C   UNL A   1      45.141  28.834  35.841  1.00  0.00    -0.014 A 
ATOM     84  C   UNL A   1      46.417  29.380  35.616  1.00  0.00     0.010 A 
ATOM     85  C   UNL A   1      45.000  27.793  36.776  1.00  0.00     0.010 A 
ATOM     86  C   UNL A   1      47.532  28.881  36.298  1.00  0.00     0.020 A 
ATOM     87  C   UNL A   1      46.106  27.310  37.480  1.00  0.00     0.020 A 
ATOM     88  C   UNL A   1      47.369  27.849  37.227  1.00  0.00     0.054 A 
BRANCH  88  89
ATOM     89  S   UNL A   1      48.821  27.247  38.135  1.00  0.00     0.124 S 
ATOM     90  O   UNL A   1      49.081  25.971  37.479  1.00  0.00    -0.237 OA
ATOM     91  O   UNL A   1      49.805  28.298  37.887  1.00  0.00    -0.237 OA
ATOM     92  O   UNL A   1      48.348  27.160  39.515  1.00  0.00    -0.744 OA
ENDBRANCH  88  89
ENDBRANCH  60  83
BRANCH  72  93
ATOM     93  C   UNL A   1      40.040  33.336  37.416  1.00  0.00    -0.014 A 
ATOM     94  C   UNL A   1      39.194  32.819  38.413  1.00  0.00     0.010 A 
ATOM     95  C   UNL A   1      40.652  34.587  37.620  1.00  0.00     0.010 A 
ATOM     96  C   UNL A   1      38.942  33.552  39.577  1.00  0.00     0.020 A 
ATOM     97  C   UNL A   1      40.424  35.312  38.794  1.00  0.00     0.020 A 
ATOM     98  C   UNL A   1      39.558  34.795  39.760  1.00  0.00     0.054 A 
BRANCH  98  99
ATOM     99  S   UNL A   1      39.254  35.706  41.299  1.00  0.00     0.124 S 
ATOM    100  O   UNL A   1      39.948  34.880  42.283  1.00  0.00    -0.237 OA
ATOM    101  O   UNL A   1      39.861  37.007  41.029  1.00  0.00    -0.237 OA
ATOM    102  O   UNL A   1      37.797  35.717  41.413  1.00  0.00    -0.744 OA
ENDBRANCH  98  99
ENDBRANCH  72  93
ENDBRANCH  46  47
ENDBRANCH  39  41
ENDBRANCH  38  39
ENDBRANCH  37  38
ENDBRANCH  36  37
ENDBRANCH  35  36
ENDBRANCH  34  35
ENDBRANCH   1  34
TORSDOF 26
ENDMDL
MODEL 3
REMARK VINA RESULT:      -6.5      6.184     12.005
REMARK SMILES CC[C@@H](Oc1cccc(/C=C2/SC(=O)N(c3cccc(OC)c3)C2=O)c1)C(=O)OCCOCCOCCOC(=O)c1ccc(-c2c3nc(c(-c4ccc(S(=O)(=O)[O-])cc4)c4ccc([nH]4)c(-c4ccc(S(=O)(=O)[O-])cc4)c4nc(c(-c5ccc(S(=O)(=O)[O-])cc5)c5ccc2[nH]5)C=C4)C=C3)cc1
REMARK SMILES IDX 33 1 32 2 31 3 30 4 29 5 27 6 28 7 3 8 2 9 1 10 4 11 5 12
REMARK SMILES IDX 6 13 26 14 7 15 9 16 8 17 10 18 11 19 12 20 24 21 13 22
REMARK SMILES IDX 15 23 25 24 14 25 16 26 17 27 23 28 18 29 20 30 19 31 21 32
REMARK SMILES IDX 22 33 34 34 35 35 36 36 37 37 38 38 39 39 40 40 41 41 42 42
REMARK SMILES IDX 100 43 43 44 99 45 44 46 45 47 46 48 93 49 47 50 98 51 92 52
REMARK SMILES IDX 94 53 48 54 97 55 91 56 90 57 49 59 79 60 60 61 78 62 61 63
REMARK SMILES IDX 64 64 77 65 95 66 62 67 63 68 76 70 96 71 65 72 50 73 51 74
REMARK SMILES IDX 59 75 52 76 58 77 53 78 54 79 55 80 56 81 57 82 80 83 81 84
REMARK SMILES IDX 89 85 82 86 88 87 83 88 84 89 85 90 86 91 87 92 66 93 67 94
REMARK SMILES IDX 75 95 68 96 74 97 69 98 70 99 71 100 72 101 73 102
REMARK H PARENT 94 58 64 69
REMARK Flexibility Score: inf
ROOT
ATOM      1  C   UNL A   1      37.852  31.552  29.626  1.00  0.00     0.188 C 
ENDROOT
BRANCH   1   2
ATOM      2  O   UNL A   1      37.654  30.860  28.400  1.00  0.00    -0.376 OA
BRANCH   2   3
ATOM      3  C   UNL A   1      38.051  29.493  28.354  1.00  0.00     0.202 C 
BRANCH   3   4
ATOM      4  C   UNL A   1      39.557  29.198  28.416  1.00  0.00     0.261 C 
BRANCH   4   5
ATOM      5  O   UNL A   1      39.978  28.075  27.624  1.00  0.00    -0.461 OA
BRANCH   5   6
ATOM      6  C   UNL A   1      39.882  26.848  28.216  1.00  0.00     0.347 C 
ATOM      7  O   UNL A   1      39.694  26.674  29.417  1.00  0.00    -0.248 OA
BRANCH   6   8
ATOM      8  C   UNL A   1      40.039  25.683  27.227  1.00  0.00     0.282 C 
BRANCH   8   9
ATOM      9  C   UNL A   1      41.481  25.140  27.108  1.00  0.00     0.054 C 
ATOM     10  C   UNL A   1      42.278  25.790  25.975  1.00  0.00     0.008 C 
ENDBRANCH   8   9
BRANCH   8  11
ATOM     11  O   UNL A   1      39.113  24.714  27.764  1.00  0.00    -0.479 OA
BRANCH  11  12
ATOM     12  C   UNL A   1      38.667  23.810  26.847  1.00  0.00     0.121 A 
ATOM     13  C   UNL A   1      39.381  22.653  26.566  1.00  0.00     0.046 A 
ATOM     14  C   UNL A   1      37.550  24.137  26.093  1.00  0.00     0.054 A 
ATOM     15  C   UNL A   1      38.930  21.804  25.548  1.00  0.00     0.004 A 
ATOM     16  C   UNL A   1      37.084  23.303  25.071  1.00  0.00    -0.021 A 
ATOM     17  C   UNL A   1      37.776  22.118  24.813  1.00  0.00     0.008 A 
BRANCH  16  18
ATOM     18  C   UNL A   1      35.816  23.639  24.402  1.00  0.00     0.029 C 
ATOM     19  C   UNL A   1      34.738  22.836  24.345  1.00  0.00     0.083 C 
ATOM     20  S   UNL A   1      33.475  23.029  23.200  1.00  0.00    -0.022 SA
ATOM     21  C   UNL A   1      34.521  21.568  25.103  1.00  0.00     0.272 C 
ATOM     22  C   UNL A   1      32.986  21.338  23.357  1.00  0.00     0.298 C 
ATOM     23  N   UNL A   1      33.657  20.736  24.407  1.00  0.00    -0.236 N 
ATOM     24  O   UNL A   1      35.061  21.363  26.182  1.00  0.00    -0.268 OA
ATOM     25  O   UNL A   1      32.131  20.874  22.622  1.00  0.00    -0.260 OA
BRANCH  23  26
ATOM     26  C   UNL A   1      33.458  19.358  24.768  1.00  0.00     0.057 A 
ATOM     27  C   UNL A   1      32.537  18.992  25.764  1.00  0.00     0.027 A 
ATOM     28  C   UNL A   1      34.211  18.327  24.170  1.00  0.00     0.073 A 
ATOM     29  C   UNL A   1      32.368  17.660  26.150  1.00  0.00     0.006 A 
ATOM     30  C   UNL A   1      34.063  16.991  24.572  1.00  0.00     0.120 A 
ATOM     31  C   UNL A   1      33.130  16.666  25.553  1.00  0.00     0.046 A 
BRANCH  30  32
ATOM     32  O   UNL A   1      34.764  15.920  24.086  1.00  0.00    -0.497 OA
ATOM     33  C   UNL A   1      35.482  15.138  25.033  1.00  0.00     0.278 C 
ENDBRANCH  30  32
ENDBRANCH  23  26
ENDBRANCH  16  18
ENDBRANCH  11  12
ENDBRANCH   8  11
ENDBRANCH   6   8
ENDBRANCH   5   6
ENDBRANCH   4   5
ENDBRANCH   3   4
ENDBRANCH   2   3
ENDBRANCH   1   2
BRANCH   1  34
ATOM     34  C   UNL A   1      39.162  32.324  29.784  1.00  0.00     0.188 C 
BRANCH  34  35
ATOM     35  O   UNL A   1      39.153  33.353  30.770  1.00  0.00    -0.376 OA
BRANCH  35  36
ATOM     36  C   UNL A   1      39.137  34.692  30.261  1.00  0.00     0.202 C 
BRANCH  36  37
ATOM     37  C   UNL A   1      39.873  34.923  28.924  1.00  0.00     0.261 C 
BRANCH  37  38
ATOM     38  O   UNL A   1      41.284  35.192  29.058  1.00  0.00    -0.460 OA
BRANCH  38  39
ATOM     39  C   UNL A   1      41.949  35.595  27.948  1.00  0.00     0.338 C 
ATOM     40  O   UNL A   1      41.867  36.688  27.415  1.00  0.00    -0.246 OA
BRANCH  39  41
ATOM     41  C   UNL A   1      43.003  34.588  27.645  1.00  0.00     0.060 A 
ATOM     42  C   UNL A   1      43.431  33.748  28.682  1.00  0.00     0.016 A 
ATOM     43  C   UNL A   1      43.508  34.412  26.352  1.00  0.00     0.016 A 
ATOM     44  C   UNL A   1      44.397  32.766  28.441  1.00  0.00     0.010 A 
ATOM     45  C   UNL A   1      44.481  33.433  26.114  1.00  0.00     0.010 A 
ATOM     46  C   UNL A   1      44.958  32.630  27.164  1.00  0.00    -0.014 A 
BRANCH  46  47
ATOM     47  C   UNL A   1      46.185  31.815  26.977  1.00  0.00     0.031 A 
ATOM     48  C   UNL A   1      47.514  32.526  26.984  1.00  0.00     0.074 A 
ATOM     49  C   UNL A   1      46.145  30.478  26.828  1.00  0.00     0.049 A 
ATOM     50  N   UNL A   1      48.717  32.040  26.824  1.00  0.00    -0.248 NA
ATOM     51  C   UNL A   1      47.475  33.982  27.203  1.00  0.00     0.031 C 
ATOM     52  C   UNL A   1      44.938  29.654  26.841  1.00  0.00     0.029 A 
ATOM     53  N   UNL A   1      47.165  29.577  26.629  1.00  0.00    -0.354 N 
ATOM     54  C   UNL A   1      49.577  33.127  26.923  1.00  0.00     0.074 A 
ATOM     55  C   UNL A   1      48.758  34.301  27.123  1.00  0.00     0.031 C 
ATOM     56  C   UNL A   1      45.287  28.368  26.650  1.00  0.00     0.029 A 
ATOM     57  C   UNL A   1      46.736  28.280  26.473  1.00  0.00     0.049 A 
ATOM     58  H   UNL A   1      48.114  29.837  26.603  1.00  0.00     0.167 HD
ATOM     59  C   UNL A   1      50.929  33.151  26.864  1.00  0.00     0.031 A 
ATOM     60  C   UNL A   1      47.430  27.155  26.199  1.00  0.00     0.031 A 
ATOM     61  C   UNL A   1      51.753  31.995  26.639  1.00  0.00     0.049 A 
ATOM     62  C   UNL A   1      48.931  27.218  26.050  1.00  0.00     0.074 A 
ATOM     63  C   UNL A   1      53.133  31.926  26.562  1.00  0.00     0.029 A 
ATOM     64  N   UNL A   1      51.276  30.709  26.446  1.00  0.00    -0.354 N 
ATOM     65  N   UNL A   1      49.731  28.250  26.172  1.00  0.00    -0.248 NA
ATOM     66  C   UNL A   1      49.623  25.959  25.731  1.00  0.00     0.031 C 
ATOM     67  C   UNL A   1      53.488  30.606  26.268  1.00  0.00     0.029 A 
ATOM     68  C   UNL A   1      52.333  29.842  26.225  1.00  0.00     0.049 A 
ATOM     69  H   UNL A   1      50.327  30.449  26.464  1.00  0.00     0.167 HD
ATOM     70  C   UNL A   1      51.019  27.759  25.974  1.00  0.00     0.074 A 
ATOM     71  C   UNL A   1      50.894  26.336  25.736  1.00  0.00     0.031 C 
ATOM     72  C   UNL A   1      52.201  28.426  25.992  1.00  0.00     0.031 A 
BRANCH  59  73
ATOM     73  C   UNL A   1      51.598  34.490  27.012  1.00  0.00    -0.014 A 
ATOM     74  C   UNL A   1      51.780  35.335  25.904  1.00  0.00     0.010 A 
ATOM     75  C   UNL A   1      52.032  34.916  28.281  1.00  0.00     0.010 A 
ATOM     76  C   UNL A   1      52.421  36.567  26.054  1.00  0.00     0.020 A 
ATOM     77  C   UNL A   1      52.648  36.159  28.439  1.00  0.00     0.020 A 
ATOM     78  C   UNL A   1      52.855  36.968  27.321  1.00  0.00     0.054 A 
BRANCH  78  79
ATOM     79  S   UNL A   1      53.673  38.578  27.490  1.00  0.00     0.124 S 
ATOM     80  O   UNL A   1      52.621  39.495  27.060  1.00  0.00    -0.237 OA
ATOM     81  O   UNL A   1      54.001  38.623  28.914  1.00  0.00    -0.237 OA
ATOM     82  O   UNL A   1      54.820  38.481  26.593  1.00  0.00    -0.744 OA
ENDBRANCH  78  79
ENDBRANCH  59  73
BRANCH  60  83
ATOM     83  C   UNL A   1      46.713  25.861  26.019  1.00  0.00    -0.014 A 
ATOM     84  C   UNL A   1      46.711  24.890  27.037  1.00  0.00     0.010 A 
ATOM     85  C   UNL A   1      46.046  25.585  24.812  1.00  0.00     0.010 A 
ATOM     86  C   UNL A   1      46.071  23.662  26.844  1.00  0.00     0.020 A 
ATOM     87  C   UNL A   1      45.381  24.370  24.625  1.00  0.00     0.020 A 
ATOM     88  C   UNL A   1      45.409  23.410  25.638  1.00  0.00     0.054 A 
BRANCH  88  89
ATOM     89  S   UNL A   1      44.546  21.827  25.425  1.00  0.00     0.124 S 
ATOM     90  O   UNL A   1      45.460  20.894  26.074  1.00  0.00    -0.237 OA
ATOM     91  O   UNL A   1      43.283  22.062  26.120  1.00  0.00    -0.237 OA
ATOM     92  O   UNL A   1      44.436  21.692  23.975  1.00  0.00    -0.744 OA
ENDBRANCH  88  89
ENDBRANCH  60  83
BRANCH  72  93
ATOM     93  C   UNL A   1      53.464  27.630  25.786  1.00  0.00    -0.014 A 
ATOM     94  C   UNL A   1      54.048  27.497  24.514  1.00  0.00     0.010 A 
ATOM     95  C   UNL A   1      54.115  27.065  26.899  1.00  0.00     0.010 A 
ATOM     96  C   UNL A   1      55.244  26.789  24.355  1.00  0.00     0.020 A 
ATOM     97  C   UNL A   1      55.324  26.380  26.749  1.00  0.00     0.020 A 
ATOM     98  C   UNL A   1      55.875  26.234  25.474  1.00  0.00     0.054 A 
BRANCH  98  99
ATOM     99  S   UNL A   1      57.450  25.362  25.249  1.00  0.00     0.124 S 
ATOM    100  O   UNL A   1      58.170  26.263  24.354  1.00  0.00    -0.237 OA
ATOM    101  O   UNL A   1      57.970  25.280  26.612  1.00  0.00    -0.237 OA
ATOM    102  O   UNL A   1      57.057  24.083  24.661  1.00  0.00    -0.744 OA
ENDBRANCH  98  99
ENDBRANCH  72  93
ENDBRANCH  46  47
ENDBRANCH  39  41
ENDBRANCH  38  39
ENDBRANCH  37  38
ENDBRANCH  36  37
ENDBRANCH  35  36
ENDBRANCH  34  35
ENDBRANCH   1  34
TORSDOF 26
ENDMDL
