MODEL 1
REMARK VINA RESULT:      -9.1      0.000      0.000
REMARK SMILES C[C@@H](Oc1ccc(C(C)(C)C)cc1)C(=O)Oc1cccc(C(=O)OCCOCCOCCOC(=O)c2ccc(-c3c4nc(c(-c5ccc(S(=O)(=O)[O-])cc5)c5ccc([nH]5)c(-c5ccc(S(=O)(=O)[O-])cc5)c5nc(c(-c6ccc(S(=O)(=O)[O-])cc6)c6ccc3[nH]6)C=C5)C=C4)cc2)c1
REMARK SMILES IDX 27 1 26 2 25 3 24 4 22 5 23 6 21 7 17 8 18 9 96 10 19 11
REMARK SMILES IDX 20 12 16 13 14 14 15 15 2 16 1 17 3 18 4 19 5 20 13 21 6 22
REMARK SMILES IDX 12 23 7 24 8 25 9 26 10 27 11 28 28 29 29 30 30 31 31 32
REMARK SMILES IDX 32 33 33 34 34 35 35 36 36 37 37 38 95 39 38 40 94 41 39 42
REMARK SMILES IDX 40 43 41 44 88 45 42 46 93 47 87 48 89 49 43 50 92 51 86 52
REMARK SMILES IDX 85 53 44 55 74 56 55 57 73 58 56 59 59 60 72 61 90 62 57 63
REMARK SMILES IDX 58 64 71 66 91 67 60 68 45 69 46 70 54 71 47 72 53 73 48 74
REMARK SMILES IDX 49 75 50 76 51 77 52 78 75 79 76 80 84 81 77 82 83 83 78 84
REMARK SMILES IDX 79 85 80 86 81 87 82 88 61 89 62 90 70 91 63 92 69 93 64 94
REMARK SMILES IDX 65 95 66 96 67 97 68 98
REMARK H PARENT 89 54 59 65
REMARK Flexibility Score: inf
ROOT
ATOM      1  O   UNL A   1      41.015  22.552  27.574  1.00  0.00    -0.376 OA
ENDROOT
BRANCH   1   2
ATOM      2  C   UNL A   1      39.770  22.666  26.905  1.00  0.00     0.202 C 
BRANCH   2   3
ATOM      3  C   UNL A   1      39.168  21.584  25.992  1.00  0.00     0.261 C 
BRANCH   3   4
ATOM      4  O   UNL A   1      37.765  21.676  25.750  1.00  0.00    -0.460 OA
BRANCH   4   5
ATOM      5  C   UNL A   1      37.218  20.647  25.053  1.00  0.00     0.338 C 
ATOM      6  O   UNL A   1      37.783  19.636  24.666  1.00  0.00    -0.246 OA
BRANCH   5   7
ATOM      7  C   UNL A   1      35.756  20.844  24.994  1.00  0.00     0.063 A 
ATOM      8  C   UNL A   1      33.825  22.264  25.164  1.00  0.00     0.131 A 
ATOM      9  C   UNL A   1      32.985  21.159  24.998  1.00  0.00     0.047 A 
ATOM     10  C   UNL A   1      35.206  22.107  25.212  1.00  0.00     0.063 A 
ATOM     11  C   UNL A   1      33.538  19.890  24.814  1.00  0.00     0.005 A 
ATOM     12  C   UNL A   1      34.926  19.733  24.789  1.00  0.00     0.016 A 
BRANCH   8  13
ATOM     13  O   UNL A   1      33.210  23.518  25.310  1.00  0.00    -0.424 OA
BRANCH  13  14
ATOM     14  C   UNL A   1      33.295  24.420  24.245  1.00  0.00     0.352 C 
ATOM     15  O   UNL A   1      33.458  24.142  23.061  1.00  0.00    -0.247 OA
BRANCH  14  16
ATOM     16  C   UNL A   1      32.985  25.832  24.721  1.00  0.00     0.279 C 
ATOM     17  C   UNL A   1      33.964  26.103  25.864  1.00  0.00     0.066 C 
BRANCH  16  18
ATOM     18  O   UNL A   1      33.097  26.761  23.635  1.00  0.00    -0.479 OA
BRANCH  18  19
ATOM     19  C   UNL A   1      31.998  27.562  23.493  1.00  0.00     0.120 A 
ATOM     20  C   UNL A   1      31.031  27.228  22.552  1.00  0.00     0.047 A 
ATOM     21  C   UNL A   1      31.893  28.763  24.181  1.00  0.00     0.047 A 
ATOM     22  C   UNL A   1      29.929  28.075  22.349  1.00  0.00     0.008 A 
ATOM     23  C   UNL A   1      30.786  29.592  23.999  1.00  0.00     0.008 A 
ATOM     24  C   UNL A   1      29.773  29.268  23.084  1.00  0.00    -0.042 A 
BRANCH  24  25
ATOM     25  C   UNL A   1      28.573  30.202  22.848  1.00  0.00    -0.013 C 
ATOM     26  C   UNL A   1      28.669  31.397  23.818  1.00  0.00     0.016 C 
ATOM     27  C   UNL A   1      28.564  30.721  21.395  1.00  0.00     0.016 C 
ATOM     28  C   UNL A   1      27.205  29.518  23.087  1.00  0.00     0.016 C 
ENDBRANCH  24  25
ENDBRANCH  18  19
ENDBRANCH  16  18
ENDBRANCH  14  16
ENDBRANCH  13  14
ENDBRANCH   8  13
ENDBRANCH   5   7
ENDBRANCH   4   5
ENDBRANCH   3   4
ENDBRANCH   2   3
ENDBRANCH   1   2
BRANCH   1  29
ATOM     29  C   UNL A   1      42.219  22.940  26.943  1.00  0.00     0.188 C 
BRANCH  29  30
ATOM     30  C   UNL A   1      43.002  21.913  26.101  1.00  0.00     0.188 C 
BRANCH  30  31
ATOM     31  O   UNL A   1      43.638  22.348  24.923  1.00  0.00    -0.376 OA
BRANCH  31  32
ATOM     32  C   UNL A   1      44.788  23.171  24.996  1.00  0.00     0.202 C 
BRANCH  32  33
ATOM     33  C   UNL A   1      45.326  23.875  26.261  1.00  0.00     0.261 C 
BRANCH  33  34
ATOM     34  O   UNL A   1      46.714  24.206  26.321  1.00  0.00    -0.460 OA
BRANCH  34  35
ATOM     35  C   UNL A   1      47.159  25.039  25.347  1.00  0.00     0.338 C 
ATOM     36  O   UNL A   1      47.422  24.750  24.193  1.00  0.00    -0.246 OA
BRANCH  35  37
ATOM     37  C   UNL A   1      47.109  26.426  25.848  1.00  0.00     0.060 A 
ATOM     38  C   UNL A   1      47.600  26.700  27.133  1.00  0.00     0.016 A 
ATOM     39  C   UNL A   1      46.548  27.440  25.072  1.00  0.00     0.016 A 
ATOM     40  C   UNL A   1      47.515  27.991  27.652  1.00  0.00     0.010 A 
ATOM     41  C   UNL A   1      46.444  28.729  25.604  1.00  0.00     0.010 A 
ATOM     42  C   UNL A   1      46.901  29.004  26.906  1.00  0.00    -0.014 A 
BRANCH  42  43
ATOM     43  C   UNL A   1      46.584  30.307  27.540  1.00  0.00     0.031 A 
ATOM     44  C   UNL A   1      45.320  30.427  28.347  1.00  0.00     0.074 A 
ATOM     45  C   UNL A   1      47.402  31.366  27.405  1.00  0.00     0.049 A 
ATOM     46  N   UNL A   1      44.809  31.475  28.938  1.00  0.00    -0.248 NA
ATOM     47  C   UNL A   1      44.524  29.198  28.502  1.00  0.00     0.031 C 
ATOM     48  C   UNL A   1      48.674  31.367  26.687  1.00  0.00     0.029 A 
ATOM     49  N   UNL A   1      47.269  32.655  27.861  1.00  0.00    -0.354 N 
ATOM     50  C   UNL A   1      43.624  31.040  29.520  1.00  0.00     0.074 A 
ATOM     51  C   UNL A   1      43.480  29.639  29.186  1.00  0.00     0.031 C 
ATOM     52  C   UNL A   1      49.201  32.603  26.740  1.00  0.00     0.029 A 
ATOM     53  C   UNL A   1      48.285  33.488  27.458  1.00  0.00     0.049 A 
ATOM     54  H   UNL A   1      46.517  32.953  28.422  1.00  0.00     0.167 HD
ATOM     55  C   UNL A   1      42.735  31.741  30.265  1.00  0.00     0.031 A 
ATOM     56  C   UNL A   1      48.444  34.817  27.625  1.00  0.00     0.031 A 
ATOM     57  C   UNL A   1      42.871  33.141  30.572  1.00  0.00     0.049 A 
ATOM     58  C   UNL A   1      47.406  35.597  28.390  1.00  0.00     0.074 A 
ATOM     59  C   UNL A   1      42.036  33.939  31.334  1.00  0.00     0.029 A 
ATOM     60  N   UNL A   1      43.899  33.956  30.119  1.00  0.00    -0.354 N 
ATOM     61  N   UNL A   1      46.305  35.167  28.962  1.00  0.00    -0.248 NA
ATOM     62  C   UNL A   1      47.636  37.040  28.540  1.00  0.00     0.031 C 
ATOM     63  C   UNL A   1      42.520  35.250  31.284  1.00  0.00     0.029 A 
ATOM     64  C   UNL A   1      43.700  35.255  30.557  1.00  0.00     0.049 A 
ATOM     65  H   UNL A   1      44.657  33.657  29.568  1.00  0.00     0.167 HD
ATOM     66  C   UNL A   1      45.728  36.281  29.565  1.00  0.00     0.074 A 
ATOM     67  C   UNL A   1      46.608  37.400  29.297  1.00  0.00     0.031 C 
ATOM     68  C   UNL A   1      44.579  36.367  30.281  1.00  0.00     0.031 A 
BRANCH  55  69
ATOM     69  C   UNL A   1      41.511  31.009  30.752  1.00  0.00    -0.014 A 
ATOM     70  C   UNL A   1      41.552  30.181  31.889  1.00  0.00     0.010 A 
ATOM     71  C   UNL A   1      40.293  31.164  30.065  1.00  0.00     0.010 A 
ATOM     72  C   UNL A   1      40.414  29.479  32.294  1.00  0.00     0.020 A 
ATOM     73  C   UNL A   1      39.144  30.490  30.487  1.00  0.00     0.020 A 
ATOM     74  C   UNL A   1      39.217  29.634  31.587  1.00  0.00     0.054 A 
BRANCH  74  75
ATOM     75  S   UNL A   1      37.757  28.709  32.134  1.00  0.00     0.124 S 
ATOM     76  O   UNL A   1      36.759  29.109  31.144  1.00  0.00    -0.237 OA
ATOM     77  O   UNL A   1      38.207  27.322  32.047  1.00  0.00    -0.237 OA
ATOM     78  O   UNL A   1      37.521  29.201  33.489  1.00  0.00    -0.744 OA
ENDBRANCH  74  75
ENDBRANCH  55  69
BRANCH  56  79
ATOM     79  C   UNL A   1      49.634  35.495  27.040  1.00  0.00    -0.014 A 
ATOM     80  C   UNL A   1      49.596  36.013  25.733  1.00  0.00     0.010 A 
ATOM     81  C   UNL A   1      50.809  35.646  27.799  1.00  0.00     0.010 A 
ATOM     82  C   UNL A   1      50.709  36.668  25.199  1.00  0.00     0.020 A 
ATOM     83  C   UNL A   1      51.914  36.326  27.279  1.00  0.00     0.020 A 
ATOM     84  C   UNL A   1      51.858  36.829  25.978  1.00  0.00     0.054 A 
BRANCH  84  85
ATOM     85  S   UNL A   1      53.260  37.751  25.288  1.00  0.00     0.124 S 
ATOM     86  O   UNL A   1      53.076  39.073  25.878  1.00  0.00    -0.237 OA
ATOM     87  O   UNL A   1      54.406  36.992  25.782  1.00  0.00    -0.237 OA
ATOM     88  O   UNL A   1      53.046  37.675  23.845  1.00  0.00    -0.744 OA
ENDBRANCH  84  85
ENDBRANCH  56  79
BRANCH  68  89
ATOM     89  C   UNL A   1      44.216  37.708  30.867  1.00  0.00    -0.014 A 
ATOM     90  C   UNL A   1      43.702  38.747  30.070  1.00  0.00     0.010 A 
ATOM     91  C   UNL A   1      44.330  37.908  32.256  1.00  0.00     0.010 A 
ATOM     92  C   UNL A   1      43.342  39.970  30.646  1.00  0.00     0.020 A 
ATOM     93  C   UNL A   1      43.941  39.116  32.840  1.00  0.00     0.020 A 
ATOM     94  C   UNL A   1      43.462  40.146  32.029  1.00  0.00     0.054 A 
BRANCH  94  95
ATOM     95  S   UNL A   1      42.945  41.725  32.756  1.00  0.00     0.124 S 
ATOM     96  O   UNL A   1      42.123  41.287  33.882  1.00  0.00    -0.237 OA
ATOM     97  O   UNL A   1      44.219  42.346  33.112  1.00  0.00    -0.237 OA
ATOM     98  O   UNL A   1      42.216  42.384  31.674  1.00  0.00    -0.744 OA
ENDBRANCH  94  95
ENDBRANCH  68  89
ENDBRANCH  42  43
ENDBRANCH  35  37
ENDBRANCH  34  35
ENDBRANCH  33  34
ENDBRANCH  32  33
ENDBRANCH  31  32
ENDBRANCH  30  31
ENDBRANCH  29  30
ENDBRANCH   1  29
TORSDOF 26
ENDMDL
MODEL 2
REMARK VINA RESULT:      -9.1      1.469      7.753
REMARK SMILES C[C@@H](Oc1ccc(C(C)(C)C)cc1)C(=O)Oc1cccc(C(=O)OCCOCCOCCOC(=O)c2ccc(-c3c4nc(c(-c5ccc(S(=O)(=O)[O-])cc5)c5ccc([nH]5)c(-c5ccc(S(=O)(=O)[O-])cc5)c5nc(c(-c6ccc(S(=O)(=O)[O-])cc6)c6ccc3[nH]6)C=C5)C=C4)cc2)c1
REMARK SMILES IDX 27 1 26 2 25 3 24 4 22 5 23 6 21 7 17 8 18 9 96 10 19 11
REMARK SMILES IDX 20 12 16 13 14 14 15 15 2 16 1 17 3 18 4 19 5 20 13 21 6 22
REMARK SMILES IDX 12 23 7 24 8 25 9 26 10 27 11 28 28 29 29 30 30 31 31 32
REMARK SMILES IDX 32 33 33 34 34 35 35 36 36 37 37 38 95 39 38 40 94 41 39 42
REMARK SMILES IDX 40 43 41 44 88 45 42 46 93 47 87 48 89 49 43 50 92 51 86 52
REMARK SMILES IDX 85 53 44 55 74 56 55 57 73 58 56 59 59 60 72 61 90 62 57 63
REMARK SMILES IDX 58 64 71 66 91 67 60 68 45 69 46 70 54 71 47 72 53 73 48 74
REMARK SMILES IDX 49 75 50 76 51 77 52 78 75 79 76 80 84 81 77 82 83 83 78 84
REMARK SMILES IDX 79 85 80 86 81 87 82 88 61 89 62 90 70 91 63 92 69 93 64 94
REMARK SMILES IDX 65 95 66 96 67 97 68 98
REMARK H PARENT 89 54 59 65
REMARK Flexibility Score: inf
ROOT
ATOM      1  O   UNL A   1      39.988  23.448  27.200  1.00  0.00    -0.376 OA
ENDROOT
BRANCH   1   2
ATOM      2  C   UNL A   1      38.749  23.407  26.512  1.00  0.00     0.202 C 
BRANCH   2   3
ATOM      3  C   UNL A   1      38.281  22.241  25.626  1.00  0.00     0.261 C 
BRANCH   3   4
ATOM      4  O   UNL A   1      36.870  22.057  25.522  1.00  0.00    -0.460 OA
BRANCH   4   5
ATOM      5  C   UNL A   1      36.463  20.820  25.137  1.00  0.00     0.338 C 
ATOM      6  O   UNL A   1      37.151  19.817  25.033  1.00  0.00    -0.246 OA
BRANCH   5   7
ATOM      7  C   UNL A   1      34.989  20.817  25.045  1.00  0.00     0.063 A 
ATOM      8  C   UNL A   1      32.876  21.944  25.246  1.00  0.00     0.131 A 
ATOM      9  C   UNL A   1      32.202  20.749  24.982  1.00  0.00     0.047 A 
ATOM     10  C   UNL A   1      34.264  21.975  25.328  1.00  0.00     0.063 A 
ATOM     11  C   UNL A   1      32.930  19.583  24.734  1.00  0.00     0.005 A 
ATOM     12  C   UNL A   1      34.326  19.620  24.743  1.00  0.00     0.016 A 
BRANCH   8  13
ATOM     13  O   UNL A   1      32.089  23.089  25.454  1.00  0.00    -0.424 OA
BRANCH  13  14
ATOM     14  C   UNL A   1      31.916  23.971  24.383  1.00  0.00     0.352 C 
ATOM     15  O   UNL A   1      31.989  23.696  23.189  1.00  0.00    -0.247 OA
BRANCH  14  16
ATOM     16  C   UNL A   1      31.445  25.328  24.885  1.00  0.00     0.279 C 
ATOM     17  C   UNL A   1      31.765  25.345  26.381  1.00  0.00     0.066 C 
BRANCH  16  18
ATOM     18  O   UNL A   1      32.080  26.381  24.149  1.00  0.00    -0.479 OA
BRANCH  18  19
ATOM     19  C   UNL A   1      31.264  27.457  23.931  1.00  0.00     0.120 A 
ATOM     20  C   UNL A   1      30.313  27.394  22.920  1.00  0.00     0.047 A 
ATOM     21  C   UNL A   1      31.453  28.649  24.616  1.00  0.00     0.047 A 
ATOM     22  C   UNL A   1      29.512  28.514  22.642  1.00  0.00     0.008 A 
ATOM     23  C   UNL A   1      30.641  29.754  24.358  1.00  0.00     0.008 A 
ATOM     24  C   UNL A   1      29.646  29.714  23.370  1.00  0.00    -0.042 A 
BRANCH  24  25
ATOM     25  C   UNL A   1      28.779  30.944  23.051  1.00  0.00    -0.013 C 
ATOM     26  C   UNL A   1      27.328  30.664  23.495  1.00  0.00     0.016 C 
ATOM     27  C   UNL A   1      29.308  32.190  23.790  1.00  0.00     0.016 C 
ATOM     28  C   UNL A   1      28.744  31.298  21.544  1.00  0.00     0.016 C 
ENDBRANCH  24  25
ENDBRANCH  18  19
ENDBRANCH  16  18
ENDBRANCH  14  16
ENDBRANCH  13  14
ENDBRANCH   8  13
ENDBRANCH   5   7
ENDBRANCH   4   5
ENDBRANCH   3   4
ENDBRANCH   2   3
ENDBRANCH   1   2
BRANCH   1  29
ATOM     29  C   UNL A   1      41.212  23.497  26.494  1.00  0.00     0.188 C 
BRANCH  29  30
ATOM     30  C   UNL A   1      41.974  22.190  26.199  1.00  0.00     0.188 C 
BRANCH  30  31
ATOM     31  O   UNL A   1      42.755  22.110  25.031  1.00  0.00    -0.376 OA
BRANCH  31  32
ATOM     32  C   UNL A   1      44.091  22.579  25.034  1.00  0.00     0.202 C 
BRANCH  32  33
ATOM     33  C   UNL A   1      44.929  22.936  26.280  1.00  0.00     0.261 C 
BRANCH  33  34
ATOM     34  O   UNL A   1      46.326  23.187  26.117  1.00  0.00    -0.460 OA
BRANCH  34  35
ATOM     35  C   UNL A   1      46.640  24.225  25.300  1.00  0.00     0.338 C 
ATOM     36  O   UNL A   1      47.045  24.164  24.154  1.00  0.00    -0.246 OA
BRANCH  35  37
ATOM     37  C   UNL A   1      46.241  25.484  25.957  1.00  0.00     0.060 A 
ATOM     38  C   UNL A   1      45.403  26.372  25.266  1.00  0.00     0.016 A 
ATOM     39  C   UNL A   1      46.717  25.803  27.228  1.00  0.00     0.016 A 
ATOM     40  C   UNL A   1      45.055  27.594  25.840  1.00  0.00     0.010 A 
ATOM     41  C   UNL A   1      46.384  27.037  27.793  1.00  0.00     0.010 A 
ATOM     42  C   UNL A   1      45.575  27.950  27.090  1.00  0.00    -0.014 A 
BRANCH  42  43
ATOM     43  C   UNL A   1      45.414  29.335  27.595  1.00  0.00     0.031 A 
ATOM     44  C   UNL A   1      46.561  30.297  27.440  1.00  0.00     0.074 A 
ATOM     45  C   UNL A   1      44.272  29.737  28.180  1.00  0.00     0.049 A 
ATOM     46  N   UNL A   1      46.672  31.531  27.857  1.00  0.00    -0.248 NA
ATOM     47  C   UNL A   1      47.743  29.793  26.722  1.00  0.00     0.031 C 
ATOM     48  C   UNL A   1      43.074  28.916  28.352  1.00  0.00     0.029 A 
ATOM     49  N   UNL A   1      43.942  30.941  28.753  1.00  0.00    -0.354 N 
ATOM     50  C   UNL A   1      47.940  31.948  27.469  1.00  0.00     0.074 A 
ATOM     51  C   UNL A   1      48.570  30.824  26.809  1.00  0.00     0.031 C 
ATOM     52  C   UNL A   1      42.143  29.638  29.000  1.00  0.00     0.029 A 
ATOM     53  C   UNL A   1      42.692  30.955  29.324  1.00  0.00     0.049 A 
ATOM     54  H   UNL A   1      44.544  31.720  28.755  1.00  0.00     0.167 HD
ATOM     55  C   UNL A   1      48.528  33.155  27.646  1.00  0.00     0.031 A 
ATOM     56  C   UNL A   1      42.072  31.908  30.049  1.00  0.00     0.031 A 
ATOM     57  C   UNL A   1      47.907  34.261  28.326  1.00  0.00     0.049 A 
ATOM     58  C   UNL A   1      42.773  33.217  30.303  1.00  0.00     0.074 A 
ATOM     59  C   UNL A   1      48.411  35.532  28.541  1.00  0.00     0.029 A 
ATOM     60  N   UNL A   1      46.652  34.224  28.917  1.00  0.00    -0.354 N 
ATOM     61  N   UNL A   1      43.960  33.610  29.904  1.00  0.00    -0.248 NA
ATOM     62  C   UNL A   1      42.046  34.218  31.098  1.00  0.00     0.031 C 
ATOM     63  C   UNL A   1      47.492  36.240  29.322  1.00  0.00     0.029 A 
ATOM     64  C   UNL A   1      46.379  35.438  29.526  1.00  0.00     0.049 A 
ATOM     65  H   UNL A   1      46.044  33.450  28.906  1.00  0.00     0.167 HD
ATOM     66  C   UNL A   1      44.109  34.912  30.373  1.00  0.00     0.074 A 
ATOM     67  C   UNL A   1      42.886  35.244  31.075  1.00  0.00     0.031 C 
ATOM     68  C   UNL A   1      45.160  35.758  30.229  1.00  0.00     0.031 A 
BRANCH  55  69
ATOM     69  C   UNL A   1      49.938  33.319  27.138  1.00  0.00    -0.014 A 
ATOM     70  C   UNL A   1      51.051  33.021  27.945  1.00  0.00     0.010 A 
ATOM     71  C   UNL A   1      50.152  33.769  25.821  1.00  0.00     0.010 A 
ATOM     72  C   UNL A   1      52.348  33.224  27.466  1.00  0.00     0.020 A 
ATOM     73  C   UNL A   1      51.447  33.940  25.326  1.00  0.00     0.020 A 
ATOM     74  C   UNL A   1      52.538  33.687  26.160  1.00  0.00     0.054 A 
BRANCH  74  75
ATOM     75  S   UNL A   1      54.232  33.943  25.565  1.00  0.00     0.124 S 
ATOM     76  O   UNL A   1      54.292  33.028  24.427  1.00  0.00    -0.237 OA
ATOM     77  O   UNL A   1      54.240  35.364  25.229  1.00  0.00    -0.237 OA
ATOM     78  O   UNL A   1      55.062  33.571  26.708  1.00  0.00    -0.744 OA
ENDBRANCH  74  75
ENDBRANCH  55  69
BRANCH  56  79
ATOM     79  C   UNL A   1      40.713  31.647  30.599  1.00  0.00    -0.014 A 
ATOM     80  C   UNL A   1      40.549  30.964  31.817  1.00  0.00     0.010 A 
ATOM     81  C   UNL A   1      39.571  32.103  29.914  1.00  0.00     0.010 A 
ATOM     82  C   UNL A   1      39.271  30.742  32.339  1.00  0.00     0.020 A 
ATOM     83  C   UNL A   1      38.294  31.910  30.447  1.00  0.00     0.020 A 
ATOM     84  C   UNL A   1      38.151  31.225  31.655  1.00  0.00     0.054 A 
BRANCH  84  85
ATOM     85  S   UNL A   1      36.510  30.992  32.393  1.00  0.00     0.124 S 
ATOM     86  O   UNL A   1      36.528  29.575  32.738  1.00  0.00    -0.237 OA
ATOM     87  O   UNL A   1      36.541  31.918  33.522  1.00  0.00    -0.237 OA
ATOM     88  O   UNL A   1      35.594  31.363  31.317  1.00  0.00    -0.744 OA
ENDBRANCH  84  85
ENDBRANCH  56  79
BRANCH  68  89
ATOM     89  C   UNL A   1      45.028  37.146  30.805  1.00  0.00    -0.014 A 
ATOM     90  C   UNL A   1      44.433  38.194  30.079  1.00  0.00     0.010 A 
ATOM     91  C   UNL A   1      45.450  37.387  32.127  1.00  0.00     0.010 A 
ATOM     92  C   UNL A   1      44.294  39.462  30.652  1.00  0.00     0.020 A 
ATOM     93  C   UNL A   1      45.283  38.643  32.714  1.00  0.00     0.020 A 
ATOM     94  C   UNL A   1      44.718  39.679  31.967  1.00  0.00     0.054 A 
BRANCH  94  95
ATOM     95  S   UNL A   1      44.483  41.320  32.702  1.00  0.00     0.124 S 
ATOM     96  O   UNL A   1      45.625  42.059  32.169  1.00  0.00    -0.237 OA
ATOM     97  O   UNL A   1      43.178  41.720  32.182  1.00  0.00    -0.237 OA
ATOM     98  O   UNL A   1      44.524  41.066  34.140  1.00  0.00    -0.744 OA
ENDBRANCH  94  95
ENDBRANCH  68  89
ENDBRANCH  42  43
ENDBRANCH  35  37
ENDBRANCH  34  35
ENDBRANCH  33  34
ENDBRANCH  32  33
ENDBRANCH  31  32
ENDBRANCH  30  31
ENDBRANCH  29  30
ENDBRANCH   1  29
TORSDOF 26
ENDMDL
MODEL 3
REMARK VINA RESULT:      -9.0      7.136     13.445
REMARK SMILES C[C@@H](Oc1ccc(C(C)(C)C)cc1)C(=O)Oc1cccc(C(=O)OCCOCCOCCOC(=O)c2ccc(-c3c4nc(c(-c5ccc(S(=O)(=O)[O-])cc5)c5ccc([nH]5)c(-c5ccc(S(=O)(=O)[O-])cc5)c5nc(c(-c6ccc(S(=O)(=O)[O-])cc6)c6ccc3[nH]6)C=C5)C=C4)cc2)c1
REMARK SMILES IDX 27 1 26 2 25 3 24 4 22 5 23 6 21 7 17 8 18 9 96 10 19 11
REMARK SMILES IDX 20 12 16 13 14 14 15 15 2 16 1 17 3 18 4 19 5 20 13 21 6 22
REMARK SMILES IDX 12 23 7 24 8 25 9 26 10 27 11 28 28 29 29 30 30 31 31 32
REMARK SMILES IDX 32 33 33 34 34 35 35 36 36 37 37 38 95 39 38 40 94 41 39 42
REMARK SMILES IDX 40 43 41 44 88 45 42 46 93 47 87 48 89 49 43 50 92 51 86 52
REMARK SMILES IDX 85 53 44 55 74 56 55 57 73 58 56 59 59 60 72 61 90 62 57 63
REMARK SMILES IDX 58 64 71 66 91 67 60 68 45 69 46 70 54 71 47 72 53 73 48 74
REMARK SMILES IDX 49 75 50 76 51 77 52 78 75 79 76 80 84 81 77 82 83 83 78 84
REMARK SMILES IDX 79 85 80 86 81 87 82 88 61 89 62 90 70 91 63 92 69 93 64 94
REMARK SMILES IDX 65 95 66 96 67 97 68 98
REMARK H PARENT 89 54 59 65
REMARK Flexibility Score: inf
ROOT
ATOM      1  O   UNL A   1      32.507  30.655  27.469  1.00  0.00    -0.376 OA
ENDROOT
BRANCH   1   2
ATOM      2  C   UNL A   1      32.118  29.579  26.632  1.00  0.00     0.202 C 
BRANCH   2   3
ATOM      3  C   UNL A   1      31.652  28.203  27.139  1.00  0.00     0.261 C 
BRANCH   3   4
ATOM      4  O   UNL A   1      31.010  27.365  26.180  1.00  0.00    -0.460 OA
BRANCH   4   5
ATOM      5  C   UNL A   1      31.437  26.076  26.143  1.00  0.00     0.338 C 
ATOM      6  O   UNL A   1      31.147  25.182  26.922  1.00  0.00    -0.246 OA
BRANCH   5   7
ATOM      7  C   UNL A   1      32.172  25.859  24.881  1.00  0.00     0.063 A 
ATOM      8  C   UNL A   1      33.486  24.460  23.436  1.00  0.00     0.131 A 
ATOM      9  C   UNL A   1      33.655  25.522  22.544  1.00  0.00     0.047 A 
ATOM     10  C   UNL A   1      32.789  24.635  24.627  1.00  0.00     0.063 A 
ATOM     11  C   UNL A   1      33.065  26.758  22.818  1.00  0.00     0.005 A 
ATOM     12  C   UNL A   1      32.302  26.922  23.977  1.00  0.00     0.016 A 
BRANCH   8  13
ATOM     13  O   UNL A   1      34.075  23.233  23.088  1.00  0.00    -0.424 OA
BRANCH  13  14
ATOM     14  C   UNL A   1      33.658  22.087  23.772  1.00  0.00     0.352 C 
ATOM     15  O   UNL A   1      32.696  21.378  23.493  1.00  0.00    -0.247 OA
BRANCH  14  16
ATOM     16  C   UNL A   1      34.672  21.710  24.842  1.00  0.00     0.279 C 
ATOM     17  C   UNL A   1      34.175  20.389  25.431  1.00  0.00     0.066 C 
BRANCH  16  18
ATOM     18  O   UNL A   1      35.988  21.630  24.279  1.00  0.00    -0.479 OA
BRANCH  18  19
ATOM     19  C   UNL A   1      36.944  22.232  25.049  1.00  0.00     0.120 A 
ATOM     20  C   UNL A   1      36.744  23.538  25.483  1.00  0.00     0.047 A 
ATOM     21  C   UNL A   1      38.159  21.610  25.298  1.00  0.00     0.047 A 
ATOM     22  C   UNL A   1      37.744  24.191  26.221  1.00  0.00     0.008 A 
ATOM     23  C   UNL A   1      39.144  22.249  26.052  1.00  0.00     0.008 A 
ATOM     24  C   UNL A   1      38.961  23.553  26.538  1.00  0.00    -0.042 A 
BRANCH  24  25
ATOM     25  C   UNL A   1      40.062  24.278  27.331  1.00  0.00    -0.013 C 
ATOM     26  C   UNL A   1      40.912  23.231  28.081  1.00  0.00     0.016 C 
ATOM     27  C   UNL A   1      40.970  25.091  26.385  1.00  0.00     0.016 C 
ATOM     28  C   UNL A   1      39.510  25.269  28.384  1.00  0.00     0.016 C 
ENDBRANCH  24  25
ENDBRANCH  18  19
ENDBRANCH  16  18
ENDBRANCH  14  16
ENDBRANCH  13  14
ENDBRANCH   8  13
ENDBRANCH   5   7
ENDBRANCH   4   5
ENDBRANCH   3   4
ENDBRANCH   2   3
ENDBRANCH   1   2
BRANCH   1  29
ATOM     29  C   UNL A   1      33.848  31.101  27.506  1.00  0.00     0.188 C 
BRANCH  29  30
ATOM     30  C   UNL A   1      34.987  30.075  27.673  1.00  0.00     0.188 C 
BRANCH  30  31
ATOM     31  O   UNL A   1      36.318  30.518  27.559  1.00  0.00    -0.376 OA
BRANCH  31  32
ATOM     32  C   UNL A   1      37.129  30.644  28.714  1.00  0.00     0.202 C 
BRANCH  32  33
ATOM     33  C   UNL A   1      36.864  31.576  29.916  1.00  0.00     0.261 C 
BRANCH  33  34
ATOM     34  O   UNL A   1      36.021  31.109  30.971  1.00  0.00    -0.460 OA
BRANCH  34  35
ATOM     35  C   UNL A   1      35.298  32.065  31.606  1.00  0.00     0.338 C 
ATOM     36  O   UNL A   1      34.192  32.477  31.304  1.00  0.00    -0.246 OA
BRANCH  35  37
ATOM     37  C   UNL A   1      35.985  32.424  32.862  1.00  0.00     0.060 A 
ATOM     38  C   UNL A   1      35.658  33.635  33.490  1.00  0.00     0.016 A 
ATOM     39  C   UNL A   1      36.969  31.592  33.394  1.00  0.00     0.016 A 
ATOM     40  C   UNL A   1      36.331  34.025  34.647  1.00  0.00     0.010 A 
ATOM     41  C   UNL A   1      37.656  31.995  34.542  1.00  0.00     0.010 A 
ATOM     42  C   UNL A   1      37.361  33.225  35.158  1.00  0.00    -0.014 A 
BRANCH  42  43
ATOM     43  C   UNL A   1      38.241  33.745  36.233  1.00  0.00     0.031 A 
ATOM     44  C   UNL A   1      39.458  34.542  35.846  1.00  0.00     0.074 A 
ATOM     45  C   UNL A   1      37.970  33.516  37.530  1.00  0.00     0.049 A 
ATOM     46  N   UNL A   1      40.399  35.040  36.604  1.00  0.00    -0.248 NA
ATOM     47  C   UNL A   1      39.636  34.805  34.408  1.00  0.00     0.031 C 
ATOM     48  C   UNL A   1      36.802  32.797  38.036  1.00  0.00     0.029 A 
ATOM     49  N   UNL A   1      38.673  33.857  38.659  1.00  0.00    -0.354 N 
ATOM     50  C   UNL A   1      41.291  35.661  35.738  1.00  0.00     0.074 A 
ATOM     51  C   UNL A   1      40.792  35.451  34.395  1.00  0.00     0.031 C 
ATOM     52  C   UNL A   1      36.876  32.740  39.378  1.00  0.00     0.029 A 
ATOM     53  C   UNL A   1      38.114  33.381  39.821  1.00  0.00     0.049 A 
ATOM     54  H   UNL A   1      39.499  34.393  38.638  1.00  0.00     0.167 HD
ATOM     55  C   UNL A   1      42.424  36.344  36.030  1.00  0.00     0.031 A 
ATOM     56  C   UNL A   1      38.562  33.431  41.091  1.00  0.00     0.031 A 
ATOM     57  C   UNL A   1      42.930  36.528  37.366  1.00  0.00     0.049 A 
ATOM     58  C   UNL A   1      39.864  34.128  41.390  1.00  0.00     0.074 A 
ATOM     59  C   UNL A   1      44.058  37.220  37.771  1.00  0.00     0.029 A 
ATOM     60  N   UNL A   1      42.351  36.003  38.513  1.00  0.00    -0.354 N 
ATOM     61  N   UNL A   1      40.683  34.738  40.565  1.00  0.00    -0.248 NA
ATOM     62  C   UNL A   1      40.299  34.151  42.794  1.00  0.00     0.031 C 
ATOM     63  C   UNL A   1      44.199  37.054  39.152  1.00  0.00     0.029 A 
ATOM     64  C   UNL A   1      43.116  36.326  39.620  1.00  0.00     0.049 A 
ATOM     65  H   UNL A   1      41.518  35.478  38.536  1.00  0.00     0.167 HD
ATOM     66  C   UNL A   1      41.713  35.243  41.354  1.00  0.00     0.074 A 
ATOM     67  C   UNL A   1      41.407  34.877  42.722  1.00  0.00     0.031 C 
ATOM     68  C   UNL A   1      42.808  35.952  40.980  1.00  0.00     0.031 A 
BRANCH  55  69
ATOM     69  C   UNL A   1      43.218  36.897  34.874  1.00  0.00    -0.014 A 
ATOM     70  C   UNL A   1      42.979  38.187  34.368  1.00  0.00     0.010 A 
ATOM     71  C   UNL A   1      44.231  36.112  34.292  1.00  0.00     0.010 A 
ATOM     72  C   UNL A   1      43.699  38.660  33.266  1.00  0.00     0.020 A 
ATOM     73  C   UNL A   1      44.976  36.594  33.213  1.00  0.00     0.020 A 
ATOM     74  C   UNL A   1      44.690  37.858  32.693  1.00  0.00     0.054 A 
BRANCH  74  75
ATOM     75  S   UNL A   1      45.607  38.495  31.264  1.00  0.00     0.124 S 
ATOM     76  O   UNL A   1      44.566  39.221  30.538  1.00  0.00    -0.237 OA
ATOM     77  O   UNL A   1      46.632  39.327  31.888  1.00  0.00    -0.237 OA
ATOM     78  O   UNL A   1      46.102  37.290  30.603  1.00  0.00    -0.744 OA
ENDBRANCH  74  75
ENDBRANCH  55  69
BRANCH  56  79
ATOM     79  C   UNL A   1      37.772  32.785  42.176  1.00  0.00    -0.014 A 
ATOM     80  C   UNL A   1      36.776  33.502  42.864  1.00  0.00     0.010 A 
ATOM     81  C   UNL A   1      37.998  31.437  42.513  1.00  0.00     0.010 A 
ATOM     82  C   UNL A   1      36.023  32.882  43.866  1.00  0.00     0.020 A 
ATOM     83  C   UNL A   1      37.227  30.807  43.493  1.00  0.00     0.020 A 
ATOM     84  C   UNL A   1      36.246  31.536  44.169  1.00  0.00     0.054 A 
BRANCH  84  85
ATOM     85  S   UNL A   1      35.203  30.736  45.418  1.00  0.00     0.124 S 
ATOM     86  O   UNL A   1      35.232  31.707  46.507  1.00  0.00    -0.237 OA
ATOM     87  O   UNL A   1      33.926  30.607  44.722  1.00  0.00    -0.237 OA
ATOM     88  O   UNL A   1      35.890  29.476  45.684  1.00  0.00    -0.744 OA
ENDBRANCH  84  85
ENDBRANCH  56  79
BRANCH  68  89
ATOM     89  C   UNL A   1      43.745  36.420  42.064  1.00  0.00    -0.014 A 
ATOM     90  C   UNL A   1      44.861  35.658  42.455  1.00  0.00     0.010 A 
ATOM     91  C   UNL A   1      43.540  37.680  42.658  1.00  0.00     0.010 A 
ATOM     92  C   UNL A   1      45.732  36.132  43.441  1.00  0.00     0.020 A 
ATOM     93  C   UNL A   1      44.426  38.172  43.619  1.00  0.00     0.020 A 
ATOM     94  C   UNL A   1      45.511  37.388  44.015  1.00  0.00     0.054 A 
BRANCH  94  95
ATOM     95  S   UNL A   1      46.682  38.000  45.258  1.00  0.00     0.124 S 
ATOM     96  O   UNL A   1      47.427  36.790  45.597  1.00  0.00    -0.237 OA
ATOM     97  O   UNL A   1      47.432  39.013  44.519  1.00  0.00    -0.237 OA
ATOM     98  O   UNL A   1      45.822  38.519  46.320  1.00  0.00    -0.744 OA
ENDBRANCH  94  95
ENDBRANCH  68  89
ENDBRANCH  42  43
ENDBRANCH  35  37
ENDBRANCH  34  35
ENDBRANCH  33  34
ENDBRANCH  32  33
ENDBRANCH  31  32
ENDBRANCH  30  31
ENDBRANCH  29  30
ENDBRANCH   1  29
TORSDOF 26
ENDMDL
