MODEL 1
REMARK VINA RESULT:      -7.7      0.000      0.000
REMARK SMILES COc1cc(Cl)cc(/C=C/C(=O)OCCOCCOCCOC(=O)c2ccc(-c3c4nc(c(-c5ccc(S(=O)(=O)[O-])cc5)c5ccc([nH]5)c(-c5ccc(S(=O)(=O)[O-])cc5)c5nc(c(-c6ccc(S(=O)(=O)[O-])cc6)c6ccc3[nH]6)C=C5)C=C4)cc2)c1OC
REMARK SMILES IDX 18 1 17 2 16 3 15 4 14 5 13 6 11 7 12 8 10 9 9 10 8 11 3 12
REMARK SMILES IDX 4 13 85 14 5 15 6 16 7 17 2 18 1 19 86 20 87 21 19 22 20 23
REMARK SMILES IDX 21 24 22 25 23 26 24 27 25 28 26 29 84 30 27 31 83 32 28 33
REMARK SMILES IDX 29 34 30 35 77 36 31 37 82 38 76 39 78 40 32 41 81 42 75 43
REMARK SMILES IDX 74 44 33 46 63 47 44 48 62 49 45 50 48 51 61 52 79 53 46 54
REMARK SMILES IDX 47 55 60 57 80 58 49 59 34 60 35 61 43 62 36 63 42 64 37 65
REMARK SMILES IDX 38 66 39 67 40 68 41 69 64 70 65 71 73 72 66 73 72 74 67 75
REMARK SMILES IDX 68 76 69 77 70 78 71 79 50 80 51 81 59 82 52 83 58 84 53 85
REMARK SMILES IDX 54 86 55 87 56 88 57 89
REMARK H PARENT 78 45 48 56
REMARK Flexibility Score: inf
ROOT
ATOM      1  C   UNL A   1      50.591  23.317  39.408  1.00  0.00     0.188 C 
ENDROOT
BRANCH   1   2
ATOM      2  C   UNL A   1      50.607  22.919  40.898  1.00  0.00     0.188 C 
BRANCH   2   3
ATOM      3  O   UNL A   1      50.875  21.576  41.271  1.00  0.00    -0.376 OA
BRANCH   3   4
ATOM      4  C   UNL A   1      50.850  20.554  40.287  1.00  0.00     0.202 C 
BRANCH   4   5
ATOM      5  C   UNL A   1      49.662  19.589  40.185  1.00  0.00     0.261 C 
BRANCH   5   6
ATOM      6  O   UNL A   1      49.117  19.442  38.864  1.00  0.00    -0.460 OA
BRANCH   6   7
ATOM      7  C   UNL A   1      47.775  19.614  38.777  1.00  0.00     0.330 C 
ATOM      8  O   UNL A   1      47.181  20.235  37.907  1.00  0.00    -0.247 OA
BRANCH   7   9
ATOM      9  C   UNL A   1      47.030  18.874  39.815  1.00  0.00     0.094 C 
ATOM     10  C   UNL A   1      46.569  17.617  39.721  1.00  0.00     0.019 C 
BRANCH  10  11
ATOM     11  C   UNL A   1      45.839  16.947  40.826  1.00  0.00     0.022 A 
ATOM     12  C   UNL A   1      43.798  16.022  41.798  1.00  0.00     0.162 A 
ATOM     13  C   UNL A   1      44.532  15.615  42.921  1.00  0.00     0.071 A 
ATOM     14  C   UNL A   1      44.446  16.688  40.735  1.00  0.00     0.168 A 
ATOM     15  C   UNL A   1      45.884  15.914  43.020  1.00  0.00     0.045 A 
ATOM     16  Cl  UNL A   1      46.764  15.427  44.416  1.00  0.00    -0.084 Cl
ATOM     17  C   UNL A   1      46.535  16.585  41.991  1.00  0.00     0.032 A 
BRANCH  12  18
ATOM     18  O   UNL A   1      42.473  15.678  41.698  1.00  0.00    -0.493 OA
ATOM     19  C   UNL A   1      42.248  14.328  41.295  1.00  0.00     0.278 C 
ENDBRANCH  12  18
BRANCH  14  20
ATOM     20  O   UNL A   1      43.869  17.122  39.565  1.00  0.00    -0.492 OA
ATOM     21  C   UNL A   1      43.715  16.219  38.483  1.00  0.00     0.278 C 
ENDBRANCH  14  20
ENDBRANCH  10  11
ENDBRANCH   7   9
ENDBRANCH   6   7
ENDBRANCH   5   6
ENDBRANCH   4   5
ENDBRANCH   3   4
ENDBRANCH   2   3
ENDBRANCH   1   2
BRANCH   1  22
ATOM     22  O   UNL A   1      49.372  23.201  38.717  1.00  0.00    -0.376 OA
BRANCH  22  23
ATOM     23  C   UNL A   1      49.291  23.422  37.320  1.00  0.00     0.202 C 
BRANCH  23  24
ATOM     24  C   UNL A   1      48.124  24.070  36.552  1.00  0.00     0.261 C 
BRANCH  24  25
ATOM     25  O   UNL A   1      48.261  25.421  36.115  1.00  0.00    -0.460 OA
BRANCH  25  26
ATOM     26  C   UNL A   1      48.025  26.362  37.058  1.00  0.00     0.338 C 
ATOM     27  O   UNL A   1      48.713  26.619  38.035  1.00  0.00    -0.246 OA
BRANCH  26  28
ATOM     28  C   UNL A   1      46.865  27.164  36.639  1.00  0.00     0.060 A 
ATOM     29  C   UNL A   1      45.581  26.702  36.953  1.00  0.00     0.016 A 
ATOM     30  C   UNL A   1      47.045  28.342  35.912  1.00  0.00     0.016 A 
ATOM     31  C   UNL A   1      44.465  27.414  36.519  1.00  0.00     0.010 A 
ATOM     32  C   UNL A   1      45.924  29.044  35.464  1.00  0.00     0.010 A 
ATOM     33  C   UNL A   1      44.631  28.570  35.742  1.00  0.00    -0.014 A 
BRANCH  33  34
ATOM     34  C   UNL A   1      43.457  29.197  35.090  1.00  0.00     0.031 A 
ATOM     35  C   UNL A   1      43.099  28.773  33.691  1.00  0.00     0.074 A 
ATOM     36  C   UNL A   1      42.719  30.122  35.729  1.00  0.00     0.049 A 
ATOM     37  N   UNL A   1      42.146  29.213  32.912  1.00  0.00    -0.248 NA
ATOM     38  C   UNL A   1      43.926  27.711  33.093  1.00  0.00     0.031 C 
ATOM     39  C   UNL A   1      42.940  30.583  37.100  1.00  0.00     0.029 A 
ATOM     40  N   UNL A   1      41.634  30.844  35.302  1.00  0.00    -0.354 N 
ATOM     41  C   UNL A   1      42.265  28.493  31.729  1.00  0.00     0.074 A 
ATOM     42  C   UNL A   1      43.393  27.601  31.885  1.00  0.00     0.031 C 
ATOM     43  C   UNL A   1      42.021  31.520  37.397  1.00  0.00     0.029 A 
ATOM     44  C   UNL A   1      41.172  31.747  36.229  1.00  0.00     0.049 A 
ATOM     45  H   UNL A   1      41.226  30.728  34.414  1.00  0.00     0.167 HD
ATOM     46  C   UNL A   1      41.501  28.568  30.614  1.00  0.00     0.031 A 
ATOM     47  C   UNL A   1      40.189  32.665  36.137  1.00  0.00     0.031 A 
ATOM     48  C   UNL A   1      40.389  29.465  30.455  1.00  0.00     0.049 A 
ATOM     49  C   UNL A   1      39.405  32.782  34.854  1.00  0.00     0.074 A 
ATOM     50  C   UNL A   1      39.541  29.599  29.370  1.00  0.00     0.029 A 
ATOM     51  N   UNL A   1      39.974  30.386  31.404  1.00  0.00    -0.354 N 
ATOM     52  N   UNL A   1      39.507  32.071  33.756  1.00  0.00    -0.248 NA
ATOM     53  C   UNL A   1      38.368  33.823  34.801  1.00  0.00     0.031 C 
ATOM     54  C   UNL A   1      38.649  30.642  29.639  1.00  0.00     0.029 A 
ATOM     55  C   UNL A   1      38.902  31.115  30.917  1.00  0.00     0.049 A 
ATOM     56  H   UNL A   1      40.382  30.506  32.292  1.00  0.00     0.167 HD
ATOM     57  C   UNL A   1      38.526  32.557  32.896  1.00  0.00     0.074 A 
ATOM     58  C   UNL A   1      37.836  33.615  33.604  1.00  0.00     0.031 C 
ATOM     59  C   UNL A   1      38.221  32.161  31.635  1.00  0.00     0.031 A 
BRANCH  46  60
ATOM     60  C   UNL A   1      41.869  27.678  29.458  1.00  0.00    -0.014 A 
ATOM     61  C   UNL A   1      42.925  28.008  28.590  1.00  0.00     0.010 A 
ATOM     62  C   UNL A   1      41.177  26.467  29.268  1.00  0.00     0.010 A 
ATOM     63  C   UNL A   1      43.264  27.156  27.534  1.00  0.00     0.020 A 
ATOM     64  C   UNL A   1      41.530  25.601  28.228  1.00  0.00     0.020 A 
ATOM     65  C   UNL A   1      42.564  25.958  27.361  1.00  0.00     0.054 A 
BRANCH  65  66
ATOM     66  S   UNL A   1      43.047  24.855  26.004  1.00  0.00     0.124 S 
ATOM     67  O   UNL A   1      42.597  23.556  26.497  1.00  0.00    -0.237 OA
ATOM     68  O   UNL A   1      42.295  25.391  24.872  1.00  0.00    -0.237 OA
ATOM     69  O   UNL A   1      44.496  25.021  25.920  1.00  0.00    -0.744 OA
ENDBRANCH  65  66
ENDBRANCH  46  60
BRANCH  47  70
ATOM     70  C   UNL A   1      39.898  33.572  37.283  1.00  0.00    -0.014 A 
ATOM     71  C   UNL A   1      38.910  33.239  38.226  1.00  0.00     0.010 A 
ATOM     72  C   UNL A   1      40.589  34.789  37.419  1.00  0.00     0.010 A 
ATOM     73  C   UNL A   1      38.599  34.119  39.267  1.00  0.00     0.020 A 
ATOM     74  C   UNL A   1      40.302  35.658  38.476  1.00  0.00     0.020 A 
ATOM     75  C   UNL A   1      39.297  35.324  39.385  1.00  0.00     0.054 A 
BRANCH  75  76
ATOM     76  S   UNL A   1      38.896  36.439  40.759  1.00  0.00     0.124 S 
ATOM     77  O   UNL A   1      40.194  36.599  41.407  1.00  0.00    -0.237 OA
ATOM     78  O   UNL A   1      38.384  37.621  40.069  1.00  0.00    -0.237 OA
ATOM     79  O   UNL A   1      37.901  35.693  41.525  1.00  0.00    -0.744 OA
ENDBRANCH  75  76
ENDBRANCH  47  70
BRANCH  59  80
ATOM     80  C   UNL A   1      37.062  32.838  30.951  1.00  0.00    -0.014 A 
ATOM     81  C   UNL A   1      37.258  33.931  30.089  1.00  0.00     0.010 A 
ATOM     82  C   UNL A   1      35.762  32.329  31.128  1.00  0.00     0.010 A 
ATOM     83  C   UNL A   1      36.171  34.522  29.440  1.00  0.00     0.020 A 
ATOM     84  C   UNL A   1      34.676  32.899  30.458  1.00  0.00     0.020 A 
ATOM     85  C   UNL A   1      34.886  34.002  29.628  1.00  0.00     0.054 A 
BRANCH  85  86
ATOM     86  S   UNL A   1      33.497  34.756  28.737  1.00  0.00     0.124 S 
ATOM     87  O   UNL A   1      33.084  33.673  27.847  1.00  0.00    -0.237 OA
ATOM     88  O   UNL A   1      32.562  35.076  29.812  1.00  0.00    -0.237 OA
ATOM     89  O   UNL A   1      34.096  35.912  28.075  1.00  0.00    -0.744 OA
ENDBRANCH  85  86
ENDBRANCH  59  80
ENDBRANCH  33  34
ENDBRANCH  26  28
ENDBRANCH  25  26
ENDBRANCH  24  25
ENDBRANCH  23  24
ENDBRANCH  22  23
ENDBRANCH   1  22
TORSDOF 23
ENDMDL
MODEL 2
REMARK VINA RESULT:      -7.6      9.942     20.692
REMARK SMILES COc1cc(Cl)cc(/C=C/C(=O)OCCOCCOCCOC(=O)c2ccc(-c3c4nc(c(-c5ccc(S(=O)(=O)[O-])cc5)c5ccc([nH]5)c(-c5ccc(S(=O)(=O)[O-])cc5)c5nc(c(-c6ccc(S(=O)(=O)[O-])cc6)c6ccc3[nH]6)C=C5)C=C4)cc2)c1OC
REMARK SMILES IDX 18 1 17 2 16 3 15 4 14 5 13 6 11 7 12 8 10 9 9 10 8 11 3 12
REMARK SMILES IDX 4 13 85 14 5 15 6 16 7 17 2 18 1 19 86 20 87 21 19 22 20 23
REMARK SMILES IDX 21 24 22 25 23 26 24 27 25 28 26 29 84 30 27 31 83 32 28 33
REMARK SMILES IDX 29 34 30 35 77 36 31 37 82 38 76 39 78 40 32 41 81 42 75 43
REMARK SMILES IDX 74 44 33 46 63 47 44 48 62 49 45 50 48 51 61 52 79 53 46 54
REMARK SMILES IDX 47 55 60 57 80 58 49 59 34 60 35 61 43 62 36 63 42 64 37 65
REMARK SMILES IDX 38 66 39 67 40 68 41 69 64 70 65 71 73 72 66 73 72 74 67 75
REMARK SMILES IDX 68 76 69 77 70 78 71 79 50 80 51 81 59 82 52 83 58 84 53 85
REMARK SMILES IDX 54 86 55 87 56 88 57 89
REMARK H PARENT 78 45 48 56
REMARK Flexibility Score: inf
ROOT
ATOM      1  C   UNL A   1      43.739  42.802  25.118  1.00  0.00     0.188 C 
ENDROOT
BRANCH   1   2
ATOM      2  C   UNL A   1      43.829  43.082  23.604  1.00  0.00     0.188 C 
BRANCH   2   3
ATOM      3  O   UNL A   1      44.764  42.372  22.805  1.00  0.00    -0.376 OA
BRANCH   3   4
ATOM      4  C   UNL A   1      46.066  42.117  23.307  1.00  0.00     0.202 C 
BRANCH   4   5
ATOM      5  C   UNL A   1      47.232  43.061  22.987  1.00  0.00     0.261 C 
BRANCH   5   6
ATOM      6  O   UNL A   1      47.073  43.829  21.784  1.00  0.00    -0.460 OA
BRANCH   6   7
ATOM      7  C   UNL A   1      46.857  43.098  20.663  1.00  0.00     0.330 C 
ATOM      8  O   UNL A   1      47.430  42.063  20.353  1.00  0.00    -0.247 OA
BRANCH   7   9
ATOM      9  C   UNL A   1      45.748  43.620  19.840  1.00  0.00     0.094 C 
ATOM     10  C   UNL A   1      44.967  44.673  20.130  1.00  0.00     0.019 C 
BRANCH  10  11
ATOM     11  C   UNL A   1      43.879  45.134  19.233  1.00  0.00     0.022 A 
ATOM     12  C   UNL A   1      43.011  46.626  17.504  1.00  0.00     0.162 A 
ATOM     13  C   UNL A   1      41.804  45.913  17.512  1.00  0.00     0.071 A 
ATOM     14  C   UNL A   1      44.065  46.240  18.361  1.00  0.00     0.168 A 
ATOM     15  C   UNL A   1      41.617  44.862  18.400  1.00  0.00     0.045 A 
ATOM     16  Cl  UNL A   1      40.120  44.013  18.412  1.00  0.00    -0.084 Cl
ATOM     17  C   UNL A   1      42.637  44.480  19.264  1.00  0.00     0.032 A 
BRANCH  12  18
ATOM     18  O   UNL A   1      43.194  47.632  16.588  1.00  0.00    -0.493 OA
ATOM     19  C   UNL A   1      41.987  48.257  16.156  1.00  0.00     0.278 C 
ENDBRANCH  12  18
BRANCH  14  20
ATOM     20  O   UNL A   1      45.307  46.821  18.448  1.00  0.00    -0.492 OA
ATOM     21  C   UNL A   1      45.451  48.070  19.104  1.00  0.00     0.278 C 
ENDBRANCH  14  20
ENDBRANCH  10  11
ENDBRANCH   7   9
ENDBRANCH   6   7
ENDBRANCH   5   6
ENDBRANCH   4   5
ENDBRANCH   3   4
ENDBRANCH   2   3
ENDBRANCH   1   2
BRANCH   1  22
ATOM     22  O   UNL A   1      43.363  41.507  25.519  1.00  0.00    -0.376 OA
BRANCH  22  23
ATOM     23  C   UNL A   1      42.027  41.054  25.390  1.00  0.00     0.202 C 
BRANCH  23  24
ATOM     24  C   UNL A   1      41.283  40.087  26.330  1.00  0.00     0.261 C 
BRANCH  24  25
ATOM     25  O   UNL A   1      41.905  38.849  26.669  1.00  0.00    -0.460 OA
BRANCH  25  26
ATOM     26  C   UNL A   1      42.504  38.814  27.882  1.00  0.00     0.338 C 
ATOM     27  O   UNL A   1      42.622  39.736  28.677  1.00  0.00    -0.246 OA
BRANCH  26  28
ATOM     28  C   UNL A   1      42.864  37.421  28.185  1.00  0.00     0.060 A 
ATOM     29  C   UNL A   1      41.922  36.414  27.935  1.00  0.00     0.016 A 
ATOM     30  C   UNL A   1      44.106  37.116  28.743  1.00  0.00     0.016 A 
ATOM     31  C   UNL A   1      42.217  35.093  28.266  1.00  0.00     0.010 A 
ATOM     32  C   UNL A   1      44.392  35.793  29.089  1.00  0.00     0.010 A 
ATOM     33  C   UNL A   1      43.440  34.782  28.876  1.00  0.00    -0.014 A 
BRANCH  33  34
ATOM     34  C   UNL A   1      43.663  33.427  29.435  1.00  0.00     0.031 A 
ATOM     35  C   UNL A   1      43.178  33.134  30.829  1.00  0.00     0.074 A 
ATOM     36  C   UNL A   1      44.280  32.473  28.716  1.00  0.00     0.049 A 
ATOM     37  N   UNL A   1      43.300  32.041  31.534  1.00  0.00    -0.248 NA
ATOM     38  C   UNL A   1      42.460  34.220  31.518  1.00  0.00     0.031 C 
ATOM     39  C   UNL A   1      44.755  32.622  27.340  1.00  0.00     0.029 A 
ATOM     40  N   UNL A   1      44.617  31.186  29.050  1.00  0.00    -0.354 N 
ATOM     41  C   UNL A   1      42.687  32.308  32.752  1.00  0.00     0.074 A 
ATOM     42  C   UNL A   1      42.210  33.672  32.699  1.00  0.00     0.031 C 
ATOM     43  C   UNL A   1      45.333  31.470  26.952  1.00  0.00     0.029 A 
ATOM     44  C   UNL A   1      45.296  30.517  28.060  1.00  0.00     0.049 A 
ATOM     45  H   UNL A   1      44.394  30.779  29.919  1.00  0.00     0.167 HD
ATOM     46  C   UNL A   1      42.534  31.489  33.820  1.00  0.00     0.031 A 
ATOM     47  C   UNL A   1      45.844  29.286  28.057  1.00  0.00     0.031 A 
ATOM     48  C   UNL A   1      43.020  30.137  33.877  1.00  0.00     0.049 A 
ATOM     49  C   UNL A   1      45.727  28.422  29.288  1.00  0.00     0.074 A 
ATOM     50  C   UNL A   1      42.895  29.222  34.907  1.00  0.00     0.029 A 
ATOM     51  N   UNL A   1      43.733  29.509  32.867  1.00  0.00    -0.354 N 
ATOM     52  N   UNL A   1      45.115  28.677  30.421  1.00  0.00    -0.248 NA
ATOM     53  C   UNL A   1      46.373  27.102  29.238  1.00  0.00     0.031 C 
ATOM     54  C   UNL A   1      43.581  28.059  34.543  1.00  0.00     0.029 A 
ATOM     55  C   UNL A   1      44.081  28.229  33.262  1.00  0.00     0.049 A 
ATOM     56  H   UNL A   1      43.959  29.914  31.999  1.00  0.00     0.167 HD
ATOM     57  C   UNL A   1      45.273  27.536  31.203  1.00  0.00     0.074 A 
ATOM     58  C   UNL A   1      46.030  26.588  30.412  1.00  0.00     0.031 C 
ATOM     59  C   UNL A   1      44.829  27.294  32.461  1.00  0.00     0.031 A 
BRANCH  46  60
ATOM     60  C   UNL A   1      41.841  32.049  35.032  1.00  0.00    -0.014 A 
ATOM     61  C   UNL A   1      40.449  31.930  35.197  1.00  0.00     0.010 A 
ATOM     62  C   UNL A   1      42.602  32.659  36.046  1.00  0.00     0.010 A 
ATOM     63  C   UNL A   1      39.828  32.438  36.342  1.00  0.00     0.020 A 
ATOM     64  C   UNL A   1      41.988  33.146  37.203  1.00  0.00     0.020 A 
ATOM     65  C   UNL A   1      40.602  33.043  37.337  1.00  0.00     0.054 A 
BRANCH  65  66
ATOM     66  S   UNL A   1      39.774  33.663  38.828  1.00  0.00     0.124 S 
ATOM     67  O   UNL A   1      40.535  33.008  39.889  1.00  0.00    -0.237 OA
ATOM     68  O   UNL A   1      39.963  35.107  38.721  1.00  0.00    -0.237 OA
ATOM     69  O   UNL A   1      38.396  33.205  38.676  1.00  0.00    -0.744 OA
ENDBRANCH  65  66
ENDBRANCH  46  60
BRANCH  47  70
ATOM     70  C   UNL A   1      46.578  28.792  26.858  1.00  0.00    -0.014 A 
ATOM     71  C   UNL A   1      45.879  28.274  25.754  1.00  0.00     0.010 A 
ATOM     72  C   UNL A   1      47.984  28.811  26.828  1.00  0.00     0.010 A 
ATOM     73  C   UNL A   1      46.572  27.759  24.654  1.00  0.00     0.020 A 
ATOM     74  C   UNL A   1      48.680  28.325  25.718  1.00  0.00     0.020 A 
ATOM     75  C   UNL A   1      47.970  27.786  24.644  1.00  0.00     0.054 A 
BRANCH  75  76
ATOM     76  S   UNL A   1      48.849  27.137  23.196  1.00  0.00     0.124 S 
ATOM     77  O   UNL A   1      50.235  27.142  23.656  1.00  0.00    -0.237 OA
ATOM     78  O   UNL A   1      48.245  25.818  23.024  1.00  0.00    -0.237 OA
ATOM     79  O   UNL A   1      48.534  28.101  22.145  1.00  0.00    -0.744 OA
ENDBRANCH  75  76
ENDBRANCH  47  70
BRANCH  59  80
ATOM     80  C   UNL A   1      45.105  25.935  33.050  1.00  0.00    -0.014 A 
ATOM     81  C   UNL A   1      46.174  25.726  33.939  1.00  0.00     0.010 A 
ATOM     82  C   UNL A   1      44.240  24.864  32.754  1.00  0.00     0.010 A 
ATOM     83  C   UNL A   1      46.390  24.463  34.498  1.00  0.00     0.020 A 
ATOM     84  C   UNL A   1      44.436  23.608  33.334  1.00  0.00     0.020 A 
ATOM     85  C   UNL A   1      45.519  23.412  34.192  1.00  0.00     0.054 A 
BRANCH  85  86
ATOM     86  S   UNL A   1      45.792  21.794  34.968  1.00  0.00     0.124 S 
ATOM     87  O   UNL A   1      46.313  22.171  36.279  1.00  0.00    -0.237 OA
ATOM     88  O   UNL A   1      44.455  21.209  34.968  1.00  0.00    -0.237 OA
ATOM     89  O   UNL A   1      46.752  21.142  34.080  1.00  0.00    -0.744 OA
ENDBRANCH  85  86
ENDBRANCH  59  80
ENDBRANCH  33  34
ENDBRANCH  26  28
ENDBRANCH  25  26
ENDBRANCH  24  25
ENDBRANCH  23  24
ENDBRANCH  22  23
ENDBRANCH   1  22
TORSDOF 23
ENDMDL
MODEL 3
REMARK VINA RESULT:      -7.6      9.388     16.659
REMARK SMILES COc1cc(Cl)cc(/C=C/C(=O)OCCOCCOCCOC(=O)c2ccc(-c3c4nc(c(-c5ccc(S(=O)(=O)[O-])cc5)c5ccc([nH]5)c(-c5ccc(S(=O)(=O)[O-])cc5)c5nc(c(-c6ccc(S(=O)(=O)[O-])cc6)c6ccc3[nH]6)C=C5)C=C4)cc2)c1OC
REMARK SMILES IDX 18 1 17 2 16 3 15 4 14 5 13 6 11 7 12 8 10 9 9 10 8 11 3 12
REMARK SMILES IDX 4 13 85 14 5 15 6 16 7 17 2 18 1 19 86 20 87 21 19 22 20 23
REMARK SMILES IDX 21 24 22 25 23 26 24 27 25 28 26 29 84 30 27 31 83 32 28 33
REMARK SMILES IDX 29 34 30 35 77 36 31 37 82 38 76 39 78 40 32 41 81 42 75 43
REMARK SMILES IDX 74 44 33 46 63 47 44 48 62 49 45 50 48 51 61 52 79 53 46 54
REMARK SMILES IDX 47 55 60 57 80 58 49 59 34 60 35 61 43 62 36 63 42 64 37 65
REMARK SMILES IDX 38 66 39 67 40 68 41 69 64 70 65 71 73 72 66 73 72 74 67 75
REMARK SMILES IDX 68 76 69 77 70 78 71 79 50 80 51 81 59 82 52 83 58 84 53 85
REMARK SMILES IDX 54 86 55 87 56 88 57 89
REMARK H PARENT 78 45 48 56
REMARK Flexibility Score: inf
ROOT
ATOM      1  C   UNL A   1      50.398  36.688  25.292  1.00  0.00     0.188 C 
ENDROOT
BRANCH   1   2
ATOM      2  C   UNL A   1      49.315  35.622  25.027  1.00  0.00     0.188 C 
BRANCH   2   3
ATOM      3  O   UNL A   1      49.667  34.247  24.987  1.00  0.00    -0.376 OA
BRANCH   3   4
ATOM      4  C   UNL A   1      50.531  33.714  25.979  1.00  0.00     0.202 C 
BRANCH   4   5
ATOM      5  C   UNL A   1      51.445  32.523  25.666  1.00  0.00     0.261 C 
BRANCH   5   6
ATOM      6  O   UNL A   1      51.511  32.160  24.278  1.00  0.00    -0.460 OA
BRANCH   6   7
ATOM      7  C   UNL A   1      52.393  32.879  23.541  1.00  0.00     0.330 C 
ATOM      8  O   UNL A   1      52.855  33.974  23.830  1.00  0.00    -0.247 OA
BRANCH   7   9
ATOM      9  C   UNL A   1      52.858  32.160  22.338  1.00  0.00     0.094 C 
ATOM     10  C   UNL A   1      52.303  31.062  21.802  1.00  0.00     0.019 C 
BRANCH  10  11
ATOM     11  C   UNL A   1      52.834  30.412  20.578  1.00  0.00     0.022 A 
ATOM     12  C   UNL A   1      52.955  28.527  19.029  1.00  0.00     0.162 A 
ATOM     13  C   UNL A   1      53.822  29.267  18.213  1.00  0.00     0.071 A 
ATOM     14  C   UNL A   1      52.447  29.094  20.218  1.00  0.00     0.168 A 
ATOM     15  C   UNL A   1      54.230  30.537  18.597  1.00  0.00     0.045 A 
ATOM     16  Cl  UNL A   1      55.313  31.423  17.595  1.00  0.00    -0.084 Cl
ATOM     17  C   UNL A   1      53.755  31.105  19.774  1.00  0.00     0.032 A 
BRANCH  12  18
ATOM     18  O   UNL A   1      52.526  27.291  18.611  1.00  0.00    -0.493 OA
ATOM     19  C   UNL A   1      51.466  27.332  17.657  1.00  0.00     0.278 C 
ENDBRANCH  12  18
BRANCH  14  20
ATOM     20  O   UNL A   1      51.573  28.505  21.101  1.00  0.00    -0.492 OA
ATOM     21  C   UNL A   1      50.185  28.497  20.813  1.00  0.00     0.278 C 
ENDBRANCH  14  20
ENDBRANCH  10  11
ENDBRANCH   7   9
ENDBRANCH   6   7
ENDBRANCH   5   6
ENDBRANCH   4   5
ENDBRANCH   3   4
ENDBRANCH   2   3
ENDBRANCH   1   2
BRANCH   1  22
ATOM     22  O   UNL A   1      50.200  37.559  26.378  1.00  0.00    -0.376 OA
BRANCH  22  23
ATOM     23  C   UNL A   1      50.936  37.420  27.580  1.00  0.00     0.202 C 
BRANCH  23  24
ATOM     24  C   UNL A   1      50.904  36.225  28.551  1.00  0.00     0.261 C 
BRANCH  24  25
ATOM     25  O   UNL A   1      50.092  36.316  29.720  1.00  0.00    -0.460 OA
BRANCH  25  26
ATOM     26  C   UNL A   1      48.794  36.630  29.501  1.00  0.00     0.338 C 
ATOM     27  O   UNL A   1      48.313  37.746  29.374  1.00  0.00    -0.246 OA
BRANCH  26  28
ATOM     28  C   UNL A   1      48.045  35.385  29.271  1.00  0.00     0.060 A 
ATOM     29  C   UNL A   1      48.089  34.384  30.249  1.00  0.00     0.016 A 
ATOM     30  C   UNL A   1      47.335  35.195  28.084  1.00  0.00     0.016 A 
ATOM     31  C   UNL A   1      47.435  33.173  30.031  1.00  0.00     0.010 A 
ATOM     32  C   UNL A   1      46.694  33.974  27.862  1.00  0.00     0.010 A 
ATOM     33  C   UNL A   1      46.763  32.950  28.821  1.00  0.00    -0.014 A 
BRANCH  33  34
ATOM     34  C   UNL A   1      46.265  31.593  28.492  1.00  0.00     0.031 A 
ATOM     35  C   UNL A   1      44.848  31.240  28.852  1.00  0.00     0.074 A 
ATOM     36  C   UNL A   1      47.056  30.694  27.881  1.00  0.00     0.049 A 
ATOM     37  N   UNL A   1      44.215  30.106  28.700  1.00  0.00    -0.248 NA
ATOM     38  C   UNL A   1      44.037  32.306  29.464  1.00  0.00     0.031 C 
ATOM     39  C   UNL A   1      48.432  30.932  27.444  1.00  0.00     0.029 A 
ATOM     40  N   UNL A   1      46.812  29.391  27.527  1.00  0.00    -0.354 N 
ATOM     41  C   UNL A   1      42.938  30.318  29.207  1.00  0.00     0.074 A 
ATOM     42  C   UNL A   1      42.891  31.681  29.688  1.00  0.00     0.031 C 
ATOM     43  C   UNL A   1      48.913  29.805  26.888  1.00  0.00     0.029 A 
ATOM     44  C   UNL A   1      47.893  28.760  26.960  1.00  0.00     0.049 A 
ATOM     45  H   UNL A   1      45.944  28.948  27.668  1.00  0.00     0.167 HD
ATOM     46  C   UNL A   1      41.897  29.454  29.265  1.00  0.00     0.031 A 
ATOM     47  C   UNL A   1      48.048  27.481  26.564  1.00  0.00     0.031 A 
ATOM     48  C   UNL A   1      41.949  28.094  28.799  1.00  0.00     0.049 A 
ATOM     49  C   UNL A   1      46.897  26.518  26.712  1.00  0.00     0.074 A 
ATOM     50  C   UNL A   1      40.940  27.148  28.796  1.00  0.00     0.029 A 
ATOM     51  N   UNL A   1      43.072  27.484  28.263  1.00  0.00    -0.354 N 
ATOM     52  N   UNL A   1      45.685  26.742  27.163  1.00  0.00    -0.248 NA
ATOM     53  C   UNL A   1      47.135  25.128  26.294  1.00  0.00     0.031 C 
ATOM     54  C   UNL A   1      41.469  25.948  28.311  1.00  0.00     0.029 A 
ATOM     55  C   UNL A   1      42.790  26.165  27.954  1.00  0.00     0.049 A 
ATOM     56  H   UNL A   1      43.942  27.923  28.123  1.00  0.00     0.167 HD
ATOM     57  C   UNL A   1      45.008  25.530  27.049  1.00  0.00     0.074 A 
ATOM     58  C   UNL A   1      45.942  24.581  26.481  1.00  0.00     0.031 C 
ATOM     59  C   UNL A   1      43.727  25.232  27.382  1.00  0.00     0.031 A 
BRANCH  46  60
ATOM     60  C   UNL A   1      40.620  29.944  29.891  1.00  0.00    -0.014 A 
ATOM     61  C   UNL A   1      40.509  30.121  31.281  1.00  0.00     0.010 A 
ATOM     62  C   UNL A   1      39.528  30.279  29.068  1.00  0.00     0.010 A 
ATOM     63  C   UNL A   1      39.320  30.598  31.841  1.00  0.00     0.020 A 
ATOM     64  C   UNL A   1      38.346  30.779  29.621  1.00  0.00     0.020 A 
ATOM     65  C   UNL A   1      38.246  30.924  31.006  1.00  0.00     0.054 A 
BRANCH  65  66
ATOM     66  S   UNL A   1      36.727  31.573  31.755  1.00  0.00     0.124 S 
ATOM     67  O   UNL A   1      37.253  32.369  32.861  1.00  0.00    -0.237 OA
ATOM     68  O   UNL A   1      36.132  32.336  30.661  1.00  0.00    -0.237 OA
ATOM     69  O   UNL A   1      35.991  30.374  32.146  1.00  0.00    -0.744 OA
ENDBRANCH  65  66
ENDBRANCH  46  60
BRANCH  47  70
ATOM     70  C   UNL A   1      49.350  27.019  26.008  1.00  0.00    -0.014 A 
ATOM     71  C   UNL A   1      50.315  26.427  26.842  1.00  0.00     0.010 A 
ATOM     72  C   UNL A   1      49.643  27.196  24.644  1.00  0.00     0.010 A 
ATOM     73  C   UNL A   1      51.558  26.046  26.328  1.00  0.00     0.020 A 
ATOM     74  C   UNL A   1      50.874  26.790  24.120  1.00  0.00     0.020 A 
ATOM     75  C   UNL A   1      51.831  26.232  24.969  1.00  0.00     0.054 A 
BRANCH  75  76
ATOM     76  S   UNL A   1      53.440  25.707  24.317  1.00  0.00     0.124 S 
ATOM     77  O   UNL A   1      53.484  24.302  24.713  1.00  0.00    -0.237 OA
ATOM     78  O   UNL A   1      53.298  25.956  22.885  1.00  0.00    -0.237 OA
ATOM     79  O   UNL A   1      54.388  26.581  25.004  1.00  0.00    -0.744 OA
ENDBRANCH  75  76
ENDBRANCH  47  70
BRANCH  59  80
ATOM     80  C   UNL A   1      43.239  23.835  27.100  1.00  0.00    -0.014 A 
ATOM     81  C   UNL A   1      42.851  23.443  25.807  1.00  0.00     0.010 A 
ATOM     82  C   UNL A   1      43.230  22.883  28.136  1.00  0.00     0.010 A 
ATOM     83  C   UNL A   1      42.434  22.132  25.562  1.00  0.00     0.020 A 
ATOM     84  C   UNL A   1      42.840  21.565  27.890  1.00  0.00     0.020 A 
ATOM     85  C   UNL A   1      42.431  21.200  26.606  1.00  0.00     0.054 A 
BRANCH  85  86
ATOM     86  S   UNL A   1      41.930  19.492  26.254  1.00  0.00     0.124 S 
ATOM     87  O   UNL A   1      42.711  19.187  25.058  1.00  0.00    -0.237 OA
ATOM     88  O   UNL A   1      42.334  18.783  27.465  1.00  0.00    -0.237 OA
ATOM     89  O   UNL A   1      40.487  19.589  26.049  1.00  0.00    -0.744 OA
ENDBRANCH  85  86
ENDBRANCH  59  80
ENDBRANCH  33  34
ENDBRANCH  26  28
ENDBRANCH  25  26
ENDBRANCH  24  25
ENDBRANCH  23  24
ENDBRANCH  22  23
ENDBRANCH   1  22
TORSDOF 23
ENDMDL
