MODEL 1
REMARK VINA RESULT:      -9.6      0.000      0.000
REMARK SMILES C=CCc1cccc(-c2ccc([C@@H](C)C(=O)OCCOCCOCCOC(=O)c3ccc(-c4c5nc(c(-c6ccc(S(=O)(=O)[O-])cc6)c6ccc([nH]6)c(-c6ccc(S(=O)(=O)[O-])cc6)c6nc(c(-c7ccc(S(=O)(=O)[O-])cc7)c7ccc4[nH]7)C=C6)C=C5)cc3)cc2)c1
REMARK SMILES IDX 21 1 20 2 19 3 18 4 17 5 15 6 16 7 13 8 14 9 12 10 9 11
REMARK SMILES IDX 10 12 90 13 11 14 89 15 8 16 4 17 5 18 91 19 6 20 7 21 3 22
REMARK SMILES IDX 2 23 1 24 22 25 23 26 24 27 25 28 26 29 27 30 28 31 29 32
REMARK SMILES IDX 30 33 88 34 31 35 87 36 32 37 33 38 34 39 81 40 35 41 86 42
REMARK SMILES IDX 80 43 82 44 36 45 85 46 79 47 78 48 37 50 67 51 48 52 66 53
REMARK SMILES IDX 49 54 52 55 65 56 83 57 50 58 51 59 64 61 84 62 53 63 38 64
REMARK SMILES IDX 39 65 47 66 40 67 46 68 41 69 42 70 43 71 44 72 45 73 68 74
REMARK SMILES IDX 69 75 77 76 70 77 76 78 71 79 72 80 73 81 74 82 75 83 54 84
REMARK SMILES IDX 55 85 63 86 56 87 62 88 57 89 58 90 59 91 60 92 61 93
REMARK H PARENT 82 49 52 60
REMARK Flexibility Score: inf
ROOT
ATOM      1  C   UNL A   1      37.271  23.262  24.960  1.00  0.00     0.188 C 
ENDROOT
BRANCH   1   2
ATOM      2  O   UNL A   1      35.890  22.984  25.172  1.00  0.00    -0.376 OA
BRANCH   2   3
ATOM      3  C   UNL A   1      35.520  21.818  25.897  1.00  0.00     0.202 C 
BRANCH   3   4
ATOM      4  C   UNL A   1      35.203  20.531  25.116  1.00  0.00     0.261 C 
BRANCH   4   5
ATOM      5  O   UNL A   1      33.901  19.952  25.363  1.00  0.00    -0.463 OA
BRANCH   5   6
ATOM      6  C   UNL A   1      33.139  19.689  24.272  1.00  0.00     0.313 C 
ATOM      7  O   UNL A   1      33.225  18.641  23.633  1.00  0.00    -0.252 OA
BRANCH   6   8
ATOM      8  C   UNL A   1      32.122  20.764  23.868  1.00  0.00     0.126 C 
ATOM      9  C   UNL A   1      32.121  20.878  22.344  1.00  0.00     0.025 C 
BRANCH   8  10
ATOM     10  C   UNL A   1      32.133  22.159  24.496  1.00  0.00    -0.034 A 
ATOM     11  C   UNL A   1      32.200  24.820  25.560  1.00  0.00    -0.018 A 
ATOM     12  C   UNL A   1      31.762  23.726  26.329  1.00  0.00     0.009 A 
ATOM     13  C   UNL A   1      32.611  24.558  24.248  1.00  0.00     0.009 A 
ATOM     14  C   UNL A   1      31.737  22.416  25.813  1.00  0.00     0.005 A 
ATOM     15  C   UNL A   1      32.587  23.252  23.729  1.00  0.00     0.005 A 
BRANCH  11  16
ATOM     16  C   UNL A   1      32.279  26.182  26.132  1.00  0.00    -0.018 A 
ATOM     17  C   UNL A   1      33.545  28.221  26.698  1.00  0.00    -0.044 A 
ATOM     18  C   UNL A   1      32.386  28.754  27.283  1.00  0.00     0.004 A 
ATOM     19  C   UNL A   1      33.478  26.928  26.137  1.00  0.00     0.012 A 
ATOM     20  C   UNL A   1      31.194  28.035  27.290  1.00  0.00     0.001 A 
ATOM     21  C   UNL A   1      31.144  26.764  26.718  1.00  0.00     0.009 A 
BRANCH  17  22
ATOM     22  C   UNL A   1      34.821  29.040  26.788  1.00  0.00     0.062 C 
BRANCH  22  23
ATOM     23  C   UNL A   1      34.672  30.476  27.195  1.00  0.00    -0.030 C 
ATOM     24  C   UNL A   1      35.654  31.231  27.706  1.00  0.00     0.004 C 
ENDBRANCH  22  23
ENDBRANCH  17  22
ENDBRANCH  11  16
ENDBRANCH   8  10
ENDBRANCH   6   8
ENDBRANCH   5   6
ENDBRANCH   4   5
ENDBRANCH   3   4
ENDBRANCH   2   3
ENDBRANCH   1   2
BRANCH   1  25
ATOM     25  C   UNL A   1      38.240  23.170  26.148  1.00  0.00     0.188 C 
BRANCH  25  26
ATOM     26  O   UNL A   1      38.965  21.962  26.215  1.00  0.00    -0.376 OA
BRANCH  26  27
ATOM     27  C   UNL A   1      40.116  21.952  27.035  1.00  0.00     0.202 C 
BRANCH  27  28
ATOM     28  C   UNL A   1      41.425  22.401  26.368  1.00  0.00     0.261 C 
BRANCH  28  29
ATOM     29  O   UNL A   1      42.188  23.403  27.066  1.00  0.00    -0.460 OA
BRANCH  29  30
ATOM     30  C   UNL A   1      42.383  24.585  26.440  1.00  0.00     0.338 C 
ATOM     31  O   UNL A   1      42.673  24.751  25.264  1.00  0.00    -0.246 OA
BRANCH  30  32
ATOM     32  C   UNL A   1      41.974  25.667  27.365  1.00  0.00     0.060 A 
ATOM     33  C   UNL A   1      42.706  26.864  27.389  1.00  0.00     0.016 A 
ATOM     34  C   UNL A   1      40.871  25.501  28.202  1.00  0.00     0.016 A 
ATOM     35  C   UNL A   1      42.353  27.885  28.276  1.00  0.00     0.010 A 
ATOM     36  C   UNL A   1      40.532  26.517  29.104  1.00  0.00     0.010 A 
ATOM     37  C   UNL A   1      41.290  27.701  29.169  1.00  0.00    -0.014 A 
BRANCH  37  38
ATOM     38  C   UNL A   1      41.075  28.649  30.294  1.00  0.00     0.031 A 
ATOM     39  C   UNL A   1      41.926  28.500  31.528  1.00  0.00     0.074 A 
ATOM     40  C   UNL A   1      40.142  29.617  30.236  1.00  0.00     0.049 A 
ATOM     41  N   UNL A   1      41.865  29.147  32.663  1.00  0.00    -0.248 NA
ATOM     42  C   UNL A   1      42.985  27.478  31.474  1.00  0.00     0.031 C 
ATOM     43  C   UNL A   1      39.282  29.899  29.089  1.00  0.00     0.029 A 
ATOM     44  N   UNL A   1      39.754  30.536  31.183  1.00  0.00    -0.354 N 
ATOM     45  C   UNL A   1      42.861  28.599  33.464  1.00  0.00     0.074 A 
ATOM     46  C   UNL A   1      43.495  27.551  32.694  1.00  0.00     0.031 C 
ATOM     47  C   UNL A   1      38.455  30.913  29.403  1.00  0.00     0.029 A 
ATOM     48  C   UNL A   1      38.699  31.324  30.786  1.00  0.00     0.049 A 
ATOM     49  H   UNL A   1      40.190  30.622  32.061  1.00  0.00     0.167 HD
ATOM     50  C   UNL A   1      43.218  28.936  34.727  1.00  0.00     0.031 A 
ATOM     51  C   UNL A   1      37.991  32.248  31.467  1.00  0.00     0.031 A 
ATOM     52  C   UNL A   1      42.577  29.969  35.497  1.00  0.00     0.049 A 
ATOM     53  C   UNL A   1      38.357  32.557  32.899  1.00  0.00     0.074 A 
ATOM     54  C   UNL A   1      42.882  30.399  36.777  1.00  0.00     0.029 A 
ATOM     55  N   UNL A   1      41.497  30.726  35.068  1.00  0.00    -0.354 N 
ATOM     56  N   UNL A   1      39.320  32.051  33.634  1.00  0.00    -0.248 NA
ATOM     57  C   UNL A   1      37.547  33.572  33.589  1.00  0.00     0.031 C 
ATOM     58  C   UNL A   1      41.944  31.368  37.147  1.00  0.00     0.029 A 
ATOM     59  C   UNL A   1      41.104  31.598  36.070  1.00  0.00     0.049 A 
ATOM     60  H   UNL A   1      41.074  30.655  34.182  1.00  0.00     0.167 HD
ATOM     61  C   UNL A   1      39.248  32.708  34.860  1.00  0.00     0.074 A 
ATOM     62  C   UNL A   1      38.159  33.657  34.762  1.00  0.00     0.031 C 
ATOM     63  C   UNL A   1      40.019  32.542  35.964  1.00  0.00     0.031 A 
BRANCH  50  64
ATOM     64  C   UNL A   1      44.328  28.148  35.372  1.00  0.00    -0.014 A 
ATOM     65  C   UNL A   1      45.632  28.665  35.471  1.00  0.00     0.010 A 
ATOM     66  C   UNL A   1      44.048  26.887  35.931  1.00  0.00     0.010 A 
ATOM     67  C   UNL A   1      46.645  27.919  36.083  1.00  0.00     0.020 A 
ATOM     68  C   UNL A   1      45.049  26.152  36.572  1.00  0.00     0.020 A 
ATOM     69  C   UNL A   1      46.345  26.667  36.630  1.00  0.00     0.054 A 
BRANCH  69  70
ATOM     70  S   UNL A   1      47.671  25.736  37.445  1.00  0.00     0.124 S 
ATOM     71  O   UNL A   1      46.933  24.633  38.055  1.00  0.00    -0.237 OA
ATOM     72  O   UNL A   1      48.538  25.371  36.328  1.00  0.00    -0.237 OA
ATOM     73  O   UNL A   1      48.242  26.697  38.387  1.00  0.00    -0.744 OA
ENDBRANCH  69  70
ENDBRANCH  50  64
BRANCH  51  74
ATOM     74  C   UNL A   1      36.841  32.938  30.815  1.00  0.00    -0.014 A 
ATOM     75  C   UNL A   1      35.520  32.521  31.055  1.00  0.00     0.010 A 
ATOM     76  C   UNL A   1      37.064  34.016  29.938  1.00  0.00     0.010 A 
ATOM     77  C   UNL A   1      34.447  33.158  30.421  1.00  0.00     0.020 A 
ATOM     78  C   UNL A   1      35.994  34.676  29.327  1.00  0.00     0.020 A 
ATOM     79  C   UNL A   1      34.692  34.236  29.566  1.00  0.00     0.054 A 
BRANCH  79  80
ATOM     80  S   UNL A   1      33.281  35.081  28.801  1.00  0.00     0.124 S 
ATOM     81  O   UNL A   1      33.940  36.007  27.884  1.00  0.00    -0.237 OA
ATOM     82  O   UNL A   1      32.556  33.978  28.175  1.00  0.00    -0.237 OA
ATOM     83  O   UNL A   1      32.598  35.704  29.934  1.00  0.00    -0.744 OA
ENDBRANCH  79  80
ENDBRANCH  51  74
BRANCH  63  84
ATOM     84  C   UNL A   1      39.750  33.435  37.151  1.00  0.00    -0.014 A 
ATOM     85  C   UNL A   1      39.016  32.985  38.261  1.00  0.00     0.010 A 
ATOM     86  C   UNL A   1      40.296  34.732  37.175  1.00  0.00     0.010 A 
ATOM     87  C   UNL A   1      38.804  33.827  39.359  1.00  0.00     0.020 A 
ATOM     88  C   UNL A   1      40.115  35.565  38.282  1.00  0.00     0.020 A 
ATOM     89  C   UNL A   1      39.356  35.112  39.361  1.00  0.00     0.054 A 
BRANCH  89  90
ATOM     90  S   UNL A   1      39.100  36.169  40.813  1.00  0.00     0.124 S 
ATOM     91  O   UNL A   1      38.990  37.494  40.210  1.00  0.00    -0.237 OA
ATOM     92  O   UNL A   1      37.866  35.634  41.385  1.00  0.00    -0.237 OA
ATOM     93  O   UNL A   1      40.299  35.950  41.620  1.00  0.00    -0.744 OA
ENDBRANCH  89  90
ENDBRANCH  63  84
ENDBRANCH  37  38
ENDBRANCH  30  32
ENDBRANCH  29  30
ENDBRANCH  28  29
ENDBRANCH  27  28
ENDBRANCH  26  27
ENDBRANCH  25  26
ENDBRANCH   1  25
TORSDOF 24
ENDMDL
MODEL 2
REMARK VINA RESULT:      -9.5      0.537      8.002
REMARK SMILES C=CCc1cccc(-c2ccc([C@@H](C)C(=O)OCCOCCOCCOC(=O)c3ccc(-c4c5nc(c(-c6ccc(S(=O)(=O)[O-])cc6)c6ccc([nH]6)c(-c6ccc(S(=O)(=O)[O-])cc6)c6nc(c(-c7ccc(S(=O)(=O)[O-])cc7)c7ccc4[nH]7)C=C6)C=C5)cc3)cc2)c1
REMARK SMILES IDX 21 1 20 2 19 3 18 4 17 5 15 6 16 7 13 8 14 9 12 10 9 11
REMARK SMILES IDX 10 12 90 13 11 14 89 15 8 16 4 17 5 18 91 19 6 20 7 21 3 22
REMARK SMILES IDX 2 23 1 24 22 25 23 26 24 27 25 28 26 29 27 30 28 31 29 32
REMARK SMILES IDX 30 33 88 34 31 35 87 36 32 37 33 38 34 39 81 40 35 41 86 42
REMARK SMILES IDX 80 43 82 44 36 45 85 46 79 47 78 48 37 50 67 51 48 52 66 53
REMARK SMILES IDX 49 54 52 55 65 56 83 57 50 58 51 59 64 61 84 62 53 63 38 64
REMARK SMILES IDX 39 65 47 66 40 67 46 68 41 69 42 70 43 71 44 72 45 73 68 74
REMARK SMILES IDX 69 75 77 76 70 77 76 78 71 79 72 80 73 81 74 82 75 83 54 84
REMARK SMILES IDX 55 85 63 86 56 87 62 88 57 89 58 90 59 91 60 92 61 93
REMARK H PARENT 82 49 52 60
REMARK Flexibility Score: inf
ROOT
ATOM      1  C   UNL A   1      37.228  23.315  24.943  1.00  0.00     0.188 C 
ENDROOT
BRANCH   1   2
ATOM      2  O   UNL A   1      35.856  23.027  25.195  1.00  0.00    -0.376 OA
BRANCH   2   3
ATOM      3  C   UNL A   1      35.516  21.860  25.934  1.00  0.00     0.202 C 
BRANCH   3   4
ATOM      4  C   UNL A   1      35.174  20.573  25.166  1.00  0.00     0.261 C 
BRANCH   4   5
ATOM      5  O   UNL A   1      33.855  20.030  25.406  1.00  0.00    -0.463 OA
BRANCH   5   6
ATOM      6  C   UNL A   1      33.091  19.791  24.311  1.00  0.00     0.313 C 
ATOM      7  O   UNL A   1      33.150  18.742  23.671  1.00  0.00    -0.252 OA
BRANCH   6   8
ATOM      8  C   UNL A   1      32.107  20.895  23.904  1.00  0.00     0.126 C 
ATOM      9  C   UNL A   1      32.136  21.029  22.382  1.00  0.00     0.025 C 
BRANCH   8  10
ATOM     10  C   UNL A   1      32.141  22.282  24.551  1.00  0.00    -0.034 A 
ATOM     11  C   UNL A   1      32.252  24.926  25.650  1.00  0.00    -0.018 A 
ATOM     12  C   UNL A   1      31.798  23.830  26.404  1.00  0.00     0.009 A 
ATOM     13  C   UNL A   1      32.657  24.675  24.334  1.00  0.00     0.009 A 
ATOM     14  C   UNL A   1      31.751  22.527  25.872  1.00  0.00     0.005 A 
ATOM     15  C   UNL A   1      32.612  23.377  23.798  1.00  0.00     0.005 A 
BRANCH  11  16
ATOM     16  C   UNL A   1      32.353  26.280  26.240  1.00  0.00    -0.018 A 
ATOM     17  C   UNL A   1      33.649  28.296  26.820  1.00  0.00    -0.044 A 
ATOM     18  C   UNL A   1      32.503  28.834  27.426  1.00  0.00     0.004 A 
ATOM     19  C   UNL A   1      33.560  27.011  26.241  1.00  0.00     0.012 A 
ATOM     20  C   UNL A   1      31.302  28.128  27.436  1.00  0.00     0.001 A 
ATOM     21  C   UNL A   1      31.231  26.866  26.847  1.00  0.00     0.009 A 
BRANCH  17  22
ATOM     22  C   UNL A   1      34.935  29.099  26.907  1.00  0.00     0.062 C 
BRANCH  22  23
ATOM     23  C   UNL A   1      34.807  30.532  27.329  1.00  0.00    -0.030 C 
ATOM     24  C   UNL A   1      35.810  31.281  27.807  1.00  0.00     0.004 C 
ENDBRANCH  22  23
ENDBRANCH  17  22
ENDBRANCH  11  16
ENDBRANCH   8  10
ENDBRANCH   6   8
ENDBRANCH   5   6
ENDBRANCH   4   5
ENDBRANCH   3   4
ENDBRANCH   2   3
ENDBRANCH   1   2
BRANCH   1  25
ATOM     25  C   UNL A   1      38.227  23.261  26.108  1.00  0.00     0.188 C 
BRANCH  25  26
ATOM     26  O   UNL A   1      39.032  22.102  26.131  1.00  0.00    -0.376 OA
BRANCH  26  27
ATOM     27  C   UNL A   1      40.238  22.177  26.863  1.00  0.00     0.202 C 
BRANCH  27  28
ATOM     28  C   UNL A   1      41.439  22.789  26.127  1.00  0.00     0.261 C 
BRANCH  28  29
ATOM     29  O   UNL A   1      42.179  23.799  26.837  1.00  0.00    -0.460 OA
BRANCH  29  30
ATOM     30  C   UNL A   1      42.172  25.051  26.326  1.00  0.00     0.338 C 
ATOM     31  O   UNL A   1      42.266  25.360  25.147  1.00  0.00    -0.246 OA
BRANCH  30  32
ATOM     32  C   UNL A   1      41.816  25.989  27.415  1.00  0.00     0.060 A 
ATOM     33  C   UNL A   1      42.543  27.180  27.562  1.00  0.00     0.016 A 
ATOM     34  C   UNL A   1      40.766  25.695  28.286  1.00  0.00     0.016 A 
ATOM     35  C   UNL A   1      42.240  28.064  28.602  1.00  0.00     0.010 A 
ATOM     36  C   UNL A   1      40.478  26.571  29.338  1.00  0.00     0.010 A 
ATOM     37  C   UNL A   1      41.234  27.744  29.522  1.00  0.00    -0.014 A 
BRANCH  37  38
ATOM     38  C   UNL A   1      41.083  28.525  30.778  1.00  0.00     0.031 A 
ATOM     39  C   UNL A   1      39.994  29.564  30.849  1.00  0.00     0.074 A 
ATOM     40  C   UNL A   1      41.895  28.331  31.834  1.00  0.00     0.049 A 
ATOM     41  N   UNL A   1      39.725  30.422  31.798  1.00  0.00    -0.248 NA
ATOM     42  C   UNL A   1      39.093  29.647  29.688  1.00  0.00     0.031 C 
ATOM     43  C   UNL A   1      42.958  27.332  31.916  1.00  0.00     0.029 A 
ATOM     44  N   UNL A   1      41.956  28.988  33.041  1.00  0.00    -0.354 N 
ATOM     45  C   UNL A   1      38.639  31.161  31.342  1.00  0.00     0.074 A 
ATOM     46  C   UNL A   1      38.314  30.664  30.023  1.00  0.00     0.031 C 
ATOM     47  C   UNL A   1      43.577  27.450  33.104  1.00  0.00     0.029 A 
ATOM     48  C   UNL A   1      42.982  28.559  33.851  1.00  0.00     0.049 A 
ATOM     49  H   UNL A   1      41.324  29.697  33.301  1.00  0.00     0.167 HD
ATOM     50  C   UNL A   1      37.969  32.161  31.964  1.00  0.00     0.031 A 
ATOM     51  C   UNL A   1      43.412  29.026  35.041  1.00  0.00     0.031 A 
ATOM     52  C   UNL A   1      38.303  32.663  33.271  1.00  0.00     0.049 A 
ATOM     53  C   UNL A   1      42.698  30.190  35.684  1.00  0.00     0.074 A 
ATOM     54  C   UNL A   1      37.669  33.659  33.994  1.00  0.00     0.029 A 
ATOM     55  N   UNL A   1      39.363  32.219  34.046  1.00  0.00    -0.354 N 
ATOM     56  N   UNL A   1      41.654  30.860  35.254  1.00  0.00    -0.248 NA
ATOM     57  C   UNL A   1      43.216  30.656  36.980  1.00  0.00     0.031 C 
ATOM     58  C   UNL A   1      38.388  33.864  35.176  1.00  0.00     0.029 A 
ATOM     59  C   UNL A   1      39.421  32.943  35.226  1.00  0.00     0.049 A 
ATOM     60  H   UNL A   1      39.982  31.496  33.795  1.00  0.00     0.167 HD
ATOM     61  C   UNL A   1      41.373  31.802  36.241  1.00  0.00     0.074 A 
ATOM     62  C   UNL A   1      42.346  31.607  37.294  1.00  0.00     0.031 C 
ATOM     63  C   UNL A   1      40.394  32.741  36.272  1.00  0.00     0.031 A 
BRANCH  50  64
ATOM     64  C   UNL A   1      36.833  32.810  31.218  1.00  0.00    -0.014 A 
ATOM     65  C   UNL A   1      35.492  32.501  31.509  1.00  0.00     0.010 A 
ATOM     66  C   UNL A   1      37.113  33.782  30.239  1.00  0.00     0.010 A 
ATOM     67  C   UNL A   1      34.454  33.124  30.809  1.00  0.00     0.020 A 
ATOM     68  C   UNL A   1      36.078  34.430  29.560  1.00  0.00     0.020 A 
ATOM     69  C   UNL A   1      34.755  34.085  29.839  1.00  0.00     0.054 A 
BRANCH  69  70
ATOM     70  S   UNL A   1      33.386  34.898  28.970  1.00  0.00     0.124 S 
ATOM     71  O   UNL A   1      34.068  36.007  28.307  1.00  0.00    -0.237 OA
ATOM     72  O   UNL A   1      32.898  33.844  28.087  1.00  0.00    -0.237 OA
ATOM     73  O   UNL A   1      32.472  35.284  30.043  1.00  0.00    -0.744 OA
ENDBRANCH  69  70
ENDBRANCH  50  64
BRANCH  51  74
ATOM     74  C   UNL A   1      44.599  28.409  35.700  1.00  0.00    -0.014 A 
ATOM     75  C   UNL A   1      45.869  29.004  35.601  1.00  0.00     0.010 A 
ATOM     76  C   UNL A   1      44.464  27.212  36.427  1.00  0.00     0.010 A 
ATOM     77  C   UNL A   1      46.982  28.407  36.202  1.00  0.00     0.020 A 
ATOM     78  C   UNL A   1      45.568  26.628  37.057  1.00  0.00     0.020 A 
ATOM     79  C   UNL A   1      46.822  27.226  36.932  1.00  0.00     0.054 A 
BRANCH  79  80
ATOM     80  S   UNL A   1      48.271  26.502  37.750  1.00  0.00     0.124 S 
ATOM     81  O   UNL A   1      47.842  25.123  37.965  1.00  0.00    -0.237 OA
ATOM     82  O   UNL A   1      49.321  26.690  36.752  1.00  0.00    -0.237 OA
ATOM     83  O   UNL A   1      48.419  27.307  38.960  1.00  0.00    -0.744 OA
ENDBRANCH  79  80
ENDBRANCH  51  74
BRANCH  63  84
ATOM     84  C   UNL A   1      40.288  33.606  37.503  1.00  0.00    -0.014 A 
ATOM     85  C   UNL A   1      40.835  34.900  37.545  1.00  0.00     0.010 A 
ATOM     86  C   UNL A   1      39.572  33.133  38.619  1.00  0.00     0.010 A 
ATOM     87  C   UNL A   1      40.699  35.690  38.692  1.00  0.00     0.020 A 
ATOM     88  C   UNL A   1      39.404  33.930  39.754  1.00  0.00     0.020 A 
ATOM     89  C   UNL A   1      39.983  35.199  39.789  1.00  0.00     0.054 A 
BRANCH  89  90
ATOM     90  S   UNL A   1      39.788  36.259  41.248  1.00  0.00     0.124 S 
ATOM     91  O   UNL A   1      39.755  35.282  42.332  1.00  0.00    -0.237 OA
ATOM     92  O   UNL A   1      40.981  37.101  41.195  1.00  0.00    -0.237 OA
ATOM     93  O   UNL A   1      38.528  36.959  41.004  1.00  0.00    -0.744 OA
ENDBRANCH  89  90
ENDBRANCH  63  84
ENDBRANCH  37  38
ENDBRANCH  30  32
ENDBRANCH  29  30
ENDBRANCH  28  29
ENDBRANCH  27  28
ENDBRANCH  26  27
ENDBRANCH  25  26
ENDBRANCH   1  25
TORSDOF 24
ENDMDL
MODEL 3
REMARK VINA RESULT:      -9.4      1.483      2.119
REMARK SMILES C=CCc1cccc(-c2ccc([C@@H](C)C(=O)OCCOCCOCCOC(=O)c3ccc(-c4c5nc(c(-c6ccc(S(=O)(=O)[O-])cc6)c6ccc([nH]6)c(-c6ccc(S(=O)(=O)[O-])cc6)c6nc(c(-c7ccc(S(=O)(=O)[O-])cc7)c7ccc4[nH]7)C=C6)C=C5)cc3)cc2)c1
REMARK SMILES IDX 21 1 20 2 19 3 18 4 17 5 15 6 16 7 13 8 14 9 12 10 9 11
REMARK SMILES IDX 10 12 90 13 11 14 89 15 8 16 4 17 5 18 91 19 6 20 7 21 3 22
REMARK SMILES IDX 2 23 1 24 22 25 23 26 24 27 25 28 26 29 27 30 28 31 29 32
REMARK SMILES IDX 30 33 88 34 31 35 87 36 32 37 33 38 34 39 81 40 35 41 86 42
REMARK SMILES IDX 80 43 82 44 36 45 85 46 79 47 78 48 37 50 67 51 48 52 66 53
REMARK SMILES IDX 49 54 52 55 65 56 83 57 50 58 51 59 64 61 84 62 53 63 38 64
REMARK SMILES IDX 39 65 47 66 40 67 46 68 41 69 42 70 43 71 44 72 45 73 68 74
REMARK SMILES IDX 69 75 77 76 70 77 76 78 71 79 72 80 73 81 74 82 75 83 54 84
REMARK SMILES IDX 55 85 63 86 56 87 62 88 57 89 58 90 59 91 60 92 61 93
REMARK H PARENT 82 49 52 60
REMARK Flexibility Score: inf
ROOT
ATOM      1  C   UNL A   1      37.549  22.665  25.344  1.00  0.00     0.188 C 
ENDROOT
BRANCH   1   2
ATOM      2  O   UNL A   1      36.630  23.749  25.420  1.00  0.00    -0.376 OA
BRANCH   2   3
ATOM      3  C   UNL A   1      35.243  23.474  25.573  1.00  0.00     0.202 C 
BRANCH   3   4
ATOM      4  C   UNL A   1      34.804  22.029  25.862  1.00  0.00     0.261 C 
BRANCH   4   5
ATOM      5  O   UNL A   1      34.447  21.237  24.705  1.00  0.00    -0.463 OA
BRANCH   5   6
ATOM      6  C   UNL A   1      33.291  20.532  24.789  1.00  0.00     0.313 C 
ATOM      7  O   UNL A   1      33.196  19.478  25.418  1.00  0.00    -0.252 OA
BRANCH   6   8
ATOM      8  C   UNL A   1      32.070  21.123  24.075  1.00  0.00     0.126 C 
ATOM      9  C   UNL A   1      32.083  20.646  22.623  1.00  0.00     0.025 C 
BRANCH   8  10
ATOM     10  C   UNL A   1      31.752  22.619  24.129  1.00  0.00    -0.034 A 
ATOM     11  C   UNL A   1      31.203  25.433  24.111  1.00  0.00    -0.018 A 
ATOM     12  C   UNL A   1      30.916  24.630  25.229  1.00  0.00     0.009 A 
ATOM     13  C   UNL A   1      31.779  24.803  23.001  1.00  0.00     0.009 A 
ATOM     14  C   UNL A   1      31.192  23.249  25.247  1.00  0.00     0.005 A 
ATOM     15  C   UNL A   1      32.057  23.425  23.013  1.00  0.00     0.005 A 
BRANCH  11  16
ATOM     16  C   UNL A   1      30.964  26.892  24.127  1.00  0.00    -0.018 A 
ATOM     17  C   UNL A   1      29.821  28.907  23.281  1.00  0.00    -0.044 A 
ATOM     18  C   UNL A   1      30.587  29.687  24.161  1.00  0.00     0.004 A 
ATOM     19  C   UNL A   1      30.030  27.511  23.268  1.00  0.00     0.012 A 
ATOM     20  C   UNL A   1      31.514  29.096  25.016  1.00  0.00     0.001 A 
ATOM     21  C   UNL A   1      31.698  27.714  24.997  1.00  0.00     0.009 A 
BRANCH  17  22
ATOM     22  C   UNL A   1      28.877  29.631  22.336  1.00  0.00     0.062 C 
BRANCH  22  23
ATOM     23  C   UNL A   1      27.603  30.157  22.929  1.00  0.00    -0.030 C 
ATOM     24  C   UNL A   1      27.496  31.304  23.614  1.00  0.00     0.004 C 
ENDBRANCH  22  23
ENDBRANCH  17  22
ENDBRANCH  11  16
ENDBRANCH   8  10
ENDBRANCH   6   8
ENDBRANCH   5   6
ENDBRANCH   4   5
ENDBRANCH   3   4
ENDBRANCH   2   3
ENDBRANCH   1   2
BRANCH   1  25
ATOM     25  C   UNL A   1      38.793  22.679  26.245  1.00  0.00     0.188 C 
BRANCH  25  26
ATOM     26  O   UNL A   1      39.538  21.481  26.228  1.00  0.00    -0.376 OA
BRANCH  26  27
ATOM     27  C   UNL A   1      40.931  21.592  26.437  1.00  0.00     0.202 C 
BRANCH  27  28
ATOM     28  C   UNL A   1      41.369  22.465  27.623  1.00  0.00     0.261 C 
BRANCH  28  29
ATOM     29  O   UNL A   1      42.573  23.233  27.442  1.00  0.00    -0.460 OA
BRANCH  29  30
ATOM     30  C   UNL A   1      42.490  24.353  26.690  1.00  0.00     0.338 C 
ATOM     31  O   UNL A   1      42.548  24.421  25.470  1.00  0.00    -0.246 OA
BRANCH  30  32
ATOM     32  C   UNL A   1      42.101  25.473  27.576  1.00  0.00     0.060 A 
ATOM     33  C   UNL A   1      42.888  26.634  27.605  1.00  0.00     0.016 A 
ATOM     34  C   UNL A   1      40.959  25.379  28.373  1.00  0.00     0.016 A 
ATOM     35  C   UNL A   1      42.552  27.690  28.457  1.00  0.00     0.010 A 
ATOM     36  C   UNL A   1      40.636  26.429  29.240  1.00  0.00     0.010 A 
ATOM     37  C   UNL A   1      41.448  27.576  29.312  1.00  0.00    -0.014 A 
BRANCH  37  38
ATOM     38  C   UNL A   1      41.237  28.558  30.408  1.00  0.00     0.031 A 
ATOM     39  C   UNL A   1      42.104  28.457  31.636  1.00  0.00     0.074 A 
ATOM     40  C   UNL A   1      40.294  29.515  30.330  1.00  0.00     0.049 A 
ATOM     41  N   UNL A   1      42.050  29.140  32.750  1.00  0.00    -0.248 NA
ATOM     42  C   UNL A   1      43.172  27.444  31.601  1.00  0.00     0.031 C 
ATOM     43  C   UNL A   1      39.417  29.752  29.185  1.00  0.00     0.029 A 
ATOM     44  N   UNL A   1      39.907  30.460  31.251  1.00  0.00    -0.354 N 
ATOM     45  C   UNL A   1      43.060  28.627  33.556  1.00  0.00     0.074 A 
ATOM     46  C   UNL A   1      43.695  27.561  32.812  1.00  0.00     0.031 C 
ATOM     47  C   UNL A   1      38.584  30.767  29.476  1.00  0.00     0.029 A 
ATOM     48  C   UNL A   1      38.840  31.225  30.842  1.00  0.00     0.049 A 
ATOM     49  H   UNL A   1      40.353  30.578  32.121  1.00  0.00     0.167 HD
ATOM     50  C   UNL A   1      43.428  29.008  34.803  1.00  0.00     0.031 A 
ATOM     51  C   UNL A   1      38.131  32.164  31.502  1.00  0.00     0.031 A 
ATOM     52  C   UNL A   1      42.786  30.060  35.547  1.00  0.00     0.049 A 
ATOM     53  C   UNL A   1      38.511  32.523  32.918  1.00  0.00     0.074 A 
ATOM     54  C   UNL A   1      43.102  30.533  36.809  1.00  0.00     0.029 A 
ATOM     55  N   UNL A   1      41.694  30.792  35.107  1.00  0.00    -0.354 N 
ATOM     56  N   UNL A   1      39.487  32.049  33.658  1.00  0.00    -0.248 NA
ATOM     57  C   UNL A   1      37.698  33.551  33.586  1.00  0.00     0.031 C 
ATOM     58  C   UNL A   1      42.159  31.504  37.159  1.00  0.00     0.029 A 
ATOM     59  C   UNL A   1      41.304  31.692  36.085  1.00  0.00     0.049 A 
ATOM     60  H   UNL A   1      41.261  30.688  34.229  1.00  0.00     0.167 HD
ATOM     61  C   UNL A   1      39.423  32.744  34.863  1.00  0.00     0.074 A 
ATOM     62  C   UNL A   1      38.324  33.679  34.748  1.00  0.00     0.031 C 
ATOM     63  C   UNL A   1      40.208  32.621  35.963  1.00  0.00     0.031 A 
BRANCH  50  64
ATOM     64  C   UNL A   1      44.553  28.252  35.460  1.00  0.00    -0.014 A 
ATOM     65  C   UNL A   1      44.313  27.097  36.225  1.00  0.00     0.010 A 
ATOM     66  C   UNL A   1      45.880  28.682  35.270  1.00  0.00     0.010 A 
ATOM     67  C   UNL A   1      45.375  26.407  36.818  1.00  0.00     0.020 A 
ATOM     68  C   UNL A   1      46.947  27.977  35.834  1.00  0.00     0.020 A 
ATOM     69  C   UNL A   1      46.685  26.852  36.617  1.00  0.00     0.054 A 
BRANCH  69  70
ATOM     70  S   UNL A   1      48.044  25.918  37.373  1.00  0.00     0.124 S 
ATOM     71  O   UNL A   1      47.749  24.554  36.940  1.00  0.00    -0.237 OA
ATOM     72  O   UNL A   1      49.225  26.527  36.768  1.00  0.00    -0.237 OA
ATOM     73  O   UNL A   1      47.882  26.165  38.804  1.00  0.00    -0.744 OA
ENDBRANCH  69  70
ENDBRANCH  50  64
BRANCH  51  74
ATOM     74  C   UNL A   1      36.966  32.821  30.842  1.00  0.00    -0.014 A 
ATOM     75  C   UNL A   1      37.145  33.948  30.020  1.00  0.00     0.010 A 
ATOM     76  C   UNL A   1      35.665  32.325  31.040  1.00  0.00     0.010 A 
ATOM     77  C   UNL A   1      36.045  34.572  29.422  1.00  0.00     0.020 A 
ATOM     78  C   UNL A   1      34.566  32.926  30.419  1.00  0.00     0.020 A 
ATOM     79  C   UNL A   1      34.763  34.053  29.621  1.00  0.00     0.054 A 
BRANCH  79  80
ATOM     80  S   UNL A   1      33.360  34.847  28.789  1.00  0.00     0.124 S 
ATOM     81  O   UNL A   1      32.943  33.817  27.842  1.00  0.00    -0.237 OA
ATOM     82  O   UNL A   1      32.441  35.100  29.896  1.00  0.00    -0.237 OA
ATOM     83  O   UNL A   1      33.949  36.044  28.191  1.00  0.00    -0.744 OA
ENDBRANCH  79  80
ENDBRANCH  51  74
BRANCH  63  84
ATOM     84  C   UNL A   1      39.944  33.550  37.123  1.00  0.00    -0.014 A 
ATOM     85  C   UNL A   1      40.500  34.839  37.177  1.00  0.00     0.010 A 
ATOM     86  C   UNL A   1      39.072  33.140  38.149  1.00  0.00     0.010 A 
ATOM     87  C   UNL A   1      40.217  35.688  38.253  1.00  0.00     0.020 A 
ATOM     88  C   UNL A   1      38.760  33.996  39.208  1.00  0.00     0.020 A 
ATOM     89  C   UNL A   1      39.348  35.260  39.261  1.00  0.00     0.054 A 
BRANCH  89  90
ATOM     90  S   UNL A   1      38.966  36.395  40.625  1.00  0.00     0.124 S 
ATOM     91  O   UNL A   1      38.572  37.606  39.912  1.00  0.00    -0.237 OA
ATOM     92  O   UNL A   1      37.890  35.700  41.328  1.00  0.00    -0.237 OA
ATOM     93  O   UNL A   1      40.225  36.488  41.362  1.00  0.00    -0.744 OA
ENDBRANCH  89  90
ENDBRANCH  63  84
ENDBRANCH  37  38
ENDBRANCH  30  32
ENDBRANCH  29  30
ENDBRANCH  28  29
ENDBRANCH  27  28
ENDBRANCH  26  27
ENDBRANCH  25  26
ENDBRANCH   1  25
TORSDOF 24
ENDMDL
