MODEL 1
REMARK VINA RESULT:      -9.1      0.000      0.000
REMARK SMILES C[NH2+][C@]1(C(=O)OCCOCCOCCOC(=O)c2ccc(-c3c4nc(c(-c5ccc(S(=O)(=O)[O-])cc5)c5ccc([nH]5)c(-c5ccc(S(=O)(=O)[O-])cc5)c5nc(c(-c6ccc(S(=O)(=O)[O-])cc6)c6ccc3[nH]6)C=C5)C=C4)cc2)CCC[C@@H](Sc2nccs2)C1
REMARK SMILES IDX 11 1 10 2 9 3 8 4 7 5 6 6 4 7 5 8 3 9 78 10 88 11 79 12
REMARK SMILES IDX 81 13 80 14 2 15 1 16 82 19 83 20 84 21 87 22 85 23 86 24
REMARK SMILES IDX 12 25 13 26 14 27 15 28 16 29 17 30 18 31 19 32 77 33 20 34
REMARK SMILES IDX 76 35 21 36 22 37 23 38 70 39 24 40 75 41 69 42 71 43 25 44
REMARK SMILES IDX 74 45 68 46 67 47 26 49 56 50 37 51 55 52 38 53 41 54 54 55
REMARK SMILES IDX 72 56 39 57 40 58 53 60 73 61 42 62 27 63 28 64 36 65 29 66
REMARK SMILES IDX 35 67 30 68 31 69 32 70 33 71 34 72 57 73 58 74 66 75 59 76
REMARK SMILES IDX 65 77 60 78 61 79 62 80 63 81 64 82 43 83 44 84 52 85 45 86
REMARK SMILES IDX 51 87 46 88 47 89 48 90 49 91 50 92
REMARK H PARENT 2 17 2 18 71 48 41 59
REMARK Flexibility Score: inf
ROOT
ATOM      1  C   UNL A   1      35.769  32.792  28.215  1.00  0.00     0.188 C 
ENDROOT
BRANCH   1   2
ATOM      2  C   UNL A   1      35.020  31.512  27.820  1.00  0.00     0.188 C 
BRANCH   2   3
ATOM      3  O   UNL A   1      35.708  30.273  27.810  1.00  0.00    -0.376 OA
BRANCH   3   4
ATOM      4  C   UNL A   1      34.988  29.056  27.688  1.00  0.00     0.202 C 
BRANCH   4   5
ATOM      5  C   UNL A   1      33.558  29.039  27.126  1.00  0.00     0.261 C 
BRANCH   5   6
ATOM      6  O   UNL A   1      33.400  28.504  25.798  1.00  0.00    -0.459 OA
BRANCH   6   7
ATOM      7  C   UNL A   1      32.432  29.094  25.044  1.00  0.00     0.368 C 
ATOM      8  O   UNL A   1      32.148  30.287  25.127  1.00  0.00    -0.245 OA
BRANCH   7   9
ATOM      9  C   UNL A   1      31.733  28.145  23.997  1.00  0.00     0.195 C 
ATOM     10  C   UNL A   1      31.631  26.662  24.446  1.00  0.00     0.081 C 
ATOM     11  C   UNL A   1      30.303  28.724  23.931  1.00  0.00     0.096 C 
ATOM     12  C   UNL A   1      30.669  25.800  23.626  1.00  0.00     0.008 C 
ATOM     13  C   UNL A   1      29.324  27.890  23.105  1.00  0.00     0.061 C 
ATOM     14  C   UNL A   1      29.283  26.419  23.532  1.00  0.00     0.015 C 
BRANCH   9  15
ATOM     15  N   UNL A   1      32.359  28.433  22.680  1.00  0.00    -0.335 N 
ATOM     16  C   UNL A   1      33.760  28.197  22.444  1.00  0.00     0.331 C 
ATOM     17  H   UNL A   1      31.853  27.874  21.993  1.00  0.00     0.347 HD
ATOM     18  H   UNL A   1      32.297  29.449  22.626  1.00  0.00     0.347 HD
ENDBRANCH   9  15
BRANCH  13  19
ATOM     19  S   UNL A   1      27.634  28.620  23.126  1.00  0.00    -0.092 SA
BRANCH  19  20
ATOM     20  C   UNL A   1      27.965  30.305  22.778  1.00  0.00     0.150 A 
ATOM     21  N   UNL A   1      27.802  31.245  23.680  1.00  0.00    -0.238 NA
ATOM     22  S   UNL A   1      28.466  30.849  21.231  1.00  0.00    -0.116 S 
ATOM     23  C   UNL A   1      28.021  32.483  23.120  1.00  0.00     0.124 A 
ATOM     24  C   UNL A   1      28.384  32.470  21.791  1.00  0.00     0.087 A 
ENDBRANCH  19  20
ENDBRANCH  13  19
ENDBRANCH   7   9
ENDBRANCH   6   7
ENDBRANCH   5   6
ENDBRANCH   4   5
ENDBRANCH   3   4
ENDBRANCH   2   3
ENDBRANCH   1   2
BRANCH   1  25
ATOM     25  O   UNL A   1      35.401  33.416  29.417  1.00  0.00    -0.376 OA
BRANCH  25  26
ATOM     26  C   UNL A   1      34.711  32.694  30.418  1.00  0.00     0.202 C 
BRANCH  26  27
ATOM     27  C   UNL A   1      35.359  31.922  31.587  1.00  0.00     0.261 C 
BRANCH  27  28
ATOM     28  O   UNL A   1      36.748  31.590  31.515  1.00  0.00    -0.460 OA
BRANCH  28  29
ATOM     29  C   UNL A   1      37.049  30.303  31.228  1.00  0.00     0.338 C 
ATOM     30  O   UNL A   1      36.276  29.352  31.228  1.00  0.00    -0.246 OA
BRANCH  29  31
ATOM     31  C   UNL A   1      38.423  30.251  30.690  1.00  0.00     0.060 A 
ATOM     32  C   UNL A   1      38.626  30.489  29.323  1.00  0.00     0.016 A 
ATOM     33  C   UNL A   1      39.506  29.958  31.521  1.00  0.00     0.016 A 
ATOM     34  C   UNL A   1      39.907  30.417  28.778  1.00  0.00     0.010 A 
ATOM     35  C   UNL A   1      40.787  29.857  30.967  1.00  0.00     0.010 A 
ATOM     36  C   UNL A   1      40.991  30.061  29.588  1.00  0.00    -0.014 A 
BRANCH  36  37
ATOM     37  C   UNL A   1      42.294  29.709  28.970  1.00  0.00     0.031 A 
ATOM     38  C   UNL A   1      42.503  28.294  28.501  1.00  0.00     0.074 A 
ATOM     39  C   UNL A   1      43.270  30.621  28.808  1.00  0.00     0.049 A 
ATOM     40  N   UNL A   1      43.581  27.726  28.026  1.00  0.00    -0.248 NA
ATOM     41  C   UNL A   1      41.335  27.400  28.580  1.00  0.00     0.031 C 
ATOM     42  C   UNL A   1      43.172  32.039  29.148  1.00  0.00     0.029 A 
ATOM     43  N   UNL A   1      44.546  30.480  28.318  1.00  0.00    -0.354 N 
ATOM     44  C   UNL A   1      43.228  26.407  27.766  1.00  0.00     0.074 A 
ATOM     45  C   UNL A   1      41.844  26.253  28.157  1.00  0.00     0.031 C 
ATOM     46  C   UNL A   1      44.346  32.635  28.873  1.00  0.00     0.029 A 
ATOM     47  C   UNL A   1      45.292  31.634  28.381  1.00  0.00     0.049 A 
ATOM     48  H   UNL A   1      44.894  29.633  27.957  1.00  0.00     0.167 HD
ATOM     49  C   UNL A   1      43.987  25.411  27.250  1.00  0.00     0.031 A 
ATOM     50  C   UNL A   1      46.596  31.848  28.108  1.00  0.00     0.031 A 
ATOM     51  C   UNL A   1      45.369  25.561  26.878  1.00  0.00     0.049 A 
ATOM     52  C   UNL A   1      47.450  30.702  27.626  1.00  0.00     0.074 A 
ATOM     53  C   UNL A   1      46.226  24.611  26.351  1.00  0.00     0.029 A 
ATOM     54  N   UNL A   1      46.099  26.735  26.998  1.00  0.00    -0.354 N 
ATOM     55  N   UNL A   1      47.107  29.457  27.392  1.00  0.00    -0.248 NA
ATOM     56  C   UNL A   1      48.868  30.991  27.370  1.00  0.00     0.031 C 
ATOM     57  C   UNL A   1      47.489  25.193  26.210  1.00  0.00     0.029 A 
ATOM     58  C   UNL A   1      47.402  26.525  26.580  1.00  0.00     0.049 A 
ATOM     59  H   UNL A   1      45.742  27.590  27.330  1.00  0.00     0.167 HD
ATOM     60  C   UNL A   1      48.260  28.824  26.932  1.00  0.00     0.074 A 
ATOM     61  C   UNL A   1      49.305  29.827  26.909  1.00  0.00     0.031 C 
ATOM     62  C   UNL A   1      48.435  27.532  26.560  1.00  0.00     0.031 A 
BRANCH  49  63
ATOM     63  C   UNL A   1      43.348  24.055  27.107  1.00  0.00    -0.014 A 
ATOM     64  C   UNL A   1      43.163  23.211  28.217  1.00  0.00     0.010 A 
ATOM     65  C   UNL A   1      42.900  23.630  25.843  1.00  0.00     0.010 A 
ATOM     66  C   UNL A   1      42.582  21.950  28.057  1.00  0.00     0.020 A 
ATOM     67  C   UNL A   1      42.291  22.383  25.684  1.00  0.00     0.020 A 
ATOM     68  C   UNL A   1      42.152  21.543  26.790  1.00  0.00     0.054 A 
BRANCH  68  69
ATOM     69  S   UNL A   1      41.386  19.908  26.615  1.00  0.00     0.124 S 
ATOM     70  O   UNL A   1      41.921  19.462  25.330  1.00  0.00    -0.237 OA
ATOM     71  O   UNL A   1      41.888  19.193  27.786  1.00  0.00    -0.237 OA
ATOM     72  O   UNL A   1      39.953  20.191  26.628  1.00  0.00    -0.744 OA
ENDBRANCH  68  69
ENDBRANCH  49  63
BRANCH  50  73
ATOM     73  C   UNL A   1      47.190  33.199  28.322  1.00  0.00    -0.014 A 
ATOM     74  C   UNL A   1      47.218  34.148  27.285  1.00  0.00     0.010 A 
ATOM     75  C   UNL A   1      47.745  33.538  29.570  1.00  0.00     0.010 A 
ATOM     76  C   UNL A   1      47.804  35.402  27.487  1.00  0.00     0.020 A 
ATOM     77  C   UNL A   1      48.303  34.802  29.786  1.00  0.00     0.020 A 
ATOM     78  C   UNL A   1      48.340  35.722  28.738  1.00  0.00     0.054 A 
BRANCH  78  79
ATOM     79  S   UNL A   1      49.052  37.372  28.989  1.00  0.00     0.124 S 
ATOM     80  O   UNL A   1      48.042  38.017  29.821  1.00  0.00    -0.237 OA
ATOM     81  O   UNL A   1      50.319  37.071  29.651  1.00  0.00    -0.237 OA
ATOM     82  O   UNL A   1      49.176  37.902  27.632  1.00  0.00    -0.744 OA
ENDBRANCH  78  79
ENDBRANCH  50  73
BRANCH  62  83
ATOM     83  C   UNL A   1      49.795  27.126  26.049  1.00  0.00    -0.014 A 
ATOM     84  C   UNL A   1      50.684  26.374  26.839  1.00  0.00     0.010 A 
ATOM     85  C   UNL A   1      50.163  27.451  24.729  1.00  0.00     0.010 A 
ATOM     86  C   UNL A   1      51.925  25.983  26.328  1.00  0.00     0.020 A 
ATOM     87  C   UNL A   1      51.389  27.035  24.205  1.00  0.00     0.020 A 
ATOM     88  C   UNL A   1      52.269  26.314  25.014  1.00  0.00     0.054 A 
BRANCH  88  89
ATOM     89  S   UNL A   1      53.867  25.754  24.361  1.00  0.00     0.124 S 
ATOM     90  O   UNL A   1      53.920  24.373  24.830  1.00  0.00    -0.237 OA
ATOM     91  O   UNL A   1      53.700  25.923  22.920  1.00  0.00    -0.237 OA
ATOM     92  O   UNL A   1      54.832  26.660  24.980  1.00  0.00    -0.744 OA
ENDBRANCH  88  89
ENDBRANCH  62  83
ENDBRANCH  36  37
ENDBRANCH  29  31
ENDBRANCH  28  29
ENDBRANCH  27  28
ENDBRANCH  26  27
ENDBRANCH  25  26
ENDBRANCH   1  25
TORSDOF 23
ENDMDL
MODEL 2
REMARK VINA RESULT:      -8.7      6.255     10.671
REMARK SMILES C[NH2+][C@]1(C(=O)OCCOCCOCCOC(=O)c2ccc(-c3c4nc(c(-c5ccc(S(=O)(=O)[O-])cc5)c5ccc([nH]5)c(-c5ccc(S(=O)(=O)[O-])cc5)c5nc(c(-c6ccc(S(=O)(=O)[O-])cc6)c6ccc3[nH]6)C=C5)C=C4)cc2)CCC[C@@H](Sc2nccs2)C1
REMARK SMILES IDX 11 1 10 2 9 3 8 4 7 5 6 6 4 7 5 8 3 9 78 10 88 11 79 12
REMARK SMILES IDX 81 13 80 14 2 15 1 16 82 19 83 20 84 21 87 22 85 23 86 24
REMARK SMILES IDX 12 25 13 26 14 27 15 28 16 29 17 30 18 31 19 32 77 33 20 34
REMARK SMILES IDX 76 35 21 36 22 37 23 38 70 39 24 40 75 41 69 42 71 43 25 44
REMARK SMILES IDX 74 45 68 46 67 47 26 49 56 50 37 51 55 52 38 53 41 54 54 55
REMARK SMILES IDX 72 56 39 57 40 58 53 60 73 61 42 62 27 63 28 64 36 65 29 66
REMARK SMILES IDX 35 67 30 68 31 69 32 70 33 71 34 72 57 73 58 74 66 75 59 76
REMARK SMILES IDX 65 77 60 78 61 79 62 80 63 81 64 82 43 83 44 84 52 85 45 86
REMARK SMILES IDX 51 87 46 88 47 89 48 90 49 91 50 92
REMARK H PARENT 2 17 2 18 71 48 41 59
REMARK Flexibility Score: inf
ROOT
ATOM      1  C   UNL A   1      35.068  33.101  28.334  1.00  0.00     0.188 C 
ENDROOT
BRANCH   1   2
ATOM      2  C   UNL A   1      35.125  31.568  28.300  1.00  0.00     0.188 C 
BRANCH   2   3
ATOM      3  O   UNL A   1      34.545  30.870  27.210  1.00  0.00    -0.376 OA
BRANCH   3   4
ATOM      4  C   UNL A   1      33.203  30.414  27.286  1.00  0.00     0.202 C 
BRANCH   4   5
ATOM      5  C   UNL A   1      32.374  30.188  26.013  1.00  0.00     0.261 C 
BRANCH   5   6
ATOM      6  O   UNL A   1      32.222  28.820  25.585  1.00  0.00    -0.459 OA
BRANCH   6   7
ATOM      7  C   UNL A   1      31.289  28.615  24.615  1.00  0.00     0.368 C 
ATOM      8  O   UNL A   1      30.503  29.484  24.242  1.00  0.00    -0.245 OA
BRANCH   7   9
ATOM      9  C   UNL A   1      31.326  27.187  23.948  1.00  0.00     0.195 C 
ATOM     10  C   UNL A   1      31.454  27.208  22.400  1.00  0.00     0.081 C 
ATOM     11  C   UNL A   1      32.625  26.586  24.527  1.00  0.00     0.096 C 
ATOM     12  C   UNL A   1      31.836  25.872  21.762  1.00  0.00     0.008 C 
ATOM     13  C   UNL A   1      33.022  25.242  23.917  1.00  0.00     0.061 C 
ATOM     14  C   UNL A   1      33.088  25.276  22.387  1.00  0.00     0.015 C 
BRANCH   9  15
ATOM     15  N   UNL A   1      30.207  26.411  24.543  1.00  0.00    -0.335 N 
ATOM     16  C   UNL A   1      30.194  26.057  25.940  1.00  0.00     0.331 C 
ATOM     17  H   UNL A   1      29.360  26.954  24.377  1.00  0.00     0.347 HD
ATOM     18  H   UNL A   1      30.305  25.504  24.089  1.00  0.00     0.347 HD
ENDBRANCH   9  15
BRANCH  13  19
ATOM     19  S   UNL A   1      34.608  24.627  24.623  1.00  0.00    -0.092 SA
BRANCH  19  20
ATOM     20  C   UNL A   1      34.208  22.967  25.014  1.00  0.00     0.150 A 
ATOM     21  N   UNL A   1      33.691  22.148  24.126  1.00  0.00    -0.238 NA
ATOM     22  S   UNL A   1      34.409  22.313  26.587  1.00  0.00    -0.116 S 
ATOM     23  C   UNL A   1      33.370  20.949  24.719  1.00  0.00     0.124 A 
ATOM     24  C   UNL A   1      33.679  20.853  26.058  1.00  0.00     0.087 A 
ENDBRANCH  19  20
ENDBRANCH  13  19
ENDBRANCH   7   9
ENDBRANCH   6   7
ENDBRANCH   5   6
ENDBRANCH   4   5
ENDBRANCH   3   4
ENDBRANCH   2   3
ENDBRANCH   1   2
BRANCH   1  25
ATOM     25  O   UNL A   1      33.844  33.699  28.670  1.00  0.00    -0.376 OA
BRANCH  25  26
ATOM     26  C   UNL A   1      33.728  35.106  28.742  1.00  0.00     0.202 C 
BRANCH  26  27
ATOM     27  C   UNL A   1      32.691  35.887  29.576  1.00  0.00     0.261 C 
BRANCH  27  28
ATOM     28  O   UNL A   1      33.038  36.316  30.894  1.00  0.00    -0.460 OA
BRANCH  28  29
ATOM     29  C   UNL A   1      32.917  35.399  31.881  1.00  0.00     0.338 C 
ATOM     30  O   UNL A   1      31.883  35.064  32.447  1.00  0.00    -0.246 OA
BRANCH  29  31
ATOM     31  C   UNL A   1      34.204  34.689  32.024  1.00  0.00     0.060 A 
ATOM     32  C   UNL A   1      34.196  33.298  32.200  1.00  0.00     0.016 A 
ATOM     33  C   UNL A   1      35.412  35.388  31.997  1.00  0.00     0.016 A 
ATOM     34  C   UNL A   1      35.393  32.603  32.368  1.00  0.00     0.010 A 
ATOM     35  C   UNL A   1      36.610  34.693  32.196  1.00  0.00     0.010 A 
ATOM     36  C   UNL A   1      36.605  33.300  32.409  1.00  0.00    -0.014 A 
BRANCH  36  37
ATOM     37  C   UNL A   1      37.840  32.614  32.865  1.00  0.00     0.031 A 
ATOM     38  C   UNL A   1      38.293  32.828  34.284  1.00  0.00     0.074 A 
ATOM     39  C   UNL A   1      38.541  31.803  32.051  1.00  0.00     0.049 A 
ATOM     40  N   UNL A   1      39.385  32.421  34.879  1.00  0.00    -0.248 NA
ATOM     41  C   UNL A   1      37.391  33.608  35.147  1.00  0.00     0.031 C 
ATOM     42  C   UNL A   1      38.173  31.451  30.681  1.00  0.00     0.029 A 
ATOM     43  N   UNL A   1      39.722  31.134  32.266  1.00  0.00    -0.354 N 
ATOM     44  C   UNL A   1      39.309  32.909  36.178  1.00  0.00     0.074 A 
ATOM     45  C   UNL A   1      38.078  33.661  36.279  1.00  0.00     0.031 C 
ATOM     46  C   UNL A   1      39.120  30.643  30.170  1.00  0.00     0.029 A 
ATOM     47  C   UNL A   1      40.181  30.457  31.159  1.00  0.00     0.049 A 
ATOM     48  H   UNL A   1      40.195  31.138  33.129  1.00  0.00     0.167 HD
ATOM     49  C   UNL A   1      40.187  32.748  37.197  1.00  0.00     0.031 A 
ATOM     50  C   UNL A   1      41.340  29.797  30.958  1.00  0.00     0.031 A 
ATOM     51  C   UNL A   1      41.420  32.015  37.090  1.00  0.00     0.049 A 
ATOM     52  C   UNL A   1      42.349  29.712  32.075  1.00  0.00     0.074 A 
ATOM     53  C   UNL A   1      42.379  31.799  38.064  1.00  0.00     0.029 A 
ATOM     54  N   UNL A   1      41.869  31.382  35.941  1.00  0.00    -0.354 N 
ATOM     55  N   UNL A   1      42.271  30.184  33.298  1.00  0.00    -0.248 NA
ATOM     56  C   UNL A   1      43.604  29.002  31.787  1.00  0.00     0.031 C 
ATOM     57  C   UNL A   1      43.435  31.088  37.487  1.00  0.00     0.029 A 
ATOM     58  C   UNL A   1      43.103  30.798  36.174  1.00  0.00     0.049 A 
ATOM     59  H   UNL A   1      41.382  31.352  35.086  1.00  0.00     0.167 HD
ATOM     60  C   UNL A   1      43.451  29.802  33.931  1.00  0.00     0.074 A 
ATOM     61  C   UNL A   1      44.219  29.049  32.961  1.00  0.00     0.031 C 
ATOM     62  C   UNL A   1      43.859  30.049  35.201  1.00  0.00     0.031 A 
BRANCH  49  63
ATOM     63  C   UNL A   1      39.863  33.424  38.503  1.00  0.00    -0.014 A 
ATOM     64  C   UNL A   1      40.344  34.713  38.801  1.00  0.00     0.010 A 
ATOM     65  C   UNL A   1      39.041  32.768  39.438  1.00  0.00     0.010 A 
ATOM     66  C   UNL A   1      40.044  35.313  40.026  1.00  0.00     0.020 A 
ATOM     67  C   UNL A   1      38.714  33.378  40.652  1.00  0.00     0.020 A 
ATOM     68  C   UNL A   1      39.233  34.640  40.946  1.00  0.00     0.054 A 
BRANCH  68  69
ATOM     69  S   UNL A   1      38.847  35.451  42.522  1.00  0.00     0.124 S 
ATOM     70  O   UNL A   1      39.299  36.818  42.274  1.00  0.00    -0.237 OA
ATOM     71  O   UNL A   1      37.400  35.278  42.625  1.00  0.00    -0.237 OA
ATOM     72  O   UNL A   1      39.634  34.704  43.500  1.00  0.00    -0.744 OA
ENDBRANCH  68  69
ENDBRANCH  49  63
BRANCH  50  73
ATOM     73  C   UNL A   1      41.633  29.195  29.624  1.00  0.00    -0.014 A 
ATOM     74  C   UNL A   1      42.504  29.831  28.721  1.00  0.00     0.010 A 
ATOM     75  C   UNL A   1      41.028  27.982  29.247  1.00  0.00     0.010 A 
ATOM     76  C   UNL A   1      42.749  29.274  27.462  1.00  0.00     0.020 A 
ATOM     77  C   UNL A   1      41.296  27.406  28.002  1.00  0.00     0.020 A 
ATOM     78  C   UNL A   1      42.146  28.062  27.112  1.00  0.00     0.054 A 
BRANCH  78  79
ATOM     79  S   UNL A   1      42.517  27.335  25.491  1.00  0.00     0.124 S 
ATOM     80  O   UNL A   1      43.898  26.897  25.662  1.00  0.00    -0.237 OA
ATOM     81  O   UNL A   1      41.523  26.270  25.388  1.00  0.00    -0.237 OA
ATOM     82  O   UNL A   1      42.325  28.450  24.564  1.00  0.00    -0.744 OA
ENDBRANCH  78  79
ENDBRANCH  50  73
BRANCH  62  83
ATOM     83  C   UNL A   1      45.178  29.464  35.641  1.00  0.00    -0.014 A 
ATOM     84  C   UNL A   1      45.265  28.168  36.180  1.00  0.00     0.010 A 
ATOM     85  C   UNL A   1      46.360  30.206  35.451  1.00  0.00     0.010 A 
ATOM     86  C   UNL A   1      46.505  27.638  36.548  1.00  0.00     0.020 A 
ATOM     87  C   UNL A   1      47.604  29.667  35.789  1.00  0.00     0.020 A 
ATOM     88  C   UNL A   1      47.668  28.390  36.349  1.00  0.00     0.054 A 
BRANCH  88  89
ATOM     89  S   UNL A   1      49.268  27.661  36.793  1.00  0.00     0.124 S 
ATOM     90  O   UNL A   1      49.628  26.948  35.571  1.00  0.00    -0.237 OA
ATOM     91  O   UNL A   1      50.081  28.835  37.098  1.00  0.00    -0.237 OA
ATOM     92  O   UNL A   1      48.957  26.811  37.941  1.00  0.00    -0.744 OA
ENDBRANCH  88  89
ENDBRANCH  62  83
ENDBRANCH  36  37
ENDBRANCH  29  31
ENDBRANCH  28  29
ENDBRANCH  27  28
ENDBRANCH  26  27
ENDBRANCH  25  26
ENDBRANCH   1  25
TORSDOF 23
ENDMDL
MODEL 3
REMARK VINA RESULT:      -8.5      6.646      9.196
REMARK SMILES C[NH2+][C@]1(C(=O)OCCOCCOCCOC(=O)c2ccc(-c3c4nc(c(-c5ccc(S(=O)(=O)[O-])cc5)c5ccc([nH]5)c(-c5ccc(S(=O)(=O)[O-])cc5)c5nc(c(-c6ccc(S(=O)(=O)[O-])cc6)c6ccc3[nH]6)C=C5)C=C4)cc2)CCC[C@@H](Sc2nccs2)C1
REMARK SMILES IDX 11 1 10 2 9 3 8 4 7 5 6 6 4 7 5 8 3 9 78 10 88 11 79 12
REMARK SMILES IDX 81 13 80 14 2 15 1 16 82 19 83 20 84 21 87 22 85 23 86 24
REMARK SMILES IDX 12 25 13 26 14 27 15 28 16 29 17 30 18 31 19 32 77 33 20 34
REMARK SMILES IDX 76 35 21 36 22 37 23 38 70 39 24 40 75 41 69 42 71 43 25 44
REMARK SMILES IDX 74 45 68 46 67 47 26 49 56 50 37 51 55 52 38 53 41 54 54 55
REMARK SMILES IDX 72 56 39 57 40 58 53 60 73 61 42 62 27 63 28 64 36 65 29 66
REMARK SMILES IDX 35 67 30 68 31 69 32 70 33 71 34 72 57 73 58 74 66 75 59 76
REMARK SMILES IDX 65 77 60 78 61 79 62 80 63 81 64 82 43 83 44 84 52 85 45 86
REMARK SMILES IDX 51 87 46 88 47 89 48 90 49 91 50 92
REMARK H PARENT 2 17 2 18 71 48 41 59
REMARK Flexibility Score: inf
ROOT
ATOM      1  C   UNL A   1      35.820  32.960  28.264  1.00  0.00     0.188 C 
ENDROOT
BRANCH   1   2
ATOM      2  C   UNL A   1      35.154  31.584  28.393  1.00  0.00     0.188 C 
BRANCH   2   3
ATOM      3  O   UNL A   1      34.782  30.873  27.224  1.00  0.00    -0.376 OA
BRANCH   3   4
ATOM      4  C   UNL A   1      33.589  30.105  27.203  1.00  0.00     0.202 C 
BRANCH   4   5
ATOM      5  C   UNL A   1      33.635  28.573  27.309  1.00  0.00     0.261 C 
BRANCH   5   6
ATOM      6  O   UNL A   1      32.878  27.842  26.325  1.00  0.00    -0.459 OA
BRANCH   6   7
ATOM      7  C   UNL A   1      31.784  27.187  26.802  1.00  0.00     0.368 C 
ATOM      8  O   UNL A   1      31.165  27.550  27.800  1.00  0.00    -0.245 OA
BRANCH   7   9
ATOM      9  C   UNL A   1      31.319  25.953  25.939  1.00  0.00     0.195 C 
ATOM     10  C   UNL A   1      30.256  26.292  24.858  1.00  0.00     0.081 C 
ATOM     11  C   UNL A   1      32.622  25.546  25.216  1.00  0.00     0.096 C 
ATOM     12  C   UNL A   1      30.043  25.214  23.794  1.00  0.00     0.008 C 
ATOM     13  C   UNL A   1      32.440  24.458  24.158  1.00  0.00     0.061 C 
ATOM     14  C   UNL A   1      31.348  24.793  23.137  1.00  0.00     0.015 C 
BRANCH   9  15
ATOM     15  N   UNL A   1      31.014  24.858  26.895  1.00  0.00    -0.335 N 
ATOM     16  C   UNL A   1      30.930  23.484  26.468  1.00  0.00     0.331 C 
ATOM     17  H   UNL A   1      31.739  24.892  27.612  1.00  0.00     0.347 HD
ATOM     18  H   UNL A   1      30.051  25.062  27.162  1.00  0.00     0.347 HD
ENDBRANCH   9  15
BRANCH  13  19
ATOM     19  S   UNL A   1      34.028  24.075  23.309  1.00  0.00    -0.092 SA
BRANCH  19  20
ATOM     20  C   UNL A   1      34.737  22.890  24.388  1.00  0.00     0.150 A 
ATOM     21  N   UNL A   1      34.037  22.303  25.331  1.00  0.00    -0.238 NA
ATOM     22  S   UNL A   1      36.396  22.458  24.325  1.00  0.00    -0.116 S 
ATOM     23  C   UNL A   1      34.854  21.507  26.101  1.00  0.00     0.124 A 
ATOM     24  C   UNL A   1      36.175  21.470  25.712  1.00  0.00     0.087 A 
ENDBRANCH  19  20
ENDBRANCH  13  19
ENDBRANCH   7   9
ENDBRANCH   6   7
ENDBRANCH   5   6
ENDBRANCH   4   5
ENDBRANCH   3   4
ENDBRANCH   2   3
ENDBRANCH   1   2
BRANCH   1  25
ATOM     25  O   UNL A   1      35.069  33.993  27.682  1.00  0.00    -0.376 OA
BRANCH  25  26
ATOM     26  C   UNL A   1      33.705  34.162  28.012  1.00  0.00     0.202 C 
BRANCH  26  27
ATOM     27  C   UNL A   1      33.135  35.190  29.013  1.00  0.00     0.261 C 
BRANCH  27  28
ATOM     28  O   UNL A   1      32.595  34.728  30.253  1.00  0.00    -0.460 OA
BRANCH  28  29
ATOM     29  C   UNL A   1      33.133  35.250  31.380  1.00  0.00     0.338 C 
ATOM     30  O   UNL A   1      32.607  36.059  32.136  1.00  0.00    -0.246 OA
BRANCH  29  31
ATOM     31  C   UNL A   1      34.379  34.521  31.687  1.00  0.00     0.060 A 
ATOM     32  C   UNL A   1      34.310  33.356  32.464  1.00  0.00     0.016 A 
ATOM     33  C   UNL A   1      35.612  34.986  31.225  1.00  0.00     0.016 A 
ATOM     34  C   UNL A   1      35.473  32.661  32.797  1.00  0.00     0.010 A 
ATOM     35  C   UNL A   1      36.780  34.305  31.585  1.00  0.00     0.010 A 
ATOM     36  C   UNL A   1      36.719  33.154  32.394  1.00  0.00    -0.014 A 
BRANCH  36  37
ATOM     37  C   UNL A   1      37.963  32.587  32.975  1.00  0.00     0.031 A 
ATOM     38  C   UNL A   1      38.647  31.466  32.242  1.00  0.00     0.074 A 
ATOM     39  C   UNL A   1      38.491  33.064  34.117  1.00  0.00     0.049 A 
ATOM     40  N   UNL A   1      39.680  30.747  32.598  1.00  0.00    -0.248 NA
ATOM     41  C   UNL A   1      38.087  31.106  30.928  1.00  0.00     0.031 C 
ATOM     42  C   UNL A   1      37.972  34.194  34.886  1.00  0.00     0.029 A 
ATOM     43  N   UNL A   1      39.585  32.643  34.833  1.00  0.00    -0.354 N 
ATOM     44  C   UNL A   1      39.884  29.842  31.563  1.00  0.00     0.074 A 
ATOM     45  C   UNL A   1      38.854  30.085  30.577  1.00  0.00     0.031 C 
ATOM     46  C   UNL A   1      38.739  34.365  35.978  1.00  0.00     0.029 A 
ATOM     47  C   UNL A   1      39.773  33.332  36.009  1.00  0.00     0.049 A 
ATOM     48  H   UNL A   1      40.179  31.916  34.534  1.00  0.00     0.167 HD
ATOM     49  C   UNL A   1      40.840  28.890  31.444  1.00  0.00     0.031 A 
ATOM     50  C   UNL A   1      40.654  33.127  37.010  1.00  0.00     0.031 A 
ATOM     51  C   UNL A   1      41.853  28.637  32.434  1.00  0.00     0.049 A 
ATOM     52  C   UNL A   1      41.650  32.000  36.903  1.00  0.00     0.074 A 
ATOM     53  C   UNL A   1      42.864  27.693  32.409  1.00  0.00     0.029 A 
ATOM     54  N   UNL A   1      41.982  29.328  33.630  1.00  0.00    -0.354 N 
ATOM     55  N   UNL A   1      41.828  31.144  35.923  1.00  0.00    -0.248 NA
ATOM     56  C   UNL A   1      42.567  31.811  38.037  1.00  0.00     0.031 C 
ATOM     57  C   UNL A   1      43.565  27.771  33.615  1.00  0.00     0.029 A 
ATOM     58  C   UNL A   1      43.039  28.813  34.362  1.00  0.00     0.049 A 
ATOM     59  H   UNL A   1      41.408  30.075  33.916  1.00  0.00     0.167 HD
ATOM     60  C   UNL A   1      42.895  30.337  36.311  1.00  0.00     0.074 A 
ATOM     61  C   UNL A   1      43.331  30.815  37.607  1.00  0.00     0.031 C 
ATOM     62  C   UNL A   1      43.465  29.298  35.651  1.00  0.00     0.031 A 
BRANCH  49  63
ATOM     63  C   UNL A   1      40.801  28.018  30.218  1.00  0.00    -0.014 A 
ATOM     64  C   UNL A   1      39.742  27.118  29.991  1.00  0.00     0.010 A 
ATOM     65  C   UNL A   1      41.828  28.119  29.262  1.00  0.00     0.010 A 
ATOM     66  C   UNL A   1      39.736  26.307  28.853  1.00  0.00     0.020 A 
ATOM     67  C   UNL A   1      41.809  27.332  28.108  1.00  0.00     0.020 A 
ATOM     68  C   UNL A   1      40.771  26.417  27.920  1.00  0.00     0.054 A 
BRANCH  68  69
ATOM     69  S   UNL A   1      40.728  25.363  26.444  1.00  0.00     0.124 S 
ATOM     70  O   UNL A   1      39.348  24.881  26.460  1.00  0.00    -0.237 OA
ATOM     71  O   UNL A   1      41.054  26.300  25.372  1.00  0.00    -0.237 OA
ATOM     72  O   UNL A   1      41.744  24.347  26.712  1.00  0.00    -0.744 OA
ENDBRANCH  68  69
ENDBRANCH  49  63
BRANCH  50  73
ATOM     73  C   UNL A   1      40.611  33.987  38.229  1.00  0.00    -0.014 A 
ATOM     74  C   UNL A   1      41.382  35.160  38.312  1.00  0.00     0.010 A 
ATOM     75  C   UNL A   1      39.801  33.625  39.321  1.00  0.00     0.010 A 
ATOM     76  C   UNL A   1      41.357  35.943  39.471  1.00  0.00     0.020 A 
ATOM     77  C   UNL A   1      39.749  34.423  40.468  1.00  0.00     0.020 A 
ATOM     78  C   UNL A   1      40.537  35.572  40.540  1.00  0.00     0.054 A 
BRANCH  78  79
ATOM     79  S   UNL A   1      40.485  36.630  42.013  1.00  0.00     0.124 S 
ATOM     80  O   UNL A   1      41.506  36.023  42.861  1.00  0.00    -0.237 OA
ATOM     81  O   UNL A   1      40.815  37.944  41.469  1.00  0.00    -0.237 OA
ATOM     82  O   UNL A   1      39.110  36.488  42.490  1.00  0.00    -0.744 OA
ENDBRANCH  78  79
ENDBRANCH  50  73
BRANCH  62  83
ATOM     83  C   UNL A   1      44.654  28.626  36.292  1.00  0.00    -0.014 A 
ATOM     84  C   UNL A   1      44.505  27.503  37.125  1.00  0.00     0.010 A 
ATOM     85  C   UNL A   1      45.950  29.093  36.001  1.00  0.00     0.010 A 
ATOM     86  C   UNL A   1      45.627  26.880  37.678  1.00  0.00     0.020 A 
ATOM     87  C   UNL A   1      47.076  28.453  36.527  1.00  0.00     0.020 A 
ATOM     88  C   UNL A   1      46.906  27.358  37.375  1.00  0.00     0.054 A 
BRANCH  88  89
ATOM     89  S   UNL A   1      48.347  26.502  38.069  1.00  0.00     0.124 S 
ATOM     90  O   UNL A   1      48.977  27.555  38.859  1.00  0.00    -0.237 OA
ATOM     91  O   UNL A   1      47.738  25.419  38.836  1.00  0.00    -0.237 OA
ATOM     92  O   UNL A   1      49.098  26.074  36.890  1.00  0.00    -0.744 OA
ENDBRANCH  88  89
ENDBRANCH  62  83
ENDBRANCH  36  37
ENDBRANCH  29  31
ENDBRANCH  28  29
ENDBRANCH  27  28
ENDBRANCH  26  27
ENDBRANCH  25  26
ENDBRANCH   1  25
TORSDOF 23
ENDMDL
