MODEL 1
REMARK VINA RESULT:      -9.5      0.000      0.000
REMARK SMILES CC(C)c1nc(N2C[C@H](C)OC(C)(C)C2)sc1C(=O)OCCOCCOCCOC(=O)c1ccc(-c2c3nc(c(-c4ccc(S(=O)(=O)[O-])cc4)c4ccc([nH]4)c(-c4ccc(S(=O)(=O)[O-])cc4)c4nc(c(-c5ccc(S(=O)(=O)[O-])cc5)c5ccc2[nH]5)C=C4)C=C3)cc1
REMARK SMILES IDX 25 1 24 2 23 3 22 4 21 5 20 6 18 7 19 8 17 9 4 10 5 11 6 12
REMARK SMILES IDX 16 13 2 14 1 15 3 16 7 17 8 18 15 19 9 20 12 21 11 22 10 23
REMARK SMILES IDX 13 24 14 25 26 26 27 27 28 28 29 29 30 30 31 31 32 32 33 33
REMARK SMILES IDX 91 34 34 35 90 36 35 37 36 38 37 39 84 40 38 41 89 42 83 43
REMARK SMILES IDX 85 44 39 45 88 46 82 47 81 48 40 50 70 51 51 52 69 53 52 54
REMARK SMILES IDX 55 55 68 56 86 57 53 58 54 59 67 61 87 62 56 63 41 64 42 65
REMARK SMILES IDX 50 66 43 67 49 68 44 69 45 70 46 71 47 72 48 73 71 74 72 75
REMARK SMILES IDX 80 76 73 77 79 78 74 79 75 80 76 81 77 82 78 83 57 84 58 85
REMARK SMILES IDX 66 86 59 87 65 88 60 89 61 90 62 91 63 92 64 93
REMARK H PARENT 85 49 55 60
REMARK Flexibility Score: inf
ROOT
ATOM      1  C   UNL A   1      40.792  20.269  26.793  1.00  0.00     0.188 C 
ENDROOT
BRANCH   1   2
ATOM      2  C   UNL A   1      39.708  21.144  26.132  1.00  0.00     0.188 C 
BRANCH   2   3
ATOM      3  O   UNL A   1      39.661  22.543  26.359  1.00  0.00    -0.376 OA
BRANCH   3   4
ATOM      4  C   UNL A   1      38.448  23.262  26.185  1.00  0.00     0.202 C 
BRANCH   4   5
ATOM      5  C   UNL A   1      37.208  22.502  25.717  1.00  0.00     0.261 C 
BRANCH   5   6
ATOM      6  O   UNL A   1      36.012  23.283  25.851  1.00  0.00    -0.459 OA
BRANCH   6   7
ATOM      7  C   UNL A   1      35.402  23.619  24.681  1.00  0.00     0.350 C 
ATOM      8  O   UNL A   1      35.830  23.326  23.570  1.00  0.00    -0.245 OA
BRANCH   7   9
ATOM      9  C   UNL A   1      34.147  24.274  24.941  1.00  0.00     0.137 A 
ATOM     10  C   UNL A   1      32.963  23.848  25.527  1.00  0.00     0.071 A 
ATOM     11  N   UNL A   1      32.012  24.859  25.656  1.00  0.00    -0.224 NA
ATOM     12  C   UNL A   1      32.438  25.991  25.152  1.00  0.00     0.186 A 
ATOM     13  S   UNL A   1      33.999  25.917  24.451  1.00  0.00    -0.089 S 
BRANCH  10  14
ATOM     14  C   UNL A   1      32.629  22.496  26.124  1.00  0.00     0.034 C 
ATOM     15  C   UNL A   1      32.846  22.474  27.645  1.00  0.00     0.014 C 
ATOM     16  C   UNL A   1      31.193  22.055  25.839  1.00  0.00     0.014 C 
ENDBRANCH  10  14
BRANCH  12  17
ATOM     17  N   UNL A   1      31.754  27.146  25.246  1.00  0.00    -0.343 N 
ATOM     18  C   UNL A   1      31.980  28.122  26.299  1.00  0.00     0.150 C 
ATOM     19  C   UNL A   1      30.639  27.415  24.350  1.00  0.00     0.153 C 
ATOM     20  C   UNL A   1      32.115  29.517  25.650  1.00  0.00     0.135 C 
ATOM     21  C   UNL A   1      30.745  28.847  23.769  1.00  0.00     0.081 C 
ATOM     22  O   UNL A   1      30.985  29.826  24.807  1.00  0.00    -0.369 OA
ATOM     23  C   UNL A   1      32.200  30.607  26.711  1.00  0.00     0.040 C 
ATOM     24  C   UNL A   1      31.830  28.926  22.684  1.00  0.00     0.044 C 
ATOM     25  C   UNL A   1      29.397  29.230  23.143  1.00  0.00     0.044 C 
ENDBRANCH  12  17
ENDBRANCH   7   9
ENDBRANCH   6   7
ENDBRANCH   5   6
ENDBRANCH   4   5
ENDBRANCH   3   4
ENDBRANCH   2   3
ENDBRANCH   1   2
BRANCH   1  26
ATOM     26  O   UNL A   1      41.335  19.156  26.101  1.00  0.00    -0.376 OA
BRANCH  26  27
ATOM     27  C   UNL A   1      42.638  18.705  26.449  1.00  0.00     0.202 C 
BRANCH  27  28
ATOM     28  C   UNL A   1      43.569  18.296  25.311  1.00  0.00     0.261 C 
BRANCH  28  29
ATOM     29  O   UNL A   1      43.772  19.373  24.384  1.00  0.00    -0.460 OA
BRANCH  29  30
ATOM     30  C   UNL A   1      44.996  19.950  24.433  1.00  0.00     0.338 C 
ATOM     31  O   UNL A   1      46.042  19.509  23.987  1.00  0.00    -0.246 OA
BRANCH  30  32
ATOM     32  C   UNL A   1      44.864  21.318  24.962  1.00  0.00     0.060 A 
ATOM     33  C   UNL A   1      44.551  22.343  24.061  1.00  0.00     0.016 A 
ATOM     34  C   UNL A   1      45.098  21.598  26.311  1.00  0.00     0.016 A 
ATOM     35  C   UNL A   1      44.513  23.664  24.499  1.00  0.00     0.010 A 
ATOM     36  C   UNL A   1      45.077  22.926  26.744  1.00  0.00     0.010 A 
ATOM     37  C   UNL A   1      44.818  23.964  25.832  1.00  0.00    -0.014 A 
BRANCH  37  38
ATOM     38  C   UNL A   1      45.036  25.371  26.235  1.00  0.00     0.031 A 
ATOM     39  C   UNL A   1      46.428  25.935  26.149  1.00  0.00     0.074 A 
ATOM     40  C   UNL A   1      44.014  26.134  26.662  1.00  0.00     0.049 A 
ATOM     41  N   UNL A   1      46.860  27.123  26.480  1.00  0.00    -0.248 NA
ATOM     42  C   UNL A   1      47.469  25.038  25.619  1.00  0.00     0.031 C 
ATOM     43  C   UNL A   1      42.618  25.709  26.745  1.00  0.00     0.029 A 
ATOM     44  N   UNL A   1      44.003  27.429  27.113  1.00  0.00    -0.354 N 
ATOM     45  C   UNL A   1      48.222  27.117  26.202  1.00  0.00     0.074 A 
ATOM     46  C   UNL A   1      48.548  25.803  25.694  1.00  0.00     0.031 C 
ATOM     47  C   UNL A   1      41.884  26.726  27.234  1.00  0.00     0.029 A 
ATOM     48  C   UNL A   1      42.763  27.858  27.521  1.00  0.00     0.049 A 
ATOM     49  H   UNL A   1      44.807  27.997  27.140  1.00  0.00     0.167 HD
ATOM     50  C   UNL A   1      49.121  28.118  26.356  1.00  0.00     0.031 A 
ATOM     51  C   UNL A   1      42.390  29.023  28.084  1.00  0.00     0.031 A 
ATOM     52  C   UNL A   1      48.799  29.414  26.885  1.00  0.00     0.049 A 
ATOM     53  C   UNL A   1      43.423  30.094  28.320  1.00  0.00     0.074 A 
ATOM     54  C   UNL A   1      49.637  30.499  27.075  1.00  0.00     0.029 A 
ATOM     55  N   UNL A   1      47.540  29.798  27.321  1.00  0.00    -0.354 N 
ATOM     56  N   UNL A   1      44.702  30.083  28.028  1.00  0.00    -0.248 NA
ATOM     57  C   UNL A   1      42.961  31.334  28.958  1.00  0.00     0.031 C 
ATOM     58  C   UNL A   1      48.894  31.523  27.672  1.00  0.00     0.029 A 
ATOM     59  C   UNL A   1      47.582  31.095  27.804  1.00  0.00     0.049 A 
ATOM     60  H   UNL A   1      46.735  29.232  27.291  1.00  0.00     0.167 HD
ATOM     61  C   UNL A   1      45.191  31.325  28.422  1.00  0.00     0.074 A 
ATOM     62  C   UNL A   1      44.069  32.064  28.965  1.00  0.00     0.031 C 
ATOM     63  C   UNL A   1      46.454  31.813  28.339  1.00  0.00     0.031 A 
BRANCH  50  64
ATOM     64  C   UNL A   1      50.547  27.828  25.981  1.00  0.00    -0.014 A 
ATOM     65  C   UNL A   1      51.463  27.341  26.932  1.00  0.00     0.010 A 
ATOM     66  C   UNL A   1      50.972  28.022  24.655  1.00  0.00     0.010 A 
ATOM     67  C   UNL A   1      52.789  27.088  26.569  1.00  0.00     0.020 A 
ATOM     68  C   UNL A   1      52.291  27.748  24.283  1.00  0.00     0.020 A 
ATOM     69  C   UNL A   1      53.195  27.299  25.248  1.00  0.00     0.054 A 
BRANCH  69  70
ATOM     70  S   UNL A   1      54.918  26.947  24.799  1.00  0.00     0.124 S 
ATOM     71  O   UNL A   1      55.041  27.638  23.517  1.00  0.00    -0.237 OA
ATOM     72  O   UNL A   1      55.667  27.538  25.904  1.00  0.00    -0.237 OA
ATOM     73  O   UNL A   1      54.966  25.489  24.727  1.00  0.00    -0.744 OA
ENDBRANCH  69  70
ENDBRANCH  50  64
BRANCH  51  74
ATOM     74  C   UNL A   1      40.972  29.236  28.486  1.00  0.00    -0.014 A 
ATOM     75  C   UNL A   1      39.963  29.354  27.516  1.00  0.00     0.010 A 
ATOM     76  C   UNL A   1      40.629  29.331  29.847  1.00  0.00     0.010 A 
ATOM     77  C   UNL A   1      38.638  29.582  27.898  1.00  0.00     0.020 A 
ATOM     78  C   UNL A   1      39.302  29.536  30.235  1.00  0.00     0.020 A 
ATOM     79  C   UNL A   1      38.316  29.672  29.257  1.00  0.00     0.054 A 
BRANCH  79  80
ATOM     80  S   UNL A   1      36.583  29.927  29.734  1.00  0.00     0.124 S 
ATOM     81  O   UNL A   1      36.513  29.221  31.009  1.00  0.00    -0.237 OA
ATOM     82  O   UNL A   1      36.485  31.383  29.810  1.00  0.00    -0.237 OA
ATOM     83  O   UNL A   1      35.836  29.316  28.637  1.00  0.00    -0.744 OA
ENDBRANCH  79  80
ENDBRANCH  51  74
BRANCH  63  84
ATOM     84  C   UNL A   1      46.687  33.223  28.811  1.00  0.00    -0.014 A 
ATOM     85  C   UNL A   1      46.468  34.321  27.962  1.00  0.00     0.010 A 
ATOM     86  C   UNL A   1      47.072  33.451  30.145  1.00  0.00     0.010 A 
ATOM     87  C   UNL A   1      46.654  35.624  28.432  1.00  0.00     0.020 A 
ATOM     88  C   UNL A   1      47.235  34.752  30.625  1.00  0.00     0.020 A 
ATOM     89  C   UNL A   1      47.039  35.831  29.760  1.00  0.00     0.054 A 
BRANCH  89  90
ATOM     90  S   UNL A   1      47.228  37.532  30.363  1.00  0.00     0.124 S 
ATOM     91  O   UNL A   1      48.625  37.550  30.784  1.00  0.00    -0.237 OA
ATOM     92  O   UNL A   1      46.917  38.331  29.180  1.00  0.00    -0.237 OA
ATOM     93  O   UNL A   1      46.249  37.625  31.445  1.00  0.00    -0.744 OA
ENDBRANCH  89  90
ENDBRANCH  63  84
ENDBRANCH  37  38
ENDBRANCH  30  32
ENDBRANCH  29  30
ENDBRANCH  28  29
ENDBRANCH  27  28
ENDBRANCH  26  27
ENDBRANCH   1  26
TORSDOF 22
ENDMDL
MODEL 2
REMARK VINA RESULT:      -8.6      2.239     10.163
REMARK SMILES CC(C)c1nc(N2C[C@H](C)OC(C)(C)C2)sc1C(=O)OCCOCCOCCOC(=O)c1ccc(-c2c3nc(c(-c4ccc(S(=O)(=O)[O-])cc4)c4ccc([nH]4)c(-c4ccc(S(=O)(=O)[O-])cc4)c4nc(c(-c5ccc(S(=O)(=O)[O-])cc5)c5ccc2[nH]5)C=C4)C=C3)cc1
REMARK SMILES IDX 25 1 24 2 23 3 22 4 21 5 20 6 18 7 19 8 17 9 4 10 5 11 6 12
REMARK SMILES IDX 16 13 2 14 1 15 3 16 7 17 8 18 15 19 9 20 12 21 11 22 10 23
REMARK SMILES IDX 13 24 14 25 26 26 27 27 28 28 29 29 30 30 31 31 32 32 33 33
REMARK SMILES IDX 91 34 34 35 90 36 35 37 36 38 37 39 84 40 38 41 89 42 83 43
REMARK SMILES IDX 85 44 39 45 88 46 82 47 81 48 40 50 70 51 51 52 69 53 52 54
REMARK SMILES IDX 55 55 68 56 86 57 53 58 54 59 67 61 87 62 56 63 41 64 42 65
REMARK SMILES IDX 50 66 43 67 49 68 44 69 45 70 46 71 47 72 48 73 71 74 72 75
REMARK SMILES IDX 80 76 73 77 79 78 74 79 75 80 76 81 77 82 78 83 57 84 58 85
REMARK SMILES IDX 66 86 59 87 65 88 60 89 61 90 62 91 63 92 64 93
REMARK H PARENT 85 49 55 60
REMARK Flexibility Score: inf
ROOT
ATOM      1  C   UNL A   1      36.329  31.325  29.333  1.00  0.00     0.188 C 
ENDROOT
BRANCH   1   2
ATOM      2  C   UNL A   1      35.968  30.217  28.324  1.00  0.00     0.188 C 
BRANCH   2   3
ATOM      3  O   UNL A   1      34.615  29.925  28.013  1.00  0.00    -0.376 OA
BRANCH   3   4
ATOM      4  C   UNL A   1      33.906  30.713  27.068  1.00  0.00     0.202 C 
BRANCH   4   5
ATOM      5  C   UNL A   1      32.401  30.495  26.915  1.00  0.00     0.261 C 
BRANCH   5   6
ATOM      6  O   UNL A   1      32.081  29.130  26.610  1.00  0.00    -0.459 OA
BRANCH   6   7
ATOM      7  C   UNL A   1      32.335  28.743  25.330  1.00  0.00     0.350 C 
ATOM      8  O   UNL A   1      32.863  29.459  24.485  1.00  0.00    -0.245 OA
BRANCH   7   9
ATOM      9  C   UNL A   1      31.988  27.359  25.146  1.00  0.00     0.137 A 
ATOM     10  C   UNL A   1      30.863  26.728  24.633  1.00  0.00     0.071 A 
ATOM     11  N   UNL A   1      30.989  25.341  24.562  1.00  0.00    -0.224 NA
ATOM     12  C   UNL A   1      32.139  24.934  25.039  1.00  0.00     0.186 A 
ATOM     13  S   UNL A   1      33.142  26.184  25.645  1.00  0.00    -0.089 S 
BRANCH  10  14
ATOM     14  C   UNL A   1      29.605  27.345  24.057  1.00  0.00     0.034 C 
ATOM     15  C   UNL A   1      29.873  28.042  22.715  1.00  0.00     0.014 C 
ATOM     16  C   UNL A   1      28.481  26.329  23.851  1.00  0.00     0.014 C 
ENDBRANCH  10  14
BRANCH  12  17
ATOM     17  N   UNL A   1      32.550  23.654  24.987  1.00  0.00    -0.343 N 
ATOM     18  C   UNL A   1      31.816  22.610  24.290  1.00  0.00     0.150 C 
ATOM     19  C   UNL A   1      33.707  23.222  25.756  1.00  0.00     0.153 C 
ATOM     20  C   UNL A   1      32.808  21.825  23.404  1.00  0.00     0.135 C 
ATOM     21  C   UNL A   1      34.654  22.369  24.875  1.00  0.00     0.081 C 
ATOM     22  O   UNL A   1      33.933  21.335  24.165  1.00  0.00    -0.369 OA
ATOM     23  C   UNL A   1      32.134  20.620  22.764  1.00  0.00     0.040 C 
ATOM     24  C   UNL A   1      35.446  23.250  23.898  1.00  0.00     0.044 C 
ATOM     25  C   UNL A   1      35.647  21.631  25.784  1.00  0.00     0.044 C 
ENDBRANCH  12  17
ENDBRANCH   7   9
ENDBRANCH   6   7
ENDBRANCH   5   6
ENDBRANCH   4   5
ENDBRANCH   3   4
ENDBRANCH   2   3
ENDBRANCH   1   2
BRANCH   1  26
ATOM     26  O   UNL A   1      35.580  32.529  29.374  1.00  0.00    -0.376 OA
BRANCH  26  27
ATOM     27  C   UNL A   1      35.985  33.554  30.273  1.00  0.00     0.202 C 
BRANCH  27  28
ATOM     28  C   UNL A   1      36.441  33.130  31.666  1.00  0.00     0.261 C 
BRANCH  28  29
ATOM     29  O   UNL A   1      37.865  32.957  31.723  1.00  0.00    -0.460 OA
BRANCH  29  30
ATOM     30  C   UNL A   1      38.288  31.918  32.480  1.00  0.00     0.338 C 
ATOM     31  O   UNL A   1      37.801  31.514  33.523  1.00  0.00    -0.246 OA
BRANCH  30  32
ATOM     32  C   UNL A   1      39.351  31.197  31.760  1.00  0.00     0.060 A 
ATOM     33  C   UNL A   1      40.181  30.343  32.498  1.00  0.00     0.016 A 
ATOM     34  C   UNL A   1      39.566  31.400  30.395  1.00  0.00     0.016 A 
ATOM     35  C   UNL A   1      41.260  29.717  31.878  1.00  0.00     0.010 A 
ATOM     36  C   UNL A   1      40.659  30.786  29.779  1.00  0.00     0.010 A 
ATOM     37  C   UNL A   1      41.527  29.971  30.527  1.00  0.00    -0.014 A 
BRANCH  37  38
ATOM     38  C   UNL A   1      42.809  29.525  29.938  1.00  0.00     0.031 A 
ATOM     39  C   UNL A   1      42.881  28.151  29.330  1.00  0.00     0.074 A 
ATOM     40  C   UNL A   1      43.887  30.329  29.939  1.00  0.00     0.049 A 
ATOM     41  N   UNL A   1      43.903  27.538  28.792  1.00  0.00    -0.248 NA
ATOM     42  C   UNL A   1      41.635  27.366  29.329  1.00  0.00     0.031 C 
ATOM     43  C   UNL A   1      43.924  31.695  30.460  1.00  0.00     0.029 A 
ATOM     44  N   UNL A   1      45.162  30.103  29.489  1.00  0.00    -0.354 N 
ATOM     45  C   UNL A   1      43.425  26.295  28.391  1.00  0.00     0.074 A 
ATOM     46  C   UNL A   1      42.029  26.234  28.766  1.00  0.00     0.031 C 
ATOM     47  C   UNL A   1      45.169  32.182  30.311  1.00  0.00     0.029 A 
ATOM     48  C   UNL A   1      46.019  31.155  29.713  1.00  0.00     0.049 A 
ATOM     49  H   UNL A   1      45.438  29.268  29.048  1.00  0.00     0.167 HD
ATOM     50  C   UNL A   1      44.090  25.294  27.767  1.00  0.00     0.031 A 
ATOM     51  C   UNL A   1      47.341  31.263  29.480  1.00  0.00     0.031 A 
ATOM     52  C   UNL A   1      45.483  25.349  27.420  1.00  0.00     0.049 A 
ATOM     53  C   UNL A   1      48.077  30.105  28.857  1.00  0.00     0.074 A 
ATOM     54  C   UNL A   1      46.249  24.389  26.781  1.00  0.00     0.029 A 
ATOM     55  N   UNL A   1      46.325  26.415  27.695  1.00  0.00    -0.354 N 
ATOM     56  N   UNL A   1      47.607  28.946  28.460  1.00  0.00    -0.248 NA
ATOM     57  C   UNL A   1      49.522  30.272  28.649  1.00  0.00     0.031 C 
ATOM     58  C   UNL A   1      47.565  24.858  26.713  1.00  0.00     0.029 A 
ATOM     59  C   UNL A   1      47.608  26.130  27.262  1.00  0.00     0.049 A 
ATOM     60  H   UNL A   1      46.049  27.253  28.134  1.00  0.00     0.167 HD
ATOM     61  C   UNL A   1      48.694  28.257  27.930  1.00  0.00     0.074 A 
ATOM     62  C   UNL A   1      49.843  29.133  28.049  1.00  0.00     0.031 C 
ATOM     63  C   UNL A   1      48.737  27.015  27.389  1.00  0.00     0.031 A 
BRANCH  50  64
ATOM     64  C   UNL A   1      43.319  24.041  27.459  1.00  0.00    -0.014 A 
ATOM     65  C   UNL A   1      42.957  23.142  28.478  1.00  0.00     0.010 A 
ATOM     66  C   UNL A   1      42.932  23.770  26.134  1.00  0.00     0.010 A 
ATOM     67  C   UNL A   1      42.251  21.976  28.172  1.00  0.00     0.020 A 
ATOM     68  C   UNL A   1      42.206  22.617  25.828  1.00  0.00     0.020 A 
ATOM     69  C   UNL A   1      41.886  21.718  26.847  1.00  0.00     0.054 A 
BRANCH  69  70
ATOM     70  S   UNL A   1      40.955  20.205  26.478  1.00  0.00     0.124 S 
ATOM     71  O   UNL A   1      41.819  19.553  25.496  1.00  0.00    -0.237 OA
ATOM     72  O   UNL A   1      40.878  19.548  27.780  1.00  0.00    -0.237 OA
ATOM     73  O   UNL A   1      39.683  20.699  25.957  1.00  0.00    -0.744 OA
ENDBRANCH  69  70
ENDBRANCH  50  64
BRANCH  51  74
ATOM     74  C   UNL A   1      48.065  32.507  29.856  1.00  0.00    -0.014 A 
ATOM     75  C   UNL A   1      48.198  33.563  28.939  1.00  0.00     0.010 A 
ATOM     76  C   UNL A   1      48.634  32.636  31.136  1.00  0.00     0.010 A 
ATOM     77  C   UNL A   1      48.904  34.719  29.288  1.00  0.00     0.020 A 
ATOM     78  C   UNL A   1      49.320  33.799  31.498  1.00  0.00     0.020 A 
ATOM     79  C   UNL A   1      49.461  34.829  30.566  1.00  0.00     0.054 A 
BRANCH  79  80
ATOM     80  S   UNL A   1      50.337  36.354  31.014  1.00  0.00     0.124 S 
ATOM     81  O   UNL A   1      49.234  37.253  31.335  1.00  0.00    -0.237 OA
ATOM     82  O   UNL A   1      51.158  35.928  32.146  1.00  0.00    -0.237 OA
ATOM     83  O   UNL A   1      51.084  36.685  29.802  1.00  0.00    -0.744 OA
ENDBRANCH  79  80
ENDBRANCH  51  74
BRANCH  63  84
ATOM     84  C   UNL A   1      50.059  26.537  26.851  1.00  0.00    -0.014 A 
ATOM     85  C   UNL A   1      50.299  26.463  25.468  1.00  0.00     0.010 A 
ATOM     86  C   UNL A   1      51.095  26.216  27.746  1.00  0.00     0.010 A 
ATOM     87  C   UNL A   1      51.546  26.052  24.989  1.00  0.00     0.020 A 
ATOM     88  C   UNL A   1      52.350  25.829  27.272  1.00  0.00     0.020 A 
ATOM     89  C   UNL A   1      52.563  25.735  25.895  1.00  0.00     0.054 A 
BRANCH  89  90
ATOM     90  S   UNL A   1      54.190  25.252  25.252  1.00  0.00     0.124 S 
ATOM     91  O   UNL A   1      55.054  25.495  26.403  1.00  0.00    -0.237 OA
ATOM     92  O   UNL A   1      53.994  23.848  24.899  1.00  0.00    -0.237 OA
ATOM     93  O   UNL A   1      54.393  26.151  24.118  1.00  0.00    -0.744 OA
ENDBRANCH  89  90
ENDBRANCH  63  84
ENDBRANCH  37  38
ENDBRANCH  30  32
ENDBRANCH  29  30
ENDBRANCH  28  29
ENDBRANCH  27  28
ENDBRANCH  26  27
ENDBRANCH   1  26
TORSDOF 22
ENDMDL
MODEL 3
REMARK VINA RESULT:      -8.2      5.372     11.302
REMARK SMILES CC(C)c1nc(N2C[C@H](C)OC(C)(C)C2)sc1C(=O)OCCOCCOCCOC(=O)c1ccc(-c2c3nc(c(-c4ccc(S(=O)(=O)[O-])cc4)c4ccc([nH]4)c(-c4ccc(S(=O)(=O)[O-])cc4)c4nc(c(-c5ccc(S(=O)(=O)[O-])cc5)c5ccc2[nH]5)C=C4)C=C3)cc1
REMARK SMILES IDX 25 1 24 2 23 3 22 4 21 5 20 6 18 7 19 8 17 9 4 10 5 11 6 12
REMARK SMILES IDX 16 13 2 14 1 15 3 16 7 17 8 18 15 19 9 20 12 21 11 22 10 23
REMARK SMILES IDX 13 24 14 25 26 26 27 27 28 28 29 29 30 30 31 31 32 32 33 33
REMARK SMILES IDX 91 34 34 35 90 36 35 37 36 38 37 39 84 40 38 41 89 42 83 43
REMARK SMILES IDX 85 44 39 45 88 46 82 47 81 48 40 50 70 51 51 52 69 53 52 54
REMARK SMILES IDX 55 55 68 56 86 57 53 58 54 59 67 61 87 62 56 63 41 64 42 65
REMARK SMILES IDX 50 66 43 67 49 68 44 69 45 70 46 71 47 72 48 73 71 74 72 75
REMARK SMILES IDX 80 76 73 77 79 78 74 79 75 80 76 81 77 82 78 83 57 84 58 85
REMARK SMILES IDX 66 86 59 87 65 88 60 89 61 90 62 91 63 92 64 93
REMARK H PARENT 85 49 55 60
REMARK Flexibility Score: inf
ROOT
ATOM      1  C   UNL A   1      36.670  33.811  35.264  1.00  0.00     0.188 C 
ENDROOT
BRANCH   1   2
ATOM      2  C   UNL A   1      35.304  34.077  34.602  1.00  0.00     0.188 C 
BRANCH   2   3
ATOM      3  O   UNL A   1      34.620  33.053  33.899  1.00  0.00    -0.376 OA
BRANCH   3   4
ATOM      4  C   UNL A   1      34.557  33.068  32.480  1.00  0.00     0.202 C 
BRANCH   4   5
ATOM      5  C   UNL A   1      35.683  33.752  31.706  1.00  0.00     0.261 C 
BRANCH   5   6
ATOM      6  O   UNL A   1      36.384  32.838  30.851  1.00  0.00    -0.459 OA
BRANCH   6   7
ATOM      7  C   UNL A   1      36.290  33.099  29.517  1.00  0.00     0.350 C 
ATOM      8  O   UNL A   1      36.683  34.132  28.987  1.00  0.00    -0.245 OA
BRANCH   7   9
ATOM      9  C   UNL A   1      35.759  31.957  28.821  1.00  0.00     0.137 A 
ATOM     10  C   UNL A   1      36.274  30.700  28.536  1.00  0.00     0.071 A 
ATOM     11  N   UNL A   1      35.365  29.858  27.899  1.00  0.00    -0.224 NA
ATOM     12  C   UNL A   1      34.224  30.462  27.671  1.00  0.00     0.186 A 
ATOM     13  S   UNL A   1      34.172  32.099  28.171  1.00  0.00    -0.089 S 
BRANCH  10  14
ATOM     14  C   UNL A   1      37.618  30.114  28.918  1.00  0.00     0.034 C 
ATOM     15  C   UNL A   1      37.483  29.037  30.005  1.00  0.00     0.014 C 
ATOM     16  C   UNL A   1      38.364  29.504  27.730  1.00  0.00     0.014 C 
ENDBRANCH  10  14
BRANCH  12  17
ATOM     17  N   UNL A   1      33.145  29.837  27.165  1.00  0.00    -0.343 N 
ATOM     18  C   UNL A   1      32.072  30.534  26.474  1.00  0.00     0.150 C 
ATOM     19  C   UNL A   1      32.936  28.417  27.409  1.00  0.00     0.153 C 
ATOM     20  C   UNL A   1      31.772  29.784  25.158  1.00  0.00     0.135 C 
ATOM     21  C   UNL A   1      32.557  27.693  26.093  1.00  0.00     0.081 C 
ATOM     22  O   UNL A   1      31.500  28.385  25.389  1.00  0.00    -0.369 OA
ATOM     23  C   UNL A   1      30.554  30.373  24.459  1.00  0.00     0.040 C 
ATOM     24  C   UNL A   1      33.785  27.509  25.188  1.00  0.00     0.044 C 
ATOM     25  C   UNL A   1      31.990  26.309  26.435  1.00  0.00     0.044 C 
ENDBRANCH  12  17
ENDBRANCH   7   9
ENDBRANCH   6   7
ENDBRANCH   5   6
ENDBRANCH   4   5
ENDBRANCH   3   4
ENDBRANCH   2   3
ENDBRANCH   1   2
BRANCH   1  26
ATOM     26  O   UNL A   1      36.762  32.983  36.412  1.00  0.00    -0.376 OA
BRANCH  26  27
ATOM     27  C   UNL A   1      37.326  33.523  37.600  1.00  0.00     0.202 C 
BRANCH  27  28
ATOM     28  C   UNL A   1      38.649  34.275  37.473  1.00  0.00     0.261 C 
BRANCH  28  29
ATOM     29  O   UNL A   1      39.439  34.152  38.665  1.00  0.00    -0.460 OA
BRANCH  29  30
ATOM     30  C   UNL A   1      40.240  33.062  38.715  1.00  0.00     0.338 C 
ATOM     31  O   UNL A   1      40.344  32.260  39.628  1.00  0.00    -0.246 OA
BRANCH  30  32
ATOM     32  C   UNL A   1      40.865  32.861  37.397  1.00  0.00     0.060 A 
ATOM     33  C   UNL A   1      40.177  32.084  36.456  1.00  0.00     0.016 A 
ATOM     34  C   UNL A   1      42.129  33.380  37.109  1.00  0.00     0.016 A 
ATOM     35  C   UNL A   1      40.774  31.787  35.233  1.00  0.00     0.010 A 
ATOM     36  C   UNL A   1      42.733  33.066  35.889  1.00  0.00     0.010 A 
ATOM     37  C   UNL A   1      42.071  32.241  34.963  1.00  0.00    -0.014 A 
BRANCH  37  38
ATOM     38  C   UNL A   1      42.802  31.713  33.791  1.00  0.00     0.031 A 
ATOM     39  C   UNL A   1      42.951  32.593  32.580  1.00  0.00     0.074 A 
ATOM     40  C   UNL A   1      43.330  30.476  33.806  1.00  0.00     0.049 A 
ATOM     41  N   UNL A   1      43.518  32.329  31.432  1.00  0.00    -0.248 NA
ATOM     42  C   UNL A   1      42.387  33.948  32.680  1.00  0.00     0.031 C 
ATOM     43  C   UNL A   1      43.286  29.551  34.938  1.00  0.00     0.029 A 
ATOM     44  N   UNL A   1      44.002  29.786  32.830  1.00  0.00    -0.354 N 
ATOM     45  C   UNL A   1      43.376  33.484  30.671  1.00  0.00     0.074 A 
ATOM     46  C   UNL A   1      42.653  34.441  31.479  1.00  0.00     0.031 C 
ATOM     47  C   UNL A   1      43.896  28.404  34.584  1.00  0.00     0.029 A 
ATOM     48  C   UNL A   1      44.345  28.507  33.197  1.00  0.00     0.049 A 
ATOM     49  H   UNL A   1      44.218  30.171  31.950  1.00  0.00     0.167 HD
ATOM     50  C   UNL A   1      43.809  33.725  29.411  1.00  0.00     0.031 A 
ATOM     51  C   UNL A   1      44.934  27.528  32.484  1.00  0.00     0.031 A 
ATOM     52  C   UNL A   1      44.504  32.762  28.601  1.00  0.00     0.049 A 
ATOM     53  C   UNL A   1      45.335  27.793  31.056  1.00  0.00     0.074 A 
ATOM     54  C   UNL A   1      44.989  32.911  27.314  1.00  0.00     0.029 A 
ATOM     55  N   UNL A   1      44.801  31.467  28.995  1.00  0.00    -0.354 N 
ATOM     56  N   UNL A   1      45.217  28.898  30.358  1.00  0.00    -0.248 NA
ATOM     57  C   UNL A   1      45.951  26.679  30.322  1.00  0.00     0.031 C 
ATOM     58  C   UNL A   1      45.538  31.688  26.912  1.00  0.00     0.029 A 
ATOM     59  C   UNL A   1      45.440  30.795  27.968  1.00  0.00     0.049 A 
ATOM     60  H   UNL A   1      44.588  31.082  29.876  1.00  0.00     0.167 HD
ATOM     61  C   UNL A   1      45.770  28.620  29.112  1.00  0.00     0.074 A 
ATOM     62  C   UNL A   1      46.230  27.246  29.155  1.00  0.00     0.031 C 
ATOM     63  C   UNL A   1      45.891  29.429  28.031  1.00  0.00     0.031 A 
BRANCH  50  64
ATOM     64  C   UNL A   1      43.503  35.074  28.823  1.00  0.00    -0.014 A 
ATOM     65  C   UNL A   1      44.369  36.165  29.019  1.00  0.00     0.010 A 
ATOM     66  C   UNL A   1      42.345  35.248  28.044  1.00  0.00     0.010 A 
ATOM     67  C   UNL A   1      44.064  37.416  28.475  1.00  0.00     0.020 A 
ATOM     68  C   UNL A   1      42.048  36.491  27.480  1.00  0.00     0.020 A 
ATOM     69  C   UNL A   1      42.901  37.572  27.715  1.00  0.00     0.054 A 
BRANCH  69  70
ATOM     70  S   UNL A   1      42.535  39.201  27.006  1.00  0.00     0.124 S 
ATOM     71  O   UNL A   1      43.737  39.462  26.217  1.00  0.00    -0.237 OA
ATOM     72  O   UNL A   1      41.320  38.953  26.235  1.00  0.00    -0.237 OA
ATOM     73  O   UNL A   1      42.362  40.057  28.178  1.00  0.00    -0.744 OA
ENDBRANCH  69  70
ENDBRANCH  50  64
BRANCH  51  74
ATOM     74  C   UNL A   1      45.163  26.192  33.100  1.00  0.00    -0.014 A 
ATOM     75  C   UNL A   1      44.212  25.167  32.961  1.00  0.00     0.010 A 
ATOM     76  C   UNL A   1      46.334  25.944  33.840  1.00  0.00     0.010 A 
ATOM     77  C   UNL A   1      44.419  23.923  33.565  1.00  0.00     0.020 A 
ATOM     78  C   UNL A   1      46.556  24.695  34.425  1.00  0.00     0.020 A 
ATOM     79  C   UNL A   1      45.591  23.696  34.294  1.00  0.00     0.054 A 
BRANCH  79  80
ATOM     80  S   UNL A   1      45.860  22.061  35.036  1.00  0.00     0.124 S 
ATOM     81  O   UNL A   1      46.438  21.315  33.923  1.00  0.00    -0.237 OA
ATOM     82  O   UNL A   1      46.770  22.358  36.139  1.00  0.00    -0.237 OA
ATOM     83  O   UNL A   1      44.518  21.646  35.439  1.00  0.00    -0.744 OA
ENDBRANCH  79  80
ENDBRANCH  51  74
BRANCH  63  84
ATOM     84  C   UNL A   1      46.577  28.866  26.815  1.00  0.00    -0.014 A 
ATOM     85  C   UNL A   1      47.979  28.781  26.744  1.00  0.00     0.010 A 
ATOM     86  C   UNL A   1      45.803  28.360  25.756  1.00  0.00     0.010 A 
ATOM     87  C   UNL A   1      48.595  28.221  25.622  1.00  0.00     0.020 A 
ATOM     88  C   UNL A   1      46.414  27.777  24.644  1.00  0.00     0.020 A 
ATOM     89  C   UNL A   1      47.808  27.724  24.577  1.00  0.00     0.054 A 
BRANCH  89  90
ATOM     90  S   UNL A   1      48.627  26.956  23.152  1.00  0.00     0.124 S 
ATOM     91  O   UNL A   1      48.233  25.557  23.295  1.00  0.00    -0.237 OA
ATOM     92  O   UNL A   1      48.035  27.663  22.018  1.00  0.00    -0.237 OA
ATOM     93  O   UNL A   1      50.044  27.231  23.378  1.00  0.00    -0.744 OA
ENDBRANCH  89  90
ENDBRANCH  63  84
ENDBRANCH  37  38
ENDBRANCH  30  32
ENDBRANCH  29  30
ENDBRANCH  28  29
ENDBRANCH  27  28
ENDBRANCH  26  27
ENDBRANCH   1  26
TORSDOF 22
ENDMDL
