MODEL 1
REMARK VINA RESULT:      -9.9      0.000      0.000
REMARK SMILES C[C@H]1[C@@H](C(=O)OCCOCCOCCOC(=O)c2ccc(-c3c4nc(c(-c5ccc(S(=O)(=O)[O-])cc5)c5ccc([nH]5)c(-c5ccc(S(=O)(=O)[O-])cc5)c5nc(c(-c6ccc(S(=O)(=O)[O-])cc6)c6ccc3[nH]6)C=C5)C=C4)cc2)CCN1C(=O)c1cc2cc(F)ccc2s1
REMARK SMILES IDX 11 1 10 2 9 3 8 4 7 5 6 6 4 7 5 8 3 9 1 10 2 11 80 12 78 13
REMARK SMILES IDX 79 14 81 15 82 16 83 17 84 18 92 19 85 20 91 21 86 22 90 23
REMARK SMILES IDX 87 24 89 25 88 26 12 27 13 28 14 29 15 30 16 31 17 32 18 33
REMARK SMILES IDX 19 34 77 35 20 36 76 37 21 38 22 39 23 40 70 41 24 42 75 43
REMARK SMILES IDX 69 44 71 45 25 46 74 47 68 48 67 49 26 51 56 52 37 53 55 54
REMARK SMILES IDX 38 55 41 56 54 57 72 58 39 59 40 60 53 62 73 63 42 64 27 65
REMARK SMILES IDX 28 66 36 67 29 68 35 69 30 70 31 71 32 72 33 73 34 74 57 75
REMARK SMILES IDX 58 76 66 77 59 78 65 79 60 80 61 81 62 82 63 83 64 84 43 85
REMARK SMILES IDX 44 86 52 87 45 88 51 89 46 90 47 91 48 92 49 93 50 94
REMARK H PARENT 71 50 41 61
REMARK Flexibility Score: inf
ROOT
ATOM      1  C   UNL A   1      34.030  33.946  28.656  1.00  0.00     0.188 C 
ENDROOT
BRANCH   1   2
ATOM      2  C   UNL A   1      35.081  32.846  28.890  1.00  0.00     0.188 C 
BRANCH   2   3
ATOM      3  O   UNL A   1      35.759  32.278  27.786  1.00  0.00    -0.376 OA
BRANCH   3   4
ATOM      4  C   UNL A   1      36.252  30.951  27.887  1.00  0.00     0.202 C 
BRANCH   4   5
ATOM      5  C   UNL A   1      35.276  29.796  28.126  1.00  0.00     0.261 C 
BRANCH   5   6
ATOM      6  O   UNL A   1      34.946  29.059  26.929  1.00  0.00    -0.463 OA
BRANCH   6   7
ATOM      7  C   UNL A   1      33.642  29.074  26.569  1.00  0.00     0.311 C 
ATOM      8  O   UNL A   1      32.903  30.041  26.734  1.00  0.00    -0.252 OA
BRANCH   7   9
ATOM      9  C   UNL A   1      33.137  27.839  25.843  1.00  0.00     0.123 C 
ATOM     10  C   UNL A   1      33.925  28.646  23.470  1.00  0.00     0.032 C 
ATOM     11  C   UNL A   1      33.200  27.611  24.315  1.00  0.00     0.096 C 
ATOM     12  N   UNL A   1      31.825  27.294  23.911  1.00  0.00    -0.334 N 
ATOM     13  C   UNL A   1      31.692  27.555  26.274  1.00  0.00     0.039 C 
ATOM     14  C   UNL A   1      30.899  27.308  25.018  1.00  0.00     0.121 C 
BRANCH  12  15
ATOM     15  C   UNL A   1      31.388  26.648  22.764  1.00  0.00     0.264 C 
ATOM     16  O   UNL A   1      30.763  27.276  21.905  1.00  0.00    -0.268 OA
BRANCH  15  17
ATOM     17  C   UNL A   1      31.748  25.267  22.509  1.00  0.00     0.093 A 
ATOM     18  C   UNL A   1      33.026  24.810  22.212  1.00  0.00     0.034 A 
ATOM     19  S   UNL A   1      31.032  24.096  23.567  1.00  0.00    -0.130 S 
ATOM     20  C   UNL A   1      33.586  24.292  23.447  1.00  0.00    -0.004 A 
ATOM     21  C   UNL A   1      32.572  23.949  24.352  1.00  0.00     0.035 A 
ATOM     22  C   UNL A   1      34.926  24.225  23.888  1.00  0.00     0.048 A 
ATOM     23  C   UNL A   1      32.843  23.586  25.683  1.00  0.00     0.022 A 
ATOM     24  C   UNL A   1      35.188  23.932  25.226  1.00  0.00     0.123 A 
ATOM     25  C   UNL A   1      34.170  23.633  26.118  1.00  0.00     0.041 A 
ATOM     26  F   UNL A   1      36.452  23.985  25.667  1.00  0.00    -0.207 F 
ENDBRANCH  15  17
ENDBRANCH  12  15
ENDBRANCH   7   9
ENDBRANCH   6   7
ENDBRANCH   5   6
ENDBRANCH   4   5
ENDBRANCH   3   4
ENDBRANCH   2   3
ENDBRANCH   1   2
BRANCH   1  27
ATOM     27  O   UNL A   1      34.396  35.258  28.288  1.00  0.00    -0.376 OA
BRANCH  27  28
ATOM     28  C   UNL A   1      33.621  36.362  28.717  1.00  0.00     0.202 C 
BRANCH  28  29
ATOM     29  C   UNL A   1      32.676  36.276  29.922  1.00  0.00     0.261 C 
BRANCH  29  30
ATOM     30  O   UNL A   1      33.284  36.433  31.206  1.00  0.00    -0.460 OA
BRANCH  30  31
ATOM     31  C   UNL A   1      33.008  35.443  32.095  1.00  0.00     0.338 C 
ATOM     32  O   UNL A   1      31.931  35.163  32.580  1.00  0.00    -0.246 OA
BRANCH  31  33
ATOM     33  C   UNL A   1      34.218  34.620  32.263  1.00  0.00     0.060 A 
ATOM     34  C   UNL A   1      34.084  33.251  32.535  1.00  0.00     0.016 A 
ATOM     35  C   UNL A   1      35.476  35.212  32.186  1.00  0.00     0.016 A 
ATOM     36  C   UNL A   1      35.217  32.461  32.730  1.00  0.00     0.010 A 
ATOM     37  C   UNL A   1      36.606  34.429  32.414  1.00  0.00     0.010 A 
ATOM     38  C   UNL A   1      36.482  33.057  32.705  1.00  0.00    -0.014 A 
BRANCH  38  39
ATOM     39  C   UNL A   1      37.682  32.323  33.164  1.00  0.00     0.031 A 
ATOM     40  C   UNL A   1      38.174  32.586  34.558  1.00  0.00     0.074 A 
ATOM     41  C   UNL A   1      38.356  31.501  32.343  1.00  0.00     0.049 A 
ATOM     42  N   UNL A   1      39.315  32.267  35.108  1.00  0.00    -0.248 NA
ATOM     43  C   UNL A   1      37.258  33.321  35.445  1.00  0.00     0.031 C 
ATOM     44  C   UNL A   1      37.933  31.106  31.000  1.00  0.00     0.029 A 
ATOM     45  N   UNL A   1      39.565  30.872  32.516  1.00  0.00    -0.354 N 
ATOM     46  C   UNL A   1      39.270  32.794  36.392  1.00  0.00     0.074 A 
ATOM     47  C   UNL A   1      37.994  33.458  36.538  1.00  0.00     0.031 C 
ATOM     48  C   UNL A   1      38.885  30.326  30.457  1.00  0.00     0.029 A 
ATOM     49  C   UNL A   1      40.007  30.219  31.388  1.00  0.00     0.049 A 
ATOM     50  H   UNL A   1      40.067  30.889  33.362  1.00  0.00     0.167 HD
ATOM     51  C   UNL A   1      40.216  32.737  37.358  1.00  0.00     0.031 A 
ATOM     52  C   UNL A   1      41.201  29.649  31.125  1.00  0.00     0.031 A 
ATOM     53  C   UNL A   1      41.487  32.086  37.190  1.00  0.00     0.049 A 
ATOM     54  C   UNL A   1      42.280  29.680  32.180  1.00  0.00     0.074 A 
ATOM     55  C   UNL A   1      42.518  31.968  38.104  1.00  0.00     0.029 A 
ATOM     56  N   UNL A   1      41.901  31.448  36.030  1.00  0.00    -0.354 N 
ATOM     57  N   UNL A   1      42.237  30.190  33.388  1.00  0.00    -0.248 NA
ATOM     58  C   UNL A   1      43.570  29.063  31.836  1.00  0.00     0.031 C 
ATOM     59  C   UNL A   1      43.582  31.316  37.474  1.00  0.00     0.029 A 
ATOM     60  C   UNL A   1      43.183  30.957  36.196  1.00  0.00     0.049 A 
ATOM     61  H   UNL A   1      41.363  31.360  35.210  1.00  0.00     0.167 HD
ATOM     62  C   UNL A   1      43.475  29.916  33.962  1.00  0.00     0.074 A 
ATOM     63  C   UNL A   1      44.247  29.199  32.968  1.00  0.00     0.031 C 
ATOM     64  C   UNL A   1      43.927  30.221  35.203  1.00  0.00     0.031 A 
BRANCH  51  65
ATOM     65  C   UNL A   1      39.935  33.446  38.655  1.00  0.00    -0.014 A 
ATOM     66  C   UNL A   1      39.150  32.854  39.661  1.00  0.00     0.010 A 
ATOM     67  C   UNL A   1      40.498  34.715  38.885  1.00  0.00     0.010 A 
ATOM     68  C   UNL A   1      38.902  33.536  40.856  1.00  0.00     0.020 A 
ATOM     69  C   UNL A   1      40.279  35.386  40.091  1.00  0.00     0.020 A 
ATOM     70  C   UNL A   1      39.468  34.799  41.062  1.00  0.00     0.054 A 
BRANCH  70  71
ATOM     71  S   UNL A   1      39.148  35.648  42.631  1.00  0.00     0.124 S 
ATOM     72  O   UNL A   1      39.487  37.031  42.300  1.00  0.00    -0.237 OA
ATOM     73  O   UNL A   1      37.729  35.386  42.854  1.00  0.00    -0.237 OA
ATOM     74  O   UNL A   1      40.055  34.995  43.572  1.00  0.00    -0.744 OA
ENDBRANCH  70  71
ENDBRANCH  51  65
BRANCH  52  75
ATOM     75  C   UNL A   1      41.456  29.035  29.791  1.00  0.00    -0.014 A 
ATOM     76  C   UNL A   1      41.999  29.800  28.744  1.00  0.00     0.010 A 
ATOM     77  C   UNL A   1      41.158  27.679  29.559  1.00  0.00     0.010 A 
ATOM     78  C   UNL A   1      42.222  29.227  27.487  1.00  0.00     0.020 A 
ATOM     79  C   UNL A   1      41.408  27.094  28.314  1.00  0.00     0.020 A 
ATOM     80  C   UNL A   1      41.929  27.876  27.282  1.00  0.00     0.054 A 
BRANCH  80  81
ATOM     81  S   UNL A   1      42.274  27.144  25.658  1.00  0.00     0.124 S 
ATOM     82  O   UNL A   1      42.306  28.321  24.795  1.00  0.00    -0.237 OA
ATOM     83  O   UNL A   1      43.559  26.484  25.877  1.00  0.00    -0.237 OA
ATOM     84  O   UNL A   1      41.146  26.239  25.442  1.00  0.00    -0.744 OA
ENDBRANCH  80  81
ENDBRANCH  52  75
BRANCH  64  85
ATOM     85  C   UNL A   1      45.291  29.725  35.607  1.00  0.00    -0.014 A 
ATOM     86  C   UNL A   1      46.437  30.526  35.477  1.00  0.00     0.010 A 
ATOM     87  C   UNL A   1      45.396  28.475  36.250  1.00  0.00     0.010 A 
ATOM     88  C   UNL A   1      47.665  30.086  35.983  1.00  0.00     0.020 A 
ATOM     89  C   UNL A   1      46.613  28.046  36.782  1.00  0.00     0.020 A 
ATOM     90  C   UNL A   1      47.742  28.854  36.642  1.00  0.00     0.054 A 
BRANCH  90  91
ATOM     91  S   UNL A   1      49.322  28.356  37.380  1.00  0.00     0.124 S 
ATOM     92  O   UNL A   1      49.378  29.194  38.576  1.00  0.00    -0.237 OA
ATOM     93  O   UNL A   1      49.126  26.929  37.622  1.00  0.00    -0.237 OA
ATOM     94  O   UNL A   1      50.305  28.677  36.349  1.00  0.00    -0.744 OA
ENDBRANCH  90  91
ENDBRANCH  64  85
ENDBRANCH  38  39
ENDBRANCH  31  33
ENDBRANCH  30  31
ENDBRANCH  29  30
ENDBRANCH  28  29
ENDBRANCH  27  28
ENDBRANCH   1  27
TORSDOF 22
ENDMDL
MODEL 2
REMARK VINA RESULT:      -9.0      1.237      2.096
REMARK SMILES C[C@H]1[C@@H](C(=O)OCCOCCOCCOC(=O)c2ccc(-c3c4nc(c(-c5ccc(S(=O)(=O)[O-])cc5)c5ccc([nH]5)c(-c5ccc(S(=O)(=O)[O-])cc5)c5nc(c(-c6ccc(S(=O)(=O)[O-])cc6)c6ccc3[nH]6)C=C5)C=C4)cc2)CCN1C(=O)c1cc2cc(F)ccc2s1
REMARK SMILES IDX 11 1 10 2 9 3 8 4 7 5 6 6 4 7 5 8 3 9 1 10 2 11 80 12 78 13
REMARK SMILES IDX 79 14 81 15 82 16 83 17 84 18 92 19 85 20 91 21 86 22 90 23
REMARK SMILES IDX 87 24 89 25 88 26 12 27 13 28 14 29 15 30 16 31 17 32 18 33
REMARK SMILES IDX 19 34 77 35 20 36 76 37 21 38 22 39 23 40 70 41 24 42 75 43
REMARK SMILES IDX 69 44 71 45 25 46 74 47 68 48 67 49 26 51 56 52 37 53 55 54
REMARK SMILES IDX 38 55 41 56 54 57 72 58 39 59 40 60 53 62 73 63 42 64 27 65
REMARK SMILES IDX 28 66 36 67 29 68 35 69 30 70 31 71 32 72 33 73 34 74 57 75
REMARK SMILES IDX 58 76 66 77 59 78 65 79 60 80 61 81 62 82 63 83 64 84 43 85
REMARK SMILES IDX 44 86 52 87 45 88 51 89 46 90 47 91 48 92 49 93 50 94
REMARK H PARENT 71 50 41 61
REMARK Flexibility Score: inf
ROOT
ATOM      1  C   UNL A   1      35.580  31.845  28.427  1.00  0.00     0.188 C 
ENDROOT
BRANCH   1   2
ATOM      2  C   UNL A   1      35.108  30.689  27.526  1.00  0.00     0.188 C 
BRANCH   2   3
ATOM      3  O   UNL A   1      33.775  30.224  27.621  1.00  0.00    -0.376 OA
BRANCH   3   4
ATOM      4  C   UNL A   1      32.782  30.798  26.785  1.00  0.00     0.202 C 
BRANCH   4   5
ATOM      5  C   UNL A   1      31.687  29.909  26.190  1.00  0.00     0.261 C 
BRANCH   5   6
ATOM      6  O   UNL A   1      30.963  30.531  25.107  1.00  0.00    -0.463 OA
BRANCH   6   7
ATOM      7  C   UNL A   1      30.538  29.698  24.129  1.00  0.00     0.311 C 
ATOM      8  O   UNL A   1      29.837  30.058  23.186  1.00  0.00    -0.252 OA
BRANCH   7   9
ATOM      9  C   UNL A   1      31.057  28.272  24.196  1.00  0.00     0.123 C 
ATOM     10  C   UNL A   1      33.287  28.794  22.907  1.00  0.00     0.032 C 
ATOM     11  C   UNL A   1      32.373  27.768  23.558  1.00  0.00     0.096 C 
ATOM     12  N   UNL A   1      31.990  26.622  22.725  1.00  0.00    -0.334 N 
ATOM     13  C   UNL A   1      29.950  27.309  23.744  1.00  0.00     0.039 C 
ATOM     14  C   UNL A   1      30.571  26.355  22.758  1.00  0.00     0.121 C 
BRANCH  12  15
ATOM     15  C   UNL A   1      32.788  25.593  22.249  1.00  0.00     0.264 C 
ATOM     16  O   UNL A   1      33.658  25.829  21.407  1.00  0.00    -0.268 OA
BRANCH  15  17
ATOM     17  C   UNL A   1      32.686  24.258  22.807  1.00  0.00     0.093 A 
ATOM     18  C   UNL A   1      33.532  23.196  22.514  1.00  0.00     0.034 A 
ATOM     19  S   UNL A   1      32.351  24.178  24.505  1.00  0.00    -0.130 S 
ATOM     20  C   UNL A   1      34.501  23.121  23.591  1.00  0.00    -0.004 A 
ATOM     21  C   UNL A   1      34.010  23.735  24.753  1.00  0.00     0.035 A 
ATOM     22  C   UNL A   1      35.840  22.670  23.590  1.00  0.00     0.048 A 
ATOM     23  C   UNL A   1      34.813  23.952  25.886  1.00  0.00     0.022 A 
ATOM     24  C   UNL A   1      36.653  22.948  24.689  1.00  0.00     0.123 A 
ATOM     25  C   UNL A   1      36.160  23.591  25.814  1.00  0.00     0.041 A 
ATOM     26  F   UNL A   1      37.951  22.623  24.635  1.00  0.00    -0.207 F 
ENDBRANCH  15  17
ENDBRANCH  12  15
ENDBRANCH   7   9
ENDBRANCH   6   7
ENDBRANCH   5   6
ENDBRANCH   4   5
ENDBRANCH   3   4
ENDBRANCH   2   3
ENDBRANCH   1   2
BRANCH   1  27
ATOM     27  O   UNL A   1      35.720  33.161  27.938  1.00  0.00    -0.376 OA
BRANCH  27  28
ATOM     28  C   UNL A   1      34.575  33.938  27.641  1.00  0.00     0.202 C 
BRANCH  28  29
ATOM     29  C   UNL A   1      33.443  34.141  28.654  1.00  0.00     0.261 C 
BRANCH  29  30
ATOM     30  O   UNL A   1      33.592  35.249  29.545  1.00  0.00    -0.460 OA
BRANCH  30  31
ATOM     31  C   UNL A   1      33.529  34.934  30.866  1.00  0.00     0.338 C 
ATOM     32  O   UNL A   1      32.626  35.171  31.641  1.00  0.00    -0.246 OA
BRANCH  31  33
ATOM     33  C   UNL A   1      34.685  34.081  31.194  1.00  0.00     0.060 A 
ATOM     34  C   UNL A   1      34.463  32.789  31.692  1.00  0.00     0.016 A 
ATOM     35  C   UNL A   1      35.977  34.575  31.041  1.00  0.00     0.016 A 
ATOM     36  C   UNL A   1      35.544  31.979  32.040  1.00  0.00     0.010 A 
ATOM     37  C   UNL A   1      37.055  33.777  31.420  1.00  0.00     0.010 A 
ATOM     38  C   UNL A   1      36.843  32.484  31.938  1.00  0.00    -0.014 A 
BRANCH  38  39
ATOM     39  C   UNL A   1      37.992  31.770  32.538  1.00  0.00     0.031 A 
ATOM     40  C   UNL A   1      38.422  32.169  33.920  1.00  0.00     0.074 A 
ATOM     41  C   UNL A   1      38.677  30.843  31.848  1.00  0.00     0.049 A 
ATOM     42  N   UNL A   1      39.521  31.879  34.562  1.00  0.00    -0.248 NA
ATOM     43  C   UNL A   1      37.489  33.025  34.672  1.00  0.00     0.031 C 
ATOM     44  C   UNL A   1      38.308  30.316  30.535  1.00  0.00     0.029 A 
ATOM     45  N   UNL A   1      39.852  30.201  32.153  1.00  0.00    -0.354 N 
ATOM     46  C   UNL A   1      39.430  32.545  35.778  1.00  0.00     0.074 A 
ATOM     47  C   UNL A   1      38.173  33.259  35.781  1.00  0.00     0.031 C 
ATOM     48  C   UNL A   1      39.257  29.453  30.132  1.00  0.00     0.029 A 
ATOM     49  C   UNL A   1      40.327  29.416  31.128  1.00  0.00     0.049 A 
ATOM     50  H   UNL A   1      40.310  30.295  33.019  1.00  0.00     0.167 HD
ATOM     51  C   UNL A   1      40.324  32.566  36.793  1.00  0.00     0.031 A 
ATOM     52  C   UNL A   1      41.511  28.784  30.993  1.00  0.00     0.031 A 
ATOM     53  C   UNL A   1      41.578  31.862  36.766  1.00  0.00     0.049 A 
ATOM     54  C   UNL A   1      42.536  28.899  32.095  1.00  0.00     0.074 A 
ATOM     55  C   UNL A   1      42.557  31.814  37.741  1.00  0.00     0.029 A 
ATOM     56  N   UNL A   1      42.027  31.089  35.705  1.00  0.00    -0.354 N 
ATOM     57  N   UNL A   1      42.451  29.539  33.237  1.00  0.00    -0.248 NA
ATOM     58  C   UNL A   1      43.819  28.209  31.890  1.00  0.00     0.031 C 
ATOM     59  C   UNL A   1      43.627  31.066  37.245  1.00  0.00     0.029 A 
ATOM     60  C   UNL A   1      43.280  30.581  35.993  1.00  0.00     0.049 A 
ATOM     61  H   UNL A   1      41.528  30.928  34.872  1.00  0.00     0.167 HD
ATOM     62  C   UNL A   1      43.647  29.292  33.903  1.00  0.00     0.074 A 
ATOM     63  C   UNL A   1      44.443  28.449  33.036  1.00  0.00     0.031 C 
ATOM     64  C   UNL A   1      44.047  29.719  35.127  1.00  0.00     0.031 A 
BRANCH  51  65
ATOM     65  C   UNL A   1      40.003  33.421  37.990  1.00  0.00    -0.014 A 
ATOM     66  C   UNL A   1      40.524  34.720  38.125  1.00  0.00     0.010 A 
ATOM     67  C   UNL A   1      39.135  32.925  38.980  1.00  0.00     0.010 A 
ATOM     68  C   UNL A   1      40.212  35.492  39.249  1.00  0.00     0.020 A 
ATOM     69  C   UNL A   1      38.795  33.705  40.088  1.00  0.00     0.020 A 
ATOM     70  C   UNL A   1      39.350  34.978  40.223  1.00  0.00     0.054 A 
BRANCH  70  71
ATOM     71  S   UNL A   1      38.945  36.011  41.657  1.00  0.00     0.124 S 
ATOM     72  O   UNL A   1      37.777  35.324  42.203  1.00  0.00    -0.237 OA
ATOM     73  O   UNL A   1      40.158  35.927  42.465  1.00  0.00    -0.237 OA
ATOM     74  O   UNL A   1      38.677  37.324  41.075  1.00  0.00    -0.744 OA
ENDBRANCH  70  71
ENDBRANCH  51  65
BRANCH  52  75
ATOM     75  C   UNL A   1      41.812  28.020  29.749  1.00  0.00    -0.014 A 
ATOM     76  C   UNL A   1      41.430  26.673  29.627  1.00  0.00     0.010 A 
ATOM     77  C   UNL A   1      42.483  28.637  28.677  1.00  0.00     0.010 A 
ATOM     78  C   UNL A   1      41.728  25.953  28.465  1.00  0.00     0.020 A 
ATOM     79  C   UNL A   1      42.756  27.930  27.501  1.00  0.00     0.020 A 
ATOM     80  C   UNL A   1      42.386  26.588  27.408  1.00  0.00     0.054 A 
BRANCH  80  81
ATOM     81  S   UNL A   1      42.717  25.646  25.893  1.00  0.00     0.124 S 
ATOM     82  O   UNL A   1      42.604  24.267  26.361  1.00  0.00    -0.237 OA
ATOM     83  O   UNL A   1      41.653  26.100  25.001  1.00  0.00    -0.237 OA
ATOM     84  O   UNL A   1      44.062  26.069  25.511  1.00  0.00    -0.744 OA
ENDBRANCH  80  81
ENDBRANCH  52  75
BRANCH  64  85
ATOM     85  C   UNL A   1      45.370  29.229  35.655  1.00  0.00    -0.014 A 
ATOM     86  C   UNL A   1      45.486  28.005  36.335  1.00  0.00     0.010 A 
ATOM     87  C   UNL A   1      46.537  29.956  35.346  1.00  0.00     0.010 A 
ATOM     88  C   UNL A   1      46.747  27.517  36.695  1.00  0.00     0.020 A 
ATOM     89  C   UNL A   1      47.797  29.458  35.678  1.00  0.00     0.020 A 
ATOM     90  C   UNL A   1      47.895  28.241  36.354  1.00  0.00     0.054 A 
BRANCH  90  91
ATOM     91  S   UNL A   1      49.520  27.535  36.740  1.00  0.00     0.124 S 
ATOM     92  O   UNL A   1      50.277  27.831  35.527  1.00  0.00    -0.237 OA
ATOM     93  O   UNL A   1      49.919  28.284  37.928  1.00  0.00    -0.237 OA
ATOM     94  O   UNL A   1      49.240  26.119  36.968  1.00  0.00    -0.744 OA
ENDBRANCH  90  91
ENDBRANCH  64  85
ENDBRANCH  38  39
ENDBRANCH  31  33
ENDBRANCH  30  31
ENDBRANCH  29  30
ENDBRANCH  28  29
ENDBRANCH  27  28
ENDBRANCH   1  27
TORSDOF 22
ENDMDL
MODEL 3
REMARK VINA RESULT:      -8.3      5.167     10.077
REMARK SMILES C[C@H]1[C@@H](C(=O)OCCOCCOCCOC(=O)c2ccc(-c3c4nc(c(-c5ccc(S(=O)(=O)[O-])cc5)c5ccc([nH]5)c(-c5ccc(S(=O)(=O)[O-])cc5)c5nc(c(-c6ccc(S(=O)(=O)[O-])cc6)c6ccc3[nH]6)C=C5)C=C4)cc2)CCN1C(=O)c1cc2cc(F)ccc2s1
REMARK SMILES IDX 11 1 10 2 9 3 8 4 7 5 6 6 4 7 5 8 3 9 1 10 2 11 80 12 78 13
REMARK SMILES IDX 79 14 81 15 82 16 83 17 84 18 92 19 85 20 91 21 86 22 90 23
REMARK SMILES IDX 87 24 89 25 88 26 12 27 13 28 14 29 15 30 16 31 17 32 18 33
REMARK SMILES IDX 19 34 77 35 20 36 76 37 21 38 22 39 23 40 70 41 24 42 75 43
REMARK SMILES IDX 69 44 71 45 25 46 74 47 68 48 67 49 26 51 56 52 37 53 55 54
REMARK SMILES IDX 38 55 41 56 54 57 72 58 39 59 40 60 53 62 73 63 42 64 27 65
REMARK SMILES IDX 28 66 36 67 29 68 35 69 30 70 31 71 32 72 33 73 34 74 57 75
REMARK SMILES IDX 58 76 66 77 59 78 65 79 60 80 61 81 62 82 63 83 64 84 43 85
REMARK SMILES IDX 44 86 52 87 45 88 51 89 46 90 47 91 48 92 49 93 50 94
REMARK H PARENT 71 50 41 61
REMARK Flexibility Score: inf
ROOT
ATOM      1  C   UNL A   1      42.328  20.759  26.020  1.00  0.00     0.188 C 
ENDROOT
BRANCH   1   2
ATOM      2  C   UNL A   1      41.652  21.004  27.381  1.00  0.00     0.188 C 
BRANCH   2   3
ATOM      3  O   UNL A   1      40.271  21.304  27.435  1.00  0.00    -0.376 OA
BRANCH   3   4
ATOM      4  C   UNL A   1      39.730  22.233  26.510  1.00  0.00     0.202 C 
BRANCH   4   5
ATOM      5  C   UNL A   1      38.254  22.136  26.114  1.00  0.00     0.261 C 
BRANCH   5   6
ATOM      6  O   UNL A   1      37.783  23.270  25.355  1.00  0.00    -0.463 OA
BRANCH   6   7
ATOM      7  C   UNL A   1      36.741  23.031  24.525  1.00  0.00     0.311 C 
ATOM      8  O   UNL A   1      36.713  22.106  23.718  1.00  0.00    -0.252 OA
BRANCH   7   9
ATOM      9  C   UNL A   1      35.528  23.928  24.704  1.00  0.00     0.123 C 
ATOM     10  C   UNL A   1      34.798  22.851  26.987  1.00  0.00     0.032 C 
ATOM     11  C   UNL A   1      34.511  23.837  25.866  1.00  0.00     0.096 C 
ATOM     12  N   UNL A   1      33.195  23.722  25.226  1.00  0.00    -0.334 N 
ATOM     13  C   UNL A   1      34.713  23.942  23.404  1.00  0.00     0.039 C 
ATOM     14  C   UNL A   1      33.273  23.720  23.784  1.00  0.00     0.121 C 
BRANCH  12  15
ATOM     15  C   UNL A   1      31.945  23.987  25.765  1.00  0.00     0.264 C 
ATOM     16  O   UNL A   1      31.207  23.055  26.093  1.00  0.00    -0.268 OA
BRANCH  15  17
ATOM     17  C   UNL A   1      31.534  25.349  26.047  1.00  0.00     0.093 A 
ATOM     18  C   UNL A   1      32.391  26.407  26.324  1.00  0.00     0.034 A 
ATOM     19  S   UNL A   1      30.273  25.977  25.038  1.00  0.00    -0.130 S 
ATOM     20  C   UNL A   1      32.552  27.153  25.089  1.00  0.00    -0.004 A 
ATOM     21  C   UNL A   1      31.477  26.921  24.219  1.00  0.00     0.035 A 
ATOM     22  C   UNL A   1      33.640  27.920  24.617  1.00  0.00     0.048 A 
ATOM     23  C   UNL A   1      31.470  27.384  22.892  1.00  0.00     0.022 A 
ATOM     24  C   UNL A   1      33.661  28.319  23.280  1.00  0.00     0.123 A 
ATOM     25  C   UNL A   1      32.607  28.046  22.423  1.00  0.00     0.041 A 
ATOM     26  F   UNL A   1      34.748  28.943  22.806  1.00  0.00    -0.207 F 
ENDBRANCH  15  17
ENDBRANCH  12  15
ENDBRANCH   7   9
ENDBRANCH   6   7
ENDBRANCH   5   6
ENDBRANCH   4   5
ENDBRANCH   3   4
ENDBRANCH   2   3
ENDBRANCH   1   2
BRANCH   1  27
ATOM     27  O   UNL A   1      43.094  21.756  25.379  1.00  0.00    -0.376 OA
BRANCH  27  28
ATOM     28  C   UNL A   1      44.423  21.485  24.974  1.00  0.00     0.202 C 
BRANCH  28  29
ATOM     29  C   UNL A   1      45.159  22.362  23.955  1.00  0.00     0.261 C 
BRANCH  29  30
ATOM     30  O   UNL A   1      45.000  23.775  24.114  1.00  0.00    -0.460 OA
BRANCH  30  31
ATOM     31  C   UNL A   1      46.114  24.433  24.533  1.00  0.00     0.338 C 
ATOM     32  O   UNL A   1      47.194  24.481  23.984  1.00  0.00    -0.246 OA
BRANCH  31  33
ATOM     33  C   UNL A   1      45.756  25.248  25.707  1.00  0.00     0.060 A 
ATOM     34  C   UNL A   1      46.763  25.940  26.393  1.00  0.00     0.016 A 
ATOM     35  C   UNL A   1      44.434  25.294  26.143  1.00  0.00     0.016 A 
ATOM     36  C   UNL A   1      46.451  26.690  27.527  1.00  0.00     0.010 A 
ATOM     37  C   UNL A   1      44.128  26.017  27.294  1.00  0.00     0.010 A 
ATOM     38  C   UNL A   1      45.136  26.701  28.001  1.00  0.00    -0.014 A 
BRANCH  38  39
ATOM     39  C   UNL A   1      44.807  27.257  29.333  1.00  0.00     0.031 A 
ATOM     40  C   UNL A   1      44.502  28.724  29.426  1.00  0.00     0.074 A 
ATOM     41  C   UNL A   1      44.849  26.494  30.439  1.00  0.00     0.049 A 
ATOM     42  N   UNL A   1      44.425  29.489  30.481  1.00  0.00    -0.248 NA
ATOM     43  C   UNL A   1      44.266  29.422  28.151  1.00  0.00     0.031 C 
ATOM     44  C   UNL A   1      45.055  25.047  30.466  1.00  0.00     0.029 A 
ATOM     45  N   UNL A   1      44.750  26.847  31.762  1.00  0.00    -0.354 N 
ATOM     46  C   UNL A   1      44.169  30.766  29.997  1.00  0.00     0.074 A 
ATOM     47  C   UNL A   1      44.110  30.674  28.555  1.00  0.00     0.031 C 
ATOM     48  C   UNL A   1      45.097  24.639  31.747  1.00  0.00     0.029 A 
ATOM     49  C   UNL A   1      44.985  25.802  32.625  1.00  0.00     0.049 A 
ATOM     50  H   UNL A   1      44.532  27.759  32.064  1.00  0.00     0.167 HD
ATOM     51  C   UNL A   1      44.009  31.913  30.696  1.00  0.00     0.031 A 
ATOM     52  C   UNL A   1      45.143  25.799  33.965  1.00  0.00     0.031 A 
ATOM     53  C   UNL A   1      44.087  31.990  32.130  1.00  0.00     0.049 A 
ATOM     54  C   UNL A   1      45.059  27.104  34.719  1.00  0.00     0.074 A 
ATOM     55  C   UNL A   1      43.940  33.101  32.940  1.00  0.00     0.029 A 
ATOM     56  N   UNL A   1      44.340  30.912  32.966  1.00  0.00    -0.354 N 
ATOM     57  N   UNL A   1      44.828  28.310  34.257  1.00  0.00    -0.248 NA
ATOM     58  C   UNL A   1      45.259  27.049  36.175  1.00  0.00     0.031 C 
ATOM     59  C   UNL A   1      44.168  32.707  34.260  1.00  0.00     0.029 A 
ATOM     60  C   UNL A   1      44.378  31.337  34.281  1.00  0.00     0.049 A 
ATOM     61  H   UNL A   1      44.474  29.984  32.667  1.00  0.00     0.167 HD
ATOM     62  C   UNL A   1      44.811  29.148  35.368  1.00  0.00     0.074 A 
ATOM     63  C   UNL A   1      45.059  28.314  36.524  1.00  0.00     0.031 C 
ATOM     64  C   UNL A   1      44.600  30.486  35.424  1.00  0.00     0.031 A 
BRANCH  51  65
ATOM     65  C   UNL A   1      43.794  33.183  29.917  1.00  0.00    -0.014 A 
ATOM     66  C   UNL A   1      42.503  33.680  29.664  1.00  0.00     0.010 A 
ATOM     67  C   UNL A   1      44.909  33.910  29.461  1.00  0.00     0.010 A 
ATOM     68  C   UNL A   1      42.332  34.861  28.935  1.00  0.00     0.020 A 
ATOM     69  C   UNL A   1      44.743  35.107  28.759  1.00  0.00     0.020 A 
ATOM     70  C   UNL A   1      43.454  35.566  28.487  1.00  0.00     0.054 A 
BRANCH  70  71
ATOM     71  S   UNL A   1      43.200  37.106  27.565  1.00  0.00     0.124 S 
ATOM     72  O   UNL A   1      42.399  36.650  26.430  1.00  0.00    -0.237 OA
ATOM     73  O   UNL A   1      42.499  37.946  28.532  1.00  0.00    -0.237 OA
ATOM     74  O   UNL A   1      44.555  37.540  27.233  1.00  0.00    -0.744 OA
ENDBRANCH  70  71
ENDBRANCH  51  65
BRANCH  52  75
ATOM     75  C   UNL A   1      45.440  24.524  34.678  1.00  0.00    -0.014 A 
ATOM     76  C   UNL A   1      44.396  23.701  35.136  1.00  0.00     0.010 A 
ATOM     77  C   UNL A   1      46.771  24.126  34.905  1.00  0.00     0.010 A 
ATOM     78  C   UNL A   1      44.677  22.514  35.821  1.00  0.00     0.020 A 
ATOM     79  C   UNL A   1      47.056  22.924  35.561  1.00  0.00     0.020 A 
ATOM     80  C   UNL A   1      46.005  22.131  36.024  1.00  0.00     0.054 A 
BRANCH  80  81
ATOM     81  S   UNL A   1      46.342  20.561  36.871  1.00  0.00     0.124 S 
ATOM     82  O   UNL A   1      45.527  19.622  36.106  1.00  0.00    -0.237 OA
ATOM     83  O   UNL A   1      47.787  20.422  36.712  1.00  0.00    -0.237 OA
ATOM     84  O   UNL A   1      45.895  20.807  38.241  1.00  0.00    -0.744 OA
ENDBRANCH  80  81
ENDBRANCH  52  75
BRANCH  64  85
ATOM     85  C   UNL A   1      44.546  31.142  36.780  1.00  0.00    -0.014 A 
ATOM     86  C   UNL A   1      45.685  31.716  37.368  1.00  0.00     0.010 A 
ATOM     87  C   UNL A   1      43.295  31.295  37.411  1.00  0.00     0.010 A 
ATOM     88  C   UNL A   1      45.574  32.432  38.565  1.00  0.00     0.020 A 
ATOM     89  C   UNL A   1      43.177  32.034  38.589  1.00  0.00     0.020 A 
ATOM     90  C   UNL A   1      44.319  32.596  39.161  1.00  0.00     0.054 A 
BRANCH  90  91
ATOM     91  S   UNL A   1      44.188  33.618  40.654  1.00  0.00     0.124 S 
ATOM     92  O   UNL A   1      45.375  34.463  40.550  1.00  0.00    -0.237 OA
ATOM     93  O   UNL A   1      42.912  34.302  40.463  1.00  0.00    -0.237 OA
ATOM     94  O   UNL A   1      44.210  32.646  41.744  1.00  0.00    -0.744 OA
ENDBRANCH  90  91
ENDBRANCH  64  85
ENDBRANCH  38  39
ENDBRANCH  31  33
ENDBRANCH  30  31
ENDBRANCH  29  30
ENDBRANCH  28  29
ENDBRANCH  27  28
ENDBRANCH   1  27
TORSDOF 22
ENDMDL
