MODEL 1
REMARK VINA RESULT:      -9.3      0.000      0.000
REMARK SMILES CCOc1c(Br)cc(CNc2cccc(C(=O)OCCOCCOCCOC(=O)c3ccc(-c4c5nc(c(-c6ccc(S(=O)(=O)[O-])cc6)c6ccc([nH]6)c(-c6ccc(S(=O)(=O)[O-])cc6)c6nc(c(-c7ccc(S(=O)(=O)[O-])cc7)c7ccc4[nH]7)C=C6)C=C5)cc3)c2C)cc1OC
REMARK SMILES IDX 22 1 21 2 20 3 19 4 18 5 16 6 17 7 15 8 11 9 12 10 90 11
REMARK SMILES IDX 13 12 91 13 14 14 10 15 9 17 8 18 4 19 5 20 93 21 6 22 7 23
REMARK SMILES IDX 92 24 3 25 2 26 1 27 94 28 95 29 23 30 24 31 25 32 26 33
REMARK SMILES IDX 27 34 28 35 29 36 30 37 31 38 89 39 32 40 88 41 33 42 34 43
REMARK SMILES IDX 35 44 82 45 36 46 87 47 81 48 83 49 37 50 86 51 80 52 79 53
REMARK SMILES IDX 38 55 68 56 49 57 67 58 50 59 53 60 66 61 84 62 51 63 52 64
REMARK SMILES IDX 65 66 85 67 54 68 39 69 40 70 48 71 41 72 47 73 42 74 43 75
REMARK SMILES IDX 44 76 45 77 46 78 69 79 70 80 78 81 71 82 77 83 72 84 73 85
REMARK SMILES IDX 74 86 75 87 76 88 55 89 56 90 64 91 57 92 63 93 58 94 59 95
REMARK SMILES IDX 60 96 61 97 62 98
REMARK H PARENT 10 16 83 54 53 65
REMARK Flexibility Score: inf
ROOT
ATOM      1  C   UNL A   1      31.733  29.022  26.878  1.00  0.00     0.188 C 
ENDROOT
BRANCH   1   2
ATOM      2  O   UNL A   1      32.452  27.854  26.474  1.00  0.00    -0.376 OA
BRANCH   2   3
ATOM      3  C   UNL A   1      31.799  26.786  25.774  1.00  0.00     0.202 C 
BRANCH   3   4
ATOM      4  C   UNL A   1      30.266  26.364  25.980  1.00  0.00     0.261 C 
BRANCH   4   5
ATOM      5  O   UNL A   1      29.926  25.161  26.800  1.00  0.00    -0.460 OA
BRANCH   5   6
ATOM      6  C   UNL A   1      30.182  23.778  26.824  1.00  0.00     0.338 C 
ATOM      7  O   UNL A   1      29.322  23.047  27.314  1.00  0.00    -0.246 OA
BRANCH   6   8
ATOM      8  C   UNL A   1      31.822  23.071  26.274  1.00  0.00     0.065 A 
ATOM      9  C   UNL A   1      33.970  22.119  25.041  1.00  0.00     0.038 A 
ATOM     10  C   UNL A   1      34.377  21.610  26.253  1.00  0.00     0.026 A 
ATOM     11  C   UNL A   1      32.612  22.655  24.987  1.00  0.00    -0.013 A 
ATOM     12  C   UNL A   1      33.611  21.821  27.414  1.00  0.00     0.003 A 
ATOM     13  C   UNL A   1      32.248  22.516  23.462  1.00  0.00     0.047 C 
ATOM     14  C   UNL A   1      32.434  22.594  27.439  1.00  0.00     0.016 A 
BRANCH   9  15
ATOM     15  N   UNL A   1      34.752  22.084  23.876  1.00  0.00    -0.381 N 
ATOM     16  H   UNL A   1      34.414  21.455  23.197  1.00  0.00     0.160 HD
BRANCH  15  17
ATOM     17  C   UNL A   1      35.966  22.785  23.460  1.00  0.00     0.149 C 
BRANCH  17  18
ATOM     18  C   UNL A   1      37.124  22.596  24.469  1.00  0.00    -0.024 A 
ATOM     19  C   UNL A   1      39.186  22.132  26.437  1.00  0.00     0.175 A 
ATOM     20  C   UNL A   1      38.710  21.104  25.605  1.00  0.00     0.064 A 
ATOM     21  C   UNL A   1      38.565  23.389  26.350  1.00  0.00     0.162 A 
ATOM     22  Br  UNL A   1      39.288  19.299  25.804  1.00  0.00    -0.047 Br
ATOM     23  C   UNL A   1      37.714  21.337  24.635  1.00  0.00     0.025 A 
ATOM     24  C   UNL A   1      37.563  23.608  25.353  1.00  0.00     0.056 A 
BRANCH  19  25
ATOM     25  O   UNL A   1      40.126  21.826  27.392  1.00  0.00    -0.489 OA
BRANCH  25  26
ATOM     26  C   UNL A   1      41.435  22.351  27.112  1.00  0.00     0.226 C 
ATOM     27  C   UNL A   1      42.536  21.452  27.644  1.00  0.00     0.049 C 
ENDBRANCH  25  26
ENDBRANCH  19  25
BRANCH  21  28
ATOM     28  O   UNL A   1      38.774  24.491  27.146  1.00  0.00    -0.493 OA
ATOM     29  C   UNL A   1      39.543  25.584  26.653  1.00  0.00     0.278 C 
ENDBRANCH  21  28
ENDBRANCH  17  18
ENDBRANCH  15  17
ENDBRANCH   9  15
ENDBRANCH   6   8
ENDBRANCH   5   6
ENDBRANCH   4   5
ENDBRANCH   3   4
ENDBRANCH   2   3
ENDBRANCH   1   2
BRANCH   1  30
ATOM     30  C   UNL A   1      32.407  30.369  26.918  1.00  0.00     0.188 C 
BRANCH  30  31
ATOM     31  O   UNL A   1      33.670  30.184  27.540  1.00  0.00    -0.376 OA
BRANCH  31  32
ATOM     32  C   UNL A   1      34.451  31.353  27.643  1.00  0.00     0.202 C 
BRANCH  32  33
ATOM     33  C   UNL A   1      35.310  31.372  28.911  1.00  0.00     0.261 C 
BRANCH  33  34
ATOM     34  O   UNL A   1      35.417  32.685  29.520  1.00  0.00    -0.460 OA
BRANCH  34  35
ATOM     35  C   UNL A   1      36.220  32.841  30.625  1.00  0.00     0.338 C 
ATOM     36  O   UNL A   1      35.747  33.032  31.756  1.00  0.00    -0.246 OA
BRANCH  35  37
ATOM     37  C   UNL A   1      37.627  32.453  30.346  1.00  0.00     0.060 A 
ATOM     38  C   UNL A   1      38.193  31.793  29.254  1.00  0.00     0.016 A 
ATOM     39  C   UNL A   1      38.481  32.716  31.352  1.00  0.00     0.016 A 
ATOM     40  C   UNL A   1      39.483  31.102  29.315  1.00  0.00     0.010 A 
ATOM     41  C   UNL A   1      39.649  31.970  31.411  1.00  0.00     0.010 A 
ATOM     42  C   UNL A   1      40.256  31.041  30.483  1.00  0.00    -0.014 A 
BRANCH  42  43
ATOM     43  C   UNL A   1      41.583  29.913  30.774  1.00  0.00     0.031 A 
ATOM     44  C   UNL A   1      41.951  28.206  30.239  1.00  0.00     0.074 A 
ATOM     45  C   UNL A   1      42.622  30.393  31.505  1.00  0.00     0.049 A 
ATOM     46  N   UNL A   1      43.002  27.536  30.668  1.00  0.00    -0.248 NA
ATOM     47  C   UNL A   1      41.250  27.153  29.354  1.00  0.00     0.031 C 
ATOM     48  C   UNL A   1      44.004  29.920  31.519  1.00  0.00     0.029 A 
ATOM     49  N   UNL A   1      42.608  31.377  32.490  1.00  0.00    -0.354 N 
ATOM     50  C   UNL A   1      43.198  26.412  29.847  1.00  0.00     0.074 A 
ATOM     51  C   UNL A   1      41.987  26.067  29.264  1.00  0.00     0.031 C 
ATOM     52  C   UNL A   1      44.645  30.447  32.568  1.00  0.00     0.029 A 
ATOM     53  C   UNL A   1      43.647  31.101  33.380  1.00  0.00     0.049 A 
ATOM     54  H   UNL A   1      41.979  32.131  32.548  1.00  0.00     0.167 HD
ATOM     55  C   UNL A   1      44.422  25.949  29.508  1.00  0.00     0.031 A 
ATOM     56  C   UNL A   1      43.370  30.875  34.689  1.00  0.00     0.031 A 
ATOM     57  C   UNL A   1      45.332  26.314  30.552  1.00  0.00     0.049 A 
ATOM     58  C   UNL A   1      43.822  29.492  35.101  1.00  0.00     0.074 A 
ATOM     59  C   UNL A   1      46.422  27.139  30.685  1.00  0.00     0.029 A 
ATOM     60  N   UNL A   1      44.887  26.030  31.830  1.00  0.00    -0.354 N 
ATOM     61  N   UNL A   1      44.297  28.613  34.254  1.00  0.00    -0.248 NA
ATOM     62  C   UNL A   1      43.839  28.973  36.456  1.00  0.00     0.031 C 
ATOM     63  C   UNL A   1      46.571  27.400  32.091  1.00  0.00     0.029 A 
ATOM     64  C   UNL A   1      45.611  26.682  32.789  1.00  0.00     0.049 A 
ATOM     65  H   UNL A   1      44.134  25.427  32.026  1.00  0.00     0.167 HD
ATOM     66  C   UNL A   1      44.686  27.467  34.881  1.00  0.00     0.074 A 
ATOM     67  C   UNL A   1      44.354  27.740  36.271  1.00  0.00     0.031 C 
ATOM     68  C   UNL A   1      45.224  26.417  34.179  1.00  0.00     0.031 A 
BRANCH  55  69
ATOM     69  C   UNL A   1      44.728  25.245  28.190  1.00  0.00    -0.014 A 
ATOM     70  C   UNL A   1      45.152  23.908  28.203  1.00  0.00     0.010 A 
ATOM     71  C   UNL A   1      44.745  25.880  26.914  1.00  0.00     0.010 A 
ATOM     72  C   UNL A   1      45.557  23.239  27.028  1.00  0.00     0.020 A 
ATOM     73  C   UNL A   1      45.109  25.212  25.726  1.00  0.00     0.020 A 
ATOM     74  C   UNL A   1      45.531  23.891  25.794  1.00  0.00     0.054 A 
BRANCH  74  75
ATOM     75  S   UNL A   1      46.083  23.006  24.303  1.00  0.00     0.124 S 
ATOM     76  O   UNL A   1      47.108  23.901  23.771  1.00  0.00    -0.237 OA
ATOM     77  O   UNL A   1      46.574  21.742  24.846  1.00  0.00    -0.237 OA
ATOM     78  O   UNL A   1      44.875  22.900  23.488  1.00  0.00    -0.744 OA
ENDBRANCH  74  75
ENDBRANCH  55  69
BRANCH  56  79
ATOM     79  C   UNL A   1      42.312  31.826  35.186  1.00  0.00    -0.014 A 
ATOM     80  C   UNL A   1      41.157  31.186  35.719  1.00  0.00     0.010 A 
ATOM     81  C   UNL A   1      42.589  33.131  35.638  1.00  0.00     0.010 A 
ATOM     82  C   UNL A   1      40.434  31.731  36.787  1.00  0.00     0.020 A 
ATOM     83  C   UNL A   1      41.827  33.707  36.689  1.00  0.00     0.020 A 
ATOM     84  C   UNL A   1      40.800  32.972  37.296  1.00  0.00     0.054 A 
BRANCH  84  85
ATOM     85  S   UNL A   1      40.043  33.467  38.883  1.00  0.00     0.124 S 
ATOM     86  O   UNL A   1      38.621  33.514  38.565  1.00  0.00    -0.237 OA
ATOM     87  O   UNL A   1      40.444  32.365  39.760  1.00  0.00    -0.237 OA
ATOM     88  O   UNL A   1      40.666  34.757  39.166  1.00  0.00    -0.744 OA
ENDBRANCH  84  85
ENDBRANCH  56  79
BRANCH  68  89
ATOM     89  C   UNL A   1      45.342  24.968  34.655  1.00  0.00    -0.014 A 
ATOM     90  C   UNL A   1      44.277  24.073  34.755  1.00  0.00     0.010 A 
ATOM     91  C   UNL A   1      46.628  24.426  34.954  1.00  0.00     0.010 A 
ATOM     92  C   UNL A   1      44.475  22.730  35.111  1.00  0.00     0.020 A 
ATOM     93  C   UNL A   1      46.850  23.081  35.252  1.00  0.00     0.020 A 
ATOM     94  C   UNL A   1      45.759  22.242  35.349  1.00  0.00     0.054 A 
BRANCH  94  95
ATOM     95  S   UNL A   1      45.968  20.514  35.818  1.00  0.00     0.124 S 
ATOM     96  O   UNL A   1      44.878  19.873  35.088  1.00  0.00    -0.237 OA
ATOM     97  O   UNL A   1      47.313  20.216  35.331  1.00  0.00    -0.237 OA
ATOM     98  O   UNL A   1      45.824  20.524  37.272  1.00  0.00    -0.744 OA
ENDBRANCH  94  95
ENDBRANCH  68  89
ENDBRANCH  42  43
ENDBRANCH  35  37
ENDBRANCH  34  35
ENDBRANCH  33  34
ENDBRANCH  32  33
ENDBRANCH  31  32
ENDBRANCH  30  31
ENDBRANCH   1  30
TORSDOF 26
ENDMDL
MODEL 2
REMARK VINA RESULT:      -8.9      4.609     11.874
REMARK SMILES CCOc1c(Br)cc(CNc2cccc(C(=O)OCCOCCOCCOC(=O)c3ccc(-c4c5nc(c(-c6ccc(S(=O)(=O)[O-])cc6)c6ccc([nH]6)c(-c6ccc(S(=O)(=O)[O-])cc6)c6nc(c(-c7ccc(S(=O)(=O)[O-])cc7)c7ccc4[nH]7)C=C6)C=C5)cc3)c2C)cc1OC
REMARK SMILES IDX 22 1 21 2 20 3 19 4 18 5 16 6 17 7 15 8 11 9 12 10 90 11
REMARK SMILES IDX 13 12 91 13 14 14 10 15 9 17 8 18 4 19 5 20 93 21 6 22 7 23
REMARK SMILES IDX 92 24 3 25 2 26 1 27 94 28 95 29 23 30 24 31 25 32 26 33
REMARK SMILES IDX 27 34 28 35 29 36 30 37 31 38 89 39 32 40 88 41 33 42 34 43
REMARK SMILES IDX 35 44 82 45 36 46 87 47 81 48 83 49 37 50 86 51 80 52 79 53
REMARK SMILES IDX 38 55 68 56 49 57 67 58 50 59 53 60 66 61 84 62 51 63 52 64
REMARK SMILES IDX 65 66 85 67 54 68 39 69 40 70 48 71 41 72 47 73 42 74 43 75
REMARK SMILES IDX 44 76 45 77 46 78 69 79 70 80 78 81 71 82 77 83 72 84 73 85
REMARK SMILES IDX 74 86 75 87 76 88 55 89 56 90 64 91 57 92 63 93 58 94 59 95
REMARK SMILES IDX 60 96 61 97 62 98
REMARK H PARENT 10 16 83 54 53 65
REMARK Flexibility Score: inf
ROOT
ATOM      1  C   UNL A   1      41.140  19.578  26.134  1.00  0.00     0.188 C 
ENDROOT
BRANCH   1   2
ATOM      2  O   UNL A   1      40.025  19.076  25.393  1.00  0.00    -0.376 OA
BRANCH   2   3
ATOM      3  C   UNL A   1      38.787  19.799  25.335  1.00  0.00     0.202 C 
BRANCH   3   4
ATOM      4  C   UNL A   1      37.351  19.131  25.090  1.00  0.00     0.261 C 
BRANCH   4   5
ATOM      5  O   UNL A   1      36.196  19.979  24.667  1.00  0.00    -0.460 OA
BRANCH   5   6
ATOM      6  C   UNL A   1      34.794  20.012  24.785  1.00  0.00     0.338 C 
ATOM      7  O   UNL A   1      34.166  19.023  24.411  1.00  0.00    -0.246 OA
BRANCH   6   8
ATOM      8  C   UNL A   1      33.890  21.549  25.348  1.00  0.00     0.065 A 
ATOM      9  C   UNL A   1      32.269  23.594  25.824  1.00  0.00     0.038 A 
ATOM     10  C   UNL A   1      33.322  24.216  26.454  1.00  0.00     0.026 A 
ATOM     11  C   UNL A   1      32.585  22.374  25.085  1.00  0.00    -0.013 A 
ATOM     12  C   UNL A   1      34.569  23.575  26.572  1.00  0.00     0.003 A 
ATOM     13  C   UNL A   1      31.435  22.313  24.013  1.00  0.00     0.047 C 
ATOM     14  C   UNL A   1      34.814  22.264  26.120  1.00  0.00     0.016 A 
BRANCH   9  15
ATOM     15  N   UNL A   1      30.960  24.101  25.803  1.00  0.00    -0.381 N 
ATOM     16  H   UNL A   1      30.290  23.442  25.508  1.00  0.00     0.160 HD
BRANCH  15  17
ATOM     17  C   UNL A   1      30.383  25.405  26.125  1.00  0.00     0.149 C 
BRANCH  17  18
ATOM     18  C   UNL A   1      30.285  26.324  24.884  1.00  0.00    -0.024 A 
ATOM     19  C   UNL A   1      30.154  28.166  22.665  1.00  0.00     0.175 A 
ATOM     20  C   UNL A   1      31.366  27.872  23.314  1.00  0.00     0.064 A 
ATOM     21  C   UNL A   1      28.977  27.605  23.183  1.00  0.00     0.162 A 
ATOM     22  Br  UNL A   1      32.989  28.767  22.870  1.00  0.00    -0.047 Br
ATOM     23  C   UNL A   1      31.429  26.960  24.387  1.00  0.00     0.025 A 
ATOM     24  C   UNL A   1      29.062  26.675  24.267  1.00  0.00     0.056 A 
BRANCH  19  25
ATOM     25  O   UNL A   1      30.157  29.099  21.654  1.00  0.00    -0.489 OA
BRANCH  25  26
ATOM     26  C   UNL A   1      29.749  30.413  22.071  1.00  0.00     0.226 C 
ATOM     27  C   UNL A   1      28.574  30.930  21.262  1.00  0.00     0.049 C 
ENDBRANCH  25  26
ENDBRANCH  19  25
BRANCH  21  28
ATOM     28  O   UNL A   1      27.680  27.853  22.797  1.00  0.00    -0.493 OA
ATOM     29  C   UNL A   1      26.863  28.720  23.577  1.00  0.00     0.278 C 
ENDBRANCH  21  28
ENDBRANCH  17  18
ENDBRANCH  15  17
ENDBRANCH   9  15
ENDBRANCH   6   8
ENDBRANCH   5   6
ENDBRANCH   4   5
ENDBRANCH   3   4
ENDBRANCH   2   3
ENDBRANCH   1   2
BRANCH   1  30
ATOM     30  C   UNL A   1      42.535  19.074  25.868  1.00  0.00     0.188 C 
BRANCH  30  31
ATOM     31  O   UNL A   1      43.319  20.197  25.493  1.00  0.00    -0.376 OA
BRANCH  31  32
ATOM     32  C   UNL A   1      42.737  21.445  25.793  1.00  0.00     0.202 C 
BRANCH  32  33
ATOM     33  C   UNL A   1      43.584  22.620  25.294  1.00  0.00     0.261 C 
BRANCH  33  34
ATOM     34  O   UNL A   1      44.399  23.228  26.329  1.00  0.00    -0.460 OA
BRANCH  34  35
ATOM     35  C   UNL A   1      43.831  23.486  27.555  1.00  0.00     0.338 C 
ATOM     36  O   UNL A   1      43.949  22.701  28.509  1.00  0.00    -0.246 OA
BRANCH  35  37
ATOM     37  C   UNL A   1      43.363  24.892  27.663  1.00  0.00     0.060 A 
ATOM     38  C   UNL A   1      43.583  25.994  26.835  1.00  0.00     0.016 A 
ATOM     39  C   UNL A   1      42.677  25.159  28.790  1.00  0.00     0.016 A 
ATOM     40  C   UNL A   1      43.434  27.380  27.287  1.00  0.00     0.010 A 
ATOM     41  C   UNL A   1      42.642  26.478  29.220  1.00  0.00     0.010 A 
ATOM     42  C   UNL A   1      43.064  27.714  28.597  1.00  0.00    -0.014 A 
BRANCH  42  43
ATOM     43  C   UNL A   1      43.258  29.303  29.342  1.00  0.00     0.031 A 
ATOM     44  C   UNL A   1      42.103  30.571  29.971  1.00  0.00     0.074 A 
ATOM     45  C   UNL A   1      44.536  29.696  29.578  1.00  0.00     0.049 A 
ATOM     46  N   UNL A   1      42.507  31.741  30.423  1.00  0.00    -0.248 NA
ATOM     47  C   UNL A   1      40.568  30.706  30.081  1.00  0.00     0.031 C 
ATOM     48  C   UNL A   1      45.007  30.672  30.558  1.00  0.00     0.029 A 
ATOM     49  N   UNL A   1      45.693  29.349  28.886  1.00  0.00    -0.354 N 
ATOM     50  C   UNL A   1      41.456  32.348  31.131  1.00  0.00     0.074 A 
ATOM     51  C   UNL A   1      40.251  31.840  30.667  1.00  0.00     0.031 C 
ATOM     52  C   UNL A   1      46.277  30.997  30.288  1.00  0.00     0.029 A 
ATOM     53  C   UNL A   1      46.595  30.409  29.010  1.00  0.00     0.049 A 
ATOM     54  H   UNL A   1      45.847  28.510  28.398  1.00  0.00     0.167 HD
ATOM     55  C   UNL A   1      41.647  33.093  32.242  1.00  0.00     0.031 A 
ATOM     56  C   UNL A   1      47.045  31.042  27.897  1.00  0.00     0.031 A 
ATOM     57  C   UNL A   1      42.961  33.659  32.169  1.00  0.00     0.049 A 
ATOM     58  C   UNL A   1      46.671  32.508  27.929  1.00  0.00     0.074 A 
ATOM     59  C   UNL A   1      44.141  33.539  32.861  1.00  0.00     0.029 A 
ATOM     60  N   UNL A   1      43.266  34.252  30.958  1.00  0.00    -0.354 N 
ATOM     61  N   UNL A   1      45.909  33.032  28.857  1.00  0.00    -0.248 NA
ATOM     62  C   UNL A   1      47.127  33.520  26.994  1.00  0.00     0.031 C 
ATOM     63  C   UNL A   1      45.179  34.017  31.990  1.00  0.00     0.029 A 
ATOM     64  C   UNL A   1      44.606  34.475  30.811  1.00  0.00     0.049 A 
ATOM     65  H   UNL A   1      42.593  34.488  30.279  1.00  0.00     0.167 HD
ATOM     66  C   UNL A   1      45.770  34.378  28.694  1.00  0.00     0.074 A 
ATOM     67  C   UNL A   1      46.543  34.632  27.488  1.00  0.00     0.031 C 
ATOM     68  C   UNL A   1      45.018  35.128  29.564  1.00  0.00     0.031 A 
BRANCH  55  69
ATOM     69  C   UNL A   1      40.634  33.199  33.378  1.00  0.00    -0.014 A 
ATOM     70  C   UNL A   1      40.905  32.578  34.606  1.00  0.00     0.010 A 
ATOM     71  C   UNL A   1      39.340  33.784  33.260  1.00  0.00     0.010 A 
ATOM     72  C   UNL A   1      39.959  32.546  35.653  1.00  0.00     0.020 A 
ATOM     73  C   UNL A   1      38.401  33.795  34.312  1.00  0.00     0.020 A 
ATOM     74  C   UNL A   1      38.712  33.158  35.505  1.00  0.00     0.054 A 
BRANCH  74  75
ATOM     75  S   UNL A   1      37.509  33.076  36.867  1.00  0.00     0.124 S 
ATOM     76  O   UNL A   1      37.453  31.644  37.149  1.00  0.00    -0.237 OA
ATOM     77  O   UNL A   1      38.138  33.895  37.899  1.00  0.00    -0.237 OA
ATOM     78  O   UNL A   1      36.288  33.638  36.293  1.00  0.00    -0.744 OA
ENDBRANCH  74  75
ENDBRANCH  55  69
BRANCH  56  79
ATOM     79  C   UNL A   1      47.334  30.056  26.796  1.00  0.00    -0.014 A 
ATOM     80  C   UNL A   1      48.415  29.171  27.075  1.00  0.00     0.010 A 
ATOM     81  C   UNL A   1      46.367  29.616  25.871  1.00  0.00     0.010 A 
ATOM     82  C   UNL A   1      48.426  27.848  26.617  1.00  0.00     0.020 A 
ATOM     83  C   UNL A   1      46.403  28.290  25.366  1.00  0.00     0.020 A 
ATOM     84  C   UNL A   1      47.396  27.400  25.798  1.00  0.00     0.054 A 
BRANCH  84  85
ATOM     85  S   UNL A   1      47.293  25.599  25.515  1.00  0.00     0.124 S 
ATOM     86  O   UNL A   1      46.131  25.471  24.644  1.00  0.00    -0.237 OA
ATOM     87  O   UNL A   1      48.580  25.324  24.872  1.00  0.00    -0.237 OA
ATOM     88  O   UNL A   1      47.132  25.055  26.861  1.00  0.00    -0.744 OA
ENDBRANCH  84  85
ENDBRANCH  56  79
BRANCH  68  89
ATOM     89  C   UNL A   1      44.458  36.529  29.311  1.00  0.00    -0.014 A 
ATOM     90  C   UNL A   1      44.079  37.427  30.309  1.00  0.00     0.010 A 
ATOM     91  C   UNL A   1      44.374  37.025  27.976  1.00  0.00     0.010 A 
ATOM     92  C   UNL A   1      43.661  38.732  30.004  1.00  0.00     0.020 A 
ATOM     93  C   UNL A   1      44.017  38.335  27.659  1.00  0.00     0.020 A 
ATOM     94  C   UNL A   1      43.641  39.179  28.684  1.00  0.00     0.054 A 
BRANCH  94  95
ATOM     95  S   UNL A   1      43.083  40.857  28.334  1.00  0.00     0.124 S 
ATOM     96  O   UNL A   1      43.867  41.191  27.148  1.00  0.00    -0.237 OA
ATOM     97  O   UNL A   1      41.651  40.673  28.110  1.00  0.00    -0.237 OA
ATOM     98  O   UNL A   1      43.430  41.603  29.542  1.00  0.00    -0.744 OA
ENDBRANCH  94  95
ENDBRANCH  68  89
ENDBRANCH  42  43
ENDBRANCH  35  37
ENDBRANCH  34  35
ENDBRANCH  33  34
ENDBRANCH  32  33
ENDBRANCH  31  32
ENDBRANCH  30  31
ENDBRANCH   1  30
TORSDOF 26
ENDMDL
MODEL 3
REMARK VINA RESULT:      -8.8      2.301      4.282
REMARK SMILES CCOc1c(Br)cc(CNc2cccc(C(=O)OCCOCCOCCOC(=O)c3ccc(-c4c5nc(c(-c6ccc(S(=O)(=O)[O-])cc6)c6ccc([nH]6)c(-c6ccc(S(=O)(=O)[O-])cc6)c6nc(c(-c7ccc(S(=O)(=O)[O-])cc7)c7ccc4[nH]7)C=C6)C=C5)cc3)c2C)cc1OC
REMARK SMILES IDX 22 1 21 2 20 3 19 4 18 5 16 6 17 7 15 8 11 9 12 10 90 11
REMARK SMILES IDX 13 12 91 13 14 14 10 15 9 17 8 18 4 19 5 20 93 21 6 22 7 23
REMARK SMILES IDX 92 24 3 25 2 26 1 27 94 28 95 29 23 30 24 31 25 32 26 33
REMARK SMILES IDX 27 34 28 35 29 36 30 37 31 38 89 39 32 40 88 41 33 42 34 43
REMARK SMILES IDX 35 44 82 45 36 46 87 47 81 48 83 49 37 50 86 51 80 52 79 53
REMARK SMILES IDX 38 55 68 56 49 57 67 58 50 59 53 60 66 61 84 62 51 63 52 64
REMARK SMILES IDX 65 66 85 67 54 68 39 69 40 70 48 71 41 72 47 73 42 74 43 75
REMARK SMILES IDX 44 76 45 77 46 78 69 79 70 80 78 81 71 82 77 83 72 84 73 85
REMARK SMILES IDX 74 86 75 87 76 88 55 89 56 90 64 91 57 92 63 93 58 94 59 95
REMARK SMILES IDX 60 96 61 97 62 98
REMARK H PARENT 10 16 83 54 53 65
REMARK Flexibility Score: inf
ROOT
ATOM      1  C   UNL A   1      30.930  26.712  27.050  1.00  0.00     0.188 C 
ENDROOT
BRANCH   1   2
ATOM      2  O   UNL A   1      30.726  26.074  25.787  1.00  0.00    -0.376 OA
BRANCH   2   3
ATOM      3  C   UNL A   1      30.181  24.749  25.705  1.00  0.00     0.202 C 
BRANCH   3   4
ATOM      4  C   UNL A   1      29.874  23.810  26.968  1.00  0.00     0.261 C 
BRANCH   4   5
ATOM      5  O   UNL A   1      30.943  22.919  27.513  1.00  0.00    -0.460 OA
BRANCH   5   6
ATOM      6  C   UNL A   1      32.316  22.666  27.337  1.00  0.00     0.338 C 
ATOM      7  O   UNL A   1      32.935  22.186  28.286  1.00  0.00    -0.246 OA
BRANCH   6   8
ATOM      8  C   UNL A   1      33.217  23.171  25.779  1.00  0.00     0.065 A 
ATOM      9  C   UNL A   1      34.203  23.564  23.347  1.00  0.00     0.038 A 
ATOM     10  C   UNL A   1      35.279  24.185  23.939  1.00  0.00     0.026 A 
ATOM     11  C   UNL A   1      33.283  22.868  24.243  1.00  0.00    -0.013 A 
ATOM     12  C   UNL A   1      35.341  24.336  25.337  1.00  0.00     0.003 A 
ATOM     13  C   UNL A   1      32.637  21.786  23.300  1.00  0.00     0.047 C 
ATOM     14  C   UNL A   1      34.313  23.929  26.209  1.00  0.00     0.016 A 
BRANCH   9  15
ATOM     15  N   UNL A   1      33.996  23.514  21.960  1.00  0.00    -0.381 N 
ATOM     16  H   UNL A   1      34.665  22.969  21.484  1.00  0.00     0.160 HD
BRANCH  15  17
ATOM     17  C   UNL A   1      32.995  24.103  21.072  1.00  0.00     0.149 C 
BRANCH  17  18
ATOM     18  C   UNL A   1      32.573  25.521  21.527  1.00  0.00    -0.024 A 
ATOM     19  C   UNL A   1      31.854  28.131  22.531  1.00  0.00     0.175 A 
ATOM     20  C   UNL A   1      33.195  27.721  22.421  1.00  0.00     0.064 A 
ATOM     21  C   UNL A   1      30.854  27.196  22.220  1.00  0.00     0.162 A 
ATOM     22  Br  UNL A   1      34.632  28.802  23.053  1.00  0.00    -0.047 Br
ATOM     23  C   UNL A   1      33.542  26.452  21.917  1.00  0.00     0.025 A 
ATOM     24  C   UNL A   1      31.227  25.917  21.702  1.00  0.00     0.056 A 
BRANCH  19  25
ATOM     25  O   UNL A   1      31.583  29.365  23.073  1.00  0.00    -0.489 OA
BRANCH  25  26
ATOM     26  C   UNL A   1      31.011  29.311  24.391  1.00  0.00     0.226 C 
ATOM     27  C   UNL A   1      31.227  30.601  25.160  1.00  0.00     0.049 C 
ENDBRANCH  25  26
ENDBRANCH  19  25
BRANCH  21  28
ATOM     28  O   UNL A   1      29.493  27.331  22.377  1.00  0.00    -0.493 OA
ATOM     29  C   UNL A   1      28.922  27.277  23.680  1.00  0.00     0.278 C 
ENDBRANCH  21  28
ENDBRANCH  17  18
ENDBRANCH  15  17
ENDBRANCH   9  15
ENDBRANCH   6   8
ENDBRANCH   5   6
ENDBRANCH   4   5
ENDBRANCH   3   4
ENDBRANCH   2   3
ENDBRANCH   1   2
BRANCH   1  30
ATOM     30  C   UNL A   1      32.221  27.430  27.352  1.00  0.00     0.188 C 
BRANCH  30  31
ATOM     31  O   UNL A   1      33.133  27.100  26.315  1.00  0.00    -0.376 OA
BRANCH  31  32
ATOM     32  C   UNL A   1      33.933  28.173  25.873  1.00  0.00     0.202 C 
BRANCH  32  33
ATOM     33  C   UNL A   1      34.750  28.799  27.008  1.00  0.00     0.261 C 
BRANCH  33  34
ATOM     34  O   UNL A   1      34.038  29.835  27.732  1.00  0.00    -0.460 OA
BRANCH  34  35
ATOM     35  C   UNL A   1      34.609  31.082  27.839  1.00  0.00     0.338 C 
ATOM     36  O   UNL A   1      33.988  32.114  27.539  1.00  0.00    -0.246 OA
BRANCH  35  37
ATOM     37  C   UNL A   1      35.874  31.046  28.618  1.00  0.00     0.060 A 
ATOM     38  C   UNL A   1      37.081  31.722  28.432  1.00  0.00     0.016 A 
ATOM     39  C   UNL A   1      35.876  30.153  29.625  1.00  0.00     0.016 A 
ATOM     40  C   UNL A   1      38.352  31.267  29.000  1.00  0.00     0.010 A 
ATOM     41  C   UNL A   1      37.107  29.688  30.065  1.00  0.00     0.010 A 
ATOM     42  C   UNL A   1      38.462  30.104  29.775  1.00  0.00    -0.014 A 
BRANCH  42  43
ATOM     43  C   UNL A   1      39.968  29.260  30.145  1.00  0.00     0.031 A 
ATOM     44  C   UNL A   1      40.671  27.637  29.687  1.00  0.00     0.074 A 
ATOM     45  C   UNL A   1      40.871  29.952  30.885  1.00  0.00     0.049 A 
ATOM     46  N   UNL A   1      41.814  27.194  30.170  1.00  0.00    -0.248 NA
ATOM     47  C   UNL A   1      40.212  26.442  28.824  1.00  0.00     0.031 C 
ATOM     48  C   UNL A   1      42.316  29.752  30.955  1.00  0.00     0.029 A 
ATOM     49  N   UNL A   1      40.637  30.948  31.831  1.00  0.00    -0.354 N 
ATOM     50  C   UNL A   1      42.247  26.102  29.399  1.00  0.00     0.074 A 
ATOM     51  C   UNL A   1      41.144  25.514  28.796  1.00  0.00     0.031 C 
ATOM     52  C   UNL A   1      42.810  30.425  32.001  1.00  0.00     0.029 A 
ATOM     53  C   UNL A   1      41.679  30.903  32.759  1.00  0.00     0.049 A 
ATOM     54  H   UNL A   1      39.875  31.569  31.842  1.00  0.00     0.167 HD
ATOM     55  C   UNL A   1      43.547  25.870  29.112  1.00  0.00     0.031 A 
ATOM     56  C   UNL A   1      41.405  30.672  34.068  1.00  0.00     0.031 A 
ATOM     57  C   UNL A   1      44.336  26.436  30.165  1.00  0.00     0.049 A 
ATOM     58  C   UNL A   1      42.096  29.414  34.545  1.00  0.00     0.074 A 
ATOM     59  C   UNL A   1      45.244  27.457  30.296  1.00  0.00     0.029 A 
ATOM     60  N   UNL A   1      43.909  26.114  31.440  1.00  0.00    -0.354 N 
ATOM     61  N   UNL A   1      42.758  28.615  33.746  1.00  0.00    -0.248 NA
ATOM     62  C   UNL A   1      42.165  28.952  35.919  1.00  0.00     0.031 C 
ATOM     63  C   UNL A   1      45.293  27.787  31.694  1.00  0.00     0.029 A 
ATOM     64  C   UNL A   1      44.463  26.922  32.393  1.00  0.00     0.049 A 
ATOM     65  H   UNL A   1      43.278  25.385  31.639  1.00  0.00     0.167 HD
ATOM     66  C   UNL A   1      43.336  27.585  34.427  1.00  0.00     0.074 A 
ATOM     67  C   UNL A   1      42.911  27.835  35.796  1.00  0.00     0.031 C 
ATOM     68  C   UNL A   1      44.086  26.635  33.781  1.00  0.00     0.031 A 
BRANCH  55  69
ATOM     69  C   UNL A   1      44.027  25.194  27.830  1.00  0.00    -0.014 A 
ATOM     70  C   UNL A   1      44.308  23.820  27.838  1.00  0.00     0.010 A 
ATOM     71  C   UNL A   1      44.346  25.878  26.621  1.00  0.00     0.010 A 
ATOM     72  C   UNL A   1      44.860  23.163  26.717  1.00  0.00     0.020 A 
ATOM     73  C   UNL A   1      44.860  25.227  25.481  1.00  0.00     0.020 A 
ATOM     74  C   UNL A   1      45.131  23.867  25.542  1.00  0.00     0.054 A 
BRANCH  74  75
ATOM     75  S   UNL A   1      45.865  22.993  24.125  1.00  0.00     0.124 S 
ATOM     76  O   UNL A   1      46.851  23.956  23.642  1.00  0.00    -0.237 OA
ATOM     77  O   UNL A   1      46.414  21.788  24.743  1.00  0.00    -0.237 OA
ATOM     78  O   UNL A   1      44.735  22.765  23.226  1.00  0.00    -0.744 OA
ENDBRANCH  74  75
ENDBRANCH  55  69
BRANCH  56  79
ATOM     79  C   UNL A   1      40.170  31.419  34.499  1.00  0.00    -0.014 A 
ATOM     80  C   UNL A   1      39.207  30.615  35.172  1.00  0.00     0.010 A 
ATOM     81  C   UNL A   1      40.150  32.803  34.765  1.00  0.00     0.010 A 
ATOM     82  C   UNL A   1      38.406  31.125  36.202  1.00  0.00     0.020 A 
ATOM     83  C   UNL A   1      39.304  33.330  35.775  1.00  0.00     0.020 A 
ATOM     84  C   UNL A   1      38.489  32.473  36.528  1.00  0.00     0.054 A 
BRANCH  84  85
ATOM     85  S   UNL A   1      37.680  32.997  38.078  1.00  0.00     0.124 S 
ATOM     86  O   UNL A   1      38.218  34.335  38.292  1.00  0.00    -0.237 OA
ATOM     87  O   UNL A   1      36.264  32.953  37.706  1.00  0.00    -0.237 OA
ATOM     88  O   UNL A   1      38.109  31.987  39.041  1.00  0.00    -0.744 OA
ENDBRANCH  84  85
ENDBRANCH  56  79
BRANCH  68  89
ATOM     89  C   UNL A   1      44.461  25.251  34.316  1.00  0.00    -0.014 A 
ATOM     90  C   UNL A   1      43.579  24.175  34.428  1.00  0.00     0.010 A 
ATOM     91  C   UNL A   1      45.816  24.971  34.663  1.00  0.00     0.010 A 
ATOM     92  C   UNL A   1      44.015  22.906  34.840  1.00  0.00     0.020 A 
ATOM     93  C   UNL A   1      46.277  23.703  35.018  1.00  0.00     0.020 A 
ATOM     94  C   UNL A   1      45.360  22.677  35.124  1.00  0.00     0.054 A 
BRANCH  94  95
ATOM     95  S   UNL A   1      45.877  21.037  35.665  1.00  0.00     0.124 S 
ATOM     96  O   UNL A   1      45.940  21.207  37.114  1.00  0.00    -0.237 OA
ATOM     97  O   UNL A   1      44.792  20.189  35.178  1.00  0.00    -0.237 OA
ATOM     98  O   UNL A   1      47.164  20.837  35.004  1.00  0.00    -0.744 OA
ENDBRANCH  94  95
ENDBRANCH  68  89
ENDBRANCH  42  43
ENDBRANCH  35  37
ENDBRANCH  34  35
ENDBRANCH  33  34
ENDBRANCH  32  33
ENDBRANCH  31  32
ENDBRANCH  30  31
ENDBRANCH   1  30
TORSDOF 26
ENDMDL
