MODEL 1
REMARK VINA RESULT:     -10.1      0.000      0.000
REMARK SMILES O=C(Cc1cncnc1N1CCC2(CC1)OCCC[C@@H]2O)OCCOCCOCCOC(=O)c1ccc(-c2c3nc(c(-c4ccc(S(=O)(=O)[O-])cc4)c4ccc([nH]4)c(-c4ccc(S(=O)(=O)[O-])cc4)c4nc(c(-c5ccc(S(=O)(=O)[O-])cc5)c5ccc2[nH]5)C=C4)C=C3)cc1
REMARK SMILES IDX 26 1 25 2 24 3 23 4 22 5 2 6 1 7 3 8 4 9 5 10 9 11 6 12 8 13
REMARK SMILES IDX 7 14 10 15 11 16 15 17 12 18 14 19 13 20 16 21 20 22 17 23
REMARK SMILES IDX 19 24 18 25 21 26 27 28 28 29 29 30 30 31 31 32 32 33 33 34
REMARK SMILES IDX 34 35 35 36 93 37 36 38 92 39 37 40 38 41 39 42 86 43 40 44
REMARK SMILES IDX 91 45 85 46 87 47 41 48 90 49 84 50 83 51 42 53 72 54 53 55
REMARK SMILES IDX 71 56 54 57 57 58 70 59 88 60 55 61 56 62 69 64 89 65 58 66
REMARK SMILES IDX 43 67 44 68 52 69 45 70 51 71 46 72 47 73 48 74 49 75 50 76
REMARK SMILES IDX 73 77 74 78 82 79 75 80 81 81 76 82 77 83 78 84 79 85 80 86
REMARK SMILES IDX 59 87 60 88 68 89 61 90 67 91 62 92 63 93 64 94 65 95 66 96
REMARK H PARENT 21 27 87 52 57 63
REMARK Flexibility Score: inf
ROOT
ATOM      1  C   UNL A   1      35.881  21.377  25.000  1.00  0.00     0.188 C 
ENDROOT
BRANCH   1   2
ATOM      2  O   UNL A   1      35.117  21.356  26.196  1.00  0.00    -0.376 OA
BRANCH   2   3
ATOM      3  C   UNL A   1      34.626  22.623  26.610  1.00  0.00     0.202 C 
BRANCH   3   4
ATOM      4  C   UNL A   1      33.925  22.620  27.979  1.00  0.00     0.261 C 
BRANCH   4   5
ATOM      5  O   UNL A   1      32.499  22.589  28.002  1.00  0.00    -0.463 OA
BRANCH   5   6
ATOM      6  C   UNL A   1      31.834  23.424  27.176  1.00  0.00     0.310 C 
ATOM      7  O   UNL A   1      31.826  24.633  27.375  1.00  0.00    -0.252 OA
BRANCH   6   8
ATOM      8  C   UNL A   1      30.939  22.752  26.186  1.00  0.00     0.163 C 
BRANCH   8   9
ATOM      9  C   UNL A   1      31.510  22.331  24.860  1.00  0.00     0.024 A 
ATOM     10  C   UNL A   1      31.784  20.965  24.790  1.00  0.00     0.121 A 
ATOM     11  C   UNL A   1      31.885  23.074  23.728  1.00  0.00     0.135 A 
ATOM     12  N   UNL A   1      32.299  20.338  23.729  1.00  0.00    -0.244 NA
ATOM     13  N   UNL A   1      32.401  22.460  22.643  1.00  0.00    -0.219 NA
ATOM     14  C   UNL A   1      32.565  21.129  22.694  1.00  0.00     0.224 A 
BRANCH  11  15
ATOM     15  N   UNL A   1      31.760  24.467  23.620  1.00  0.00    -0.356 N 
ATOM     16  C   UNL A   1      30.389  24.954  23.846  1.00  0.00     0.121 C 
ATOM     17  C   UNL A   1      32.280  25.057  22.367  1.00  0.00     0.121 C 
ATOM     18  C   UNL A   1      30.438  26.445  24.194  1.00  0.00     0.060 C 
ATOM     19  C   UNL A   1      32.415  26.588  22.507  1.00  0.00     0.060 C 
ATOM     20  C   UNL A   1      31.242  27.339  23.206  1.00  0.00     0.097 C 
ATOM     21  O   UNL A   1      30.408  27.785  22.109  1.00  0.00    -0.372 OA
ATOM     22  C   UNL A   1      31.797  28.590  23.994  1.00  0.00     0.146 C 
ATOM     23  C   UNL A   1      29.417  28.773  22.393  1.00  0.00     0.161 C 
ATOM     24  C   UNL A   1      30.681  29.546  24.403  1.00  0.00     0.037 C 
ATOM     25  C   UNL A   1      29.923  29.984  23.163  1.00  0.00     0.031 C 
BRANCH  22  26
ATOM     26  O   UNL A   1      32.731  29.351  23.218  1.00  0.00    -0.390 OA
ATOM     27  H   UNL A   1      32.789  28.979  22.325  1.00  0.00     0.211 HD
ENDBRANCH  22  26
ENDBRANCH  11  15
ENDBRANCH   8   9
ENDBRANCH   6   8
ENDBRANCH   5   6
ENDBRANCH   4   5
ENDBRANCH   3   4
ENDBRANCH   2   3
ENDBRANCH   1   2
BRANCH   1  28
ATOM     28  C   UNL A   1      36.724  22.640  24.713  1.00  0.00     0.188 C 
BRANCH  28  29
ATOM     29  O   UNL A   1      38.134  22.469  24.910  1.00  0.00    -0.376 OA
BRANCH  29  30
ATOM     30  C   UNL A   1      38.562  22.451  26.265  1.00  0.00     0.202 C 
BRANCH  30  31
ATOM     31  C   UNL A   1      39.752  23.368  26.582  1.00  0.00     0.261 C 
BRANCH  31  32
ATOM     32  O   UNL A   1      39.493  24.770  26.485  1.00  0.00    -0.460 OA
BRANCH  32  33
ATOM     33  C   UNL A   1      40.547  25.592  26.696  1.00  0.00     0.338 C 
ATOM     34  O   UNL A   1      41.553  25.670  26.029  1.00  0.00    -0.246 OA
BRANCH  33  35
ATOM     35  C   UNL A   1      40.160  26.529  27.772  1.00  0.00     0.060 A 
ATOM     36  C   UNL A   1      40.680  27.828  27.735  1.00  0.00     0.016 A 
ATOM     37  C   UNL A   1      39.264  26.142  28.775  1.00  0.00     0.016 A 
ATOM     38  C   UNL A   1      40.275  28.761  28.682  1.00  0.00     0.010 A 
ATOM     39  C   UNL A   1      38.929  27.050  29.778  1.00  0.00     0.010 A 
ATOM     40  C   UNL A   1      39.464  28.348  29.747  1.00  0.00    -0.014 A 
BRANCH  40  41
ATOM     41  C   UNL A   1      39.548  29.137  30.991  1.00  0.00     0.031 A 
ATOM     42  C   UNL A   1      40.733  28.845  31.872  1.00  0.00     0.074 A 
ATOM     43  C   UNL A   1      38.666  30.103  31.291  1.00  0.00     0.049 A 
ATOM     44  N   UNL A   1      41.126  29.441  32.965  1.00  0.00    -0.248 NA
ATOM     45  C   UNL A   1      41.608  27.734  31.446  1.00  0.00     0.031 C 
ATOM     46  C   UNL A   1      37.518  30.495  30.475  1.00  0.00     0.029 A 
ATOM     47  N   UNL A   1      38.615  30.942  32.373  1.00  0.00    -0.354 N 
ATOM     48  C   UNL A   1      42.291  28.783  33.344  1.00  0.00     0.074 A 
ATOM     49  C   UNL A   1      42.534  27.733  32.388  1.00  0.00     0.031 C 
ATOM     50  C   UNL A   1      36.874  31.505  31.089  1.00  0.00     0.029 A 
ATOM     51  C   UNL A   1      37.554  31.813  32.347  1.00  0.00     0.049 A 
ATOM     52  H   UNL A   1      39.278  30.923  33.101  1.00  0.00     0.167 HD
ATOM     53  C   UNL A   1      43.090  29.032  34.405  1.00  0.00     0.031 A 
ATOM     54  C   UNL A   1      37.185  32.747  33.245  1.00  0.00     0.031 A 
ATOM     55  C   UNL A   1      42.801  30.041  35.382  1.00  0.00     0.049 A 
ATOM     56  C   UNL A   1      38.045  32.948  34.469  1.00  0.00     0.074 A 
ATOM     57  C   UNL A   1      43.524  30.380  36.509  1.00  0.00     0.029 A 
ATOM     58  N   UNL A   1      41.682  30.861  35.353  1.00  0.00    -0.354 N 
ATOM     59  N   UNL A   1      39.162  32.343  34.806  1.00  0.00    -0.248 NA
ATOM     60  C   UNL A   1      37.605  33.973  35.425  1.00  0.00     0.031 C 
ATOM     61  C   UNL A   1      42.804  31.361  37.200  1.00  0.00     0.029 A 
ATOM     62  C   UNL A   1      41.679  31.690  36.459  1.00  0.00     0.049 A 
ATOM     63  H   UNL A   1      40.993  30.853  34.650  1.00  0.00     0.167 HD
ATOM     64  C   UNL A   1      39.582  32.946  35.987  1.00  0.00     0.074 A 
ATOM     65  C   UNL A   1      38.600  33.966  36.302  1.00  0.00     0.031 C 
ATOM     66  C   UNL A   1      40.684  32.694  36.740  1.00  0.00     0.031 A 
BRANCH  53  67
ATOM     67  C   UNL A   1      44.290  28.143  34.586  1.00  0.00    -0.014 A 
ATOM     68  C   UNL A   1      44.185  26.878  35.197  1.00  0.00     0.010 A 
ATOM     69  C   UNL A   1      45.550  28.590  34.151  1.00  0.00     0.010 A 
ATOM     70  C   UNL A   1      45.325  26.097  35.403  1.00  0.00     0.020 A 
ATOM     71  C   UNL A   1      46.686  27.798  34.326  1.00  0.00     0.020 A 
ATOM     72  C   UNL A   1      46.569  26.563  34.967  1.00  0.00     0.054 A 
BRANCH  72  73
ATOM     73  S   UNL A   1      48.029  25.520  35.227  1.00  0.00     0.124 S 
ATOM     74  O   UNL A   1      48.971  26.462  35.826  1.00  0.00    -0.237 OA
ATOM     75  O   UNL A   1      47.524  24.481  36.122  1.00  0.00    -0.237 OA
ATOM     76  O   UNL A   1      48.375  25.066  33.883  1.00  0.00    -0.744 OA
ENDBRANCH  72  73
ENDBRANCH  53  67
BRANCH  54  77
ATOM     77  C   UNL A   1      35.960  33.565  33.022  1.00  0.00    -0.014 A 
ATOM     78  C   UNL A   1      34.707  33.130  33.491  1.00  0.00     0.010 A 
ATOM     79  C   UNL A   1      36.039  34.788  32.330  1.00  0.00     0.010 A 
ATOM     80  C   UNL A   1      33.557  33.892  33.256  1.00  0.00     0.020 A 
ATOM     81  C   UNL A   1      34.896  35.566  32.117  1.00  0.00     0.020 A 
ATOM     82  C   UNL A   1      33.660  35.106  32.574  1.00  0.00     0.054 A 
BRANCH  82  83
ATOM     83  S   UNL A   1      32.160  36.099  32.323  1.00  0.00     0.124 S 
ATOM     84  O   UNL A   1      32.309  36.530  30.937  1.00  0.00    -0.237 OA
ATOM     85  O   UNL A   1      31.097  35.128  32.574  1.00  0.00    -0.237 OA
ATOM     86  O   UNL A   1      32.278  37.156  33.324  1.00  0.00    -0.744 OA
ENDBRANCH  82  83
ENDBRANCH  54  77
BRANCH  66  87
ATOM     87  C   UNL A   1      40.920  33.577  37.937  1.00  0.00    -0.014 A 
ATOM     88  C   UNL A   1      41.666  34.765  37.847  1.00  0.00     0.010 A 
ATOM     89  C   UNL A   1      40.336  33.224  39.169  1.00  0.00     0.010 A 
ATOM     90  C   UNL A   1      41.868  35.556  38.981  1.00  0.00     0.020 A 
ATOM     91  C   UNL A   1      40.504  34.032  40.294  1.00  0.00     0.020 A 
ATOM     92  C   UNL A   1      41.288  35.182  40.197  1.00  0.00     0.054 A 
BRANCH  92  93
ATOM     93  S   UNL A   1      41.552  36.231  41.651  1.00  0.00     0.124 S 
ATOM     94  O   UNL A   1      40.613  37.324  41.410  1.00  0.00    -0.237 OA
ATOM     95  O   UNL A   1      41.209  35.339  42.756  1.00  0.00    -0.237 OA
ATOM     96  O   UNL A   1      42.965  36.594  41.566  1.00  0.00    -0.744 OA
ENDBRANCH  92  93
ENDBRANCH  66  87
ENDBRANCH  40  41
ENDBRANCH  33  35
ENDBRANCH  32  33
ENDBRANCH  31  32
ENDBRANCH  30  31
ENDBRANCH  29  30
ENDBRANCH  28  29
ENDBRANCH   1  28
TORSDOF 23
ENDMDL
MODEL 2
REMARK VINA RESULT:      -9.8      6.069      8.024
REMARK SMILES O=C(Cc1cncnc1N1CCC2(CC1)OCCC[C@@H]2O)OCCOCCOCCOC(=O)c1ccc(-c2c3nc(c(-c4ccc(S(=O)(=O)[O-])cc4)c4ccc([nH]4)c(-c4ccc(S(=O)(=O)[O-])cc4)c4nc(c(-c5ccc(S(=O)(=O)[O-])cc5)c5ccc2[nH]5)C=C4)C=C3)cc1
REMARK SMILES IDX 26 1 25 2 24 3 23 4 22 5 2 6 1 7 3 8 4 9 5 10 9 11 6 12 8 13
REMARK SMILES IDX 7 14 10 15 11 16 15 17 12 18 14 19 13 20 16 21 20 22 17 23
REMARK SMILES IDX 19 24 18 25 21 26 27 28 28 29 29 30 30 31 31 32 32 33 33 34
REMARK SMILES IDX 34 35 35 36 93 37 36 38 92 39 37 40 38 41 39 42 86 43 40 44
REMARK SMILES IDX 91 45 85 46 87 47 41 48 90 49 84 50 83 51 42 53 72 54 53 55
REMARK SMILES IDX 71 56 54 57 57 58 70 59 88 60 55 61 56 62 69 64 89 65 58 66
REMARK SMILES IDX 43 67 44 68 52 69 45 70 51 71 46 72 47 73 48 74 49 75 50 76
REMARK SMILES IDX 73 77 74 78 82 79 75 80 81 81 76 82 77 83 78 84 79 85 80 86
REMARK SMILES IDX 59 87 60 88 68 89 61 90 67 91 62 92 63 93 64 94 65 95 66 96
REMARK H PARENT 21 27 87 52 57 63
REMARK Flexibility Score: inf
ROOT
ATOM      1  C   UNL A   1      36.107  21.910  24.647  1.00  0.00     0.188 C 
ENDROOT
BRANCH   1   2
ATOM      2  O   UNL A   1      34.823  22.020  25.244  1.00  0.00    -0.376 OA
BRANCH   2   3
ATOM      3  C   UNL A   1      34.770  22.856  26.391  1.00  0.00     0.202 C 
BRANCH   3   4
ATOM      4  C   UNL A   1      33.889  22.320  27.531  1.00  0.00     0.261 C 
BRANCH   4   5
ATOM      5  O   UNL A   1      32.494  22.159  27.282  1.00  0.00    -0.463 OA
BRANCH   5   6
ATOM      6  C   UNL A   1      31.805  23.225  26.826  1.00  0.00     0.310 C 
ATOM      7  O   UNL A   1      31.652  24.222  27.523  1.00  0.00    -0.252 OA
BRANCH   6   8
ATOM      8  C   UNL A   1      31.062  22.999  25.550  1.00  0.00     0.163 C 
BRANCH   8   9
ATOM      9  C   UNL A   1      31.805  23.117  24.247  1.00  0.00     0.024 A 
ATOM     10  C   UNL A   1      31.884  21.912  23.550  1.00  0.00     0.121 A 
ATOM     11  C   UNL A   1      32.490  24.193  23.659  1.00  0.00     0.135 A 
ATOM     12  N   UNL A   1      32.492  21.744  22.372  1.00  0.00    -0.244 NA
ATOM     13  N   UNL A   1      33.106  24.046  22.467  1.00  0.00    -0.219 NA
ATOM     14  C   UNL A   1      33.061  22.840  21.882  1.00  0.00     0.224 A 
BRANCH  11  15
ATOM     15  N   UNL A   1      32.594  25.471  24.228  1.00  0.00    -0.356 N 
ATOM     16  C   UNL A   1      31.291  26.096  24.508  1.00  0.00     0.121 C 
ATOM     17  C   UNL A   1      33.440  26.431  23.487  1.00  0.00     0.121 C 
ATOM     18  C   UNL A   1      31.481  27.213  25.539  1.00  0.00     0.060 C 
ATOM     19  C   UNL A   1      33.763  27.657  24.368  1.00  0.00     0.060 C 
ATOM     20  C   UNL A   1      32.593  28.252  25.207  1.00  0.00     0.097 C 
ATOM     21  O   UNL A   1      32.075  29.322  24.380  1.00  0.00    -0.372 OA
ATOM     22  C   UNL A   1      33.148  28.846  26.560  1.00  0.00     0.146 C 
ATOM     23  C   UNL A   1      31.201  30.267  24.996  1.00  0.00     0.161 C 
ATOM     24  C   UNL A   1      32.122  29.736  27.256  1.00  0.00     0.037 C 
ATOM     25  C   UNL A   1      31.707  30.848  26.309  1.00  0.00     0.031 C 
BRANCH  22  26
ATOM     26  O   UNL A   1      34.322  29.644  26.363  1.00  0.00    -0.390 OA
ATOM     27  H   UNL A   1      34.302  30.034  25.475  1.00  0.00     0.211 HD
ENDBRANCH  22  26
ENDBRANCH  11  15
ENDBRANCH   8   9
ENDBRANCH   6   8
ENDBRANCH   5   6
ENDBRANCH   4   5
ENDBRANCH   3   4
ENDBRANCH   2   3
ENDBRANCH   1   2
BRANCH   1  28
ATOM     28  C   UNL A   1      37.260  22.722  25.279  1.00  0.00     0.188 C 
BRANCH  28  29
ATOM     29  O   UNL A   1      38.521  22.041  25.303  1.00  0.00    -0.376 OA
BRANCH  29  30
ATOM     30  C   UNL A   1      39.390  22.403  26.368  1.00  0.00     0.202 C 
BRANCH  30  31
ATOM     31  C   UNL A   1      40.225  21.250  26.945  1.00  0.00     0.261 C 
BRANCH  31  32
ATOM     32  O   UNL A   1      40.610  20.241  26.011  1.00  0.00    -0.460 OA
BRANCH  32  33
ATOM     33  C   UNL A   1      41.922  19.906  25.994  1.00  0.00     0.338 C 
ATOM     34  O   UNL A   1      42.396  18.838  25.684  1.00  0.00    -0.246 OA
BRANCH  33  35
ATOM     35  C   UNL A   1      42.690  21.148  26.224  1.00  0.00     0.060 A 
ATOM     36  C   UNL A   1      43.014  21.491  27.542  1.00  0.00     0.016 A 
ATOM     37  C   UNL A   1      43.121  21.937  25.151  1.00  0.00     0.016 A 
ATOM     38  C   UNL A   1      43.804  22.606  27.792  1.00  0.00     0.010 A 
ATOM     39  C   UNL A   1      43.836  23.105  25.406  1.00  0.00     0.010 A 
ATOM     40  C   UNL A   1      44.146  23.455  26.731  1.00  0.00    -0.014 A 
BRANCH  40  41
ATOM     41  C   UNL A   1      44.433  24.862  27.071  1.00  0.00     0.031 A 
ATOM     42  C   UNL A   1      45.863  25.298  26.896  1.00  0.00     0.074 A 
ATOM     43  C   UNL A   1      43.473  25.720  27.448  1.00  0.00     0.049 A 
ATOM     44  N   UNL A   1      46.392  26.485  27.017  1.00  0.00    -0.248 NA
ATOM     45  C   UNL A   1      46.827  24.247  26.512  1.00  0.00     0.031 C 
ATOM     46  C   UNL A   1      42.053  25.404  27.592  1.00  0.00     0.029 A 
ATOM     47  N   UNL A   1      43.558  27.051  27.764  1.00  0.00    -0.354 N 
ATOM     48  C   UNL A   1      47.739  26.321  26.715  1.00  0.00     0.074 A 
ATOM     49  C   UNL A   1      47.957  24.925  26.429  1.00  0.00     0.031 C 
ATOM     50  C   UNL A   1      41.397  26.517  27.971  1.00  0.00     0.029 A 
ATOM     51  C   UNL A   1      42.355  27.613  28.112  1.00  0.00     0.049 A 
ATOM     52  H   UNL A   1      44.403  27.556  27.743  1.00  0.00     0.167 HD
ATOM     53  C   UNL A   1      48.715  27.255  26.684  1.00  0.00     0.031 A 
ATOM     54  C   UNL A   1      42.075  28.873  28.500  1.00  0.00     0.031 A 
ATOM     55  C   UNL A   1      48.494  28.628  27.030  1.00  0.00     0.049 A 
ATOM     56  C   UNL A   1      43.198  29.880  28.542  1.00  0.00     0.074 A 
ATOM     57  C   UNL A   1      49.403  29.668  27.052  1.00  0.00     0.029 A 
ATOM     58  N   UNL A   1      47.273  29.146  27.438  1.00  0.00    -0.354 N 
ATOM     59  N   UNL A   1      44.463  29.724  28.227  1.00  0.00    -0.248 NA
ATOM     60  C   UNL A   1      42.850  31.240  28.975  1.00  0.00     0.031 C 
ATOM     61  C   UNL A   1      48.745  30.801  27.540  1.00  0.00     0.029 A 
ATOM     62  C   UNL A   1      47.409  30.487  27.741  1.00  0.00     0.049 A 
ATOM     63  H   UNL A   1      46.435  28.634  27.502  1.00  0.00     0.167 HD
ATOM     64  C   UNL A   1      45.052  30.975  28.377  1.00  0.00     0.074 A 
ATOM     65  C   UNL A   1      44.001  31.877  28.808  1.00  0.00     0.031 C 
ATOM     66  C   UNL A   1      46.339  31.354  28.168  1.00  0.00     0.031 A 
BRANCH  53  67
ATOM     67  C   UNL A   1      50.103  26.788  26.338  1.00  0.00    -0.014 A 
ATOM     68  C   UNL A   1      50.610  26.892  25.028  1.00  0.00     0.010 A 
ATOM     69  C   UNL A   1      50.908  26.220  27.340  1.00  0.00     0.010 A 
ATOM     70  C   UNL A   1      51.881  26.399  24.723  1.00  0.00     0.020 A 
ATOM     71  C   UNL A   1      52.192  25.757  27.046  1.00  0.00     0.020 A 
ATOM     72  C   UNL A   1      52.664  25.833  25.734  1.00  0.00     0.054 A 
BRANCH  72  73
ATOM     73  S   UNL A   1      54.318  25.222  25.315  1.00  0.00     0.124 S 
ATOM     74  O   UNL A   1      54.670  26.062  24.172  1.00  0.00    -0.237 OA
ATOM     75  O   UNL A   1      55.073  25.478  26.539  1.00  0.00    -0.237 OA
ATOM     76  O   UNL A   1      54.099  23.811  25.005  1.00  0.00    -0.744 OA
ENDBRANCH  72  73
ENDBRANCH  53  67
BRANCH  54  77
ATOM     77  C   UNL A   1      40.682  29.256  28.867  1.00  0.00    -0.014 A 
ATOM     78  C   UNL A   1      40.286  29.327  30.215  1.00  0.00     0.010 A 
ATOM     79  C   UNL A   1      39.738  29.547  27.865  1.00  0.00     0.010 A 
ATOM     80  C   UNL A   1      38.969  29.663  30.552  1.00  0.00     0.020 A 
ATOM     81  C   UNL A   1      38.429  29.911  28.198  1.00  0.00     0.020 A 
ATOM     82  C   UNL A   1      38.051  29.957  29.541  1.00  0.00     0.054 A 
BRANCH  82  83
ATOM     83  S   UNL A   1      36.363  30.436  30.005  1.00  0.00     0.124 S 
ATOM     84  O   UNL A   1      35.563  29.744  29.000  1.00  0.00    -0.237 OA
ATOM     85  O   UNL A   1      36.254  29.920  31.367  1.00  0.00    -0.237 OA
ATOM     86  O   UNL A   1      36.379  31.892  29.897  1.00  0.00    -0.744 OA
ENDBRANCH  82  83
ENDBRANCH  54  77
BRANCH  66  87
ATOM     87  C   UNL A   1      46.667  32.815  28.336  1.00  0.00    -0.014 A 
ATOM     88  C   UNL A   1      46.495  33.738  27.291  1.00  0.00     0.010 A 
ATOM     89  C   UNL A   1      47.111  33.272  29.591  1.00  0.00     0.010 A 
ATOM     90  C   UNL A   1      46.814  35.085  27.484  1.00  0.00     0.020 A 
ATOM     91  C   UNL A   1      47.395  34.622  29.798  1.00  0.00     0.020 A 
ATOM     92  C   UNL A   1      47.265  35.517  28.735  1.00  0.00     0.054 A 
BRANCH  92  93
ATOM     93  S   UNL A   1      47.659  37.271  28.965  1.00  0.00     0.124 S 
ATOM     94  O   UNL A   1      46.330  37.873  29.037  1.00  0.00    -0.237 OA
ATOM     95  O   UNL A   1      48.416  37.268  30.214  1.00  0.00    -0.237 OA
ATOM     96  O   UNL A   1      48.433  37.613  27.774  1.00  0.00    -0.744 OA
ENDBRANCH  92  93
ENDBRANCH  66  87
ENDBRANCH  40  41
ENDBRANCH  33  35
ENDBRANCH  32  33
ENDBRANCH  31  32
ENDBRANCH  30  31
ENDBRANCH  29  30
ENDBRANCH  28  29
ENDBRANCH   1  28
TORSDOF 23
ENDMDL
MODEL 3
REMARK VINA RESULT:      -9.8      6.370      8.400
REMARK SMILES O=C(Cc1cncnc1N1CCC2(CC1)OCCC[C@@H]2O)OCCOCCOCCOC(=O)c1ccc(-c2c3nc(c(-c4ccc(S(=O)(=O)[O-])cc4)c4ccc([nH]4)c(-c4ccc(S(=O)(=O)[O-])cc4)c4nc(c(-c5ccc(S(=O)(=O)[O-])cc5)c5ccc2[nH]5)C=C4)C=C3)cc1
REMARK SMILES IDX 26 1 25 2 24 3 23 4 22 5 2 6 1 7 3 8 4 9 5 10 9 11 6 12 8 13
REMARK SMILES IDX 7 14 10 15 11 16 15 17 12 18 14 19 13 20 16 21 20 22 17 23
REMARK SMILES IDX 19 24 18 25 21 26 27 28 28 29 29 30 30 31 31 32 32 33 33 34
REMARK SMILES IDX 34 35 35 36 93 37 36 38 92 39 37 40 38 41 39 42 86 43 40 44
REMARK SMILES IDX 91 45 85 46 87 47 41 48 90 49 84 50 83 51 42 53 72 54 53 55
REMARK SMILES IDX 71 56 54 57 57 58 70 59 88 60 55 61 56 62 69 64 89 65 58 66
REMARK SMILES IDX 43 67 44 68 52 69 45 70 51 71 46 72 47 73 48 74 49 75 50 76
REMARK SMILES IDX 73 77 74 78 82 79 75 80 81 81 76 82 77 83 78 84 79 85 80 86
REMARK SMILES IDX 59 87 60 88 68 89 61 90 67 91 62 92 63 93 64 94 65 95 66 96
REMARK H PARENT 21 27 87 52 57 63
REMARK Flexibility Score: inf
ROOT
ATOM      1  C   UNL A   1      36.645  21.296  25.078  1.00  0.00     0.188 C 
ENDROOT
BRANCH   1   2
ATOM      2  O   UNL A   1      36.303  22.674  25.107  1.00  0.00    -0.376 OA
BRANCH   2   3
ATOM      3  C   UNL A   1      36.490  23.359  23.876  1.00  0.00     0.202 C 
BRANCH   3   4
ATOM      4  C   UNL A   1      35.209  23.964  23.281  1.00  0.00     0.261 C 
BRANCH   4   5
ATOM      5  O   UNL A   1      34.590  23.284  22.190  1.00  0.00    -0.463 OA
BRANCH   5   6
ATOM      6  C   UNL A   1      33.246  23.342  22.090  1.00  0.00     0.310 C 
ATOM      7  O   UNL A   1      32.682  24.375  21.746  1.00  0.00    -0.252 OA
BRANCH   6   8
ATOM      8  C   UNL A   1      32.519  22.164  22.652  1.00  0.00     0.163 C 
BRANCH   8   9
ATOM      9  C   UNL A   1      32.763  21.776  24.085  1.00  0.00     0.024 A 
ATOM     10  C   UNL A   1      33.029  20.417  24.247  1.00  0.00     0.121 A 
ATOM     11  C   UNL A   1      32.690  22.517  25.276  1.00  0.00     0.135 A 
ATOM     12  N   UNL A   1      33.273  19.816  25.415  1.00  0.00    -0.244 NA
ATOM     13  N   UNL A   1      32.939  21.931  26.465  1.00  0.00    -0.219 NA
ATOM     14  C   UNL A   1      33.233  20.621  26.471  1.00  0.00     0.224 A 
BRANCH  11  15
ATOM     15  N   UNL A   1      32.367  23.880  25.341  1.00  0.00    -0.356 N 
ATOM     16  C   UNL A   1      33.194  24.634  26.299  1.00  0.00     0.121 C 
ATOM     17  C   UNL A   1      30.942  24.186  25.590  1.00  0.00     0.121 C 
ATOM     18  C   UNL A   1      33.125  26.125  25.956  1.00  0.00     0.060 C 
ATOM     19  C   UNL A   1      30.649  25.672  25.291  1.00  0.00     0.060 C 
ATOM     20  C   UNL A   1      31.692  26.713  25.799  1.00  0.00     0.097 C 
ATOM     21  O   UNL A   1      31.163  27.145  27.076  1.00  0.00    -0.372 OA
ATOM     22  C   UNL A   1      31.755  27.939  24.807  1.00  0.00     0.146 C 
ATOM     23  C   UNL A   1      31.719  28.326  27.654  1.00  0.00     0.161 C 
ATOM     24  C   UNL A   1      32.488  29.130  25.418  1.00  0.00     0.037 C 
ATOM     25  C   UNL A   1      31.803  29.521  26.715  1.00  0.00     0.031 C 
BRANCH  22  26
ATOM     26  O   UNL A   1      30.452  28.404  24.432  1.00  0.00    -0.390 OA
ATOM     27  H   UNL A   1      30.027  27.746  23.859  1.00  0.00     0.211 HD
ENDBRANCH  22  26
ENDBRANCH  11  15
ENDBRANCH   8   9
ENDBRANCH   6   8
ENDBRANCH   5   6
ENDBRANCH   4   5
ENDBRANCH   3   4
ENDBRANCH   2   3
ENDBRANCH   1   2
BRANCH   1  28
ATOM     28  C   UNL A   1      38.114  20.918  25.372  1.00  0.00     0.188 C 
BRANCH  28  29
ATOM     29  O   UNL A   1      38.881  21.959  25.993  1.00  0.00    -0.376 OA
BRANCH  29  30
ATOM     30  C   UNL A   1      40.003  21.522  26.748  1.00  0.00     0.202 C 
BRANCH  30  31
ATOM     31  C   UNL A   1      40.530  20.128  26.380  1.00  0.00     0.261 C 
BRANCH  31  32
ATOM     32  O   UNL A   1      41.889  19.868  26.734  1.00  0.00    -0.460 OA
BRANCH  32  33
ATOM     33  C   UNL A   1      42.803  19.993  25.743  1.00  0.00     0.338 C 
ATOM     34  O   UNL A   1      42.960  19.252  24.800  1.00  0.00    -0.246 OA
BRANCH  33  35
ATOM     35  C   UNL A   1      43.444  21.315  25.906  1.00  0.00     0.060 A 
ATOM     36  C   UNL A   1      44.011  21.627  27.147  1.00  0.00     0.016 A 
ATOM     37  C   UNL A   1      43.520  22.215  24.837  1.00  0.00     0.016 A 
ATOM     38  C   UNL A   1      44.693  22.826  27.314  1.00  0.00     0.010 A 
ATOM     39  C   UNL A   1      44.124  23.456  25.030  1.00  0.00     0.010 A 
ATOM     40  C   UNL A   1      44.679  23.771  26.281  1.00  0.00    -0.014 A 
BRANCH  40  41
ATOM     41  C   UNL A   1      44.858  25.183  26.670  1.00  0.00     0.031 A 
ATOM     42  C   UNL A   1      46.249  25.735  26.507  1.00  0.00     0.074 A 
ATOM     43  C   UNL A   1      43.837  25.952  27.079  1.00  0.00     0.049 A 
ATOM     44  N   UNL A   1      46.686  26.954  26.668  1.00  0.00    -0.248 NA
ATOM     45  C   UNL A   1      47.289  24.776  26.083  1.00  0.00     0.031 C 
ATOM     46  C   UNL A   1      42.445  25.522  27.216  1.00  0.00     0.029 A 
ATOM     47  N   UNL A   1      43.821  27.273  27.441  1.00  0.00    -0.354 N 
ATOM     48  C   UNL A   1      48.040  26.905  26.357  1.00  0.00     0.074 A 
ATOM     49  C   UNL A   1      48.364  25.540  26.021  1.00  0.00     0.031 C 
ATOM     50  C   UNL A   1      41.708  26.568  27.634  1.00  0.00     0.029 A 
ATOM     51  C   UNL A   1      42.579  27.729  27.812  1.00  0.00     0.049 A 
ATOM     52  H   UNL A   1      44.624  27.842  27.436  1.00  0.00     0.167 HD
ATOM     53  C   UNL A   1      48.941  27.912  26.356  1.00  0.00     0.031 A 
ATOM     54  C   UNL A   1      42.205  28.948  28.244  1.00  0.00     0.031 A 
ATOM     55  C   UNL A   1      48.617  29.251  26.751  1.00  0.00     0.049 A 
ATOM     56  C   UNL A   1      43.248  30.037  28.320  1.00  0.00     0.074 A 
ATOM     57  C   UNL A   1      49.443  30.357  26.808  1.00  0.00     0.029 A 
ATOM     58  N   UNL A   1      47.361  29.659  27.180  1.00  0.00    -0.354 N 
ATOM     59  N   UNL A   1      44.520  29.990  27.996  1.00  0.00    -0.248 NA
ATOM     60  C   UNL A   1      42.798  31.350  28.801  1.00  0.00     0.031 C 
ATOM     61  C   UNL A   1      48.702  31.418  27.337  1.00  0.00     0.029 A 
ATOM     62  C   UNL A   1      47.395  30.995  27.529  1.00  0.00     0.049 A 
ATOM     63  H   UNL A   1      46.565  29.081  27.228  1.00  0.00     0.167 HD
ATOM     64  C   UNL A   1      45.011  31.278  28.188  1.00  0.00     0.074 A 
ATOM     65  C   UNL A   1      43.896  32.080  28.653  1.00  0.00     0.031 C 
ATOM     66  C   UNL A   1      46.264  31.761  27.989  1.00  0.00     0.031 A 
BRANCH  53  67
ATOM     67  C   UNL A   1      50.359  27.566  25.991  1.00  0.00    -0.014 A 
ATOM     68  C   UNL A   1      50.828  27.684  24.668  1.00  0.00     0.010 A 
ATOM     69  C   UNL A   1      51.232  27.099  26.988  1.00  0.00     0.010 A 
ATOM     70  C   UNL A   1      52.134  27.302  24.346  1.00  0.00     0.020 A 
ATOM     71  C   UNL A   1      52.547  26.747  26.676  1.00  0.00     0.020 A 
ATOM     72  C   UNL A   1      52.985  26.835  25.353  1.00  0.00     0.054 A 
BRANCH  72  73
ATOM     73  S   UNL A   1      54.679  26.368  24.911  1.00  0.00     0.124 S 
ATOM     74  O   UNL A   1      54.547  24.931  24.683  1.00  0.00    -0.237 OA
ATOM     75  O   UNL A   1      54.933  27.173  23.719  1.00  0.00    -0.237 OA
ATOM     76  O   UNL A   1      55.460  26.740  26.089  1.00  0.00    -0.744 OA
ENDBRANCH  72  73
ENDBRANCH  53  67
BRANCH  54  77
ATOM     77  C   UNL A   1      40.789  29.210  28.628  1.00  0.00    -0.014 A 
ATOM     78  C   UNL A   1      40.393  29.193  29.978  1.00  0.00     0.010 A 
ATOM     79  C   UNL A   1      39.822  29.473  27.640  1.00  0.00     0.010 A 
ATOM     80  C   UNL A   1      39.056  29.414  30.329  1.00  0.00     0.020 A 
ATOM     81  C   UNL A   1      38.491  29.723  27.989  1.00  0.00     0.020 A 
ATOM     82  C   UNL A   1      38.115  29.682  29.333  1.00  0.00     0.054 A 
BRANCH  82  83
ATOM     83  S   UNL A   1      36.397  30.013  29.817  1.00  0.00     0.124 S 
ATOM     84  O   UNL A   1      36.378  31.469  29.893  1.00  0.00    -0.237 OA
ATOM     85  O   UNL A   1      35.642  29.425  28.713  1.00  0.00    -0.237 OA
ATOM     86  O   UNL A   1      36.263  29.317  31.094  1.00  0.00    -0.744 OA
ENDBRANCH  82  83
ENDBRANCH  54  77
BRANCH  66  87
ATOM     87  C   UNL A   1      46.479  33.237  28.208  1.00  0.00    -0.014 A 
ATOM     88  C   UNL A   1      46.892  33.750  29.449  1.00  0.00     0.010 A 
ATOM     89  C   UNL A   1      46.306  34.117  27.123  1.00  0.00     0.010 A 
ATOM     90  C   UNL A   1      47.076  35.125  29.615  1.00  0.00     0.020 A 
ATOM     91  C   UNL A   1      46.526  35.486  27.275  1.00  0.00     0.020 A 
ATOM     92  C   UNL A   1      46.888  35.984  28.527  1.00  0.00     0.054 A 
BRANCH  92  93
ATOM     93  S   UNL A   1      47.147  37.762  28.763  1.00  0.00     0.124 S 
ATOM     94  O   UNL A   1      48.026  38.091  27.643  1.00  0.00    -0.237 OA
ATOM     95  O   UNL A   1      45.790  38.297  28.675  1.00  0.00    -0.237 OA
ATOM     96  O   UNL A   1      47.762  37.852  30.085  1.00  0.00    -0.744 OA
ENDBRANCH  92  93
ENDBRANCH  66  87
ENDBRANCH  40  41
ENDBRANCH  33  35
ENDBRANCH  32  33
ENDBRANCH  31  32
ENDBRANCH  30  31
ENDBRANCH  29  30
ENDBRANCH  28  29
ENDBRANCH   1  28
TORSDOF 23
ENDMDL
