MODEL 1
REMARK VINA RESULT:     -10.6      0.000      0.000
REMARK SMILES COc1ccc(/C=C2/C(=O)N(c3ccccc3)C(=O)N=C2OCCOCCOCCOC(=O)c2ccc(-c3c4nc(c(-c5ccc(S(=O)(=O)[O-])cc5)c5ccc([nH]5)c(-c5ccc(S(=O)(=O)[O-])cc5)c5nc(c(-c6ccc(S(=O)(=O)[O-])cc6)c6ccc3[nH]6)C=C5)C=C4)cc2)cc1C(=O)[O-]
REMARK SMILES IDX 27 1 26 2 25 3 24 4 23 5 22 6 21 7 7 8 8 9 9 10 10 11 11 12
REMARK SMILES IDX 20 13 18 14 19 15 6 16 3 17 4 18 95 19 5 20 94 21 2 22 1 23
REMARK SMILES IDX 96 24 97 25 98 26 12 27 13 28 17 29 14 30 16 31 15 32 28 33
REMARK SMILES IDX 29 34 30 35 31 36 32 37 33 38 34 39 35 40 93 41 36 42 92 43
REMARK SMILES IDX 37 44 38 45 39 46 86 47 40 48 91 49 85 50 87 51 41 52 90 53
REMARK SMILES IDX 84 54 83 55 42 57 72 58 53 59 71 60 54 61 57 62 70 63 88 64
REMARK SMILES IDX 55 65 56 66 69 68 89 69 58 70 43 71 44 72 52 73 45 74 51 75
REMARK SMILES IDX 46 76 47 77 48 78 49 79 50 80 73 81 74 82 82 83 75 84 81 85
REMARK SMILES IDX 76 86 77 87 78 88 79 89 80 90 59 91 60 92 68 93 61 94 67 95
REMARK SMILES IDX 62 96 63 97 64 98 65 99 66 100
REMARK H PARENT 87 56 57 67
REMARK Flexibility Score: inf
ROOT
ATOM      1  C   UNL A   1      33.949  31.446  27.672  1.00  0.00     0.188 C 
ENDROOT
BRANCH   1   2
ATOM      2  C   UNL A   1      32.567  30.858  27.324  1.00  0.00     0.188 C 
BRANCH   2   3
ATOM      3  O   UNL A   1      32.166  30.673  25.981  1.00  0.00    -0.376 OA
BRANCH   3   4
ATOM      4  C   UNL A   1      32.292  29.408  25.351  1.00  0.00     0.201 C 
BRANCH   4   5
ATOM      5  C   UNL A   1      32.624  28.163  26.165  1.00  0.00     0.260 C 
BRANCH   5   6
ATOM      6  O   UNL A   1      31.824  27.028  25.780  1.00  0.00    -0.475 OA
BRANCH   6   7
ATOM      7  C   UNL A   1      32.434  25.902  25.374  1.00  0.00     0.231 C 
ATOM      8  C   UNL A   1      31.334  26.061  23.051  1.00  0.00     0.027 C 
ATOM      9  C   UNL A   1      32.017  25.428  24.044  1.00  0.00     0.103 C 
ATOM     10  C   UNL A   1      32.372  23.975  23.806  1.00  0.00     0.272 C 
ATOM     11  O   UNL A   1      32.034  23.412  22.764  1.00  0.00    -0.268 OA
ATOM     12  N   UNL A   1      33.037  23.343  24.857  1.00  0.00    -0.226 N 
ATOM     13  N   UNL A   1      33.182  25.284  26.203  1.00  0.00    -0.156 NA
ATOM     14  C   UNL A   1      33.521  23.984  25.998  1.00  0.00     0.358 C 
ATOM     15  O   UNL A   1      34.179  23.411  26.859  1.00  0.00    -0.245 OA
BRANCH   8  16
ATOM     16  C   UNL A   1      30.728  27.414  22.816  1.00  0.00    -0.024 A 
ATOM     17  C   UNL A   1      29.447  29.956  22.494  1.00  0.00     0.127 A 
ATOM     18  C   UNL A   1      30.715  29.719  21.983  1.00  0.00     0.048 A 
ATOM     19  C   UNL A   1      28.758  28.901  23.100  1.00  0.00     0.040 A 
ATOM     20  C   UNL A   1      31.309  28.456  22.094  1.00  0.00     0.012 A 
ATOM     21  C   UNL A   1      29.426  27.664  23.303  1.00  0.00     0.022 A 
BRANCH  17  22
ATOM     22  O   UNL A   1      28.928  31.192  22.226  1.00  0.00    -0.496 OA
ATOM     23  C   UNL A   1      28.641  31.383  20.841  1.00  0.00     0.278 C 
ENDBRANCH  17  22
BRANCH  19  24
ATOM     24  C   UNL A   1      27.322  28.958  23.470  1.00  0.00     0.075 C 
ATOM     25  O   UNL A   1      26.581  27.993  23.573  1.00  0.00    -0.545 OA
ATOM     26  O   UNL A   1      26.831  30.202  23.594  1.00  0.00    -0.545 OA
ENDBRANCH  19  24
ENDBRANCH   8  16
BRANCH  12  27
ATOM     27  C   UNL A   1      33.259  21.939  24.789  1.00  0.00     0.054 A 
ATOM     28  C   UNL A   1      32.200  21.058  25.048  1.00  0.00     0.027 A 
ATOM     29  C   UNL A   1      34.550  21.439  24.604  1.00  0.00     0.027 A 
ATOM     30  C   UNL A   1      32.432  19.683  25.099  1.00  0.00     0.002 A 
ATOM     31  C   UNL A   1      34.781  20.065  24.703  1.00  0.00     0.002 A 
ATOM     32  C   UNL A   1      33.725  19.188  24.949  1.00  0.00     0.000 A 
ENDBRANCH  12  27
ENDBRANCH   6   7
ENDBRANCH   5   6
ENDBRANCH   4   5
ENDBRANCH   3   4
ENDBRANCH   2   3
ENDBRANCH   1   2
BRANCH   1  33
ATOM     33  O   UNL A   1      34.062  32.596  28.480  1.00  0.00    -0.376 OA
BRANCH  33  34
ATOM     34  C   UNL A   1      33.611  33.848  27.994  1.00  0.00     0.202 C 
BRANCH  34  35
ATOM     35  C   UNL A   1      33.335  35.053  28.907  1.00  0.00     0.261 C 
BRANCH  35  36
ATOM     36  O   UNL A   1      32.611  34.786  30.115  1.00  0.00    -0.460 OA
BRANCH  36  37
ATOM     37  C   UNL A   1      33.034  35.471  31.211  1.00  0.00     0.338 C 
ATOM     38  O   UNL A   1      32.494  36.441  31.715  1.00  0.00    -0.246 OA
BRANCH  37  39
ATOM     39  C   UNL A   1      34.152  34.749  31.859  1.00  0.00     0.060 A 
ATOM     40  C   UNL A   1      35.275  35.493  32.248  1.00  0.00     0.016 A 
ATOM     41  C   UNL A   1      34.115  33.368  32.071  1.00  0.00     0.016 A 
ATOM     42  C   UNL A   1      36.377  34.851  32.815  1.00  0.00     0.010 A 
ATOM     43  C   UNL A   1      35.232  32.722  32.620  1.00  0.00     0.010 A 
ATOM     44  C   UNL A   1      36.379  33.456  32.969  1.00  0.00    -0.014 A 
BRANCH  44  45
ATOM     45  C   UNL A   1      37.656  32.773  33.305  1.00  0.00     0.031 A 
ATOM     46  C   UNL A   1      38.298  33.072  34.632  1.00  0.00     0.074 A 
ATOM     47  C   UNL A   1      38.216  31.869  32.482  1.00  0.00     0.049 A 
ATOM     48  N   UNL A   1      39.347  32.528  35.192  1.00  0.00    -0.248 NA
ATOM     49  C   UNL A   1      37.677  34.144  35.425  1.00  0.00     0.031 C 
ATOM     50  C   UNL A   1      37.706  31.497  31.165  1.00  0.00     0.029 A 
ATOM     51  N   UNL A   1      39.316  31.063  32.658  1.00  0.00    -0.354 N 
ATOM     52  C   UNL A   1      39.535  33.213  36.387  1.00  0.00     0.074 A 
ATOM     53  C   UNL A   1      38.488  34.210  36.469  1.00  0.00     0.031 C 
ATOM     54  C   UNL A   1      38.448  30.482  30.683  1.00  0.00     0.029 A 
ATOM     55  C   UNL A   1      39.510  30.161  31.637  1.00  0.00     0.049 A 
ATOM     56  H   UNL A   1      39.909  31.125  33.441  1.00  0.00     0.167 HD
ATOM     57  C   UNL A   1      40.503  33.048  37.320  1.00  0.00     0.031 A 
ATOM     58  C   UNL A   1      40.426  29.178  31.498  1.00  0.00     0.031 A 
ATOM     59  C   UNL A   1      41.573  32.091  37.218  1.00  0.00     0.049 A 
ATOM     60  C   UNL A   1      41.472  28.982  32.570  1.00  0.00     0.074 A 
ATOM     61  C   UNL A   1      42.617  31.870  38.099  1.00  0.00     0.029 A 
ATOM     62  N   UNL A   1      41.746  31.205  36.165  1.00  0.00    -0.354 N 
ATOM     63  N   UNL A   1      41.622  29.620  33.708  1.00  0.00    -0.248 NA
ATOM     64  C   UNL A   1      42.480  27.937  32.333  1.00  0.00     0.031 C 
ATOM     65  C   UNL A   1      43.455  30.892  37.549  1.00  0.00     0.029 A 
ATOM     66  C   UNL A   1      42.892  30.451  36.362  1.00  0.00     0.049 A 
ATOM     67  H   UNL A   1      41.143  31.125  35.390  1.00  0.00     0.167 HD
ATOM     68  C   UNL A   1      42.746  29.062  34.313  1.00  0.00     0.074 A 
ATOM     69  C   UNL A   1      43.204  28.000  33.442  1.00  0.00     0.031 C 
ATOM     70  C   UNL A   1      43.356  29.410  35.476  1.00  0.00     0.031 A 
BRANCH  57  71
ATOM     71  C   UNL A   1      40.485  33.998  38.492  1.00  0.00    -0.014 A 
ATOM     72  C   UNL A   1      39.790  33.695  39.676  1.00  0.00     0.010 A 
ATOM     73  C   UNL A   1      41.156  35.230  38.388  1.00  0.00     0.010 A 
ATOM     74  C   UNL A   1      39.711  34.634  40.709  1.00  0.00     0.020 A 
ATOM     75  C   UNL A   1      41.109  36.158  39.432  1.00  0.00     0.020 A 
ATOM     76  C   UNL A   1      40.363  35.864  40.574  1.00  0.00     0.054 A 
BRANCH  76  77
ATOM     77  S   UNL A   1      40.224  37.077  41.916  1.00  0.00     0.124 S 
ATOM     78  O   UNL A   1      41.585  37.600  41.991  1.00  0.00    -0.237 OA
ATOM     79  O   UNL A   1      39.221  38.007  41.404  1.00  0.00    -0.237 OA
ATOM     80  O   UNL A   1      39.800  36.278  43.063  1.00  0.00    -0.744 OA
ENDBRANCH  76  77
ENDBRANCH  57  71
BRANCH  58  81
ATOM     81  C   UNL A   1      40.396  28.292  30.296  1.00  0.00    -0.014 A 
ATOM     82  C   UNL A   1      41.322  28.464  29.251  1.00  0.00     0.010 A 
ATOM     83  C   UNL A   1      39.444  27.262  30.191  1.00  0.00     0.010 A 
ATOM     84  C   UNL A   1      41.293  27.631  28.126  1.00  0.00     0.020 A 
ATOM     85  C   UNL A   1      39.433  26.404  29.086  1.00  0.00     0.020 A 
ATOM     86  C   UNL A   1      40.353  26.599  28.056  1.00  0.00     0.054 A 
BRANCH  86  87
ATOM     87  S   UNL A   1      40.380  25.481  26.626  1.00  0.00     0.124 S 
ATOM     88  O   UNL A   1      40.838  26.363  25.558  1.00  0.00    -0.237 OA
ATOM     89  O   UNL A   1      41.328  24.451  27.045  1.00  0.00    -0.237 OA
ATOM     90  O   UNL A   1      38.994  25.031  26.516  1.00  0.00    -0.744 OA
ENDBRANCH  86  87
ENDBRANCH  58  81
BRANCH  70  91
ATOM     91  C   UNL A   1      44.593  28.641  35.875  1.00  0.00    -0.014 A 
ATOM     92  C   UNL A   1      45.877  29.064  35.486  1.00  0.00     0.010 A 
ATOM     93  C   UNL A   1      44.473  27.498  36.690  1.00  0.00     0.010 A 
ATOM     94  C   UNL A   1      47.011  28.333  35.860  1.00  0.00     0.020 A 
ATOM     95  C   UNL A   1      45.605  26.783  37.092  1.00  0.00     0.020 A 
ATOM     96  C   UNL A   1      46.866  27.194  36.657  1.00  0.00     0.054 A 
BRANCH  96  97
ATOM     97  S   UNL A   1      48.352  26.270  37.139  1.00  0.00     0.124 S 
ATOM     98  O   UNL A   1      47.816  25.318  38.109  1.00  0.00    -0.237 OA
ATOM     99  O   UNL A   1      48.797  25.694  35.872  1.00  0.00    -0.237 OA
ATOM    100  O   UNL A   1      49.234  27.295  37.694  1.00  0.00    -0.744 OA
ENDBRANCH  96  97
ENDBRANCH  70  91
ENDBRANCH  44  45
ENDBRANCH  37  39
ENDBRANCH  36  37
ENDBRANCH  35  36
ENDBRANCH  34  35
ENDBRANCH  33  34
ENDBRANCH   1  33
TORSDOF 23
ENDMDL
MODEL 2
REMARK VINA RESULT:     -10.5      6.011     10.229
REMARK SMILES COc1ccc(/C=C2/C(=O)N(c3ccccc3)C(=O)N=C2OCCOCCOCCOC(=O)c2ccc(-c3c4nc(c(-c5ccc(S(=O)(=O)[O-])cc5)c5ccc([nH]5)c(-c5ccc(S(=O)(=O)[O-])cc5)c5nc(c(-c6ccc(S(=O)(=O)[O-])cc6)c6ccc3[nH]6)C=C5)C=C4)cc2)cc1C(=O)[O-]
REMARK SMILES IDX 27 1 26 2 25 3 24 4 23 5 22 6 21 7 7 8 8 9 9 10 10 11 11 12
REMARK SMILES IDX 20 13 18 14 19 15 6 16 3 17 4 18 95 19 5 20 94 21 2 22 1 23
REMARK SMILES IDX 96 24 97 25 98 26 12 27 13 28 17 29 14 30 16 31 15 32 28 33
REMARK SMILES IDX 29 34 30 35 31 36 32 37 33 38 34 39 35 40 93 41 36 42 92 43
REMARK SMILES IDX 37 44 38 45 39 46 86 47 40 48 91 49 85 50 87 51 41 52 90 53
REMARK SMILES IDX 84 54 83 55 42 57 72 58 53 59 71 60 54 61 57 62 70 63 88 64
REMARK SMILES IDX 55 65 56 66 69 68 89 69 58 70 43 71 44 72 52 73 45 74 51 75
REMARK SMILES IDX 46 76 47 77 48 78 49 79 50 80 73 81 74 82 82 83 75 84 81 85
REMARK SMILES IDX 76 86 77 87 78 88 79 89 80 90 59 91 60 92 68 93 61 94 67 95
REMARK SMILES IDX 62 96 63 97 64 98 65 99 66 100
REMARK H PARENT 87 56 57 67
REMARK Flexibility Score: inf
ROOT
ATOM      1  C   UNL A   1      34.969  30.463  27.202  1.00  0.00     0.188 C 
ENDROOT
BRANCH   1   2
ATOM      2  C   UNL A   1      33.518  29.943  27.226  1.00  0.00     0.188 C 
BRANCH   2   3
ATOM      3  O   UNL A   1      32.949  29.307  26.099  1.00  0.00    -0.376 OA
BRANCH   3   4
ATOM      4  C   UNL A   1      32.711  27.908  26.094  1.00  0.00     0.201 C 
BRANCH   4   5
ATOM      5  C   UNL A   1      31.506  27.322  26.821  1.00  0.00     0.260 C 
BRANCH   5   6
ATOM      6  O   UNL A   1      30.971  26.164  26.148  1.00  0.00    -0.475 OA
BRANCH   6   7
ATOM      7  C   UNL A   1      31.805  25.178  25.778  1.00  0.00     0.231 C 
ATOM      8  C   UNL A   1      31.468  25.735  23.286  1.00  0.00     0.027 C 
ATOM      9  C   UNL A   1      31.878  24.956  24.325  1.00  0.00     0.103 C 
ATOM     10  C   UNL A   1      32.457  23.602  23.971  1.00  0.00     0.272 C 
ATOM     11  O   UNL A   1      32.527  23.239  22.796  1.00  0.00    -0.268 OA
ATOM     12  N   UNL A   1      32.834  22.812  25.057  1.00  0.00    -0.226 N 
ATOM     13  N   UNL A   1      32.327  24.450  26.688  1.00  0.00    -0.156 NA
ATOM     14  C   UNL A   1      32.862  23.239  26.385  1.00  0.00     0.358 C 
ATOM     15  O   UNL A   1      33.283  22.543  27.303  1.00  0.00    -0.245 OA
BRANCH   8  16
ATOM     16  C   UNL A   1      30.811  27.071  23.101  1.00  0.00    -0.024 A 
ATOM     17  C   UNL A   1      29.416  29.561  22.848  1.00  0.00     0.127 A 
ATOM     18  C   UNL A   1      30.760  29.452  22.520  1.00  0.00     0.048 A 
ATOM     19  C   UNL A   1      28.720  28.410  23.226  1.00  0.00     0.040 A 
ATOM     20  C   UNL A   1      31.418  28.218  22.591  1.00  0.00     0.012 A 
ATOM     21  C   UNL A   1      29.436  27.195  23.402  1.00  0.00     0.022 A 
BRANCH  17  22
ATOM     22  O   UNL A   1      28.857  30.790  22.632  1.00  0.00    -0.496 OA
ATOM     23  C   UNL A   1      29.152  31.722  23.672  1.00  0.00     0.278 C 
ENDBRANCH  17  22
BRANCH  19  24
ATOM     24  C   UNL A   1      27.244  28.347  23.371  1.00  0.00     0.075 C 
ATOM     25  O   UNL A   1      26.464  29.221  23.028  1.00  0.00    -0.545 OA
ATOM     26  O   UNL A   1      26.798  27.262  24.025  1.00  0.00    -0.545 OA
ENDBRANCH  19  24
ENDBRANCH   8  16
BRANCH  12  27
ATOM     27  C   UNL A   1      33.229  21.464  24.827  1.00  0.00     0.054 A 
ATOM     28  C   UNL A   1      32.253  20.461  24.748  1.00  0.00     0.027 A 
ATOM     29  C   UNL A   1      34.582  21.119  24.818  1.00  0.00     0.027 A 
ATOM     30  C   UNL A   1      32.634  19.123  24.639  1.00  0.00     0.002 A 
ATOM     31  C   UNL A   1      34.954  19.774  24.756  1.00  0.00     0.002 A 
ATOM     32  C   UNL A   1      33.982  18.778  24.666  1.00  0.00     0.000 A 
ENDBRANCH  12  27
ENDBRANCH   6   7
ENDBRANCH   5   6
ENDBRANCH   4   5
ENDBRANCH   3   4
ENDBRANCH   2   3
ENDBRANCH   1   2
BRANCH   1  33
ATOM     33  O   UNL A   1      35.652  30.752  28.402  1.00  0.00    -0.376 OA
BRANCH  33  34
ATOM     34  C   UNL A   1      35.195  31.799  29.240  1.00  0.00     0.202 C 
BRANCH  34  35
ATOM     35  C   UNL A   1      35.331  31.769  30.770  1.00  0.00     0.261 C 
BRANCH  35  36
ATOM     36  O   UNL A   1      36.654  31.583  31.290  1.00  0.00    -0.460 OA
BRANCH  36  37
ATOM     37  C   UNL A   1      37.080  30.294  31.348  1.00  0.00     0.338 C 
ATOM     38  O   UNL A   1      36.386  29.306  31.514  1.00  0.00    -0.246 OA
BRANCH  37  39
ATOM     39  C   UNL A   1      38.509  30.215  30.968  1.00  0.00     0.060 A 
ATOM     40  C   UNL A   1      38.845  30.458  29.629  1.00  0.00     0.016 A 
ATOM     41  C   UNL A   1      39.504  29.893  31.895  1.00  0.00     0.016 A 
ATOM     42  C   UNL A   1      40.171  30.344  29.208  1.00  0.00     0.010 A 
ATOM     43  C   UNL A   1      40.832  29.757  31.466  1.00  0.00     0.010 A 
ATOM     44  C   UNL A   1      41.168  29.954  30.116  1.00  0.00    -0.014 A 
BRANCH  44  45
ATOM     45  C   UNL A   1      42.504  29.566  29.591  1.00  0.00     0.031 A 
ATOM     46  C   UNL A   1      42.652  28.215  28.946  1.00  0.00     0.074 A 
ATOM     47  C   UNL A   1      43.556  30.403  29.635  1.00  0.00     0.049 A 
ATOM     48  N   UNL A   1      43.679  27.697  28.325  1.00  0.00    -0.248 NA
ATOM     49  C   UNL A   1      41.484  27.325  29.030  1.00  0.00     0.031 C 
ATOM     50  C   UNL A   1      43.552  31.732  30.241  1.00  0.00     0.029 A 
ATOM     51  N   UNL A   1      44.821  30.273  29.113  1.00  0.00    -0.354 N 
ATOM     52  C   UNL A   1      43.296  26.407  27.974  1.00  0.00     0.074 A 
ATOM     53  C   UNL A   1      41.941  26.226  28.451  1.00  0.00     0.031 C 
ATOM     54  C   UNL A   1      44.734  32.325  29.993  1.00  0.00     0.029 A 
ATOM     55  C   UNL A   1      45.593  31.405  29.247  1.00  0.00     0.049 A 
ATOM     56  H   UNL A   1      45.145  29.449  28.686  1.00  0.00     0.167 HD
ATOM     57  C   UNL A   1      44.012  25.449  27.336  1.00  0.00     0.031 A 
ATOM     58  C   UNL A   1      46.839  31.674  28.801  1.00  0.00     0.031 A 
ATOM     59  C   UNL A   1      45.375  25.609  26.905  1.00  0.00     0.049 A 
ATOM     60  C   UNL A   1      47.606  30.608  28.055  1.00  0.00     0.074 A 
ATOM     61  C   UNL A   1      46.193  24.686  26.277  1.00  0.00     0.029 A 
ATOM     62  N   UNL A   1      46.129  26.762  27.069  1.00  0.00    -0.354 N 
ATOM     63  N   UNL A   1      47.221  29.401  27.707  1.00  0.00    -0.248 NA
ATOM     64  C   UNL A   1      48.981  30.937  27.649  1.00  0.00     0.031 C 
ATOM     65  C   UNL A   1      47.460  25.261  26.116  1.00  0.00     0.029 A 
ATOM     66  C   UNL A   1      47.409  26.567  26.575  1.00  0.00     0.049 A 
ATOM     67  H   UNL A   1      45.802  27.597  27.477  1.00  0.00     0.167 HD
ATOM     68  C   UNL A   1      48.311  28.826  27.055  1.00  0.00     0.074 A 
ATOM     69  C   UNL A   1      49.348  29.836  27.009  1.00  0.00     0.031 C 
ATOM     70  C   UNL A   1      48.447  27.571  26.556  1.00  0.00     0.031 A 
BRANCH  57  71
ATOM     71  C   UNL A   1      43.343  24.110  27.155  1.00  0.00    -0.014 A 
ATOM     72  C   UNL A   1      43.065  23.270  28.249  1.00  0.00     0.010 A 
ATOM     73  C   UNL A   1      43.013  23.675  25.859  1.00  0.00     0.010 A 
ATOM     74  C   UNL A   1      42.531  21.995  28.043  1.00  0.00     0.020 A 
ATOM     75  C   UNL A   1      42.447  22.415  25.651  1.00  0.00     0.020 A 
ATOM     76  C   UNL A   1      42.235  21.572  26.743  1.00  0.00     0.054 A 
BRANCH  76  77
ATOM     77  S   UNL A   1      41.569  19.903  26.498  1.00  0.00     0.124 S 
ATOM     78  O   UNL A   1      42.028  19.217  27.704  1.00  0.00    -0.237 OA
ATOM     79  O   UNL A   1      40.130  20.141  26.421  1.00  0.00    -0.237 OA
ATOM     80  O   UNL A   1      42.191  19.459  25.255  1.00  0.00    -0.744 OA
ENDBRANCH  76  77
ENDBRANCH  57  71
BRANCH  58  81
ATOM     81  C   UNL A   1      47.447  33.017  29.042  1.00  0.00    -0.014 A 
ATOM     82  C   UNL A   1      48.204  33.268  30.200  1.00  0.00     0.010 A 
ATOM     83  C   UNL A   1      47.278  34.055  28.107  1.00  0.00     0.010 A 
ATOM     84  C   UNL A   1      48.774  34.528  30.422  1.00  0.00     0.020 A 
ATOM     85  C   UNL A   1      47.876  35.304  28.306  1.00  0.00     0.020 A 
ATOM     86  C   UNL A   1      48.613  35.535  29.468  1.00  0.00     0.054 A 
BRANCH  86  87
ATOM     87  S   UNL A   1      49.423  37.138  29.736  1.00  0.00     0.124 S 
ATOM     88  O   UNL A   1      49.758  37.077  31.154  1.00  0.00    -0.237 OA
ATOM     89  O   UNL A   1      50.558  37.079  28.816  1.00  0.00    -0.237 OA
ATOM     90  O   UNL A   1      48.391  38.108  29.377  1.00  0.00    -0.744 OA
ENDBRANCH  86  87
ENDBRANCH  58  81
BRANCH  70  91
ATOM     91  C   UNL A   1      49.768  27.209  25.921  1.00  0.00    -0.014 A 
ATOM     92  C   UNL A   1      49.999  27.408  24.546  1.00  0.00     0.010 A 
ATOM     93  C   UNL A   1      50.812  26.703  26.718  1.00  0.00     0.010 A 
ATOM     94  C   UNL A   1      51.229  27.060  23.974  1.00  0.00     0.020 A 
ATOM     95  C   UNL A   1      52.053  26.383  26.156  1.00  0.00     0.020 A 
ATOM     96  C   UNL A   1      52.246  26.545  24.783  1.00  0.00     0.054 A 
BRANCH  96  97
ATOM     97  S   UNL A   1      53.835  26.113  24.020  1.00  0.00     0.124 S 
ATOM     98  O   UNL A   1      53.469  25.981  22.612  1.00  0.00    -0.237 OA
ATOM     99  O   UNL A   1      54.672  27.264  24.347  1.00  0.00    -0.237 OA
ATOM    100  O   UNL A   1      54.211  24.867  24.684  1.00  0.00    -0.744 OA
ENDBRANCH  96  97
ENDBRANCH  70  91
ENDBRANCH  44  45
ENDBRANCH  37  39
ENDBRANCH  36  37
ENDBRANCH  35  36
ENDBRANCH  34  35
ENDBRANCH  33  34
ENDBRANCH   1  33
TORSDOF 23
ENDMDL
MODEL 3
REMARK VINA RESULT:     -10.2      6.147      9.152
REMARK SMILES COc1ccc(/C=C2/C(=O)N(c3ccccc3)C(=O)N=C2OCCOCCOCCOC(=O)c2ccc(-c3c4nc(c(-c5ccc(S(=O)(=O)[O-])cc5)c5ccc([nH]5)c(-c5ccc(S(=O)(=O)[O-])cc5)c5nc(c(-c6ccc(S(=O)(=O)[O-])cc6)c6ccc3[nH]6)C=C5)C=C4)cc2)cc1C(=O)[O-]
REMARK SMILES IDX 27 1 26 2 25 3 24 4 23 5 22 6 21 7 7 8 8 9 9 10 10 11 11 12
REMARK SMILES IDX 20 13 18 14 19 15 6 16 3 17 4 18 95 19 5 20 94 21 2 22 1 23
REMARK SMILES IDX 96 24 97 25 98 26 12 27 13 28 17 29 14 30 16 31 15 32 28 33
REMARK SMILES IDX 29 34 30 35 31 36 32 37 33 38 34 39 35 40 93 41 36 42 92 43
REMARK SMILES IDX 37 44 38 45 39 46 86 47 40 48 91 49 85 50 87 51 41 52 90 53
REMARK SMILES IDX 84 54 83 55 42 57 72 58 53 59 71 60 54 61 57 62 70 63 88 64
REMARK SMILES IDX 55 65 56 66 69 68 89 69 58 70 43 71 44 72 52 73 45 74 51 75
REMARK SMILES IDX 46 76 47 77 48 78 49 79 50 80 73 81 74 82 82 83 75 84 81 85
REMARK SMILES IDX 76 86 77 87 78 88 79 89 80 90 59 91 60 92 68 93 61 94 67 95
REMARK SMILES IDX 62 96 63 97 64 98 65 99 66 100
REMARK H PARENT 87 56 57 67
REMARK Flexibility Score: inf
ROOT
ATOM      1  C   UNL A   1      33.042  30.363  27.399  1.00  0.00     0.188 C 
ENDROOT
BRANCH   1   2
ATOM      2  C   UNL A   1      33.940  29.113  27.496  1.00  0.00     0.188 C 
BRANCH   2   3
ATOM      3  O   UNL A   1      33.515  27.864  26.991  1.00  0.00    -0.376 OA
BRANCH   3   4
ATOM      4  C   UNL A   1      34.346  27.106  26.127  1.00  0.00     0.201 C 
BRANCH   4   5
ATOM      5  C   UNL A   1      33.806  25.869  25.416  1.00  0.00     0.260 C 
BRANCH   5   6
ATOM      6  O   UNL A   1      33.132  26.198  24.184  1.00  0.00    -0.475 OA
BRANCH   6   7
ATOM      7  C   UNL A   1      32.055  26.999  24.220  1.00  0.00     0.231 C 
ATOM      8  C   UNL A   1      30.468  24.994  23.913  1.00  0.00     0.027 C 
ATOM      9  C   UNL A   1      30.780  26.320  23.937  1.00  0.00     0.103 C 
ATOM     10  C   UNL A   1      29.677  27.285  23.557  1.00  0.00     0.272 C 
ATOM     11  O   UNL A   1      28.566  26.867  23.231  1.00  0.00    -0.268 OA
ATOM     12  N   UNL A   1      30.038  28.632  23.554  1.00  0.00    -0.226 N 
ATOM     13  N   UNL A   1      32.237  28.257  24.344  1.00  0.00    -0.156 NA
ATOM     14  C   UNL A   1      31.253  29.136  24.020  1.00  0.00     0.358 C 
ATOM     15  O   UNL A   1      31.501  30.335  24.084  1.00  0.00    -0.245 OA
BRANCH   8  16
ATOM     16  C   UNL A   1      31.172  23.689  24.142  1.00  0.00    -0.024 A 
ATOM     17  C   UNL A   1      32.488  21.220  24.757  1.00  0.00     0.127 A 
ATOM     18  C   UNL A   1      32.101  21.525  23.460  1.00  0.00     0.048 A 
ATOM     19  C   UNL A   1      32.303  22.178  25.758  1.00  0.00     0.040 A 
ATOM     20  C   UNL A   1      31.512  22.760  23.160  1.00  0.00     0.012 A 
ATOM     21  C   UNL A   1      31.599  23.374  25.451  1.00  0.00     0.022 A 
BRANCH  17  22
ATOM     22  O   UNL A   1      33.152  20.035  24.907  1.00  0.00    -0.496 OA
ATOM     23  C   UNL A   1      32.715  19.036  23.987  1.00  0.00     0.278 C 
ENDBRANCH  17  22
BRANCH  19  24
ATOM     24  C   UNL A   1      32.882  22.070  27.120  1.00  0.00     0.075 C 
ATOM     25  O   UNL A   1      33.806  21.338  27.440  1.00  0.00    -0.545 OA
ATOM     26  O   UNL A   1      32.236  22.787  28.054  1.00  0.00    -0.545 OA
ENDBRANCH  19  24
ENDBRANCH   8  16
BRANCH  12  27
ATOM     27  C   UNL A   1      29.118  29.594  23.050  1.00  0.00     0.054 A 
ATOM     28  C   UNL A   1      29.015  29.792  21.666  1.00  0.00     0.027 A 
ATOM     29  C   UNL A   1      28.423  30.431  23.925  1.00  0.00     0.027 A 
ATOM     30  C   UNL A   1      28.203  30.810  21.165  1.00  0.00     0.002 A 
ATOM     31  C   UNL A   1      27.650  31.477  23.416  1.00  0.00     0.002 A 
ATOM     32  C   UNL A   1      27.539  31.666  22.040  1.00  0.00     0.000 A 
ENDBRANCH  12  27
ENDBRANCH   6   7
ENDBRANCH   5   6
ENDBRANCH   4   5
ENDBRANCH   3   4
ENDBRANCH   2   3
ENDBRANCH   1   2
BRANCH   1  33
ATOM     33  O   UNL A   1      33.538  31.637  27.744  1.00  0.00    -0.376 OA
BRANCH  33  34
ATOM     34  C   UNL A   1      34.875  31.777  28.190  1.00  0.00     0.202 C 
BRANCH  34  35
ATOM     35  C   UNL A   1      35.244  32.334  29.574  1.00  0.00     0.261 C 
BRANCH  35  36
ATOM     36  O   UNL A   1      36.549  32.002  30.069  1.00  0.00    -0.460 OA
BRANCH  36  37
ATOM     37  C   UNL A   1      36.676  30.749  30.579  1.00  0.00     0.338 C 
ATOM     38  O   UNL A   1      35.868  30.164  31.280  1.00  0.00    -0.246 OA
BRANCH  37  39
ATOM     39  C   UNL A   1      37.859  30.080  29.990  1.00  0.00     0.060 A 
ATOM     40  C   UNL A   1      38.809  29.538  30.867  1.00  0.00     0.016 A 
ATOM     41  C   UNL A   1      38.050  29.997  28.609  1.00  0.00     0.016 A 
ATOM     42  C   UNL A   1      39.967  28.944  30.364  1.00  0.00     0.010 A 
ATOM     43  C   UNL A   1      39.225  29.421  28.106  1.00  0.00     0.010 A 
ATOM     44  C   UNL A   1      40.202  28.917  28.981  1.00  0.00    -0.014 A 
BRANCH  44  45
ATOM     45  C   UNL A   1      41.555  28.543  28.490  1.00  0.00     0.031 A 
ATOM     46  C   UNL A   1      42.656  29.564  28.586  1.00  0.00     0.074 A 
ATOM     47  C   UNL A   1      41.825  27.314  28.015  1.00  0.00     0.049 A 
ATOM     48  N   UNL A   1      43.931  29.441  28.324  1.00  0.00    -0.248 NA
ATOM     49  C   UNL A   1      42.255  30.911  29.020  1.00  0.00     0.031 C 
ATOM     50  C   UNL A   1      40.850  26.238  27.858  1.00  0.00     0.029 A 
ATOM     51  N   UNL A   1      43.017  26.750  27.624  1.00  0.00    -0.354 N 
ATOM     52  C   UNL A   1      44.481  30.702  28.527  1.00  0.00     0.074 A 
ATOM     53  C   UNL A   1      43.398  31.572  28.937  1.00  0.00     0.031 C 
ATOM     54  C   UNL A   1      41.495  25.121  27.473  1.00  0.00     0.029 A 
ATOM     55  C   UNL A   1      42.921  25.412  27.317  1.00  0.00     0.049 A 
ATOM     56  H   UNL A   1      43.858  27.256  27.568  1.00  0.00     0.167 HD
ATOM     57  C   UNL A   1      45.764  31.108  28.366  1.00  0.00     0.031 A 
ATOM     58  C   UNL A   1      43.875  24.522  26.970  1.00  0.00     0.031 A 
ATOM     59  C   UNL A   1      46.832  30.258  27.913  1.00  0.00     0.049 A 
ATOM     60  C   UNL A   1      45.307  24.985  26.836  1.00  0.00     0.074 A 
ATOM     61  C   UNL A   1      48.158  30.585  27.690  1.00  0.00     0.029 A 
ATOM     62  N   UNL A   1      46.696  28.913  27.598  1.00  0.00    -0.354 N 
ATOM     63  N   UNL A   1      45.818  26.175  27.057  1.00  0.00    -0.248 NA
ATOM     64  C   UNL A   1      46.291  23.984  26.395  1.00  0.00     0.031 C 
ATOM     65  C   UNL A   1      48.810  29.455  27.183  1.00  0.00     0.029 A 
ATOM     66  C   UNL A   1      47.909  28.402  27.162  1.00  0.00     0.049 A 
ATOM     67  H   UNL A   1      45.860  28.398  27.674  1.00  0.00     0.167 HD
ATOM     68  C   UNL A   1      47.177  26.066  26.770  1.00  0.00     0.074 A 
ATOM     69  C   UNL A   1      47.418  24.684  26.412  1.00  0.00     0.031 C 
ATOM     70  C   UNL A   1      48.136  27.028  26.782  1.00  0.00     0.031 A 
BRANCH  57  71
ATOM     71  C   UNL A   1      46.047  32.571  28.600  1.00  0.00    -0.014 A 
ATOM     72  C   UNL A   1      46.547  33.037  29.830  1.00  0.00     0.010 A 
ATOM     73  C   UNL A   1      45.778  33.496  27.576  1.00  0.00     0.010 A 
ATOM     74  C   UNL A   1      46.710  34.408  30.051  1.00  0.00     0.020 A 
ATOM     75  C   UNL A   1      45.971  34.864  27.782  1.00  0.00     0.020 A 
ATOM     76  C   UNL A   1      46.411  35.313  29.028  1.00  0.00     0.054 A 
BRANCH  76  77
ATOM     77  S   UNL A   1      46.604  37.088  29.350  1.00  0.00     0.124 S 
ATOM     78  O   UNL A   1      45.766  37.674  28.308  1.00  0.00    -0.237 OA
ATOM     79  O   UNL A   1      46.098  37.223  30.713  1.00  0.00    -0.237 OA
ATOM     80  O   UNL A   1      48.038  37.314  29.195  1.00  0.00    -0.744 OA
ENDBRANCH  76  77
ENDBRANCH  57  71
BRANCH  58  81
ATOM     81  C   UNL A   1      43.514  23.093  26.728  1.00  0.00    -0.014 A 
ATOM     82  C   UNL A   1      44.043  22.392  25.629  1.00  0.00     0.010 A 
ATOM     83  C   UNL A   1      42.642  22.419  27.603  1.00  0.00     0.010 A 
ATOM     84  C   UNL A   1      43.704  21.052  25.406  1.00  0.00     0.020 A 
ATOM     85  C   UNL A   1      42.329  21.070  27.405  1.00  0.00     0.020 A 
ATOM     86  C   UNL A   1      42.855  20.397  26.302  1.00  0.00     0.054 A 
BRANCH  86  87
ATOM     87  S   UNL A   1      42.487  18.639  26.040  1.00  0.00     0.124 S 
ATOM     88  O   UNL A   1      43.013  18.033  27.258  1.00  0.00    -0.237 OA
ATOM     89  O   UNL A   1      41.032  18.634  25.909  1.00  0.00    -0.237 OA
ATOM     90  O   UNL A   1      43.215  18.314  24.815  1.00  0.00    -0.744 OA
ENDBRANCH  86  87
ENDBRANCH  58  81
BRANCH  70  91
ATOM     91  C   UNL A   1      49.537  26.625  26.391  1.00  0.00    -0.014 A 
ATOM     92  C   UNL A   1      50.382  25.947  27.289  1.00  0.00     0.010 A 
ATOM     93  C   UNL A   1      50.003  26.889  25.089  1.00  0.00     0.010 A 
ATOM     94  C   UNL A   1      51.681  25.588  26.911  1.00  0.00     0.020 A 
ATOM     95  C   UNL A   1      51.289  26.503  24.696  1.00  0.00     0.020 A 
ATOM     96  C   UNL A   1      52.127  25.873  25.617  1.00  0.00     0.054 A 
BRANCH  96  97
ATOM     97  S   UNL A   1      53.811  25.387  25.146  1.00  0.00     0.124 S 
ATOM     98  O   UNL A   1      53.837  25.722  23.725  1.00  0.00    -0.237 OA
ATOM     99  O   UNL A   1      54.641  26.227  26.006  1.00  0.00    -0.237 OA
ATOM    100  O   UNL A   1      53.858  23.958  25.448  1.00  0.00    -0.744 OA
ENDBRANCH  96  97
ENDBRANCH  70  91
ENDBRANCH  44  45
ENDBRANCH  37  39
ENDBRANCH  36  37
ENDBRANCH  35  36
ENDBRANCH  34  35
ENDBRANCH  33  34
ENDBRANCH   1  33
TORSDOF 23
ENDMDL
