MODEL 1
REMARK VINA RESULT:      -9.4      0.000      0.000
REMARK SMILES O=C(OCCOCCOCCOC(=O)[C@H]1CC[C@@H](CNC(=O)N2CCO[C@@H]3CCC[C@H]32)O1)c1ccc(-c2c3nc(c(-c4ccc(S(=O)(=O)[O-])cc4)c4ccc([nH]4)c(-c4ccc(S(=O)(=O)[O-])cc4)c4nc(c(-c5ccc(S(=O)(=O)[O-])cc5)c5ccc2[nH]5)C=C4)C=C3)cc1
REMARK SMILES IDX 7 1 6 2 5 3 4 4 3 5 2 6 1 7 33 8 34 9 92 10 35 11 91 12
REMARK SMILES IDX 36 13 37 14 38 15 85 16 39 17 90 18 84 19 86 20 40 21 89 22
REMARK SMILES IDX 83 23 82 24 41 26 71 27 52 28 70 29 53 30 56 31 69 32 87 33
REMARK SMILES IDX 54 34 55 35 68 37 88 38 57 39 42 40 43 41 51 42 44 43 50 44
REMARK SMILES IDX 45 45 46 46 47 47 48 48 49 49 72 50 73 51 81 52 74 53 80 54
REMARK SMILES IDX 75 55 76 56 77 57 78 58 79 59 58 60 59 61 67 62 60 63 66 64
REMARK SMILES IDX 61 65 62 66 63 67 64 68 65 69 8 70 9 71 10 72 11 73 12 74
REMARK SMILES IDX 13 75 14 76 15 77 16 78 32 79 17 80 18 81 19 82 20 83 21 84
REMARK SMILES IDX 22 86 23 87 24 88 31 89 25 90 27 91 30 92 26 93 28 94 29 95
REMARK H PARENT 86 25 56 36 20 85
REMARK Flexibility Score: inf
ROOT
ATOM      1  C   UNL A   1      35.385  34.128  28.391  1.00  0.00     0.188 C 
ENDROOT
BRANCH   1   2
ATOM      2  O   UNL A   1      34.399  34.920  27.730  1.00  0.00    -0.376 OA
BRANCH   2   3
ATOM      3  C   UNL A   1      34.011  36.139  28.361  1.00  0.00     0.202 C 
BRANCH   3   4
ATOM      4  C   UNL A   1      32.983  36.133  29.511  1.00  0.00     0.261 C 
BRANCH   4   5
ATOM      5  O   UNL A   1      32.900  34.951  30.319  1.00  0.00    -0.460 OA
BRANCH   5   6
ATOM      6  C   UNL A   1      33.052  34.868  31.651  1.00  0.00     0.338 C 
ATOM      7  O   UNL A   1      32.125  35.025  32.443  1.00  0.00    -0.246 OA
BRANCH   6   8
ATOM      8  C   UNL A   1      34.273  34.406  32.251  1.00  0.00     0.060 A 
ATOM      9  C   UNL A   1      34.336  33.160  32.850  1.00  0.00     0.016 A 
ATOM     10  C   UNL A   1      35.420  35.134  31.889  1.00  0.00     0.016 A 
ATOM     11  C   UNL A   1      35.564  32.661  33.177  1.00  0.00     0.010 A 
ATOM     12  C   UNL A   1      36.658  34.581  32.110  1.00  0.00     0.010 A 
ATOM     13  C   UNL A   1      36.710  33.354  32.769  1.00  0.00    -0.014 A 
BRANCH  13  14
ATOM     14  C   UNL A   1      37.980  32.753  33.127  1.00  0.00     0.031 A 
ATOM     15  C   UNL A   1      38.539  33.131  34.449  1.00  0.00     0.074 A 
ATOM     16  C   UNL A   1      38.417  31.763  32.333  1.00  0.00     0.049 A 
ATOM     17  N   UNL A   1      39.541  32.605  35.083  1.00  0.00    -0.248 NA
ATOM     18  C   UNL A   1      37.862  34.226  35.174  1.00  0.00     0.031 C 
ATOM     19  C   UNL A   1      37.775  31.343  31.077  1.00  0.00     0.029 A 
ATOM     20  N   UNL A   1      39.434  30.877  32.500  1.00  0.00    -0.354 N 
ATOM     21  C   UNL A   1      39.623  33.308  36.275  1.00  0.00     0.074 A 
ATOM     22  C   UNL A   1      38.587  34.309  36.276  1.00  0.00     0.031 C 
ATOM     23  C   UNL A   1      38.372  30.227  30.633  1.00  0.00     0.029 A 
ATOM     24  C   UNL A   1      39.476  29.909  31.526  1.00  0.00     0.049 A 
ATOM     25  H   UNL A   1      40.076  30.923  33.245  1.00  0.00     0.167 HD
ATOM     26  C   UNL A   1      40.509  33.112  37.273  1.00  0.00     0.031 A 
ATOM     27  C   UNL A   1      40.340  28.889  31.390  1.00  0.00     0.031 A 
ATOM     28  C   UNL A   1      41.540  32.119  37.172  1.00  0.00     0.049 A 
ATOM     29  C   UNL A   1      41.382  28.768  32.466  1.00  0.00     0.074 A 
ATOM     30  C   UNL A   1      42.580  31.856  38.035  1.00  0.00     0.029 A 
ATOM     31  N   UNL A   1      41.652  31.225  36.108  1.00  0.00    -0.354 N 
ATOM     32  N   UNL A   1      41.497  29.468  33.575  1.00  0.00    -0.248 NA
ATOM     33  C   UNL A   1      42.411  27.747  32.279  1.00  0.00     0.031 C 
ATOM     34  C   UNL A   1      43.359  30.846  37.459  1.00  0.00     0.029 A 
ATOM     35  C   UNL A   1      42.762  30.427  36.275  1.00  0.00     0.049 A 
ATOM     36  H   UNL A   1      41.029  31.173  35.347  1.00  0.00     0.167 HD
ATOM     37  C   UNL A   1      42.616  28.973  34.224  1.00  0.00     0.074 A 
ATOM     38  C   UNL A   1      43.118  27.889  33.393  1.00  0.00     0.031 C 
ATOM     39  C   UNL A   1      43.192  29.371  35.386  1.00  0.00     0.031 A 
BRANCH  26  40
ATOM     40  C   UNL A   1      40.438  34.056  38.437  1.00  0.00    -0.014 A 
ATOM     41  C   UNL A   1      39.565  33.834  39.519  1.00  0.00     0.010 A 
ATOM     42  C   UNL A   1      41.204  35.235  38.408  1.00  0.00     0.010 A 
ATOM     43  C   UNL A   1      39.432  34.790  40.530  1.00  0.00     0.020 A 
ATOM     44  C   UNL A   1      41.093  36.182  39.430  1.00  0.00     0.020 A 
ATOM     45  C   UNL A   1      40.196  35.960  40.477  1.00  0.00     0.054 A 
BRANCH  45  46
ATOM     46  S   UNL A   1      40.011  37.183  41.804  1.00  0.00     0.124 S 
ATOM     47  O   UNL A   1      39.283  38.255  41.128  1.00  0.00    -0.237 OA
ATOM     48  O   UNL A   1      39.252  36.446  42.811  1.00  0.00    -0.237 OA
ATOM     49  O   UNL A   1      41.387  37.504  42.174  1.00  0.00    -0.744 OA
ENDBRANCH  45  46
ENDBRANCH  26  40
BRANCH  27  50
ATOM     50  C   UNL A   1      40.282  28.002  30.197  1.00  0.00    -0.014 A 
ATOM     51  C   UNL A   1      41.082  28.233  29.066  1.00  0.00     0.010 A 
ATOM     52  C   UNL A   1      39.424  26.884  30.200  1.00  0.00     0.010 A 
ATOM     53  C   UNL A   1      41.009  27.378  27.958  1.00  0.00     0.020 A 
ATOM     54  C   UNL A   1      39.370  26.010  29.113  1.00  0.00     0.020 A 
ATOM     55  C   UNL A   1      40.152  26.272  27.990  1.00  0.00     0.054 A 
BRANCH  55  56
ATOM     56  S   UNL A   1      40.087  25.165  26.553  1.00  0.00     0.124 S 
ATOM     57  O   UNL A   1      40.792  23.986  27.047  1.00  0.00    -0.237 OA
ATOM     58  O   UNL A   1      38.651  25.005  26.345  1.00  0.00    -0.237 OA
ATOM     59  O   UNL A   1      40.781  25.918  25.510  1.00  0.00    -0.744 OA
ENDBRANCH  55  56
ENDBRANCH  27  50
BRANCH  39  60
ATOM     60  C   UNL A   1      44.405  28.603  35.814  1.00  0.00    -0.014 A 
ATOM     61  C   UNL A   1      45.685  28.965  35.364  1.00  0.00     0.010 A 
ATOM     62  C   UNL A   1      44.256  27.554  36.739  1.00  0.00     0.010 A 
ATOM     63  C   UNL A   1      46.802  28.265  35.813  1.00  0.00     0.020 A 
ATOM     64  C   UNL A   1      45.374  26.877  37.216  1.00  0.00     0.020 A 
ATOM     65  C   UNL A   1      46.639  27.229  36.739  1.00  0.00     0.054 A 
BRANCH  65  66
ATOM     66  S   UNL A   1      48.112  26.375  37.351  1.00  0.00     0.124 S 
ATOM     67  O   UNL A   1      47.539  25.440  38.315  1.00  0.00    -0.237 OA
ATOM     68  O   UNL A   1      48.657  25.774  36.136  1.00  0.00    -0.237 OA
ATOM     69  O   UNL A   1      48.920  27.448  37.925  1.00  0.00    -0.744 OA
ENDBRANCH  65  66
ENDBRANCH  39  60
ENDBRANCH  13  14
ENDBRANCH   6   8
ENDBRANCH   5   6
ENDBRANCH   4   5
ENDBRANCH   3   4
ENDBRANCH   2   3
ENDBRANCH   1   2
BRANCH   1  70
ATOM     70  C   UNL A   1      35.012  32.724  28.868  1.00  0.00     0.188 C 
BRANCH  70  71
ATOM     71  O   UNL A   1      33.950  32.050  28.217  1.00  0.00    -0.376 OA
BRANCH  71  72
ATOM     72  C   UNL A   1      34.228  30.730  27.769  1.00  0.00     0.202 C 
BRANCH  72  73
ATOM     73  C   UNL A   1      33.347  30.124  26.659  1.00  0.00     0.261 C 
BRANCH  73  74
ATOM     74  O   UNL A   1      33.995  29.168  25.800  1.00  0.00    -0.461 OA
BRANCH  74  75
ATOM     75  C   UNL A   1      33.233  28.658  24.785  1.00  0.00     0.335 C 
ATOM     76  O   UNL A   1      33.204  29.114  23.646  1.00  0.00    -0.249 OA
BRANCH  75  77
ATOM     77  C   UNL A   1      32.445  27.415  25.241  1.00  0.00     0.228 C 
ATOM     78  C   UNL A   1      30.939  27.686  25.183  1.00  0.00     0.047 C 
ATOM     79  O   UNL A   1      32.674  26.245  24.419  1.00  0.00    -0.361 OA
ATOM     80  C   UNL A   1      30.543  27.016  23.879  1.00  0.00     0.037 C 
ATOM     81  C   UNL A   1      31.397  25.764  23.961  1.00  0.00     0.138 C 
BRANCH  81  82
ATOM     82  C   UNL A   1      31.418  24.856  22.705  1.00  0.00     0.149 C 
BRANCH  82  83
ATOM     83  N   UNL A   1      32.703  24.306  22.286  1.00  0.00    -0.335 N 
ATOM     84  C   UNL A   1      33.445  23.292  22.837  1.00  0.00     0.317 C 
ATOM     85  H   UNL A   1      33.096  24.724  21.486  1.00  0.00     0.165 HD
ATOM     86  O   UNL A   1      34.625  23.190  22.502  1.00  0.00    -0.249 OA
BRANCH  84  87
ATOM     87  N   UNL A   1      32.848  22.424  23.716  1.00  0.00    -0.317 N 
ATOM     88  C   UNL A   1      32.184  21.189  23.282  1.00  0.00     0.150 C 
ATOM     89  C   UNL A   1      33.055  22.440  25.173  1.00  0.00     0.116 C 
ATOM     90  C   UNL A   1      32.852  19.938  23.903  1.00  0.00     0.182 C 
ATOM     91  C   UNL A   1      33.789  21.185  25.636  1.00  0.00     0.141 C 
ATOM     92  C   UNL A   1      33.760  23.550  25.957  1.00  0.00     0.028 C 
ATOM     93  O   UNL A   1      33.014  20.026  25.334  1.00  0.00    -0.374 OA
ATOM     94  C   UNL A   1      33.949  21.446  27.129  1.00  0.00     0.034 C 
ATOM     95  C   UNL A   1      34.443  22.884  27.153  1.00  0.00     0.005 C 
ENDBRANCH  84  87
ENDBRANCH  82  83
ENDBRANCH  81  82
ENDBRANCH  75  77
ENDBRANCH  74  75
ENDBRANCH  73  74
ENDBRANCH  72  73
ENDBRANCH  71  72
ENDBRANCH  70  71
ENDBRANCH   1  70
TORSDOF 23
ENDMDL
MODEL 2
REMARK VINA RESULT:      -9.3      6.591     12.751
REMARK SMILES O=C(OCCOCCOCCOC(=O)[C@H]1CC[C@@H](CNC(=O)N2CCO[C@@H]3CCC[C@H]32)O1)c1ccc(-c2c3nc(c(-c4ccc(S(=O)(=O)[O-])cc4)c4ccc([nH]4)c(-c4ccc(S(=O)(=O)[O-])cc4)c4nc(c(-c5ccc(S(=O)(=O)[O-])cc5)c5ccc2[nH]5)C=C4)C=C3)cc1
REMARK SMILES IDX 7 1 6 2 5 3 4 4 3 5 2 6 1 7 33 8 34 9 92 10 35 11 91 12
REMARK SMILES IDX 36 13 37 14 38 15 85 16 39 17 90 18 84 19 86 20 40 21 89 22
REMARK SMILES IDX 83 23 82 24 41 26 71 27 52 28 70 29 53 30 56 31 69 32 87 33
REMARK SMILES IDX 54 34 55 35 68 37 88 38 57 39 42 40 43 41 51 42 44 43 50 44
REMARK SMILES IDX 45 45 46 46 47 47 48 48 49 49 72 50 73 51 81 52 74 53 80 54
REMARK SMILES IDX 75 55 76 56 77 57 78 58 79 59 58 60 59 61 67 62 60 63 66 64
REMARK SMILES IDX 61 65 62 66 63 67 64 68 65 69 8 70 9 71 10 72 11 73 12 74
REMARK SMILES IDX 13 75 14 76 15 77 16 78 32 79 17 80 18 81 19 82 20 83 21 84
REMARK SMILES IDX 22 86 23 87 24 88 31 89 25 90 27 91 30 92 26 93 28 94 29 95
REMARK H PARENT 86 25 56 36 20 85
REMARK Flexibility Score: inf
ROOT
ATOM      1  C   UNL A   1      34.634  33.833  28.110  1.00  0.00     0.188 C 
ENDROOT
BRANCH   1   2
ATOM      2  O   UNL A   1      35.126  32.495  28.175  1.00  0.00    -0.376 OA
BRANCH   2   3
ATOM      3  C   UNL A   1      34.233  31.453  27.785  1.00  0.00     0.202 C 
BRANCH   3   4
ATOM      4  C   UNL A   1      34.760  30.026  27.529  1.00  0.00     0.261 C 
BRANCH   4   5
ATOM      5  O   UNL A   1      36.181  29.831  27.546  1.00  0.00    -0.460 OA
BRANCH   5   6
ATOM      6  C   UNL A   1      36.967  29.689  28.626  1.00  0.00     0.338 C 
ATOM      7  O   UNL A   1      36.530  29.412  29.742  1.00  0.00    -0.246 OA
BRANCH   6   8
ATOM      8  C   UNL A   1      38.400  29.667  28.528  1.00  0.00     0.060 A 
ATOM      9  C   UNL A   1      39.183  29.558  29.664  1.00  0.00     0.016 A 
ATOM     10  C   UNL A   1      38.899  29.427  27.235  1.00  0.00     0.016 A 
ATOM     11  C   UNL A   1      40.512  29.287  29.511  1.00  0.00     0.010 A 
ATOM     12  C   UNL A   1      40.208  29.039  27.088  1.00  0.00     0.010 A 
ATOM     13  C   UNL A   1      41.001  28.992  28.233  1.00  0.00    -0.014 A 
BRANCH  13  14
ATOM     14  C   UNL A   1      42.417  28.687  28.147  1.00  0.00     0.031 A 
ATOM     15  C   UNL A   1      42.770  27.287  27.803  1.00  0.00     0.074 A 
ATOM     16  C   UNL A   1      43.256  29.734  28.176  1.00  0.00     0.049 A 
ATOM     17  N   UNL A   1      43.929  26.801  27.482  1.00  0.00    -0.248 NA
ATOM     18  C   UNL A   1      41.668  26.303  27.785  1.00  0.00     0.031 C 
ATOM     19  C   UNL A   1      42.856  31.131  28.416  1.00  0.00     0.029 A 
ATOM     20  N   UNL A   1      44.588  29.809  27.916  1.00  0.00    -0.354 N 
ATOM     21  C   UNL A   1      43.701  25.457  27.233  1.00  0.00     0.074 A 
ATOM     22  C   UNL A   1      42.302  25.192  27.456  1.00  0.00     0.031 C 
ATOM     23  C   UNL A   1      43.914  31.929  28.211  1.00  0.00     0.029 A 
ATOM     24  C   UNL A   1      45.068  31.097  27.907  1.00  0.00     0.049 A 
ATOM     25  H   UNL A   1      45.153  29.020  27.751  1.00  0.00     0.167 HD
ATOM     26  C   UNL A   1      44.611  24.537  26.853  1.00  0.00     0.031 A 
ATOM     27  C   UNL A   1      46.321  31.526  27.684  1.00  0.00     0.031 A 
ATOM     28  C   UNL A   1      45.996  24.877  26.696  1.00  0.00     0.049 A 
ATOM     29  C   UNL A   1      47.331  30.459  27.369  1.00  0.00     0.074 A 
ATOM     30  C   UNL A   1      47.065  24.054  26.420  1.00  0.00     0.029 A 
ATOM     31  N   UNL A   1      46.494  26.172  26.821  1.00  0.00    -0.354 N 
ATOM     32  N   UNL A   1      47.129  29.171  27.185  1.00  0.00    -0.248 NA
ATOM     33  C   UNL A   1      48.725  30.882  27.248  1.00  0.00     0.031 C 
ATOM     34  C   UNL A   1      48.220  24.846  26.443  1.00  0.00     0.029 A 
ATOM     35  C   UNL A   1      47.862  26.172  26.658  1.00  0.00     0.049 A 
ATOM     36  H   UNL A   1      45.947  26.972  27.000  1.00  0.00     0.167 HD
ATOM     37  C   UNL A   1      48.374  28.623  26.923  1.00  0.00     0.074 A 
ATOM     38  C   UNL A   1      49.315  29.734  26.941  1.00  0.00     0.031 C 
ATOM     39  C   UNL A   1      48.724  27.332  26.700  1.00  0.00     0.031 A 
BRANCH  26  40
ATOM     40  C   UNL A   1      44.127  23.123  26.715  1.00  0.00    -0.014 A 
ATOM     41  C   UNL A   1      44.455  22.333  25.597  1.00  0.00     0.010 A 
ATOM     42  C   UNL A   1      43.258  22.600  27.689  1.00  0.00     0.010 A 
ATOM     43  C   UNL A   1      43.892  21.063  25.436  1.00  0.00     0.020 A 
ATOM     44  C   UNL A   1      42.714  21.321  27.547  1.00  0.00     0.020 A 
ATOM     45  C   UNL A   1      43.023  20.567  26.413  1.00  0.00     0.054 A 
BRANCH  45  46
ATOM     46  S   UNL A   1      42.311  18.914  26.187  1.00  0.00     0.124 S 
ATOM     47  O   UNL A   1      43.161  18.360  25.135  1.00  0.00    -0.237 OA
ATOM     48  O   UNL A   1      42.476  18.314  27.508  1.00  0.00    -0.237 OA
ATOM     49  O   UNL A   1      40.930  19.181  25.793  1.00  0.00    -0.744 OA
ENDBRANCH  45  46
ENDBRANCH  26  40
BRANCH  27  50
ATOM     50  C   UNL A   1      46.663  32.968  27.824  1.00  0.00    -0.014 A 
ATOM     51  C   UNL A   1      46.715  33.825  26.713  1.00  0.00     0.010 A 
ATOM     52  C   UNL A   1      46.920  33.502  29.103  1.00  0.00     0.010 A 
ATOM     53  C   UNL A   1      47.037  35.179  26.876  1.00  0.00     0.020 A 
ATOM     54  C   UNL A   1      47.210  34.857  29.275  1.00  0.00     0.020 A 
ATOM     55  C   UNL A   1      47.283  35.686  28.157  1.00  0.00     0.054 A 
BRANCH  55  56
ATOM     56  S   UNL A   1      47.678  37.446  28.349  1.00  0.00     0.124 S 
ATOM     57  O   UNL A   1      46.425  38.082  27.957  1.00  0.00    -0.237 OA
ATOM     58  O   UNL A   1      48.022  37.538  29.765  1.00  0.00    -0.237 OA
ATOM     59  O   UNL A   1      48.797  37.647  27.429  1.00  0.00    -0.744 OA
ENDBRANCH  55  56
ENDBRANCH  27  50
BRANCH  39  60
ATOM     60  C   UNL A   1      50.177  27.082  26.437  1.00  0.00    -0.014 A 
ATOM     61  C   UNL A   1      51.054  26.753  27.483  1.00  0.00     0.010 A 
ATOM     62  C   UNL A   1      50.643  27.105  25.110  1.00  0.00     0.010 A 
ATOM     63  C   UNL A   1      52.391  26.480  27.207  1.00  0.00     0.020 A 
ATOM     64  C   UNL A   1      51.970  26.797  24.829  1.00  0.00     0.020 A 
ATOM     65  C   UNL A   1      52.839  26.498  25.882  1.00  0.00     0.054 A 
BRANCH  65  66
ATOM     66  S   UNL A   1      54.566  26.081  25.545  1.00  0.00     0.124 S 
ATOM     67  O   UNL A   1      55.277  27.111  26.298  1.00  0.00    -0.237 OA
ATOM     68  O   UNL A   1      54.675  24.724  26.075  1.00  0.00    -0.237 OA
ATOM     69  O   UNL A   1      54.671  26.188  24.092  1.00  0.00    -0.744 OA
ENDBRANCH  65  66
ENDBRANCH  39  60
ENDBRANCH  13  14
ENDBRANCH   6   8
ENDBRANCH   5   6
ENDBRANCH   4   5
ENDBRANCH   3   4
ENDBRANCH   2   3
ENDBRANCH   1   2
BRANCH   1  70
ATOM     70  C   UNL A   1      33.131  34.064  27.954  1.00  0.00     0.188 C 
BRANCH  70  71
ATOM     71  O   UNL A   1      32.513  35.052  28.757  1.00  0.00    -0.376 OA
BRANCH  71  72
ATOM     72  C   UNL A   1      33.378  36.021  29.335  1.00  0.00     0.202 C 
BRANCH  72  73
ATOM     73  C   UNL A   1      33.263  36.308  30.845  1.00  0.00     0.261 C 
BRANCH  73  74
ATOM     74  O   UNL A   1      32.997  35.164  31.678  1.00  0.00    -0.461 OA
BRANCH  74  75
ATOM     75  C   UNL A   1      34.048  34.313  31.885  1.00  0.00     0.335 C 
ATOM     76  O   UNL A   1      34.099  33.163  31.464  1.00  0.00    -0.249 OA
BRANCH  75  77
ATOM     77  C   UNL A   1      35.177  34.995  32.683  1.00  0.00     0.228 C 
ATOM     78  C   UNL A   1      34.812  35.069  34.168  1.00  0.00     0.047 C 
ATOM     79  O   UNL A   1      36.443  34.295  32.615  1.00  0.00    -0.361 OA
ATOM     80  C   UNL A   1      35.593  33.904  34.749  1.00  0.00     0.037 C 
ATOM     81  C   UNL A   1      36.884  34.038  33.960  1.00  0.00     0.138 C 
BRANCH  81  82
ATOM     82  C   UNL A   1      37.924  32.902  34.135  1.00  0.00     0.149 C 
BRANCH  82  83
ATOM     83  N   UNL A   1      37.817  32.060  35.322  1.00  0.00    -0.335 N 
ATOM     84  C   UNL A   1      38.654  31.072  35.775  1.00  0.00     0.317 C 
ATOM     85  H   UNL A   1      37.025  32.226  35.883  1.00  0.00     0.165 HD
ATOM     86  O   UNL A   1      38.224  30.296  36.628  1.00  0.00    -0.249 OA
BRANCH  84  87
ATOM     87  N   UNL A   1      39.933  30.997  35.282  1.00  0.00    -0.317 N 
ATOM     88  C   UNL A   1      41.088  31.555  35.993  1.00  0.00     0.150 C 
ATOM     89  C   UNL A   1      40.352  30.112  34.184  1.00  0.00     0.116 C 
ATOM     90  C   UNL A   1      42.123  30.457  36.342  1.00  0.00     0.182 C 
ATOM     91  C   UNL A   1      41.309  29.033  34.684  1.00  0.00     0.141 C 
ATOM     92  C   UNL A   1      39.409  29.325  33.269  1.00  0.00     0.028 C 
ATOM     93  O   UNL A   1      42.489  29.635  35.213  1.00  0.00    -0.374 OA
ATOM     94  C   UNL A   1      41.549  28.215  33.422  1.00  0.00     0.034 C 
ATOM     95  C   UNL A   1      40.139  28.038  32.879  1.00  0.00     0.005 C 
ENDBRANCH  84  87
ENDBRANCH  82  83
ENDBRANCH  81  82
ENDBRANCH  75  77
ENDBRANCH  74  75
ENDBRANCH  73  74
ENDBRANCH  72  73
ENDBRANCH  71  72
ENDBRANCH  70  71
ENDBRANCH   1  70
TORSDOF 23
ENDMDL
MODEL 3
REMARK VINA RESULT:      -9.3      7.028     11.118
REMARK SMILES O=C(OCCOCCOCCOC(=O)[C@H]1CC[C@@H](CNC(=O)N2CCO[C@@H]3CCC[C@H]32)O1)c1ccc(-c2c3nc(c(-c4ccc(S(=O)(=O)[O-])cc4)c4ccc([nH]4)c(-c4ccc(S(=O)(=O)[O-])cc4)c4nc(c(-c5ccc(S(=O)(=O)[O-])cc5)c5ccc2[nH]5)C=C4)C=C3)cc1
REMARK SMILES IDX 7 1 6 2 5 3 4 4 3 5 2 6 1 7 33 8 34 9 92 10 35 11 91 12
REMARK SMILES IDX 36 13 37 14 38 15 85 16 39 17 90 18 84 19 86 20 40 21 89 22
REMARK SMILES IDX 83 23 82 24 41 26 71 27 52 28 70 29 53 30 56 31 69 32 87 33
REMARK SMILES IDX 54 34 55 35 68 37 88 38 57 39 42 40 43 41 51 42 44 43 50 44
REMARK SMILES IDX 45 45 46 46 47 47 48 48 49 49 72 50 73 51 81 52 74 53 80 54
REMARK SMILES IDX 75 55 76 56 77 57 78 58 79 59 58 60 59 61 67 62 60 63 66 64
REMARK SMILES IDX 61 65 62 66 63 67 64 68 65 69 8 70 9 71 10 72 11 73 12 74
REMARK SMILES IDX 13 75 14 76 15 77 16 78 32 79 17 80 18 81 19 82 20 83 21 84
REMARK SMILES IDX 22 86 23 87 24 88 31 89 25 90 27 91 30 92 26 93 28 94 29 95
REMARK H PARENT 86 25 56 36 20 85
REMARK Flexibility Score: inf
ROOT
ATOM      1  C   UNL A   1      34.391  33.845  27.830  1.00  0.00     0.188 C 
ENDROOT
BRANCH   1   2
ATOM      2  O   UNL A   1      34.987  32.984  28.799  1.00  0.00    -0.376 OA
BRANCH   2   3
ATOM      3  C   UNL A   1      34.713  31.588  28.687  1.00  0.00     0.202 C 
BRANCH   3   4
ATOM      4  C   UNL A   1      35.727  30.643  28.012  1.00  0.00     0.261 C 
BRANCH   4   5
ATOM      5  O   UNL A   1      37.069  30.641  28.517  1.00  0.00    -0.460 OA
BRANCH   5   6
ATOM      6  C   UNL A   1      37.739  29.600  29.039  1.00  0.00     0.338 C 
ATOM      7  O   UNL A   1      37.243  28.825  29.854  1.00  0.00    -0.246 OA
BRANCH   6   8
ATOM      8  C   UNL A   1      39.028  29.201  28.549  1.00  0.00     0.060 A 
ATOM      9  C   UNL A   1      39.344  29.333  27.208  1.00  0.00     0.016 A 
ATOM     10  C   UNL A   1      40.003  29.007  29.543  1.00  0.00     0.016 A 
ATOM     11  C   UNL A   1      40.648  29.184  26.832  1.00  0.00     0.010 A 
ATOM     12  C   UNL A   1      41.328  28.975  29.181  1.00  0.00     0.010 A 
ATOM     13  C   UNL A   1      41.628  29.047  27.822  1.00  0.00    -0.014 A 
BRANCH  13  14
ATOM     14  C   UNL A   1      42.995  28.921  27.352  1.00  0.00     0.031 A 
ATOM     15  C   UNL A   1      43.907  30.047  27.671  1.00  0.00     0.074 A 
ATOM     16  C   UNL A   1      43.352  27.721  26.868  1.00  0.00     0.049 A 
ATOM     17  N   UNL A   1      45.197  30.105  27.539  1.00  0.00    -0.248 NA
ATOM     18  C   UNL A   1      43.296  31.263  28.245  1.00  0.00     0.031 C 
ATOM     19  C   UNL A   1      42.436  26.587  26.664  1.00  0.00     0.029 A 
ATOM     20  N   UNL A   1      44.576  27.223  26.550  1.00  0.00    -0.354 N 
ATOM     21  C   UNL A   1      45.552  31.362  28.004  1.00  0.00     0.074 A 
ATOM     22  C   UNL A   1      44.349  32.046  28.404  1.00  0.00     0.031 C 
ATOM     23  C   UNL A   1      43.151  25.502  26.330  1.00  0.00     0.029 A 
ATOM     24  C   UNL A   1      44.550  25.888  26.223  1.00  0.00     0.049 A 
ATOM     25  H   UNL A   1      45.398  27.763  26.554  1.00  0.00     0.167 HD
ATOM     26  C   UNL A   1      46.795  31.879  28.076  1.00  0.00     0.031 A 
ATOM     27  C   UNL A   1      45.569  25.091  25.864  1.00  0.00     0.031 A 
ATOM     28  C   UNL A   1      47.937  31.143  27.613  1.00  0.00     0.049 A 
ATOM     29  C   UNL A   1      46.928  25.733  25.851  1.00  0.00     0.074 A 
ATOM     30  C   UNL A   1      49.249  31.550  27.514  1.00  0.00     0.029 A 
ATOM     31  N   UNL A   1      47.878  29.828  27.156  1.00  0.00    -0.354 N 
ATOM     32  N   UNL A   1      47.263  26.945  26.241  1.00  0.00    -0.248 NA
ATOM     33  C   UNL A   1      48.037  24.926  25.344  1.00  0.00     0.031 C 
ATOM     34  C   UNL A   1      49.971  30.500  26.934  1.00  0.00     0.029 A 
ATOM     35  C   UNL A   1      49.125  29.413  26.743  1.00  0.00     0.049 A 
ATOM     36  H   UNL A   1      47.062  29.276  27.130  1.00  0.00     0.167 HD
ATOM     37  C   UNL A   1      48.628  27.051  26.027  1.00  0.00     0.074 A 
ATOM     38  C   UNL A   1      49.055  25.761  25.505  1.00  0.00     0.031 C 
ATOM     39  C   UNL A   1      49.458  28.105  26.226  1.00  0.00     0.031 A 
BRANCH  26  40
ATOM     40  C   UNL A   1      46.913  33.297  28.552  1.00  0.00    -0.014 A 
ATOM     41  C   UNL A   1      47.027  33.613  29.919  1.00  0.00     0.010 A 
ATOM     42  C   UNL A   1      46.824  34.341  27.615  1.00  0.00     0.010 A 
ATOM     43  C   UNL A   1      47.013  34.945  30.342  1.00  0.00     0.020 A 
ATOM     44  C   UNL A   1      46.836  35.676  28.031  1.00  0.00     0.020 A 
ATOM     45  C   UNL A   1      46.914  35.968  29.394  1.00  0.00     0.054 A 
BRANCH  45  46
ATOM     46  S   UNL A   1      46.905  37.689  29.966  1.00  0.00     0.124 S 
ATOM     47  O   UNL A   1      46.668  37.530  31.399  1.00  0.00    -0.237 OA
ATOM     48  O   UNL A   1      48.241  38.154  29.598  1.00  0.00    -0.237 OA
ATOM     49  O   UNL A   1      45.808  38.298  29.219  1.00  0.00    -0.744 OA
ENDBRANCH  45  46
ENDBRANCH  26  40
BRANCH  27  50
ATOM     50  C   UNL A   1      45.319  23.686  25.441  1.00  0.00    -0.014 A 
ATOM     51  C   UNL A   1      44.835  23.376  24.160  1.00  0.00     0.010 A 
ATOM     52  C   UNL A   1      45.595  22.630  26.334  1.00  0.00     0.010 A 
ATOM     53  C   UNL A   1      44.613  22.043  23.790  1.00  0.00     0.020 A 
ATOM     54  C   UNL A   1      45.406  21.298  25.959  1.00  0.00     0.020 A 
ATOM     55  C   UNL A   1      44.900  21.013  24.693  1.00  0.00     0.054 A 
BRANCH  55  56
ATOM     56  S   UNL A   1      44.624  19.292  24.187  1.00  0.00     0.124 S 
ATOM     57  O   UNL A   1      45.765  18.612  24.792  1.00  0.00    -0.237 OA
ATOM     58  O   UNL A   1      43.322  18.996  24.777  1.00  0.00    -0.237 OA
ATOM     59  O   UNL A   1      44.638  19.360  22.726  1.00  0.00    -0.744 OA
ENDBRANCH  55  56
ENDBRANCH  27  50
BRANCH  39  60
ATOM     60  C   UNL A   1      50.901  27.875  25.896  1.00  0.00    -0.014 A 
ATOM     61  C   UNL A   1      51.382  28.063  24.589  1.00  0.00     0.010 A 
ATOM     62  C   UNL A   1      51.791  27.542  26.931  1.00  0.00     0.010 A 
ATOM     63  C   UNL A   1      52.736  27.889  24.317  1.00  0.00     0.020 A 
ATOM     64  C   UNL A   1      53.151  27.402  26.668  1.00  0.00     0.020 A 
ATOM     65  C   UNL A   1      53.612  27.564  25.359  1.00  0.00     0.054 A 
BRANCH  65  66
ATOM     66  S   UNL A   1      55.375  27.402  24.989  1.00  0.00     0.124 S 
ATOM     67  O   UNL A   1      55.759  26.277  25.837  1.00  0.00    -0.237 OA
ATOM     68  O   UNL A   1      55.375  27.138  23.552  1.00  0.00    -0.237 OA
ATOM     69  O   UNL A   1      55.930  28.695  25.379  1.00  0.00    -0.744 OA
ENDBRANCH  65  66
ENDBRANCH  39  60
ENDBRANCH  13  14
ENDBRANCH   6   8
ENDBRANCH   5   6
ENDBRANCH   4   5
ENDBRANCH   3   4
ENDBRANCH   2   3
ENDBRANCH   1   2
BRANCH   1  70
ATOM     70  C   UNL A   1      32.914  34.214  27.974  1.00  0.00     0.188 C 
BRANCH  70  71
ATOM     71  O   UNL A   1      32.568  35.299  28.815  1.00  0.00    -0.376 OA
BRANCH  71  72
ATOM     72  C   UNL A   1      33.635  35.892  29.544  1.00  0.00     0.202 C 
BRANCH  72  73
ATOM     73  C   UNL A   1      33.611  35.815  31.083  1.00  0.00     0.261 C 
BRANCH  73  74
ATOM     74  O   UNL A   1      33.255  34.534  31.638  1.00  0.00    -0.461 OA
BRANCH  74  75
ATOM     75  C   UNL A   1      34.247  33.874  32.310  1.00  0.00     0.335 C 
ATOM     76  O   UNL A   1      34.439  32.664  32.245  1.00  0.00    -0.249 OA
BRANCH  75  77
ATOM     77  C   UNL A   1      35.117  34.846  33.130  1.00  0.00     0.228 C 
ATOM     78  C   UNL A   1      35.203  34.387  34.588  1.00  0.00     0.047 C 
ATOM     79  O   UNL A   1      36.483  34.945  32.659  1.00  0.00    -0.361 OA
ATOM     80  C   UNL A   1      36.558  33.705  34.630  1.00  0.00     0.037 C 
ATOM     81  C   UNL A   1      37.358  34.664  33.766  1.00  0.00     0.138 C 
BRANCH  81  82
ATOM     82  C   UNL A   1      38.802  34.231  33.405  1.00  0.00     0.149 C 
BRANCH  82  83
ATOM     83  N   UNL A   1      39.094  32.801  33.369  1.00  0.00    -0.335 N 
ATOM     84  C   UNL A   1      39.358  31.987  32.297  1.00  0.00     0.317 C 
ATOM     85  H   UNL A   1      39.103  32.354  34.246  1.00  0.00     0.165 HD
ATOM     86  O   UNL A   1      39.284  30.769  32.463  1.00  0.00    -0.249 OA
BRANCH  84  87
ATOM     87  N   UNL A   1      39.713  32.550  31.097  1.00  0.00    -0.317 N 
ATOM     88  C   UNL A   1      38.725  33.073  30.147  1.00  0.00     0.150 C 
ATOM     89  C   UNL A   1      41.076  32.981  30.748  1.00  0.00     0.116 C 
ATOM     90  C   UNL A   1      38.931  34.586  29.890  1.00  0.00     0.182 C 
ATOM     91  C   UNL A   1      41.150  34.498  30.601  1.00  0.00     0.141 C 
ATOM     92  C   UNL A   1      42.340  32.659  31.550  1.00  0.00     0.028 C 
ATOM     93  O   UNL A   1      40.291  34.929  29.547  1.00  0.00    -0.374 OA
ATOM     94  C   UNL A   1      42.631  34.714  30.314  1.00  0.00     0.034 C 
ATOM     95  C   UNL A   1      43.294  33.841  31.368  1.00  0.00     0.005 C 
ENDBRANCH  84  87
ENDBRANCH  82  83
ENDBRANCH  81  82
ENDBRANCH  75  77
ENDBRANCH  74  75
ENDBRANCH  73  74
ENDBRANCH  72  73
ENDBRANCH  71  72
ENDBRANCH  70  71
ENDBRANCH   1  70
TORSDOF 23
ENDMDL
