MODEL 1
REMARK VINA RESULT:      -8.7      0.000      0.000
REMARK SMILES C/C(=N/OCc1ccccc1Nc1c(Cl)cccc1Cl)C(=O)OCCOCCOCCOC(=O)c1ccc(-c2c3nc(c(-c4ccc(S(=O)(=O)[O-])cc4)c4ccc([nH]4)c(-c4ccc(S(=O)(=O)[O-])cc4)c4nc(c(-c5ccc(S(=O)(=O)[O-])cc5)c5ccc2[nH]5)C=C4)C=C3)cc1
REMARK SMILES IDX 27 1 26 2 25 3 24 4 23 5 21 6 22 7 2 8 1 9 3 10 4 11 5 12
REMARK SMILES IDX 6 13 7 14 11 15 8 16 10 17 9 18 12 19 13 21 14 22 19 23
REMARK SMILES IDX 15 24 16 25 18 26 20 27 17 28 28 29 29 30 30 31 31 32 32 33
REMARK SMILES IDX 33 34 34 35 35 36 36 37 94 38 37 39 93 40 38 41 39 42 40 43
REMARK SMILES IDX 87 44 41 45 92 46 86 47 88 48 42 49 91 50 85 51 84 52 43 54
REMARK SMILES IDX 73 55 54 56 72 57 55 58 58 59 71 60 89 61 56 62 57 63 70 65
REMARK SMILES IDX 90 66 59 67 44 68 45 69 53 70 46 71 52 72 47 73 48 74 49 75
REMARK SMILES IDX 50 76 51 77 74 78 75 79 83 80 76 81 82 82 77 83 78 84 79 85
REMARK SMILES IDX 80 86 81 87 60 88 61 89 69 90 62 91 68 92 63 93 64 94 65 95
REMARK SMILES IDX 66 96 67 97
REMARK H PARENT 12 20 88 53 58 64
REMARK Flexibility Score: inf
ROOT
ATOM      1  C   UNL A   1      31.402  29.264  25.000  1.00  0.00     0.188 C 
ENDROOT
BRANCH   1   2
ATOM      2  O   UNL A   1      32.501  28.933  24.155  1.00  0.00    -0.376 OA
BRANCH   2   3
ATOM      3  C   UNL A   1      32.260  28.701  22.769  1.00  0.00     0.202 C 
BRANCH   3   4
ATOM      4  C   UNL A   1      32.287  27.244  22.299  1.00  0.00     0.261 C 
BRANCH   4   5
ATOM      5  O   UNL A   1      31.030  26.608  22.557  1.00  0.00    -0.459 OA
BRANCH   5   6
ATOM      6  C   UNL A   1      31.062  25.436  23.215  1.00  0.00     0.355 C 
ATOM      7  O   UNL A   1      31.372  24.342  22.774  1.00  0.00    -0.245 OA
BRANCH   6   8
ATOM      8  C   UNL A   1      30.812  25.668  24.700  1.00  0.00     0.161 C 
ATOM      9  C   UNL A   1      29.390  25.948  25.094  1.00  0.00     0.079 C 
ATOM     10  N   UNL A   1      31.719  25.579  25.628  1.00  0.00    -0.084 NA
BRANCH  10  11
ATOM     11  O   UNL A   1      32.980  25.277  25.087  1.00  0.00    -0.390 OA
BRANCH  11  12
ATOM     12  C   UNL A   1      33.734  24.519  26.042  1.00  0.00     0.302 C 
BRANCH  12  13
ATOM     13  C   UNL A   1      34.931  23.826  25.420  1.00  0.00     0.016 A 
ATOM     14  C   UNL A   1      36.229  24.328  25.651  1.00  0.00     0.009 A 
ATOM     15  C   UNL A   1      34.769  22.686  24.603  1.00  0.00     0.045 A 
ATOM     16  C   UNL A   1      37.357  23.682  25.156  1.00  0.00     0.001 A 
ATOM     17  C   UNL A   1      35.924  22.054  24.109  1.00  0.00     0.026 A 
ATOM     18  C   UNL A   1      37.203  22.537  24.389  1.00  0.00     0.002 A 
BRANCH  15  19
ATOM     19  N   UNL A   1      33.479  22.171  24.337  1.00  0.00    -0.353 N 
ATOM     20  H   UNL A   1      32.814  22.836  24.047  1.00  0.00     0.167 HD
BRANCH  19  21
ATOM     21  C   UNL A   1      33.000  20.840  24.425  1.00  0.00     0.076 A 
ATOM     22  C   UNL A   1      32.406  20.248  23.289  1.00  0.00     0.066 A 
ATOM     23  C   UNL A   1      33.159  20.030  25.567  1.00  0.00     0.066 A 
ATOM     24  Cl  UNL A   1      32.136  21.172  21.848  1.00  0.00    -0.082 Cl
ATOM     25  C   UNL A   1      32.029  18.901  23.277  1.00  0.00     0.023 A 
ATOM     26  C   UNL A   1      32.783  18.679  25.552  1.00  0.00     0.023 A 
ATOM     27  Cl  UNL A   1      33.734  20.659  27.075  1.00  0.00    -0.082 Cl
ATOM     28  C   UNL A   1      32.229  18.113  24.406  1.00  0.00     0.003 A 
ENDBRANCH  19  21
ENDBRANCH  15  19
ENDBRANCH  12  13
ENDBRANCH  11  12
ENDBRANCH  10  11
ENDBRANCH   6   8
ENDBRANCH   5   6
ENDBRANCH   4   5
ENDBRANCH   3   4
ENDBRANCH   2   3
ENDBRANCH   1   2
BRANCH   1  29
ATOM     29  C   UNL A   1      31.152  30.741  25.374  1.00  0.00     0.188 C 
BRANCH  29  30
ATOM     30  O   UNL A   1      31.368  31.033  26.745  1.00  0.00    -0.376 OA
BRANCH  30  31
ATOM     31  C   UNL A   1      32.318  32.055  27.007  1.00  0.00     0.202 C 
BRANCH  31  32
ATOM     32  C   UNL A   1      33.690  31.547  27.473  1.00  0.00     0.261 C 
BRANCH  32  33
ATOM     33  O   UNL A   1      33.746  30.154  27.830  1.00  0.00    -0.460 OA
BRANCH  33  34
ATOM     34  C   UNL A   1      34.777  29.439  27.329  1.00  0.00     0.338 C 
ATOM     35  O   UNL A   1      34.801  28.843  26.267  1.00  0.00    -0.246 OA
BRANCH  34  36
ATOM     36  C   UNL A   1      35.958  29.645  28.198  1.00  0.00     0.060 A 
ATOM     37  C   UNL A   1      37.164  30.047  27.610  1.00  0.00     0.016 A 
ATOM     38  C   UNL A   1      35.887  29.417  29.575  1.00  0.00     0.016 A 
ATOM     39  C   UNL A   1      38.318  30.158  28.390  1.00  0.00     0.010 A 
ATOM     40  C   UNL A   1      37.047  29.515  30.353  1.00  0.00     0.010 A 
ATOM     41  C   UNL A   1      38.278  29.839  29.755  1.00  0.00    -0.014 A 
BRANCH  41  42
ATOM     42  C   UNL A   1      39.551  29.615  30.487  1.00  0.00     0.031 A 
ATOM     43  C   UNL A   1      40.462  28.512  30.007  1.00  0.00     0.074 A 
ATOM     44  C   UNL A   1      39.927  30.391  31.519  1.00  0.00     0.049 A 
ATOM     45  N   UNL A   1      41.642  28.157  30.446  1.00  0.00    -0.248 NA
ATOM     46  C   UNL A   1      39.973  27.705  28.876  1.00  0.00     0.031 C 
ATOM     47  C   UNL A   1      39.157  31.506  32.069  1.00  0.00     0.029 A 
ATOM     48  N   UNL A   1      41.065  30.356  32.288  1.00  0.00    -0.354 N 
ATOM     49  C   UNL A   1      42.036  27.090  29.645  1.00  0.00     0.074 A 
ATOM     50  C   UNL A   1      40.956  26.831  28.720  1.00  0.00     0.031 C 
ATOM     51  C   UNL A   1      39.848  32.051  33.088  1.00  0.00     0.029 A 
ATOM     52  C   UNL A   1      41.097  31.315  33.274  1.00  0.00     0.049 A 
ATOM     53  H   UNL A   1      41.790  29.705  32.147  1.00  0.00     0.167 HD
ATOM     54  C   UNL A   1      43.196  26.391  29.666  1.00  0.00     0.031 A 
ATOM     55  C   UNL A   1      42.027  31.566  34.218  1.00  0.00     0.031 A 
ATOM     56  C   UNL A   1      44.267  26.628  30.596  1.00  0.00     0.049 A 
ATOM     57  C   UNL A   1      43.290  30.741  34.256  1.00  0.00     0.074 A 
ATOM     58  C   UNL A   1      45.484  25.977  30.693  1.00  0.00     0.029 A 
ATOM     59  N   UNL A   1      44.246  27.588  31.597  1.00  0.00    -0.354 N 
ATOM     60  N   UNL A   1      43.660  29.757  33.471  1.00  0.00    -0.248 NA
ATOM     61  C   UNL A   1      44.268  31.076  35.303  1.00  0.00     0.031 C 
ATOM     62  C   UNL A   1      46.180  26.512  31.784  1.00  0.00     0.029 A 
ATOM     63  C   UNL A   1      45.419  27.534  32.328  1.00  0.00     0.049 A 
ATOM     64  H   UNL A   1      43.505  28.214  31.763  1.00  0.00     0.167 HD
ATOM     65  C   UNL A   1      44.927  29.378  33.908  1.00  0.00     0.074 A 
ATOM     66  C   UNL A   1      45.263  30.248  35.016  1.00  0.00     0.031 C 
ATOM     67  C   UNL A   1      45.741  28.402  33.433  1.00  0.00     0.031 A 
BRANCH  54  68
ATOM     68  C   UNL A   1      43.347  25.280  28.662  1.00  0.00    -0.014 A 
ATOM     69  C   UNL A   1      42.777  24.013  28.888  1.00  0.00     0.010 A 
ATOM     70  C   UNL A   1      44.059  25.508  27.471  1.00  0.00     0.010 A 
ATOM     71  C   UNL A   1      42.950  22.984  27.960  1.00  0.00     0.020 A 
ATOM     72  C   UNL A   1      44.212  24.488  26.527  1.00  0.00     0.020 A 
ATOM     73  C   UNL A   1      43.673  23.227  26.787  1.00  0.00     0.054 A 
BRANCH  73  74
ATOM     74  S   UNL A   1      43.874  21.877  25.592  1.00  0.00     0.124 S 
ATOM     75  O   UNL A   1      43.312  22.465  24.378  1.00  0.00    -0.237 OA
ATOM     76  O   UNL A   1      45.320  21.671  25.579  1.00  0.00    -0.237 OA
ATOM     77  O   UNL A   1      43.097  20.783  26.171  1.00  0.00    -0.744 OA
ENDBRANCH  73  74
ENDBRANCH  54  68
BRANCH  55  78
ATOM     78  C   UNL A   1      41.807  32.654  35.211  1.00  0.00    -0.014 A 
ATOM     79  C   UNL A   1      40.999  32.444  36.343  1.00  0.00     0.010 A 
ATOM     80  C   UNL A   1      42.394  33.918  35.017  1.00  0.00     0.010 A 
ATOM     81  C   UNL A   1      40.765  33.483  37.250  1.00  0.00     0.020 A 
ATOM     82  C   UNL A   1      42.184  34.951  35.935  1.00  0.00     0.020 A 
ATOM     83  C   UNL A   1      41.361  34.730  37.040  1.00  0.00     0.054 A 
BRANCH  83  84
ATOM     84  S   UNL A   1      41.083  36.051  38.254  1.00  0.00     0.124 S 
ATOM     85  O   UNL A   1      40.010  36.818  37.629  1.00  0.00    -0.237 OA
ATOM     86  O   UNL A   1      40.712  35.304  39.454  1.00  0.00    -0.237 OA
ATOM     87  O   UNL A   1      42.377  36.726  38.326  1.00  0.00    -0.744 OA
ENDBRANCH  83  84
ENDBRANCH  55  78
BRANCH  67  88
ATOM     88  C   UNL A   1      47.092  28.250  34.082  1.00  0.00    -0.014 A 
ATOM     89  C   UNL A   1      48.192  29.029  33.680  1.00  0.00     0.010 A 
ATOM     90  C   UNL A   1      47.256  27.326  35.131  1.00  0.00     0.010 A 
ATOM     91  C   UNL A   1      49.443  28.849  34.278  1.00  0.00     0.020 A 
ATOM     92  C   UNL A   1      48.498  27.163  35.751  1.00  0.00     0.020 A 
ATOM     93  C   UNL A   1      49.590  27.910  35.305  1.00  0.00     0.054 A 
BRANCH  93  94
ATOM     94  S   UNL A   1      51.220  27.693  36.069  1.00  0.00     0.124 S 
ATOM     95  O   UNL A   1      51.584  26.349  35.631  1.00  0.00    -0.237 OA
ATOM     96  O   UNL A   1      52.000  28.780  35.481  1.00  0.00    -0.237 OA
ATOM     97  O   UNL A   1      50.953  27.832  37.499  1.00  0.00    -0.744 OA
ENDBRANCH  93  94
ENDBRANCH  67  88
ENDBRANCH  41  42
ENDBRANCH  34  36
ENDBRANCH  33  34
ENDBRANCH  32  33
ENDBRANCH  31  32
ENDBRANCH  30  31
ENDBRANCH  29  30
ENDBRANCH   1  29
TORSDOF 25
ENDMDL
MODEL 2
REMARK VINA RESULT:      -8.5      6.288     10.222
REMARK SMILES C/C(=N/OCc1ccccc1Nc1c(Cl)cccc1Cl)C(=O)OCCOCCOCCOC(=O)c1ccc(-c2c3nc(c(-c4ccc(S(=O)(=O)[O-])cc4)c4ccc([nH]4)c(-c4ccc(S(=O)(=O)[O-])cc4)c4nc(c(-c5ccc(S(=O)(=O)[O-])cc5)c5ccc2[nH]5)C=C4)C=C3)cc1
REMARK SMILES IDX 27 1 26 2 25 3 24 4 23 5 21 6 22 7 2 8 1 9 3 10 4 11 5 12
REMARK SMILES IDX 6 13 7 14 11 15 8 16 10 17 9 18 12 19 13 21 14 22 19 23
REMARK SMILES IDX 15 24 16 25 18 26 20 27 17 28 28 29 29 30 30 31 31 32 32 33
REMARK SMILES IDX 33 34 34 35 35 36 36 37 94 38 37 39 93 40 38 41 39 42 40 43
REMARK SMILES IDX 87 44 41 45 92 46 86 47 88 48 42 49 91 50 85 51 84 52 43 54
REMARK SMILES IDX 73 55 54 56 72 57 55 58 58 59 71 60 89 61 56 62 57 63 70 65
REMARK SMILES IDX 90 66 59 67 44 68 45 69 53 70 46 71 52 72 47 73 48 74 49 75
REMARK SMILES IDX 50 76 51 77 74 78 75 79 83 80 76 81 82 82 77 83 78 84 79 85
REMARK SMILES IDX 80 86 81 87 60 88 61 89 69 90 62 91 68 92 63 93 64 94 65 95
REMARK SMILES IDX 66 96 67 97
REMARK H PARENT 12 20 88 53 58 64
REMARK Flexibility Score: inf
ROOT
ATOM      1  C   UNL A   1      32.343  30.468  26.680  1.00  0.00     0.188 C 
ENDROOT
BRANCH   1   2
ATOM      2  O   UNL A   1      32.626  30.044  25.348  1.00  0.00    -0.376 OA
BRANCH   2   3
ATOM      3  C   UNL A   1      31.888  28.956  24.799  1.00  0.00     0.202 C 
BRANCH   3   4
ATOM      4  C   UNL A   1      32.677  27.687  24.465  1.00  0.00     0.261 C 
BRANCH   4   5
ATOM      5  O   UNL A   1      33.029  26.982  25.662  1.00  0.00    -0.459 OA
BRANCH   5   6
ATOM      6  C   UNL A   1      32.019  26.532  26.425  1.00  0.00     0.355 C 
ATOM      7  O   UNL A   1      31.528  27.068  27.404  1.00  0.00    -0.245 OA
BRANCH   6   8
ATOM      8  C   UNL A   1      31.410  25.285  25.796  1.00  0.00     0.161 C 
ATOM      9  C   UNL A   1      30.124  25.484  25.046  1.00  0.00     0.079 C 
ATOM     10  N   UNL A   1      31.952  24.103  25.818  1.00  0.00    -0.084 NA
BRANCH  10  11
ATOM     11  O   UNL A   1      33.164  24.106  26.529  1.00  0.00    -0.390 OA
BRANCH  11  12
ATOM     12  C   UNL A   1      33.634  22.759  26.666  1.00  0.00     0.302 C 
BRANCH  12  13
ATOM     13  C   UNL A   1      34.987  22.546  26.013  1.00  0.00     0.016 A 
ATOM     14  C   UNL A   1      35.887  23.626  25.898  1.00  0.00     0.009 A 
ATOM     15  C   UNL A   1      35.362  21.282  25.510  1.00  0.00     0.045 A 
ATOM     16  C   UNL A   1      37.162  23.457  25.369  1.00  0.00     0.001 A 
ATOM     17  C   UNL A   1      36.653  21.136  24.974  1.00  0.00     0.026 A 
ATOM     18  C   UNL A   1      37.549  22.206  24.913  1.00  0.00     0.002 A 
BRANCH  15  19
ATOM     19  N   UNL A   1      34.474  20.184  25.593  1.00  0.00    -0.353 N 
ATOM     20  H   UNL A   1      34.205  19.931  26.506  1.00  0.00     0.167 HD
BRANCH  19  21
ATOM     21  C   UNL A   1      33.912  19.393  24.560  1.00  0.00     0.076 A 
ATOM     22  C   UNL A   1      34.454  18.115  24.301  1.00  0.00     0.066 A 
ATOM     23  C   UNL A   1      32.772  19.772  23.823  1.00  0.00     0.066 A 
ATOM     24  Cl  UNL A   1      35.875  17.571  25.131  1.00  0.00    -0.082 Cl
ATOM     25  C   UNL A   1      33.864  17.241  23.383  1.00  0.00     0.023 A 
ATOM     26  C   UNL A   1      32.181  18.893  22.905  1.00  0.00     0.023 A 
ATOM     27  Cl  UNL A   1      32.088  21.360  23.929  1.00  0.00    -0.082 Cl
ATOM     28  C   UNL A   1      32.719  17.626  22.693  1.00  0.00     0.003 A 
ENDBRANCH  19  21
ENDBRANCH  15  19
ENDBRANCH  12  13
ENDBRANCH  11  12
ENDBRANCH  10  11
ENDBRANCH   6   8
ENDBRANCH   5   6
ENDBRANCH   4   5
ENDBRANCH   3   4
ENDBRANCH   2   3
ENDBRANCH   1   2
BRANCH   1  29
ATOM     29  C   UNL A   1      33.510  30.821  27.627  1.00  0.00     0.188 C 
BRANCH  29  30
ATOM     30  O   UNL A   1      33.792  32.209  27.702  1.00  0.00    -0.376 OA
BRANCH  30  31
ATOM     31  C   UNL A   1      34.927  32.558  28.481  1.00  0.00     0.202 C 
BRANCH  31  32
ATOM     32  C   UNL A   1      35.491  31.414  29.335  1.00  0.00     0.261 C 
BRANCH  32  33
ATOM     33  O   UNL A   1      35.665  31.713  30.732  1.00  0.00    -0.460 OA
BRANCH  33  34
ATOM     34  C   UNL A   1      36.169  30.726  31.507  1.00  0.00     0.338 C 
ATOM     35  O   UNL A   1      36.278  29.551  31.207  1.00  0.00    -0.246 OA
BRANCH  34  36
ATOM     36  C   UNL A   1      36.746  31.335  32.727  1.00  0.00     0.060 A 
ATOM     37  C   UNL A   1      36.272  32.585  33.144  1.00  0.00     0.016 A 
ATOM     38  C   UNL A   1      37.764  30.694  33.439  1.00  0.00     0.016 A 
ATOM     39  C   UNL A   1      36.861  33.226  34.236  1.00  0.00     0.010 A 
ATOM     40  C   UNL A   1      38.364  31.344  34.524  1.00  0.00     0.010 A 
ATOM     41  C   UNL A   1      37.947  32.634  34.898  1.00  0.00    -0.014 A 
BRANCH  41  42
ATOM     42  C   UNL A   1      38.784  33.462  35.805  1.00  0.00     0.031 A 
ATOM     43  C   UNL A   1      38.518  33.382  37.288  1.00  0.00     0.074 A 
ATOM     44  C   UNL A   1      39.788  34.229  35.346  1.00  0.00     0.049 A 
ATOM     45  N   UNL A   1      39.142  33.965  38.278  1.00  0.00    -0.248 NA
ATOM     46  C   UNL A   1      37.396  32.524  37.707  1.00  0.00     0.031 C 
ATOM     47  C   UNL A   1      40.171  34.378  33.943  1.00  0.00     0.029 A 
ATOM     48  N   UNL A   1      40.676  35.028  36.024  1.00  0.00    -0.354 N 
ATOM     49  C   UNL A   1      38.492  33.544  39.433  1.00  0.00     0.074 A 
ATOM     50  C   UNL A   1      37.404  32.688  39.020  1.00  0.00     0.031 C 
ATOM     51  C   UNL A   1      41.220  35.219  33.865  1.00  0.00     0.029 A 
ATOM     52  C   UNL A   1      41.571  35.680  35.207  1.00  0.00     0.049 A 
ATOM     53  H   UNL A   1      40.673  35.126  37.003  1.00  0.00     0.167 HD
ATOM     54  C   UNL A   1      38.779  33.833  40.725  1.00  0.00     0.031 A 
ATOM     55  C   UNL A   1      42.557  36.549  35.510  1.00  0.00     0.031 A 
ATOM     56  C   UNL A   1      39.846  34.700  41.144  1.00  0.00     0.049 A 
ATOM     57  C   UNL A   1      42.825  36.897  36.953  1.00  0.00     0.074 A 
ATOM     58  C   UNL A   1      40.219  35.049  42.430  1.00  0.00     0.029 A 
ATOM     59  N   UNL A   1      40.709  35.363  40.284  1.00  0.00    -0.354 N 
ATOM     60  N   UNL A   1      42.222  36.465  38.035  1.00  0.00    -0.248 NA
ATOM     61  C   UNL A   1      43.923  37.841  37.214  1.00  0.00     0.031 C 
ATOM     62  C   UNL A   1      41.278  35.961  42.346  1.00  0.00     0.029 A 
ATOM     63  C   UNL A   1      41.600  36.133  41.009  1.00  0.00     0.049 A 
ATOM     64  H   UNL A   1      40.689  35.296  39.302  1.00  0.00     0.167 HD
ATOM     65  C   UNL A   1      42.887  37.058  39.105  1.00  0.00     0.074 A 
ATOM     66  C   UNL A   1      43.947  37.867  38.539  1.00  0.00     0.031 C 
ATOM     67  C   UNL A   1      42.647  36.940  40.435  1.00  0.00     0.031 A 
BRANCH  54  68
ATOM     68  C   UNL A   1      37.895  33.219  41.778  1.00  0.00    -0.014 A 
ATOM     69  C   UNL A   1      38.097  31.898  42.218  1.00  0.00     0.010 A 
ATOM     70  C   UNL A   1      36.856  33.978  42.346  1.00  0.00     0.010 A 
ATOM     71  C   UNL A   1      37.251  31.333  43.175  1.00  0.00     0.020 A 
ATOM     72  C   UNL A   1      36.024  33.426  43.324  1.00  0.00     0.020 A 
ATOM     73  C   UNL A   1      36.215  32.100  43.718  1.00  0.00     0.054 A 
BRANCH  73  74
ATOM     74  S   UNL A   1      35.137  31.348  44.969  1.00  0.00     0.124 S 
ATOM     75  O   UNL A   1      34.859  32.482  45.846  1.00  0.00    -0.237 OA
ATOM     76  O   UNL A   1      34.005  30.876  44.176  1.00  0.00    -0.237 OA
ATOM     77  O   UNL A   1      35.966  30.297  45.554  1.00  0.00    -0.744 OA
ENDBRANCH  73  74
ENDBRANCH  54  68
BRANCH  55  78
ATOM     78  C   UNL A   1      43.376  37.157  34.424  1.00  0.00    -0.014 A 
ATOM     79  C   UNL A   1      44.480  36.473  33.885  1.00  0.00     0.010 A 
ATOM     80  C   UNL A   1      43.063  38.439  33.935  1.00  0.00     0.010 A 
ATOM     81  C   UNL A   1      45.268  37.067  32.894  1.00  0.00     0.020 A 
ATOM     82  C   UNL A   1      43.832  39.025  32.926  1.00  0.00     0.020 A 
ATOM     83  C   UNL A   1      44.937  38.340  32.419  1.00  0.00     0.054 A 
BRANCH  83  84
ATOM     84  S   UNL A   1      45.944  39.073  31.098  1.00  0.00     0.124 S 
ATOM     85  O   UNL A   1      45.483  38.340  29.923  1.00  0.00    -0.237 OA
ATOM     86  O   UNL A   1      45.562  40.482  31.156  1.00  0.00    -0.237 OA
ATOM     87  O   UNL A   1      47.314  38.789  31.516  1.00  0.00    -0.744 OA
ENDBRANCH  83  84
ENDBRANCH  55  78
BRANCH  67  88
ATOM     88  C   UNL A   1      43.573  37.671  41.373  1.00  0.00    -0.014 A 
ATOM     89  C   UNL A   1      43.295  38.979  41.808  1.00  0.00     0.010 A 
ATOM     90  C   UNL A   1      44.730  37.025  41.845  1.00  0.00     0.010 A 
ATOM     91  C   UNL A   1      44.185  39.647  42.656  1.00  0.00     0.020 A 
ATOM     92  C   UNL A   1      45.608  37.678  42.715  1.00  0.00     0.020 A 
ATOM     93  C   UNL A   1      45.341  38.994  43.097  1.00  0.00     0.054 A 
BRANCH  93  94
ATOM     94  S   UNL A   1      46.480  39.876  44.198  1.00  0.00     0.124 S 
ATOM     95  O   UNL A   1      45.805  41.158  44.370  1.00  0.00    -0.237 OA
ATOM     96  O   UNL A   1      46.515  39.019  45.382  1.00  0.00    -0.237 OA
ATOM     97  O   UNL A   1      47.728  39.925  43.437  1.00  0.00    -0.744 OA
ENDBRANCH  93  94
ENDBRANCH  67  88
ENDBRANCH  41  42
ENDBRANCH  34  36
ENDBRANCH  33  34
ENDBRANCH  32  33
ENDBRANCH  31  32
ENDBRANCH  30  31
ENDBRANCH  29  30
ENDBRANCH   1  29
TORSDOF 25
ENDMDL
MODEL 3
REMARK VINA RESULT:      -8.5      5.273      8.774
REMARK SMILES C/C(=N/OCc1ccccc1Nc1c(Cl)cccc1Cl)C(=O)OCCOCCOCCOC(=O)c1ccc(-c2c3nc(c(-c4ccc(S(=O)(=O)[O-])cc4)c4ccc([nH]4)c(-c4ccc(S(=O)(=O)[O-])cc4)c4nc(c(-c5ccc(S(=O)(=O)[O-])cc5)c5ccc2[nH]5)C=C4)C=C3)cc1
REMARK SMILES IDX 27 1 26 2 25 3 24 4 23 5 21 6 22 7 2 8 1 9 3 10 4 11 5 12
REMARK SMILES IDX 6 13 7 14 11 15 8 16 10 17 9 18 12 19 13 21 14 22 19 23
REMARK SMILES IDX 15 24 16 25 18 26 20 27 17 28 28 29 29 30 30 31 31 32 32 33
REMARK SMILES IDX 33 34 34 35 35 36 36 37 94 38 37 39 93 40 38 41 39 42 40 43
REMARK SMILES IDX 87 44 41 45 92 46 86 47 88 48 42 49 91 50 85 51 84 52 43 54
REMARK SMILES IDX 73 55 54 56 72 57 55 58 58 59 71 60 89 61 56 62 57 63 70 65
REMARK SMILES IDX 90 66 59 67 44 68 45 69 53 70 46 71 52 72 47 73 48 74 49 75
REMARK SMILES IDX 50 76 51 77 74 78 75 79 83 80 76 81 82 82 77 83 78 84 79 85
REMARK SMILES IDX 80 86 81 87 60 88 61 89 69 90 62 91 68 92 63 93 64 94 65 95
REMARK SMILES IDX 66 96 67 97
REMARK H PARENT 12 20 88 53 58 64
REMARK Flexibility Score: inf
ROOT
ATOM      1  C   UNL A   1      38.180  21.541  25.238  1.00  0.00     0.188 C 
ENDROOT
BRANCH   1   2
ATOM      2  O   UNL A   1      37.389  22.726  25.310  1.00  0.00    -0.376 OA
BRANCH   2   3
ATOM      3  C   UNL A   1      36.755  23.204  24.126  1.00  0.00     0.202 C 
BRANCH   3   4
ATOM      4  C   UNL A   1      35.245  23.448  24.204  1.00  0.00     0.261 C 
BRANCH   4   5
ATOM      5  O   UNL A   1      34.791  24.168  23.053  1.00  0.00    -0.459 OA
BRANCH   5   6
ATOM      6  C   UNL A   1      33.466  24.356  22.933  1.00  0.00     0.355 C 
ATOM      7  O   UNL A   1      32.578  23.854  23.603  1.00  0.00    -0.245 OA
BRANCH   6   8
ATOM      8  C   UNL A   1      33.187  25.456  21.917  1.00  0.00     0.161 C 
ATOM      9  C   UNL A   1      32.855  25.001  20.525  1.00  0.00     0.079 C 
ATOM     10  N   UNL A   1      33.159  26.728  22.189  1.00  0.00    -0.084 NA
BRANCH  10  11
ATOM     11  O   UNL A   1      33.456  26.971  23.540  1.00  0.00    -0.390 OA
BRANCH  11  12
ATOM     12  C   UNL A   1      33.976  28.300  23.677  1.00  0.00     0.302 C 
BRANCH  12  13
ATOM     13  C   UNL A   1      33.405  29.027  24.880  1.00  0.00     0.016 A 
ATOM     14  C   UNL A   1      34.182  29.166  26.049  1.00  0.00     0.009 A 
ATOM     15  C   UNL A   1      32.099  29.563  24.854  1.00  0.00     0.045 A 
ATOM     16  C   UNL A   1      33.721  29.884  27.147  1.00  0.00     0.001 A 
ATOM     17  C   UNL A   1      31.653  30.280  25.978  1.00  0.00     0.026 A 
ATOM     18  C   UNL A   1      32.456  30.449  27.108  1.00  0.00     0.002 A 
BRANCH  15  19
ATOM     19  N   UNL A   1      31.289  29.424  23.704  1.00  0.00    -0.353 N 
ATOM     20  H   UNL A   1      31.742  29.600  22.847  1.00  0.00     0.167 HD
BRANCH  19  21
ATOM     21  C   UNL A   1      29.921  29.067  23.597  1.00  0.00     0.076 A 
ATOM     22  C   UNL A   1      28.979  30.055  23.238  1.00  0.00     0.066 A 
ATOM     23  C   UNL A   1      29.448  27.747  23.745  1.00  0.00     0.066 A 
ATOM     24  Cl  UNL A   1      29.457  31.712  23.066  1.00  0.00    -0.082 Cl
ATOM     25  C   UNL A   1      27.639  29.737  22.995  1.00  0.00     0.023 A 
ATOM     26  C   UNL A   1      28.105  27.430  23.498  1.00  0.00     0.023 A 
ATOM     27  Cl  UNL A   1      30.455  26.462  24.323  1.00  0.00    -0.082 Cl
ATOM     28  C   UNL A   1      27.204  28.421  23.114  1.00  0.00     0.003 A 
ENDBRANCH  19  21
ENDBRANCH  15  19
ENDBRANCH  12  13
ENDBRANCH  11  12
ENDBRANCH  10  11
ENDBRANCH   6   8
ENDBRANCH   5   6
ENDBRANCH   4   5
ENDBRANCH   3   4
ENDBRANCH   2   3
ENDBRANCH   1   2
BRANCH   1  29
ATOM     29  C   UNL A   1      39.518  21.477  26.006  1.00  0.00     0.188 C 
BRANCH  29  30
ATOM     30  O   UNL A   1      39.763  20.228  26.633  1.00  0.00    -0.376 OA
BRANCH  30  31
ATOM     31  C   UNL A   1      40.837  19.475  26.088  1.00  0.00     0.202 C 
BRANCH  31  32
ATOM     32  C   UNL A   1      42.226  20.085  26.316  1.00  0.00     0.261 C 
BRANCH  32  33
ATOM     33  O   UNL A   1      43.291  19.508  25.538  1.00  0.00    -0.460 OA
BRANCH  33  34
ATOM     34  C   UNL A   1      44.032  20.360  24.796  1.00  0.00     0.338 C 
ATOM     35  O   UNL A   1      44.520  20.136  23.703  1.00  0.00    -0.246 OA
BRANCH  34  36
ATOM     36  C   UNL A   1      44.007  21.691  25.443  1.00  0.00     0.060 A 
ATOM     37  C   UNL A   1      43.681  22.810  24.667  1.00  0.00     0.016 A 
ATOM     38  C   UNL A   1      44.328  21.840  26.796  1.00  0.00     0.016 A 
ATOM     39  C   UNL A   1      43.740  24.089  25.227  1.00  0.00     0.010 A 
ATOM     40  C   UNL A   1      44.401  23.123  27.352  1.00  0.00     0.010 A 
ATOM     41  C   UNL A   1      44.154  24.257  26.557  1.00  0.00    -0.014 A 
BRANCH  41  42
ATOM     42  C   UNL A   1      44.555  25.608  27.028  1.00  0.00     0.031 A 
ATOM     43  C   UNL A   1      45.946  26.092  26.700  1.00  0.00     0.074 A 
ATOM     44  C   UNL A   1      43.703  26.415  27.686  1.00  0.00     0.049 A 
ATOM     45  N   UNL A   1      46.508  27.244  26.957  1.00  0.00    -0.248 NA
ATOM     46  C   UNL A   1      46.817  25.144  25.984  1.00  0.00     0.031 C 
ATOM     47  C   UNL A   1      42.325  26.085  28.045  1.00  0.00     0.029 A 
ATOM     48  N   UNL A   1      43.881  27.689  28.167  1.00  0.00    -0.354 N 
ATOM     49  C   UNL A   1      47.794  27.162  26.432  1.00  0.00     0.074 A 
ATOM     50  C   UNL A   1      47.941  25.835  25.877  1.00  0.00     0.031 C 
ATOM     51  C   UNL A   1      41.780  27.134  28.689  1.00  0.00     0.029 A 
ATOM     52  C   UNL A   1      42.774  28.200  28.804  1.00  0.00     0.049 A 
ATOM     53  H   UNL A   1      44.722  28.190  28.066  1.00  0.00     0.167 HD
ATOM     54  C   UNL A   1      48.764  28.106  26.402  1.00  0.00     0.031 A 
ATOM     55  C   UNL A   1      42.587  29.390  29.411  1.00  0.00     0.031 A 
ATOM     56  C   UNL A   1      48.633  29.420  26.970  1.00  0.00     0.049 A 
ATOM     57  C   UNL A   1      43.700  30.408  29.411  1.00  0.00     0.074 A 
ATOM     58  C   UNL A   1      49.558  30.449  26.984  1.00  0.00     0.029 A 
ATOM     59  N   UNL A   1      47.507  29.886  27.632  1.00  0.00    -0.354 N 
ATOM     60  N   UNL A   1      44.898  30.325  28.882  1.00  0.00    -0.248 NA
ATOM     61  C   UNL A   1      43.426  31.689  30.079  1.00  0.00     0.031 C 
ATOM     62  C   UNL A   1      49.008  31.521  27.697  1.00  0.00     0.029 A 
ATOM     63  C   UNL A   1      47.720  31.179  28.075  1.00  0.00     0.049 A 
ATOM     64  H   UNL A   1      46.678  29.372  27.767  1.00  0.00     0.167 HD
ATOM     65  C   UNL A   1      45.507  31.554  29.125  1.00  0.00     0.074 A 
ATOM     66  C   UNL A   1      44.540  32.365  29.835  1.00  0.00     0.031 C 
ATOM     67  C   UNL A   1      46.752  31.975  28.786  1.00  0.00     0.031 A 
BRANCH  54  68
ATOM     68  C   UNL A   1      50.069  27.729  25.752  1.00  0.00    -0.014 A 
ATOM     69  C   UNL A   1      50.248  27.841  24.361  1.00  0.00     0.010 A 
ATOM     70  C   UNL A   1      51.136  27.270  26.545  1.00  0.00     0.010 A 
ATOM     71  C   UNL A   1      51.455  27.460  23.770  1.00  0.00     0.020 A 
ATOM     72  C   UNL A   1      52.355  26.914  25.961  1.00  0.00     0.020 A 
ATOM     73  C   UNL A   1      52.500  26.993  24.575  1.00  0.00     0.054 A 
BRANCH  73  74
ATOM     74  S   UNL A   1      54.062  26.517  23.785  1.00  0.00     0.124 S 
ATOM     75  O   UNL A   1      54.421  25.314  24.531  1.00  0.00    -0.237 OA
ATOM     76  O   UNL A   1      53.667  26.300  22.396  1.00  0.00    -0.237 OA
ATOM     77  O   UNL A   1      54.929  27.671  24.009  1.00  0.00    -0.744 OA
ENDBRANCH  73  74
ENDBRANCH  54  68
BRANCH  55  78
ATOM     78  C   UNL A   1      41.287  29.695  30.072  1.00  0.00    -0.014 A 
ATOM     79  C   UNL A   1      40.197  30.181  29.329  1.00  0.00     0.010 A 
ATOM     80  C   UNL A   1      41.142  29.518  31.460  1.00  0.00     0.010 A 
ATOM     81  C   UNL A   1      38.993  30.502  29.964  1.00  0.00     0.020 A 
ATOM     82  C   UNL A   1      39.932  29.812  32.094  1.00  0.00     0.020 A 
ATOM     83  C   UNL A   1      38.868  30.315  31.344  1.00  0.00     0.054 A 
BRANCH  83  84
ATOM     84  S   UNL A   1      37.281  30.692  32.141  1.00  0.00     0.124 S 
ATOM     85  O   UNL A   1      36.847  31.877  31.407  1.00  0.00    -0.237 OA
ATOM     86  O   UNL A   1      36.508  29.477  31.897  1.00  0.00    -0.237 OA
ATOM     87  O   UNL A   1      37.647  30.919  33.537  1.00  0.00    -0.744 OA
ENDBRANCH  83  84
ENDBRANCH  55  78
BRANCH  67  88
ATOM     88  C   UNL A   1      47.124  33.391  29.143  1.00  0.00    -0.014 A 
ATOM     89  C   UNL A   1      46.771  34.474  28.318  1.00  0.00     0.010 A 
ATOM     90  C   UNL A   1      47.820  33.643  30.340  1.00  0.00     0.010 A 
ATOM     91  C   UNL A   1      47.154  35.775  28.656  1.00  0.00     0.020 A 
ATOM     92  C   UNL A   1      48.181  34.945  30.696  1.00  0.00     0.020 A 
ATOM     93  C   UNL A   1      47.864  36.001  29.840  1.00  0.00     0.054 A 
BRANCH  93  94
ATOM     94  S   UNL A   1      48.350  37.697  30.261  1.00  0.00     0.124 S 
ATOM     95  O   UNL A   1      48.781  37.554  31.649  1.00  0.00    -0.237 OA
ATOM     96  O   UNL A   1      49.412  37.979  29.298  1.00  0.00    -0.237 OA
ATOM     97  O   UNL A   1      47.122  38.467  30.067  1.00  0.00    -0.744 OA
ENDBRANCH  93  94
ENDBRANCH  67  88
ENDBRANCH  41  42
ENDBRANCH  34  36
ENDBRANCH  33  34
ENDBRANCH  32  33
ENDBRANCH  31  32
ENDBRANCH  30  31
ENDBRANCH  29  30
ENDBRANCH   1  29
TORSDOF 25
ENDMDL
