MODEL 1
REMARK VINA RESULT:      -6.8      0.000      0.000
REMARK SMILES C[C@H](O)[C@H](NC(=O)COCC[NH3+])C(=O)OCCOCCOCCOC(=O)c1ccc(-c2c3nc(c(-c4ccc(S(=O)(=O)[O-])cc4)c4ccc([nH]4)c(-c4ccc(S(=O)(=O)[O-])cc4)c4nc(c(-c5ccc(S(=O)(=O)[O-])cc5)c5ccc2[nH]5)C=C4)C=C3)cc1
REMARK SMILES IDX 18 1 17 2 16 3 15 4 13 5 14 6 4 7 2 8 1 9 3 10 5 12 6 13
REMARK SMILES IDX 7 15 8 16 9 17 10 18 11 19 12 20 19 24 20 25 21 26 22 27
REMARK SMILES IDX 23 28 24 29 25 30 26 31 27 32 28 33 86 34 29 35 85 36 30 37
REMARK SMILES IDX 31 38 32 39 79 40 33 41 84 42 78 43 80 44 34 45 83 46 77 47
REMARK SMILES IDX 76 48 35 50 65 51 46 52 64 53 47 54 50 55 63 56 81 57 48 58
REMARK SMILES IDX 49 59 62 61 82 62 51 63 36 64 37 65 45 66 38 67 44 68 39 69
REMARK SMILES IDX 40 70 41 71 42 72 43 73 66 74 67 75 75 76 68 77 74 78 69 79
REMARK SMILES IDX 70 80 71 81 72 82 73 83 52 84 53 85 61 86 54 87 60 88 55 89
REMARK SMILES IDX 56 90 57 91 58 92 59 93
REMARK H PARENT 3 11 5 14 12 21 12 22 12 23 80 49 50 60
REMARK Flexibility Score: inf
ROOT
ATOM      1  O   UNL A   1      35.766  31.903  28.980  1.00  0.00    -0.376 OA
ENDROOT
BRANCH   1   2
ATOM      2  C   UNL A   1      35.646  30.490  28.964  1.00  0.00     0.202 C 
BRANCH   2   3
ATOM      3  C   UNL A   1      35.714  29.748  27.617  1.00  0.00     0.261 C 
BRANCH   3   4
ATOM      4  O   UNL A   1      34.580  29.922  26.736  1.00  0.00    -0.462 OA
BRANCH   4   5
ATOM      5  C   UNL A   1      33.700  28.892  26.709  1.00  0.00     0.331 C 
ATOM      6  O   UNL A   1      32.814  28.742  27.551  1.00  0.00    -0.250 OA
BRANCH   5   7
ATOM      7  C   UNL A   1      33.784  27.956  25.475  1.00  0.00     0.221 C 
BRANCH   7   8
ATOM      8  C   UNL A   1      32.941  28.548  24.316  1.00  0.00     0.145 C 
ATOM      9  C   UNL A   1      33.817  28.946  23.132  1.00  0.00     0.041 C 
BRANCH   8  10
ATOM     10  O   UNL A   1      32.238  29.751  24.656  1.00  0.00    -0.391 OA
ATOM     11  H   UNL A   1      32.536  30.473  24.081  1.00  0.00     0.211 HD
ENDBRANCH   8  10
ENDBRANCH   7   8
BRANCH   7  12
ATOM     12  N   UNL A   1      33.691  26.485  25.632  1.00  0.00    -0.339 N 
ATOM     13  C   UNL A   1      32.709  25.556  25.511  1.00  0.00     0.246 C 
ATOM     14  H   UNL A   1      34.553  26.083  25.888  1.00  0.00     0.164 HD
ATOM     15  O   UNL A   1      33.021  24.379  25.714  1.00  0.00    -0.272 OA
BRANCH  13  16
ATOM     16  C   UNL A   1      31.290  25.913  25.070  1.00  0.00     0.260 C 
BRANCH  16  17
ATOM     17  O   UNL A   1      30.924  25.554  23.751  1.00  0.00    -0.366 OA
BRANCH  17  18
ATOM     18  C   UNL A   1      32.033  25.174  22.930  1.00  0.00     0.222 C 
BRANCH  18  19
ATOM     19  C   UNL A   1      32.112  25.964  21.611  1.00  0.00     0.287 C 
BRANCH  19  20
ATOM     20  N   UNL A   1      32.484  25.160  20.445  1.00  0.00    -0.356 N 
ATOM     21  H   UNL A   1      32.339  25.707  19.596  1.00  0.00     0.344 HD
ATOM     22  H   UNL A   1      31.904  24.322  20.412  1.00  0.00     0.344 HD
ATOM     23  H   UNL A   1      33.466  24.894  20.515  1.00  0.00     0.344 HD
ENDBRANCH  19  20
ENDBRANCH  18  19
ENDBRANCH  17  18
ENDBRANCH  16  17
ENDBRANCH  13  16
ENDBRANCH   7  12
ENDBRANCH   5   7
ENDBRANCH   4   5
ENDBRANCH   3   4
ENDBRANCH   2   3
ENDBRANCH   1   2
BRANCH   1  24
ATOM     24  C   UNL A   1      34.729  32.695  29.549  1.00  0.00     0.188 C 
BRANCH  24  25
ATOM     25  C   UNL A   1      35.066  33.830  30.540  1.00  0.00     0.188 C 
BRANCH  25  26
ATOM     26  O   UNL A   1      34.042  34.099  31.473  1.00  0.00    -0.376 OA
BRANCH  26  27
ATOM     27  C   UNL A   1      34.437  34.357  32.805  1.00  0.00     0.202 C 
BRANCH  27  28
ATOM     28  C   UNL A   1      34.648  33.156  33.742  1.00  0.00     0.261 C 
BRANCH  28  29
ATOM     29  O   UNL A   1      35.986  32.645  33.857  1.00  0.00    -0.460 OA
BRANCH  29  30
ATOM     30  C   UNL A   1      36.803  33.247  34.757  1.00  0.00     0.338 C 
ATOM     31  O   UNL A   1      36.574  33.435  35.933  1.00  0.00    -0.246 OA
BRANCH  30  32
ATOM     32  C   UNL A   1      38.120  33.464  34.104  1.00  0.00     0.060 A 
ATOM     33  C   UNL A   1      38.189  34.250  32.945  1.00  0.00     0.016 A 
ATOM     34  C   UNL A   1      39.276  32.888  34.632  1.00  0.00     0.016 A 
ATOM     35  C   UNL A   1      39.414  34.437  32.295  1.00  0.00     0.010 A 
ATOM     36  C   UNL A   1      40.497  33.059  33.968  1.00  0.00     0.010 A 
ATOM     37  C   UNL A   1      40.569  33.808  32.779  1.00  0.00    -0.014 A 
BRANCH  37  38
ATOM     38  C   UNL A   1      41.808  33.775  31.958  1.00  0.00     0.031 A 
ATOM     39  C   UNL A   1      42.771  34.928  32.064  1.00  0.00     0.074 A 
ATOM     40  C   UNL A   1      42.086  32.748  31.133  1.00  0.00     0.049 A 
ATOM     41  N   UNL A   1      43.875  35.155  31.400  1.00  0.00    -0.248 NA
ATOM     42  C   UNL A   1      42.439  35.968  33.052  1.00  0.00     0.031 C 
ATOM     43  C   UNL A   1      41.267  31.547  30.968  1.00  0.00     0.029 A 
ATOM     44  N   UNL A   1      43.135  32.559  30.265  1.00  0.00    -0.354 N 
ATOM     45  C   UNL A   1      44.362  36.368  31.876  1.00  0.00     0.074 A 
ATOM     46  C   UNL A   1      43.418  36.841  32.865  1.00  0.00     0.031 C 
ATOM     47  C   UNL A   1      41.841  30.752  30.048  1.00  0.00     0.029 A 
ATOM     48  C   UNL A   1      43.044  31.402  29.528  1.00  0.00     0.049 A 
ATOM     49  H   UNL A   1      43.883  33.195  30.180  1.00  0.00     0.167 HD
ATOM     50  C   UNL A   1      45.492  37.028  31.527  1.00  0.00     0.031 A 
ATOM     51  C   UNL A   1      43.825  30.933  28.534  1.00  0.00     0.031 A 
ATOM     52  C   UNL A   1      46.421  36.567  30.529  1.00  0.00     0.049 A 
ATOM     53  C   UNL A   1      45.034  31.726  28.100  1.00  0.00     0.074 A 
ATOM     54  C   UNL A   1      47.602  37.159  30.115  1.00  0.00     0.029 A 
ATOM     55  N   UNL A   1      46.273  35.408  29.782  1.00  0.00    -0.354 N 
ATOM     56  N   UNL A   1      45.492  32.860  28.576  1.00  0.00    -0.248 NA
ATOM     57  C   UNL A   1      45.836  31.169  27.001  1.00  0.00     0.031 C 
ATOM     58  C   UNL A   1      48.131  36.395  29.071  1.00  0.00     0.029 A 
ATOM     59  C   UNL A   1      47.324  35.285  28.887  1.00  0.00     0.049 A 
ATOM     60  H   UNL A   1      45.531  34.769  29.874  1.00  0.00     0.167 HD
ATOM     61  C   UNL A   1      46.653  33.134  27.856  1.00  0.00     0.074 A 
ATOM     62  C   UNL A   1      46.833  32.040  26.925  1.00  0.00     0.031 C 
ATOM     63  C   UNL A   1      47.496  34.192  27.961  1.00  0.00     0.031 A 
BRANCH  50  64
ATOM     64  C   UNL A   1      45.764  38.347  32.204  1.00  0.00    -0.014 A 
ATOM     65  C   UNL A   1      45.326  39.562  31.648  1.00  0.00     0.010 A 
ATOM     66  C   UNL A   1      46.445  38.367  33.437  1.00  0.00     0.010 A 
ATOM     67  C   UNL A   1      45.598  40.774  32.289  1.00  0.00     0.020 A 
ATOM     68  C   UNL A   1      46.691  39.574  34.097  1.00  0.00     0.020 A 
ATOM     69  C   UNL A   1      46.280  40.772  33.509  1.00  0.00     0.054 A 
BRANCH  69  70
ATOM     70  S   UNL A   1      46.603  42.358  34.328  1.00  0.00     0.124 S 
ATOM     71  O   UNL A   1      47.333  43.088  33.294  1.00  0.00    -0.237 OA
ATOM     72  O   UNL A   1      45.257  42.850  34.611  1.00  0.00    -0.237 OA
ATOM     73  O   UNL A   1      47.389  41.990  35.503  1.00  0.00    -0.744 OA
ENDBRANCH  69  70
ENDBRANCH  50  64
BRANCH  51  74
ATOM     74  C   UNL A   1      43.483  29.649  27.856  1.00  0.00    -0.014 A 
ATOM     75  C   UNL A   1      42.653  29.633  26.722  1.00  0.00     0.010 A 
ATOM     76  C   UNL A   1      43.982  28.429  28.351  1.00  0.00     0.010 A 
ATOM     77  C   UNL A   1      42.317  28.424  26.104  1.00  0.00     0.020 A 
ATOM     78  C   UNL A   1      43.673  27.221  27.719  1.00  0.00     0.020 A 
ATOM     79  C   UNL A   1      42.834  27.225  26.604  1.00  0.00     0.054 A 
BRANCH  79  80
ATOM     80  S   UNL A   1      42.428  25.675  25.752  1.00  0.00     0.124 S 
ATOM     81  O   UNL A   1      43.589  25.490  24.888  1.00  0.00    -0.237 OA
ATOM     82  O   UNL A   1      42.305  24.733  26.861  1.00  0.00    -0.237 OA
ATOM     83  O   UNL A   1      41.176  25.981  25.063  1.00  0.00    -0.744 OA
ENDBRANCH  79  80
ENDBRANCH  51  74
BRANCH  63  84
ATOM     84  C   UNL A   1      48.722  34.203  27.081  1.00  0.00    -0.014 A 
ATOM     85  C   UNL A   1      49.869  33.458  27.404  1.00  0.00     0.010 A 
ATOM     86  C   UNL A   1      48.701  34.936  25.879  1.00  0.00     0.010 A 
ATOM     87  C   UNL A   1      50.986  33.478  26.562  1.00  0.00     0.020 A 
ATOM     88  C   UNL A   1      49.802  34.932  25.019  1.00  0.00     0.020 A 
ATOM     89  C   UNL A   1      50.946  34.215  25.375  1.00  0.00     0.054 A 
BRANCH  89  90
ATOM     90  S   UNL A   1      52.395  34.197  24.285  1.00  0.00     0.124 S 
ATOM     91  O   UNL A   1      53.487  33.998  25.234  1.00  0.00    -0.237 OA
ATOM     92  O   UNL A   1      52.118  33.067  23.402  1.00  0.00    -0.237 OA
ATOM     93  O   UNL A   1      52.362  35.507  23.639  1.00  0.00    -0.744 OA
ENDBRANCH  89  90
ENDBRANCH  63  84
ENDBRANCH  37  38
ENDBRANCH  30  32
ENDBRANCH  29  30
ENDBRANCH  28  29
ENDBRANCH  27  28
ENDBRANCH  26  27
ENDBRANCH  25  26
ENDBRANCH  24  25
ENDBRANCH   1  24
TORSDOF 28
ENDMDL
MODEL 2
REMARK VINA RESULT:      -6.3      4.411      5.618
REMARK SMILES C[C@H](O)[C@H](NC(=O)COCC[NH3+])C(=O)OCCOCCOCCOC(=O)c1ccc(-c2c3nc(c(-c4ccc(S(=O)(=O)[O-])cc4)c4ccc([nH]4)c(-c4ccc(S(=O)(=O)[O-])cc4)c4nc(c(-c5ccc(S(=O)(=O)[O-])cc5)c5ccc2[nH]5)C=C4)C=C3)cc1
REMARK SMILES IDX 18 1 17 2 16 3 15 4 13 5 14 6 4 7 2 8 1 9 3 10 5 12 6 13
REMARK SMILES IDX 7 15 8 16 9 17 10 18 11 19 12 20 19 24 20 25 21 26 22 27
REMARK SMILES IDX 23 28 24 29 25 30 26 31 27 32 28 33 86 34 29 35 85 36 30 37
REMARK SMILES IDX 31 38 32 39 79 40 33 41 84 42 78 43 80 44 34 45 83 46 77 47
REMARK SMILES IDX 76 48 35 50 65 51 46 52 64 53 47 54 50 55 63 56 81 57 48 58
REMARK SMILES IDX 49 59 62 61 82 62 51 63 36 64 37 65 45 66 38 67 44 68 39 69
REMARK SMILES IDX 40 70 41 71 42 72 43 73 66 74 67 75 75 76 68 77 74 78 69 79
REMARK SMILES IDX 70 80 71 81 72 82 73 83 52 84 53 85 61 86 54 87 60 88 55 89
REMARK SMILES IDX 56 90 57 91 58 92 59 93
REMARK H PARENT 3 11 5 14 12 21 12 22 12 23 80 49 50 60
REMARK Flexibility Score: inf
ROOT
ATOM      1  O   UNL A   1      36.422  32.339  29.627  1.00  0.00    -0.376 OA
ENDROOT
BRANCH   1   2
ATOM      2  C   UNL A   1      35.088  31.966  29.322  1.00  0.00     0.202 C 
BRANCH   2   3
ATOM      3  C   UNL A   1      34.686  31.764  27.850  1.00  0.00     0.261 C 
BRANCH   3   4
ATOM      4  O   UNL A   1      33.564  30.883  27.611  1.00  0.00    -0.462 OA
BRANCH   4   5
ATOM      5  C   UNL A   1      33.785  29.890  26.716  1.00  0.00     0.331 C 
ATOM      6  O   UNL A   1      34.606  28.991  26.897  1.00  0.00    -0.250 OA
BRANCH   5   7
ATOM      7  C   UNL A   1      32.849  29.868  25.479  1.00  0.00     0.221 C 
BRANCH   7   8
ATOM      8  C   UNL A   1      31.508  29.186  25.854  1.00  0.00     0.145 C 
ATOM      9  C   UNL A   1      31.709  28.095  26.903  1.00  0.00     0.041 C 
BRANCH   8  10
ATOM     10  O   UNL A   1      30.864  28.513  24.763  1.00  0.00    -0.391 OA
ATOM     11  H   UNL A   1      30.262  27.838  25.111  1.00  0.00     0.211 HD
ENDBRANCH   8  10
ENDBRANCH   7   8
BRANCH   7  12
ATOM     12  N   UNL A   1      33.376  29.523  24.137  1.00  0.00    -0.339 N 
ATOM     13  C   UNL A   1      33.837  28.396  23.536  1.00  0.00     0.246 C 
ATOM     14  H   UNL A   1      33.397  30.301  23.534  1.00  0.00     0.164 HD
ATOM     15  O   UNL A   1      34.191  28.494  22.357  1.00  0.00    -0.272 OA
BRANCH  13  16
ATOM     16  C   UNL A   1      33.856  27.039  24.238  1.00  0.00     0.260 C 
BRANCH  16  17
ATOM     17  O   UNL A   1      32.693  26.243  24.117  1.00  0.00    -0.366 OA
BRANCH  17  18
ATOM     18  C   UNL A   1      32.676  25.426  22.941  1.00  0.00     0.222 C 
BRANCH  18  19
ATOM     19  C   UNL A   1      31.646  25.888  21.894  1.00  0.00     0.287 C 
BRANCH  19  20
ATOM     20  N   UNL A   1      32.107  25.791  20.508  1.00  0.00    -0.356 N 
ATOM     21  H   UNL A   1      31.909  26.666  20.022  1.00  0.00     0.344 HD
ATOM     22  H   UNL A   1      31.620  25.026  20.041  1.00  0.00     0.344 HD
ATOM     23  H   UNL A   1      33.111  25.615  20.495  1.00  0.00     0.344 HD
ENDBRANCH  19  20
ENDBRANCH  18  19
ENDBRANCH  17  18
ENDBRANCH  16  17
ENDBRANCH  13  16
ENDBRANCH   7  12
ENDBRANCH   5   7
ENDBRANCH   4   5
ENDBRANCH   3   4
ENDBRANCH   2   3
ENDBRANCH   1   2
BRANCH   1  24
ATOM     24  C   UNL A   1      36.674  33.532  30.362  1.00  0.00     0.188 C 
BRANCH  24  25
ATOM     25  C   UNL A   1      37.712  33.541  31.505  1.00  0.00     0.188 C 
BRANCH  25  26
ATOM     26  O   UNL A   1      37.196  33.981  32.743  1.00  0.00    -0.376 OA
BRANCH  26  27
ATOM     27  C   UNL A   1      37.807  33.473  33.912  1.00  0.00     0.202 C 
BRANCH  27  28
ATOM     28  C   UNL A   1      37.421  32.057  34.372  1.00  0.00     0.261 C 
BRANCH  28  29
ATOM     29  O   UNL A   1      38.463  31.067  34.384  1.00  0.00    -0.460 OA
BRANCH  29  30
ATOM     30  C   UNL A   1      39.484  31.254  35.257  1.00  0.00     0.338 C 
ATOM     31  O   UNL A   1      39.390  31.490  36.442  1.00  0.00    -0.246 OA
BRANCH  30  32
ATOM     32  C   UNL A   1      40.751  30.924  34.556  1.00  0.00     0.060 A 
ATOM     33  C   UNL A   1      40.997  31.473  33.289  1.00  0.00     0.016 A 
ATOM     34  C   UNL A   1      41.685  30.070  35.144  1.00  0.00     0.016 A 
ATOM     35  C   UNL A   1      42.168  31.146  32.597  1.00  0.00     0.010 A 
ATOM     36  C   UNL A   1      42.846  29.728  34.441  1.00  0.00     0.010 A 
ATOM     37  C   UNL A   1      43.081  30.238  33.150  1.00  0.00    -0.014 A 
BRANCH  37  38
ATOM     38  C   UNL A   1      44.182  29.677  32.322  1.00  0.00     0.031 A 
ATOM     39  C   UNL A   1      45.505  30.398  32.303  1.00  0.00     0.074 A 
ATOM     40  C   UNL A   1      44.024  28.553  31.600  1.00  0.00     0.049 A 
ATOM     41  N   UNL A   1      46.582  30.142  31.607  1.00  0.00    -0.248 NA
ATOM     42  C   UNL A   1      45.624  31.569  33.187  1.00  0.00     0.031 C 
ATOM     43  C   UNL A   1      42.815  27.730  31.564  1.00  0.00     0.029 A 
ATOM     44  N   UNL A   1      44.889  27.915  30.743  1.00  0.00    -0.354 N 
ATOM     45  C   UNL A   1      47.501  31.126  31.955  1.00  0.00     0.074 A 
ATOM     46  C   UNL A   1      46.845  31.999  32.904  1.00  0.00     0.031 C 
ATOM     47  C   UNL A   1      43.014  26.702  30.720  1.00  0.00     0.029 A 
ATOM     48  C   UNL A   1      44.345  26.813  30.125  1.00  0.00     0.049 A 
ATOM     49  H   UNL A   1      45.812  28.219  30.586  1.00  0.00     0.167 HD
ATOM     50  C   UNL A   1      48.777  31.289  31.530  1.00  0.00     0.031 A 
ATOM     51  C   UNL A   1      44.851  26.004  29.173  1.00  0.00     0.031 A 
ATOM     52  C   UNL A   1      49.424  30.431  30.572  1.00  0.00     0.049 A 
ATOM     53  C   UNL A   1      46.245  26.252  28.649  1.00  0.00     0.074 A 
ATOM     54  C   UNL A   1      50.718  30.506  30.087  1.00  0.00     0.029 A 
ATOM     55  N   UNL A   1      48.827  29.348  29.944  1.00  0.00    -0.354 N 
ATOM     56  N   UNL A   1      47.109  27.174  29.005  1.00  0.00    -0.248 NA
ATOM     57  C   UNL A   1      46.734  25.345  27.601  1.00  0.00     0.031 C 
ATOM     58  C   UNL A   1      50.881  29.512  29.118  1.00  0.00     0.029 A 
ATOM     59  C   UNL A   1      49.715  28.767  29.054  1.00  0.00     0.049 A 
ATOM     60  H   UNL A   1      47.906  29.039  30.107  1.00  0.00     0.167 HD
ATOM     61  C   UNL A   1      48.254  26.935  28.248  1.00  0.00     0.074 A 
ATOM     62  C   UNL A   1      47.977  25.775  27.428  1.00  0.00     0.031 C 
ATOM     63  C   UNL A   1      49.430  27.611  28.239  1.00  0.00     0.031 A 
BRANCH  50  64
ATOM     64  C   UNL A   1      49.545  32.467  32.070  1.00  0.00    -0.014 A 
ATOM     65  C   UNL A   1      50.356  32.353  33.214  1.00  0.00     0.010 A 
ATOM     66  C   UNL A   1      49.481  33.704  31.400  1.00  0.00     0.010 A 
ATOM     67  C   UNL A   1      51.053  33.462  33.702  1.00  0.00     0.020 A 
ATOM     68  C   UNL A   1      50.201  34.807  31.867  1.00  0.00     0.020 A 
ATOM     69  C   UNL A   1      50.970  34.682  33.025  1.00  0.00     0.054 A 
BRANCH  69  70
ATOM     70  S   UNL A   1      51.900  36.099  33.671  1.00  0.00     0.124 S 
ATOM     71  O   UNL A   1      50.930  37.184  33.536  1.00  0.00    -0.237 OA
ATOM     72  O   UNL A   1      52.196  35.688  35.041  1.00  0.00    -0.237 OA
ATOM     73  O   UNL A   1      53.059  36.187  32.787  1.00  0.00    -0.744 OA
ENDBRANCH  69  70
ENDBRANCH  50  64
BRANCH  51  74
ATOM     74  C   UNL A   1      44.031  24.883  28.630  1.00  0.00    -0.014 A 
ATOM     75  C   UNL A   1      43.214  25.071  27.502  1.00  0.00     0.010 A 
ATOM     76  C   UNL A   1      44.057  23.618  29.247  1.00  0.00     0.010 A 
ATOM     77  C   UNL A   1      42.428  24.023  27.011  1.00  0.00     0.020 A 
ATOM     78  C   UNL A   1      43.298  22.559  28.741  1.00  0.00     0.020 A 
ATOM     79  C   UNL A   1      42.480  22.771  27.631  1.00  0.00     0.054 A 
BRANCH  79  80
ATOM     80  S   UNL A   1      41.494  21.413  26.941  1.00  0.00     0.124 S 
ATOM     81  O   UNL A   1      40.719  20.981  28.100  1.00  0.00    -0.237 OA
ATOM     82  O   UNL A   1      40.738  22.079  25.886  1.00  0.00    -0.237 OA
ATOM     83  O   UNL A   1      42.501  20.463  26.472  1.00  0.00    -0.744 OA
ENDBRANCH  79  80
ENDBRANCH  51  74
BRANCH  63  84
ATOM     84  C   UNL A   1      50.532  27.092  27.347  1.00  0.00    -0.014 A 
ATOM     85  C   UNL A   1      51.514  26.209  27.827  1.00  0.00     0.010 A 
ATOM     86  C   UNL A   1      50.550  27.458  25.988  1.00  0.00     0.010 A 
ATOM     87  C   UNL A   1      52.516  25.733  26.974  1.00  0.00     0.020 A 
ATOM     88  C   UNL A   1      51.529  26.960  25.125  1.00  0.00     0.020 A 
ATOM     89  C   UNL A   1      52.517  26.113  25.628  1.00  0.00     0.054 A 
BRANCH  89  90
ATOM     90  S   UNL A   1      53.808  25.456  24.537  1.00  0.00     0.124 S 
ATOM     91  O   UNL A   1      53.359  25.911  23.224  1.00  0.00    -0.237 OA
ATOM     92  O   UNL A   1      55.017  26.101  25.045  1.00  0.00    -0.237 OA
ATOM     93  O   UNL A   1      53.743  24.012  24.751  1.00  0.00    -0.744 OA
ENDBRANCH  89  90
ENDBRANCH  63  84
ENDBRANCH  37  38
ENDBRANCH  30  32
ENDBRANCH  29  30
ENDBRANCH  28  29
ENDBRANCH  27  28
ENDBRANCH  26  27
ENDBRANCH  25  26
ENDBRANCH  24  25
ENDBRANCH   1  24
TORSDOF 28
ENDMDL
MODEL 3
REMARK VINA RESULT:      -6.0     15.582     18.360
REMARK SMILES C[C@H](O)[C@H](NC(=O)COCC[NH3+])C(=O)OCCOCCOCCOC(=O)c1ccc(-c2c3nc(c(-c4ccc(S(=O)(=O)[O-])cc4)c4ccc([nH]4)c(-c4ccc(S(=O)(=O)[O-])cc4)c4nc(c(-c5ccc(S(=O)(=O)[O-])cc5)c5ccc2[nH]5)C=C4)C=C3)cc1
REMARK SMILES IDX 18 1 17 2 16 3 15 4 13 5 14 6 4 7 2 8 1 9 3 10 5 12 6 13
REMARK SMILES IDX 7 15 8 16 9 17 10 18 11 19 12 20 19 24 20 25 21 26 22 27
REMARK SMILES IDX 23 28 24 29 25 30 26 31 27 32 28 33 86 34 29 35 85 36 30 37
REMARK SMILES IDX 31 38 32 39 79 40 33 41 84 42 78 43 80 44 34 45 83 46 77 47
REMARK SMILES IDX 76 48 35 50 65 51 46 52 64 53 47 54 50 55 63 56 81 57 48 58
REMARK SMILES IDX 49 59 62 61 82 62 51 63 36 64 37 65 45 66 38 67 44 68 39 69
REMARK SMILES IDX 40 70 41 71 42 72 43 73 66 74 67 75 75 76 68 77 74 78 69 79
REMARK SMILES IDX 70 80 71 81 72 82 73 83 52 84 53 85 61 86 54 87 60 88 55 89
REMARK SMILES IDX 56 90 57 91 58 92 59 93
REMARK H PARENT 3 11 5 14 12 21 12 22 12 23 80 49 50 60
REMARK Flexibility Score: inf
ROOT
ATOM      1  O   UNL A   1      46.226  25.148  27.618  1.00  0.00    -0.376 OA
ENDROOT
BRANCH   1   2
ATOM      2  C   UNL A   1      46.229  24.031  26.744  1.00  0.00     0.202 C 
BRANCH   2   3
ATOM      3  C   UNL A   1      45.142  22.953  26.904  1.00  0.00     0.261 C 
BRANCH   3   4
ATOM      4  O   UNL A   1      43.979  23.090  26.056  1.00  0.00    -0.462 OA
BRANCH   4   5
ATOM      5  C   UNL A   1      43.942  22.264  24.982  1.00  0.00     0.331 C 
ATOM      6  O   UNL A   1      43.939  22.671  23.820  1.00  0.00    -0.250 OA
BRANCH   5   7
ATOM      7  C   UNL A   1      44.027  20.745  25.288  1.00  0.00     0.221 C 
BRANCH   7   8
ATOM      8  C   UNL A   1      45.273  20.144  24.589  1.00  0.00     0.145 C 
ATOM      9  C   UNL A   1      46.059  19.234  25.530  1.00  0.00     0.041 C 
BRANCH   8  10
ATOM     10  O   UNL A   1      46.233  21.119  24.158  1.00  0.00    -0.391 OA
ATOM     11  H   UNL A   1      46.775  20.745  23.446  1.00  0.00     0.211 HD
ENDBRANCH   8  10
ENDBRANCH   7   8
BRANCH   7  12
ATOM     12  N   UNL A   1      42.812  19.896  25.247  1.00  0.00    -0.339 N 
ATOM     13  C   UNL A   1      41.863  19.516  26.141  1.00  0.00     0.246 C 
ATOM     14  H   UNL A   1      42.655  19.515  24.353  1.00  0.00     0.164 HD
ATOM     15  O   UNL A   1      40.960  18.785  25.723  1.00  0.00    -0.272 OA
BRANCH  13  16
ATOM     16  C   UNL A   1      41.847  20.016  27.584  1.00  0.00     0.260 C 
BRANCH  16  17
ATOM     17  O   UNL A   1      40.974  21.090  27.877  1.00  0.00    -0.366 OA
BRANCH  17  18
ATOM     18  C   UNL A   1      40.898  22.068  26.835  1.00  0.00     0.222 C 
BRANCH  18  19
ATOM     19  C   UNL A   1      39.455  22.495  26.504  1.00  0.00     0.287 C 
BRANCH  19  20
ATOM     20  N   UNL A   1      38.856  21.780  25.376  1.00  0.00    -0.356 N 
ATOM     21  H   UNL A   1      38.514  20.871  25.692  1.00  0.00     0.344 HD
ATOM     22  H   UNL A   1      39.558  21.644  24.648  1.00  0.00     0.344 HD
ATOM     23  H   UNL A   1      38.079  22.324  25.003  1.00  0.00     0.344 HD
ENDBRANCH  19  20
ENDBRANCH  18  19
ENDBRANCH  17  18
ENDBRANCH  16  17
ENDBRANCH  13  16
ENDBRANCH   7  12
ENDBRANCH   5   7
ENDBRANCH   4   5
ENDBRANCH   3   4
ENDBRANCH   2   3
ENDBRANCH   1   2
BRANCH   1  24
ATOM     24  C   UNL A   1      46.718  25.008  28.947  1.00  0.00     0.188 C 
BRANCH  24  25
ATOM     25  C   UNL A   1      46.029  25.744  30.117  1.00  0.00     0.188 C 
BRANCH  25  26
ATOM     26  O   UNL A   1      45.820  24.939  31.257  1.00  0.00    -0.376 OA
BRANCH  26  27
ATOM     27  C   UNL A   1      44.608  25.121  31.959  1.00  0.00     0.202 C 
BRANCH  27  28
ATOM     28  C   UNL A   1      44.616  24.909  33.482  1.00  0.00     0.261 C 
BRANCH  28  29
ATOM     29  O   UNL A   1      44.249  23.605  33.963  1.00  0.00    -0.460 OA
BRANCH  29  30
ATOM     30  C   UNL A   1      43.651  23.539  35.178  1.00  0.00     0.338 C 
ATOM     31  O   UNL A   1      42.460  23.585  35.404  1.00  0.00    -0.246 OA
BRANCH  30  32
ATOM     32  C   UNL A   1      44.692  23.199  36.181  1.00  0.00     0.060 A 
ATOM     33  C   UNL A   1      45.529  22.097  35.957  1.00  0.00     0.016 A 
ATOM     34  C   UNL A   1      44.833  23.962  37.342  1.00  0.00     0.016 A 
ATOM     35  C   UNL A   1      46.491  21.739  36.906  1.00  0.00     0.010 A 
ATOM     36  C   UNL A   1      45.782  23.590  38.301  1.00  0.00     0.010 A 
ATOM     37  C   UNL A   1      46.597  22.459  38.105  1.00  0.00    -0.014 A 
BRANCH  37  38
ATOM     38  C   UNL A   1      47.417  21.935  39.228  1.00  0.00     0.031 A 
ATOM     39  C   UNL A   1      48.799  22.499  39.433  1.00  0.00     0.074 A 
ATOM     40  C   UNL A   1      46.957  20.979  40.057  1.00  0.00     0.049 A 
ATOM     41  N   UNL A   1      49.720  22.153  40.295  1.00  0.00    -0.248 NA
ATOM     42  C   UNL A   1      49.193  23.601  38.540  1.00  0.00     0.031 C 
ATOM     43  C   UNL A   1      45.625  20.379  40.004  1.00  0.00     0.029 A 
ATOM     44  N   UNL A   1      47.573  20.335  41.104  1.00  0.00    -0.354 N 
ATOM     45  C   UNL A   1      50.808  22.981  40.039  1.00  0.00     0.074 A 
ATOM     46  C   UNL A   1      50.441  23.827  38.925  1.00  0.00     0.031 C 
ATOM     47  C   UNL A   1      45.527  19.448  40.970  1.00  0.00     0.029 A 
ATOM     48  C   UNL A   1      46.801  19.356  41.684  1.00  0.00     0.049 A 
ATOM     49  H   UNL A   1      48.483  20.555  41.411  1.00  0.00     0.167 HD
ATOM     50  C   UNL A   1      52.003  23.039  40.675  1.00  0.00     0.031 A 
ATOM     51  C   UNL A   1      47.094  18.471  42.658  1.00  0.00     0.031 A 
ATOM     52  C   UNL A   1      52.375  22.184  41.772  1.00  0.00     0.049 A 
ATOM     53  C   UNL A   1      48.461  18.494  43.297  1.00  0.00     0.074 A 
ATOM     54  C   UNL A   1      53.558  22.174  42.490  1.00  0.00     0.029 A 
ATOM     55  N   UNL A   1      51.578  21.182  42.304  1.00  0.00    -0.354 N 
ATOM     56  N   UNL A   1      49.471  19.298  43.059  1.00  0.00    -0.248 NA
ATOM     57  C   UNL A   1      48.725  17.495  44.343  1.00  0.00     0.031 C 
ATOM     58  C   UNL A   1      53.502  21.123  43.410  1.00  0.00     0.029 A 
ATOM     59  C   UNL A   1      52.255  20.528  43.320  1.00  0.00     0.049 A 
ATOM     60  H   UNL A   1      50.665  20.968  42.004  1.00  0.00     0.167 HD
ATOM     61  C   UNL A   1      50.476  18.922  43.948  1.00  0.00     0.074 A 
ATOM     62  C   UNL A   1      49.945  17.830  44.737  1.00  0.00     0.031 C 
ATOM     63  C   UNL A   1      51.721  19.439  44.101  1.00  0.00     0.031 A 
BRANCH  50  64
ATOM     64  C   UNL A   1      53.013  24.036  40.169  1.00  0.00    -0.014 A 
ATOM     65  C   UNL A   1      53.928  23.703  39.154  1.00  0.00     0.010 A 
ATOM     66  C   UNL A   1      53.026  25.341  40.698  1.00  0.00     0.010 A 
ATOM     67  C   UNL A   1      54.862  24.642  38.707  1.00  0.00     0.020 A 
ATOM     68  C   UNL A   1      53.937  26.292  40.232  1.00  0.00     0.020 A 
ATOM     69  C   UNL A   1      54.861  25.930  39.250  1.00  0.00     0.054 A 
BRANCH  69  70
ATOM     70  S   UNL A   1      56.073  27.133  38.637  1.00  0.00     0.124 S 
ATOM     71  O   UNL A   1      56.979  26.283  37.868  1.00  0.00    -0.237 OA
ATOM     72  O   UNL A   1      55.247  28.044  37.849  1.00  0.00    -0.237 OA
ATOM     73  O   UNL A   1      56.641  27.706  39.855  1.00  0.00    -0.744 OA
ENDBRANCH  69  70
ENDBRANCH  50  64
BRANCH  51  74
ATOM     74  C   UNL A   1      46.079  17.466  43.087  1.00  0.00    -0.014 A 
ATOM     75  C   UNL A   1      45.697  16.419  42.230  1.00  0.00     0.010 A 
ATOM     76  C   UNL A   1      45.480  17.558  44.358  1.00  0.00     0.010 A 
ATOM     77  C   UNL A   1      44.726  15.493  42.629  1.00  0.00     0.020 A 
ATOM     78  C   UNL A   1      44.533  16.617  44.772  1.00  0.00     0.020 A 
ATOM     79  C   UNL A   1      44.155  15.595  43.900  1.00  0.00     0.054 A 
BRANCH  79  80
ATOM     80  S   UNL A   1      42.940  14.350  44.415  1.00  0.00     0.124 S 
ATOM     81  O   UNL A   1      43.753  13.140  44.482  1.00  0.00    -0.237 OA
ATOM     82  O   UNL A   1      42.477  14.875  45.696  1.00  0.00    -0.237 OA
ATOM     83  O   UNL A   1      41.946  14.377  43.343  1.00  0.00    -0.744 OA
ENDBRANCH  79  80
ENDBRANCH  51  74
BRANCH  63  84
ATOM     84  C   UNL A   1      52.589  18.865  45.194  1.00  0.00    -0.014 A 
ATOM     85  C   UNL A   1      52.537  19.353  46.511  1.00  0.00     0.010 A 
ATOM     86  C   UNL A   1      53.437  17.779  44.902  1.00  0.00     0.010 A 
ATOM     87  C   UNL A   1      53.345  18.793  47.506  1.00  0.00     0.020 A 
ATOM     88  C   UNL A   1      54.222  17.196  45.900  1.00  0.00     0.020 A 
ATOM     89  C   UNL A   1      54.183  17.718  47.194  1.00  0.00     0.054 A 
BRANCH  89  90
ATOM     90  S   UNL A   1      55.196  16.989  48.510  1.00  0.00     0.124 S 
ATOM     91  O   UNL A   1      54.264  16.048  49.126  1.00  0.00    -0.237 OA
ATOM     92  O   UNL A   1      56.300  16.384  47.768  1.00  0.00    -0.237 OA
ATOM     93  O   UNL A   1      55.564  18.134  49.340  1.00  0.00    -0.744 OA
ENDBRANCH  89  90
ENDBRANCH  63  84
ENDBRANCH  37  38
ENDBRANCH  30  32
ENDBRANCH  29  30
ENDBRANCH  28  29
ENDBRANCH  27  28
ENDBRANCH  26  27
ENDBRANCH  25  26
ENDBRANCH  24  25
ENDBRANCH   1  24
TORSDOF 28
ENDMDL
