MODEL 1
REMARK VINA RESULT:      -9.2      0.000      0.000
REMARK SMILES Cc1ccc(S(=O)(=O)Nc2cc(C(=O)OCCOCCOCCOC(=O)c3ccc(-c4c5nc(c(-c6ccc(S(=O)(=O)[O-])cc6)c6ccc([nH]6)c(-c6ccc(S(=O)(=O)[O-])cc6)c6nc(c(-c7ccc(S(=O)(=O)[O-])cc7)c7ccc4[nH]7)C=C6)C=C5)cc3)cnc2N2CCCC2)c(C)c1
REMARK SMILES IDX 19 1 18 2 17 3 16 4 15 5 13 6 14 7 12 8 10 9 11 10 89 11
REMARK SMILES IDX 88 12 87 13 9 14 6 16 7 17 8 18 5 19 1 20 2 21 3 22 97 23
REMARK SMILES IDX 4 24 95 25 96 26 90 27 91 28 94 29 92 30 93 31 20 32 21 33
REMARK SMILES IDX 22 34 23 35 24 36 25 37 26 38 27 39 28 40 86 41 29 42 85 43
REMARK SMILES IDX 30 44 31 45 32 46 79 47 33 48 84 49 78 50 80 51 34 52 83 53
REMARK SMILES IDX 77 54 76 55 35 57 65 58 46 59 64 60 47 61 50 62 63 63 81 64
REMARK SMILES IDX 48 65 49 66 62 68 82 69 51 70 36 71 37 72 45 73 38 74 44 75
REMARK SMILES IDX 39 76 40 77 41 78 42 79 43 80 66 81 67 82 75 83 68 84 74 85
REMARK SMILES IDX 69 86 70 87 71 88 72 89 73 90 52 91 53 92 61 93 54 94 60 95
REMARK SMILES IDX 55 96 56 97 57 98 58 99 59 100
REMARK H PARENT 9 15 80 56 50 67
REMARK Flexibility Score: inf
ROOT
ATOM      1  C   UNL A   1      33.761  31.672  28.029  1.00  0.00     0.188 C 
ENDROOT
BRANCH   1   2
ATOM      2  O   UNL A   1      33.676  31.449  26.639  1.00  0.00    -0.376 OA
BRANCH   2   3
ATOM      3  C   UNL A   1      32.631  30.681  26.069  1.00  0.00     0.202 C 
BRANCH   3   4
ATOM      4  C   UNL A   1      31.703  29.751  26.863  1.00  0.00     0.261 C 
BRANCH   4   5
ATOM      5  O   UNL A   1      31.528  28.437  26.333  1.00  0.00    -0.460 OA
BRANCH   5   6
ATOM      6  C   UNL A   1      31.703  27.427  27.220  1.00  0.00     0.339 C 
ATOM      7  O   UNL A   1      31.632  27.497  28.434  1.00  0.00    -0.246 OA
BRANCH   6   8
ATOM      8  C   UNL A   1      31.918  26.156  26.509  1.00  0.00     0.080 A 
ATOM      9  C   UNL A   1      32.737  24.933  24.644  1.00  0.00     0.092 A 
ATOM     10  C   UNL A   1      32.247  26.122  25.160  1.00  0.00     0.048 A 
ATOM     11  C   UNL A   1      32.679  23.746  25.415  1.00  0.00     0.153 A 
ATOM     12  N   UNL A   1      32.222  23.759  26.683  1.00  0.00    -0.236 NA
ATOM     13  C   UNL A   1      31.899  24.964  27.221  1.00  0.00     0.129 A 
BRANCH   9  14
ATOM     14  N   UNL A   1      33.328  24.915  23.338  1.00  0.00    -0.276 N 
ATOM     15  H   UNL A   1      34.173  24.428  23.201  1.00  0.00     0.180 HD
BRANCH  14  16
ATOM     16  S   UNL A   1      32.607  25.714  22.017  1.00  0.00     0.262 S 
ATOM     17  O   UNL A   1      31.692  24.717  21.492  1.00  0.00    -0.201 OA
ATOM     18  O   UNL A   1      33.680  26.216  21.185  1.00  0.00    -0.201 OA
BRANCH  16  19
ATOM     19  C   UNL A   1      31.635  27.147  22.503  1.00  0.00     0.090 A 
ATOM     20  C   UNL A   1      29.123  30.648  22.433  1.00  0.00     0.044 C 
ATOM     21  C   UNL A   1      29.996  29.435  22.559  1.00  0.00    -0.051 A 
ATOM     22  C   UNL A   1      29.445  28.170  22.758  1.00  0.00     0.005 A 
ATOM     23  C   UNL A   1      31.387  29.557  22.560  1.00  0.00     0.008 A 
ATOM     24  C   UNL A   1      30.266  27.033  22.764  1.00  0.00     0.023 A 
ATOM     25  C   UNL A   1      32.223  28.422  22.575  1.00  0.00    -0.030 A 
ATOM     26  C   UNL A   1      33.686  28.667  22.825  1.00  0.00     0.046 C 
ENDBRANCH  16  19
ENDBRANCH  14  16
ENDBRANCH   9  14
BRANCH  11  27
ATOM     27  N   UNL A   1      33.127  22.562  24.855  1.00  0.00    -0.355 N 
ATOM     28  C   UNL A   1      34.131  21.795  25.577  1.00  0.00     0.118 C 
ATOM     29  C   UNL A   1      32.163  21.621  24.282  1.00  0.00     0.118 C 
ATOM     30  C   UNL A   1      34.387  20.669  24.589  1.00  0.00     0.023 C 
ATOM     31  C   UNL A   1      32.984  20.333  24.084  1.00  0.00     0.023 C 
ENDBRANCH  11  27
ENDBRANCH   6   8
ENDBRANCH   5   6
ENDBRANCH   4   5
ENDBRANCH   3   4
ENDBRANCH   2   3
ENDBRANCH   1   2
BRANCH   1  32
ATOM     32  C   UNL A   1      34.189  33.060  28.551  1.00  0.00     0.188 C 
BRANCH  32  33
ATOM     33  O   UNL A   1      33.222  34.030  28.885  1.00  0.00    -0.376 OA
BRANCH  33  34
ATOM     34  C   UNL A   1      33.571  35.400  28.796  1.00  0.00     0.202 C 
BRANCH  34  35
ATOM     35  C   UNL A   1      32.899  36.498  29.644  1.00  0.00     0.261 C 
BRANCH  35  36
ATOM     36  O   UNL A   1      33.373  36.673  30.986  1.00  0.00    -0.460 OA
BRANCH  36  37
ATOM     37  C   UNL A   1      32.949  35.754  31.895  1.00  0.00     0.338 C 
ATOM     38  O   UNL A   1      31.799  35.547  32.249  1.00  0.00    -0.246 OA
BRANCH  37  39
ATOM     39  C   UNL A   1      34.082  34.876  32.256  1.00  0.00     0.060 A 
ATOM     40  C   UNL A   1      33.831  33.685  32.958  1.00  0.00     0.016 A 
ATOM     41  C   UNL A   1      35.385  35.220  31.901  1.00  0.00     0.016 A 
ATOM     42  C   UNL A   1      34.881  32.824  33.286  1.00  0.00     0.010 A 
ATOM     43  C   UNL A   1      36.439  34.376  32.264  1.00  0.00     0.010 A 
ATOM     44  C   UNL A   1      36.196  33.177  32.961  1.00  0.00    -0.014 A 
BRANCH  44  45
ATOM     45  C   UNL A   1      37.341  32.363  33.438  1.00  0.00     0.031 A 
ATOM     46  C   UNL A   1      38.039  32.761  34.708  1.00  0.00     0.074 A 
ATOM     47  C   UNL A   1      37.791  31.316  32.723  1.00  0.00     0.049 A 
ATOM     48  N   UNL A   1      39.137  32.285  35.233  1.00  0.00    -0.248 NA
ATOM     49  C   UNL A   1      37.416  33.845  35.482  1.00  0.00     0.031 C 
ATOM     50  C   UNL A   1      37.178  30.803  31.498  1.00  0.00     0.029 A 
ATOM     51  N   UNL A   1      38.891  30.516  32.912  1.00  0.00    -0.354 N 
ATOM     52  C   UNL A   1      39.356  33.029  36.387  1.00  0.00     0.074 A 
ATOM     53  C   UNL A   1      38.279  33.992  36.478  1.00  0.00     0.031 C 
ATOM     54  C   UNL A   1      37.933  29.797  31.025  1.00  0.00     0.029 A 
ATOM     55  C   UNL A   1      39.103  29.625  31.886  1.00  0.00     0.049 A 
ATOM     56  H   UNL A   1      39.471  30.573  33.705  1.00  0.00     0.167 HD
ATOM     57  C   UNL A   1      40.367  32.924  37.282  1.00  0.00     0.031 A 
ATOM     58  C   UNL A   1      40.143  28.802  31.639  1.00  0.00     0.031 A 
ATOM     59  C   UNL A   1      41.449  31.981  37.172  1.00  0.00     0.049 A 
ATOM     60  C   UNL A   1      41.299  28.756  32.604  1.00  0.00     0.074 A 
ATOM     61  C   UNL A   1      42.498  31.772  38.049  1.00  0.00     0.029 A 
ATOM     62  N   UNL A   1      41.637  31.108  36.109  1.00  0.00    -0.354 N 
ATOM     63  N   UNL A   1      41.469  29.426  33.719  1.00  0.00    -0.248 NA
ATOM     64  C   UNL A   1      42.406  27.846  32.276  1.00  0.00     0.031 C 
ATOM     65  C   UNL A   1      43.362  30.830  37.480  1.00  0.00     0.029 A 
ATOM     66  C   UNL A   1      42.813  30.396  36.283  1.00  0.00     0.049 A 
ATOM     67  H   UNL A   1      41.025  31.010  35.344  1.00  0.00     0.167 HD
ATOM     68  C   UNL A   1      42.694  29.010  34.232  1.00  0.00     0.074 A 
ATOM     69  C   UNL A   1      43.213  28.014  33.317  1.00  0.00     0.031 C 
ATOM     70  C   UNL A   1      43.331  29.419  35.358  1.00  0.00     0.031 A 
BRANCH  57  71
ATOM     71  C   UNL A   1      40.383  33.903  38.427  1.00  0.00    -0.014 A 
ATOM     72  C   UNL A   1      41.045  35.141  38.331  1.00  0.00     0.010 A 
ATOM     73  C   UNL A   1      39.701  33.585  39.617  1.00  0.00     0.010 A 
ATOM     74  C   UNL A   1      41.066  36.018  39.420  1.00  0.00     0.020 A 
ATOM     75  C   UNL A   1      39.694  34.472  40.696  1.00  0.00     0.020 A 
ATOM     76  C   UNL A   1      40.395  35.675  40.598  1.00  0.00     0.054 A 
BRANCH  76  77
ATOM     77  S   UNL A   1      40.440  36.831  41.994  1.00  0.00     0.124 S 
ATOM     78  O   UNL A   1      39.287  37.684  41.713  1.00  0.00    -0.237 OA
ATOM     79  O   UNL A   1      40.299  35.945  43.146  1.00  0.00    -0.237 OA
ATOM     80  O   UNL A   1      41.740  37.482  41.866  1.00  0.00    -0.744 OA
ENDBRANCH  76  77
ENDBRANCH  57  71
BRANCH  58  81
ATOM     81  C   UNL A   1      40.155  27.991  30.390  1.00  0.00    -0.014 A 
ATOM     82  C   UNL A   1      41.098  28.236  29.378  1.00  0.00     0.010 A 
ATOM     83  C   UNL A   1      39.233  26.940  30.223  1.00  0.00     0.010 A 
ATOM     84  C   UNL A   1      41.123  27.441  28.226  1.00  0.00     0.020 A 
ATOM     85  C   UNL A   1      39.274  26.126  29.087  1.00  0.00     0.020 A 
ATOM     86  C   UNL A   1      40.218  26.384  28.094  1.00  0.00     0.054 A 
BRANCH  86  87
ATOM     87  S   UNL A   1      40.332  25.313  26.634  1.00  0.00     0.124 S 
ATOM     88  O   UNL A   1      41.327  24.331  27.053  1.00  0.00    -0.237 OA
ATOM     89  O   UNL A   1      38.965  24.814  26.506  1.00  0.00    -0.237 OA
ATOM     90  O   UNL A   1      40.757  26.223  25.572  1.00  0.00    -0.744 OA
ENDBRANCH  86  87
ENDBRANCH  58  81
BRANCH  70  91
ATOM     91  C   UNL A   1      44.664  28.788  35.680  1.00  0.00    -0.014 A 
ATOM     92  C   UNL A   1      44.750  27.640  36.487  1.00  0.00     0.010 A 
ATOM     93  C   UNL A   1      45.838  29.306  35.102  1.00  0.00     0.010 A 
ATOM     94  C   UNL A   1      45.986  27.032  36.724  1.00  0.00     0.020 A 
ATOM     95  C   UNL A   1      47.073  28.684  35.312  1.00  0.00     0.020 A 
ATOM     96  C   UNL A   1      47.140  27.555  36.130  1.00  0.00     0.054 A 
BRANCH  96  97
ATOM     97  S   UNL A   1      48.722  26.708  36.403  1.00  0.00     0.124 S 
ATOM     98  O   UNL A   1      49.680  27.675  35.877  1.00  0.00    -0.237 OA
ATOM     99  O   UNL A   1      48.741  26.529  37.853  1.00  0.00    -0.237 OA
ATOM    100  O   UNL A   1      48.594  25.475  35.630  1.00  0.00    -0.744 OA
ENDBRANCH  96  97
ENDBRANCH  70  91
ENDBRANCH  44  45
ENDBRANCH  37  39
ENDBRANCH  36  37
ENDBRANCH  35  36
ENDBRANCH  34  35
ENDBRANCH  33  34
ENDBRANCH  32  33
ENDBRANCH   1  32
TORSDOF 24
ENDMDL
MODEL 2
REMARK VINA RESULT:      -9.1      2.377      4.432
REMARK SMILES Cc1ccc(S(=O)(=O)Nc2cc(C(=O)OCCOCCOCCOC(=O)c3ccc(-c4c5nc(c(-c6ccc(S(=O)(=O)[O-])cc6)c6ccc([nH]6)c(-c6ccc(S(=O)(=O)[O-])cc6)c6nc(c(-c7ccc(S(=O)(=O)[O-])cc7)c7ccc4[nH]7)C=C6)C=C5)cc3)cnc2N2CCCC2)c(C)c1
REMARK SMILES IDX 19 1 18 2 17 3 16 4 15 5 13 6 14 7 12 8 10 9 11 10 89 11
REMARK SMILES IDX 88 12 87 13 9 14 6 16 7 17 8 18 5 19 1 20 2 21 3 22 97 23
REMARK SMILES IDX 4 24 95 25 96 26 90 27 91 28 94 29 92 30 93 31 20 32 21 33
REMARK SMILES IDX 22 34 23 35 24 36 25 37 26 38 27 39 28 40 86 41 29 42 85 43
REMARK SMILES IDX 30 44 31 45 32 46 79 47 33 48 84 49 78 50 80 51 34 52 83 53
REMARK SMILES IDX 77 54 76 55 35 57 65 58 46 59 64 60 47 61 50 62 63 63 81 64
REMARK SMILES IDX 48 65 49 66 62 68 82 69 51 70 36 71 37 72 45 73 38 74 44 75
REMARK SMILES IDX 39 76 40 77 41 78 42 79 43 80 66 81 67 82 75 83 68 84 74 85
REMARK SMILES IDX 69 86 70 87 71 88 72 89 73 90 52 91 53 92 61 93 54 94 60 95
REMARK SMILES IDX 55 96 56 97 57 98 58 99 59 100
REMARK H PARENT 9 15 80 56 50 67
REMARK Flexibility Score: inf
ROOT
ATOM      1  C   UNL A   1      34.154  29.203  27.084  1.00  0.00     0.188 C 
ENDROOT
BRANCH   1   2
ATOM      2  O   UNL A   1      33.908  29.052  25.703  1.00  0.00    -0.376 OA
BRANCH   2   3
ATOM      3  C   UNL A   1      33.386  27.849  25.166  1.00  0.00     0.202 C 
BRANCH   3   4
ATOM      4  C   UNL A   1      33.242  26.537  25.948  1.00  0.00     0.261 C 
BRANCH   4   5
ATOM      5  O   UNL A   1      32.499  25.501  25.306  1.00  0.00    -0.460 OA
BRANCH   5   6
ATOM      6  C   UNL A   1      32.009  24.543  26.130  1.00  0.00     0.339 C 
ATOM      7  O   UNL A   1      31.334  24.712  27.130  1.00  0.00    -0.246 OA
BRANCH   6   8
ATOM      8  C   UNL A   1      32.332  23.206  25.606  1.00  0.00     0.080 A 
ATOM      9  C   UNL A   1      33.916  21.560  24.951  1.00  0.00     0.092 A 
ATOM     10  C   UNL A   1      33.600  22.898  25.128  1.00  0.00     0.048 A 
ATOM     11  C   UNL A   1      32.904  20.573  25.035  1.00  0.00     0.153 A 
ATOM     12  N   UNL A   1      31.637  20.898  25.362  1.00  0.00    -0.236 NA
ATOM     13  C   UNL A   1      31.387  22.193  25.688  1.00  0.00     0.129 A 
BRANCH   9  14
ATOM     14  N   UNL A   1      35.277  21.178  24.711  1.00  0.00    -0.276 N 
ATOM     15  H   UNL A   1      35.479  20.240  24.489  1.00  0.00     0.180 HD
BRANCH  14  16
ATOM     16  S   UNL A   1      36.553  22.303  24.797  1.00  0.00     0.262 S 
ATOM     17  O   UNL A   1      36.023  23.332  25.673  1.00  0.00    -0.201 OA
ATOM     18  O   UNL A   1      36.922  22.634  23.437  1.00  0.00    -0.201 OA
BRANCH  16  19
ATOM     19  C   UNL A   1      38.033  21.634  25.571  1.00  0.00     0.090 A 
ATOM     20  C   UNL A   1      42.099  20.449  26.368  1.00  0.00     0.044 C 
ATOM     21  C   UNL A   1      40.660  20.829  26.185  1.00  0.00    -0.051 A 
ATOM     22  C   UNL A   1      40.174  22.052  26.643  1.00  0.00     0.005 A 
ATOM     23  C   UNL A   1      39.753  19.928  25.619  1.00  0.00     0.008 A 
ATOM     24  C   UNL A   1      38.854  22.439  26.367  1.00  0.00     0.023 A 
ATOM     25  C   UNL A   1      38.423  20.303  25.345  1.00  0.00    -0.030 A 
ATOM     26  C   UNL A   1      37.474  19.195  24.974  1.00  0.00     0.046 C 
ENDBRANCH  16  19
ENDBRANCH  14  16
ENDBRANCH   9  14
BRANCH  11  27
ATOM     27  N   UNL A   1      33.239  19.250  24.802  1.00  0.00    -0.355 N 
ATOM     28  C   UNL A   1      32.652  18.230  25.659  1.00  0.00     0.118 C 
ATOM     29  C   UNL A   1      33.253  18.737  23.432  1.00  0.00     0.118 C 
ATOM     30  C   UNL A   1      33.344  16.986  25.126  1.00  0.00     0.023 C 
ATOM     31  C   UNL A   1      33.331  17.210  23.614  1.00  0.00     0.023 C 
ENDBRANCH  11  27
ENDBRANCH   6   8
ENDBRANCH   5   6
ENDBRANCH   4   5
ENDBRANCH   3   4
ENDBRANCH   2   3
ENDBRANCH   1   2
BRANCH   1  32
ATOM     32  C   UNL A   1      34.614  30.572  27.629  1.00  0.00     0.188 C 
BRANCH  32  33
ATOM     33  O   UNL A   1      33.670  31.550  28.003  1.00  0.00    -0.376 OA
BRANCH  33  34
ATOM     34  C   UNL A   1      34.043  32.914  27.950  1.00  0.00     0.202 C 
BRANCH  34  35
ATOM     35  C   UNL A   1      33.097  34.063  28.352  1.00  0.00     0.261 C 
BRANCH  35  36
ATOM     36  O   UNL A   1      33.633  35.090  29.197  1.00  0.00    -0.460 OA
BRANCH  36  37
ATOM     37  C   UNL A   1      33.553  34.865  30.536  1.00  0.00     0.338 C 
ATOM     38  O   UNL A   1      32.584  35.053  31.256  1.00  0.00    -0.246 OA
BRANCH  37  39
ATOM     39  C   UNL A   1      34.769  34.151  30.979  1.00  0.00     0.060 A 
ATOM     40  C   UNL A   1      34.637  32.967  31.722  1.00  0.00     0.016 A 
ATOM     41  C   UNL A   1      36.033  34.643  30.660  1.00  0.00     0.016 A 
ATOM     42  C   UNL A   1      35.771  32.258  32.128  1.00  0.00     0.010 A 
ATOM     43  C   UNL A   1      37.167  33.952  31.099  1.00  0.00     0.010 A 
ATOM     44  C   UNL A   1      37.045  32.761  31.839  1.00  0.00    -0.014 A 
BRANCH  44  45
ATOM     45  C   UNL A   1      38.260  32.117  32.395  1.00  0.00     0.031 A 
ATOM     46  C   UNL A   1      38.665  32.423  33.808  1.00  0.00     0.074 A 
ATOM     47  C   UNL A   1      39.025  31.312  31.635  1.00  0.00     0.049 A 
ATOM     48  N   UNL A   1      39.754  32.088  34.449  1.00  0.00    -0.248 NA
ATOM     49  C   UNL A   1      37.716  33.220  34.601  1.00  0.00     0.031 C 
ATOM     50  C   UNL A   1      38.721  30.903  30.265  1.00  0.00     0.029 A 
ATOM     51  N   UNL A   1      40.235  30.721  31.904  1.00  0.00    -0.354 N 
ATOM     52  C   UNL A   1      39.638  32.656  35.712  1.00  0.00     0.074 A 
ATOM     53  C   UNL A   1      38.375  33.362  35.742  1.00  0.00     0.031 C 
ATOM     54  C   UNL A   1      39.737  30.156  29.800  1.00  0.00     0.029 A 
ATOM     55  C   UNL A   1      40.782  30.073  30.821  1.00  0.00     0.049 A 
ATOM     56  H   UNL A   1      40.669  30.756  32.787  1.00  0.00     0.167 HD
ATOM     57  C   UNL A   1      40.509  32.601  36.749  1.00  0.00     0.031 A 
ATOM     58  C   UNL A   1      42.000  29.521  30.651  1.00  0.00     0.031 A 
ATOM     59  C   UNL A   1      41.775  31.918  36.703  1.00  0.00     0.049 A 
ATOM     60  C   UNL A   1      42.989  29.540  31.788  1.00  0.00     0.074 A 
ATOM     61  C   UNL A   1      42.709  31.773  37.714  1.00  0.00     0.029 A 
ATOM     62  N   UNL A   1      42.300  31.290  35.583  1.00  0.00    -0.354 N 
ATOM     63  N   UNL A   1      42.847  30.033  32.996  1.00  0.00    -0.248 NA
ATOM     64  C   UNL A   1      44.303  28.930  31.540  1.00  0.00     0.031 C 
ATOM     65  C   UNL A   1      43.830  31.126  37.184  1.00  0.00     0.029 A 
ATOM     66  C   UNL A   1      43.566  30.801  35.862  1.00  0.00     0.049 A 
ATOM     67  H   UNL A   1      41.840  31.205  34.716  1.00  0.00     0.167 HD
ATOM     68  C   UNL A   1      44.047  29.783  33.654  1.00  0.00     0.074 A 
ATOM     69  C   UNL A   1      44.897  29.075  32.718  1.00  0.00     0.031 C 
ATOM     70  C   UNL A   1      44.412  30.112  34.919  1.00  0.00     0.031 A 
BRANCH  57  71
ATOM     71  C   UNL A   1      40.147  33.358  38.000  1.00  0.00    -0.014 A 
ATOM     72  C   UNL A   1      40.813  34.542  38.365  1.00  0.00     0.010 A 
ATOM     73  C   UNL A   1      39.101  32.885  38.815  1.00  0.00     0.010 A 
ATOM     74  C   UNL A   1      40.474  35.209  39.546  1.00  0.00     0.020 A 
ATOM     75  C   UNL A   1      38.738  33.565  39.980  1.00  0.00     0.020 A 
ATOM     76  C   UNL A   1      39.442  34.712  40.349  1.00  0.00     0.054 A 
BRANCH  76  77
ATOM     77  S   UNL A   1      39.023  35.597  41.875  1.00  0.00     0.124 S 
ATOM     78  O   UNL A   1      37.897  34.812  42.378  1.00  0.00    -0.237 OA
ATOM     79  O   UNL A   1      40.256  35.494  42.652  1.00  0.00    -0.237 OA
ATOM     80  O   UNL A   1      38.688  36.942  41.418  1.00  0.00    -0.744 OA
ENDBRANCH  76  77
ENDBRANCH  57  71
BRANCH  58  81
ATOM     81  C   UNL A   1      42.369  28.950  29.326  1.00  0.00    -0.014 A 
ATOM     82  C   UNL A   1      42.807  29.776  28.278  1.00  0.00     0.010 A 
ATOM     83  C   UNL A   1      42.311  27.558  29.119  1.00  0.00     0.010 A 
ATOM     84  C   UNL A   1      43.186  29.222  27.051  1.00  0.00     0.020 A 
ATOM     85  C   UNL A   1      42.716  26.999  27.903  1.00  0.00     0.020 A 
ATOM     86  C   UNL A   1      43.149  27.836  26.875  1.00  0.00     0.054 A 
BRANCH  86  87
ATOM     87  S   UNL A   1      43.733  27.137  25.306  1.00  0.00     0.124 S 
ATOM     88  O   UNL A   1      42.765  27.672  24.354  1.00  0.00    -0.237 OA
ATOM     89  O   UNL A   1      45.086  27.679  25.206  1.00  0.00    -0.237 OA
ATOM     90  O   UNL A   1      43.664  25.693  25.526  1.00  0.00    -0.744 OA
ENDBRANCH  86  87
ENDBRANCH  58  81
BRANCH  70  91
ATOM     91  C   UNL A   1      45.791  29.708  35.381  1.00  0.00    -0.014 A 
ATOM     92  C   UNL A   1      46.008  28.484  36.036  1.00  0.00     0.010 A 
ATOM     93  C   UNL A   1      46.894  30.530  35.085  1.00  0.00     0.010 A 
ATOM     94  C   UNL A   1      47.301  28.096  36.402  1.00  0.00     0.020 A 
ATOM     95  C   UNL A   1      48.192  30.133  35.422  1.00  0.00     0.020 A 
ATOM     96  C   UNL A   1      48.386  28.921  36.087  1.00  0.00     0.054 A 
BRANCH  96  97
ATOM     97  S   UNL A   1      50.059  28.363  36.517  1.00  0.00     0.124 S 
ATOM     98  O   UNL A   1      49.791  27.349  37.532  1.00  0.00    -0.237 OA
ATOM     99  O   UNL A   1      50.564  27.859  35.242  1.00  0.00    -0.237 OA
ATOM    100  O   UNL A   1      50.714  29.574  37.005  1.00  0.00    -0.744 OA
ENDBRANCH  96  97
ENDBRANCH  70  91
ENDBRANCH  44  45
ENDBRANCH  37  39
ENDBRANCH  36  37
ENDBRANCH  35  36
ENDBRANCH  34  35
ENDBRANCH  33  34
ENDBRANCH  32  33
ENDBRANCH   1  32
TORSDOF 24
ENDMDL
MODEL 3
REMARK VINA RESULT:      -9.1      5.659      7.955
REMARK SMILES Cc1ccc(S(=O)(=O)Nc2cc(C(=O)OCCOCCOCCOC(=O)c3ccc(-c4c5nc(c(-c6ccc(S(=O)(=O)[O-])cc6)c6ccc([nH]6)c(-c6ccc(S(=O)(=O)[O-])cc6)c6nc(c(-c7ccc(S(=O)(=O)[O-])cc7)c7ccc4[nH]7)C=C6)C=C5)cc3)cnc2N2CCCC2)c(C)c1
REMARK SMILES IDX 19 1 18 2 17 3 16 4 15 5 13 6 14 7 12 8 10 9 11 10 89 11
REMARK SMILES IDX 88 12 87 13 9 14 6 16 7 17 8 18 5 19 1 20 2 21 3 22 97 23
REMARK SMILES IDX 4 24 95 25 96 26 90 27 91 28 94 29 92 30 93 31 20 32 21 33
REMARK SMILES IDX 22 34 23 35 24 36 25 37 26 38 27 39 28 40 86 41 29 42 85 43
REMARK SMILES IDX 30 44 31 45 32 46 79 47 33 48 84 49 78 50 80 51 34 52 83 53
REMARK SMILES IDX 77 54 76 55 35 57 65 58 46 59 64 60 47 61 50 62 63 63 81 64
REMARK SMILES IDX 48 65 49 66 62 68 82 69 51 70 36 71 37 72 45 73 38 74 44 75
REMARK SMILES IDX 39 76 40 77 41 78 42 79 43 80 66 81 67 82 75 83 68 84 74 85
REMARK SMILES IDX 69 86 70 87 71 88 72 89 73 90 52 91 53 92 61 93 54 94 60 95
REMARK SMILES IDX 55 96 56 97 57 98 58 99 59 100
REMARK H PARENT 9 15 80 56 50 67
REMARK Flexibility Score: inf
ROOT
ATOM      1  C   UNL A   1      33.836  29.645  26.890  1.00  0.00     0.188 C 
ENDROOT
BRANCH   1   2
ATOM      2  O   UNL A   1      33.418  29.559  25.545  1.00  0.00    -0.376 OA
BRANCH   2   3
ATOM      3  C   UNL A   1      32.792  28.397  25.031  1.00  0.00     0.202 C 
BRANCH   3   4
ATOM      4  C   UNL A   1      32.677  27.065  25.784  1.00  0.00     0.261 C 
BRANCH   4   5
ATOM      5  O   UNL A   1      31.998  26.013  25.098  1.00  0.00    -0.460 OA
BRANCH   5   6
ATOM      6  C   UNL A   1      31.490  25.038  25.891  1.00  0.00     0.339 C 
ATOM      7  O   UNL A   1      30.790  25.186  26.878  1.00  0.00    -0.246 OA
BRANCH   6   8
ATOM      8  C   UNL A   1      31.829  23.712  25.350  1.00  0.00     0.080 A 
ATOM      9  C   UNL A   1      33.402  22.181  24.438  1.00  0.00     0.092 A 
ATOM     10  C   UNL A   1      33.002  23.493  24.638  1.00  0.00     0.048 A 
ATOM     11  C   UNL A   1      32.522  21.115  24.748  1.00  0.00     0.153 A 
ATOM     12  N   UNL A   1      31.319  21.344  25.310  1.00  0.00    -0.236 NA
ATOM     13  C   UNL A   1      31.016  22.625  25.645  1.00  0.00     0.129 A 
BRANCH   9  14
ATOM     14  N   UNL A   1      34.719  21.908  23.943  1.00  0.00    -0.276 N 
ATOM     15  H   UNL A   1      34.932  21.001  23.624  1.00  0.00     0.180 HD
BRANCH  14  16
ATOM     16  S   UNL A   1      35.924  23.110  23.891  1.00  0.00     0.262 S 
ATOM     17  O   UNL A   1      35.184  24.328  24.163  1.00  0.00    -0.201 OA
ATOM     18  O   UNL A   1      36.625  22.958  22.633  1.00  0.00    -0.201 OA
BRANCH  16  19
ATOM     19  C   UNL A   1      37.164  22.923  25.182  1.00  0.00     0.090 A 
ATOM     20  C   UNL A   1      40.868  22.953  27.384  1.00  0.00     0.044 C 
ATOM     21  C   UNL A   1      39.533  22.911  26.703  1.00  0.00    -0.051 A 
ATOM     22  C   UNL A   1      38.642  23.979  26.796  1.00  0.00     0.005 A 
ATOM     23  C   UNL A   1      39.118  21.763  26.023  1.00  0.00     0.008 A 
ATOM     24  C   UNL A   1      37.445  23.970  26.065  1.00  0.00     0.023 A 
ATOM     25  C   UNL A   1      37.913  21.739  25.292  1.00  0.00    -0.030 A 
ATOM     26  C   UNL A   1      37.443  20.393  24.812  1.00  0.00     0.046 C 
ENDBRANCH  16  19
ENDBRANCH  14  16
ENDBRANCH   9  14
BRANCH  11  27
ATOM     27  N   UNL A   1      32.928  19.817  24.489  1.00  0.00    -0.355 N 
ATOM     28  C   UNL A   1      32.873  18.849  25.574  1.00  0.00     0.118 C 
ATOM     29  C   UNL A   1      32.482  19.150  23.265  1.00  0.00     0.118 C 
ATOM     30  C   UNL A   1      33.476  17.631  24.893  1.00  0.00     0.023 C 
ATOM     31  C   UNL A   1      32.844  17.672  23.502  1.00  0.00     0.023 C 
ENDBRANCH  11  27
ENDBRANCH   6   8
ENDBRANCH   5   6
ENDBRANCH   4   5
ENDBRANCH   3   4
ENDBRANCH   2   3
ENDBRANCH   1   2
BRANCH   1  32
ATOM     32  C   UNL A   1      34.400  30.977  27.427  1.00  0.00     0.188 C 
BRANCH  32  33
ATOM     33  O   UNL A   1      33.555  31.910  28.061  1.00  0.00    -0.376 OA
BRANCH  33  34
ATOM     34  C   UNL A   1      33.890  33.284  28.001  1.00  0.00     0.202 C 
BRANCH  34  35
ATOM     35  C   UNL A   1      33.405  34.317  29.039  1.00  0.00     0.261 C 
BRANCH  35  36
ATOM     36  O   UNL A   1      34.338  34.714  30.054  1.00  0.00    -0.460 OA
BRANCH  36  37
ATOM     37  C   UNL A   1      34.775  33.729  30.882  1.00  0.00     0.338 C 
ATOM     38  O   UNL A   1      34.093  32.898  31.461  1.00  0.00    -0.246 OA
BRANCH  37  39
ATOM     39  C   UNL A   1      36.251  33.672  30.826  1.00  0.00     0.060 A 
ATOM     40  C   UNL A   1      36.871  32.921  29.814  1.00  0.00     0.016 A 
ATOM     41  C   UNL A   1      37.021  34.360  31.763  1.00  0.00     0.016 A 
ATOM     42  C   UNL A   1      38.265  32.875  29.722  1.00  0.00     0.010 A 
ATOM     43  C   UNL A   1      38.416  34.281  31.692  1.00  0.00     0.010 A 
ATOM     44  C   UNL A   1      39.046  33.537  30.677  1.00  0.00    -0.014 A 
BRANCH  44  45
ATOM     45  C   UNL A   1      40.520  33.372  30.698  1.00  0.00     0.031 A 
ATOM     46  C   UNL A   1      41.118  32.256  31.507  1.00  0.00     0.074 A 
ATOM     47  C   UNL A   1      41.322  34.237  30.051  1.00  0.00     0.049 A 
ATOM     48  N   UNL A   1      42.372  32.011  31.781  1.00  0.00    -0.248 NA
ATOM     49  C   UNL A   1      40.170  31.294  32.090  1.00  0.00     0.031 C 
ATOM     50  C   UNL A   1      40.868  35.335  29.199  1.00  0.00     0.029 A 
ATOM     51  N   UNL A   1      42.692  34.343  30.038  1.00  0.00    -0.354 N 
ATOM     52  C   UNL A   1      42.367  30.882  32.592  1.00  0.00     0.074 A 
ATOM     53  C   UNL A   1      40.983  30.498  32.770  1.00  0.00     0.031 C 
ATOM     54  C   UNL A   1      41.940  36.027  28.776  1.00  0.00     0.029 A 
ATOM     55  C   UNL A   1      43.150  35.450  29.363  1.00  0.00     0.049 A 
ATOM     56  H   UNL A   1      43.288  33.690  30.471  1.00  0.00     0.167 HD
ATOM     57  C   UNL A   1      43.419  30.232  33.145  1.00  0.00     0.031 A 
ATOM     58  C   UNL A   1      44.391  35.969  29.267  1.00  0.00     0.031 A 
ATOM     59  C   UNL A   1      44.791  30.636  32.985  1.00  0.00     0.049 A 
ATOM     60  C   UNL A   1      45.539  35.278  29.956  1.00  0.00     0.074 A 
ATOM     61  C   UNL A   1      45.930  30.019  33.474  1.00  0.00     0.029 A 
ATOM     62  N   UNL A   1      45.212  31.772  32.308  1.00  0.00    -0.354 N 
ATOM     63  N   UNL A   1      45.529  34.181  30.676  1.00  0.00    -0.248 NA
ATOM     64  C   UNL A   1      46.866  35.896  29.823  1.00  0.00     0.031 C 
ATOM     65  C   UNL A   1      47.031  30.823  33.159  1.00  0.00     0.029 A 
ATOM     66  C   UNL A   1      46.588  31.902  32.410  1.00  0.00     0.049 A 
ATOM     67  H   UNL A   1      44.620  32.394  31.827  1.00  0.00     0.167 HD
ATOM     68  C   UNL A   1      46.847  33.972  31.071  1.00  0.00     0.074 A 
ATOM     69  C   UNL A   1      47.632  35.043  30.492  1.00  0.00     0.031 C 
ATOM     70  C   UNL A   1      47.359  32.982  31.845  1.00  0.00     0.031 A 
BRANCH  57  71
ATOM     71  C   UNL A   1      43.117  29.052  34.033  1.00  0.00    -0.014 A 
ATOM     72  C   UNL A   1      43.133  27.735  33.540  1.00  0.00     0.010 A 
ATOM     73  C   UNL A   1      42.834  29.268  35.394  1.00  0.00     0.010 A 
ATOM     74  C   UNL A   1      42.823  26.662  34.381  1.00  0.00     0.020 A 
ATOM     75  C   UNL A   1      42.554  28.196  36.245  1.00  0.00     0.020 A 
ATOM     76  C   UNL A   1      42.529  26.901  35.727  1.00  0.00     0.054 A 
BRANCH  76  77
ATOM     77  S   UNL A   1      42.130  25.490  36.795  1.00  0.00     0.124 S 
ATOM     78  O   UNL A   1      41.306  26.118  37.826  1.00  0.00    -0.237 OA
ATOM     79  O   UNL A   1      41.422  24.593  35.886  1.00  0.00    -0.237 OA
ATOM     80  O   UNL A   1      43.435  25.015  37.246  1.00  0.00    -0.744 OA
ENDBRANCH  76  77
ENDBRANCH  57  71
BRANCH  58  81
ATOM     81  C   UNL A   1      44.597  37.245  28.528  1.00  0.00    -0.014 A 
ATOM     82  C   UNL A   1      44.472  37.299  27.130  1.00  0.00     0.010 A 
ATOM     83  C   UNL A   1      44.892  38.428  29.233  1.00  0.00     0.010 A 
ATOM     84  C   UNL A   1      44.631  38.513  26.452  1.00  0.00     0.020 A 
ATOM     85  C   UNL A   1      45.023  39.647  28.562  1.00  0.00     0.020 A 
ATOM     86  C   UNL A   1      44.894  39.681  27.173  1.00  0.00     0.054 A 
BRANCH  86  87
ATOM     87  S   UNL A   1      45.004  41.256  26.279  1.00  0.00     0.124 S 
ATOM     88  O   UNL A   1      43.598  41.619  26.127  1.00  0.00    -0.237 OA
ATOM     89  O   UNL A   1      45.776  42.085  27.201  1.00  0.00    -0.237 OA
ATOM     90  O   UNL A   1      45.697  40.901  25.042  1.00  0.00    -0.744 OA
ENDBRANCH  86  87
ENDBRANCH  58  81
BRANCH  70  91
ATOM     91  C   UNL A   1      48.844  32.996  32.114  1.00  0.00    -0.014 A 
ATOM     92  C   UNL A   1      49.363  33.542  33.301  1.00  0.00     0.010 A 
ATOM     93  C   UNL A   1      49.725  32.383  31.202  1.00  0.00     0.010 A 
ATOM     94  C   UNL A   1      50.735  33.492  33.564  1.00  0.00     0.020 A 
ATOM     95  C   UNL A   1      51.094  32.304  31.475  1.00  0.00     0.020 A 
ATOM     96  C   UNL A   1      51.592  32.867  32.651  1.00  0.00     0.054 A 
BRANCH  96  97
ATOM     97  S   UNL A   1      53.360  32.759  33.047  1.00  0.00     0.124 S 
ATOM     98  O   UNL A   1      53.685  31.401  32.624  1.00  0.00    -0.237 OA
ATOM     99  O   UNL A   1      53.934  33.827  32.233  1.00  0.00    -0.237 OA
ATOM    100  O   UNL A   1      53.407  32.989  34.489  1.00  0.00    -0.744 OA
ENDBRANCH  96  97
ENDBRANCH  70  91
ENDBRANCH  44  45
ENDBRANCH  37  39
ENDBRANCH  36  37
ENDBRANCH  35  36
ENDBRANCH  34  35
ENDBRANCH  33  34
ENDBRANCH  32  33
ENDBRANCH   1  32
TORSDOF 24
ENDMDL
