MODEL 1
REMARK VINA RESULT:      -9.6      0.000      0.000
REMARK SMILES CC(C)(C)OC(=O)N1CC[C@@]2(CCC[C@@H](C(=O)OCCOCCOCCOC(=O)c3ccc(-c4c5nc(c(-c6ccc(S(=O)(=O)[O-])cc6)c6ccc([nH]6)c(-c6ccc(S(=O)(=O)[O-])cc6)c6nc(c(-c7ccc(S(=O)(=O)[O-])cc7)c7ccc4[nH]7)C=C6)C=C5)cc3)O2)C1
REMARK SMILES IDX 22 1 21 2 20 3 19 4 18 5 16 6 17 7 15 8 8 9 9 10 91 11 10 12
REMARK SMILES IDX 11 13 12 14 90 15 13 16 14 17 6 18 7 19 5 20 2 21 1 22 3 23
REMARK SMILES IDX 4 24 23 25 24 26 25 27 26 28 27 29 28 30 29 31 30 32 31 33
REMARK SMILES IDX 89 34 32 35 88 36 33 37 34 38 35 39 82 40 36 41 87 42 81 43
REMARK SMILES IDX 83 44 37 45 86 46 80 47 79 48 38 50 68 51 49 52 67 53 50 54
REMARK SMILES IDX 53 55 66 56 84 57 51 58 52 59 65 61 85 62 54 63 39 64 40 65
REMARK SMILES IDX 48 66 41 67 47 68 42 69 43 70 44 71 45 72 46 73 69 74 70 75
REMARK SMILES IDX 78 76 71 77 77 78 72 79 73 80 74 81 75 82 76 83 55 84 56 85
REMARK SMILES IDX 64 86 57 87 63 88 58 89 59 90 60 91 61 92 62 93
REMARK H PARENT 83 49 53 60
REMARK Flexibility Score: inf
ROOT
ATOM      1  C   UNL A   1      37.004  23.422  25.137  1.00  0.00     0.188 C 
ENDROOT
BRANCH   1   2
ATOM      2  O   UNL A   1      35.669  23.625  25.539  1.00  0.00    -0.376 OA
BRANCH   2   3
ATOM      3  C   UNL A   1      35.125  22.899  26.629  1.00  0.00     0.202 C 
BRANCH   3   4
ATOM      4  C   UNL A   1      34.411  21.537  26.534  1.00  0.00     0.261 C 
BRANCH   4   5
ATOM      5  O   UNL A   1      32.984  21.551  26.416  1.00  0.00    -0.461 OA
BRANCH   5   6
ATOM      6  C   UNL A   1      32.468  21.042  25.258  1.00  0.00     0.335 C 
ATOM      7  O   UNL A   1      32.226  19.853  25.081  1.00  0.00    -0.249 OA
BRANCH   6   8
ATOM      8  C   UNL A   1      32.098  22.166  24.257  1.00  0.00     0.228 C 
ATOM      9  N   UNL A   1      30.979  26.810  24.279  1.00  0.00    -0.305 N 
ATOM     10  C   UNL A   1      29.996  26.180  23.422  1.00  0.00     0.126 C 
ATOM     11  C   UNL A   1      31.813  25.827  24.933  1.00  0.00     0.158 C 
ATOM     12  C   UNL A   1      30.303  24.674  23.498  1.00  0.00     0.059 C 
ATOM     13  C   UNL A   1      31.747  24.571  24.050  1.00  0.00     0.089 C 
ATOM     14  C   UNL A   1      32.827  24.643  22.961  1.00  0.00     0.037 C 
ATOM     15  O   UNL A   1      31.963  23.434  24.896  1.00  0.00    -0.358 OA
ATOM     16  C   UNL A   1      32.933  23.337  22.187  1.00  0.00     0.006 C 
ATOM     17  C   UNL A   1      33.151  22.185  23.151  1.00  0.00     0.044 C 
BRANCH   9  18
ATOM     18  C   UNL A   1      31.206  28.153  24.437  1.00  0.00     0.410 C 
ATOM     19  O   UNL A   1      31.343  28.910  23.479  1.00  0.00    -0.224 OA
BRANCH  18  20
ATOM     20  O   UNL A   1      31.290  28.536  25.738  1.00  0.00    -0.444 OA
BRANCH  20  21
ATOM     21  C   UNL A   1      32.534  29.084  26.270  1.00  0.00     0.106 C 
ATOM     22  C   UNL A   1      32.757  28.382  27.620  1.00  0.00     0.056 C 
ATOM     23  C   UNL A   1      32.354  30.585  26.510  1.00  0.00     0.056 C 
ATOM     24  C   UNL A   1      33.777  28.806  25.406  1.00  0.00     0.056 C 
ENDBRANCH  20  21
ENDBRANCH  18  20
ENDBRANCH   9  18
ENDBRANCH   6   8
ENDBRANCH   5   6
ENDBRANCH   4   5
ENDBRANCH   3   4
ENDBRANCH   2   3
ENDBRANCH   1   2
BRANCH   1  25
ATOM     25  C   UNL A   1      38.070  23.330  26.250  1.00  0.00     0.188 C 
BRANCH  25  26
ATOM     26  O   UNL A   1      38.859  22.167  26.383  1.00  0.00    -0.376 OA
BRANCH  26  27
ATOM     27  C   UNL A   1      38.564  21.016  25.614  1.00  0.00     0.202 C 
BRANCH  27  28
ATOM     28  C   UNL A   1      39.426  19.738  25.603  1.00  0.00     0.261 C 
BRANCH  28  29
ATOM     29  O   UNL A   1      40.488  19.645  26.560  1.00  0.00    -0.460 OA
BRANCH  29  30
ATOM     30  C   UNL A   1      41.730  19.903  26.076  1.00  0.00     0.338 C 
ATOM     31  O   UNL A   1      42.394  19.198  25.335  1.00  0.00    -0.246 OA
BRANCH  30  32
ATOM     32  C   UNL A   1      42.114  21.282  26.433  1.00  0.00     0.060 A 
ATOM     33  C   UNL A   1      42.304  22.220  25.407  1.00  0.00     0.016 A 
ATOM     34  C   UNL A   1      42.335  21.632  27.764  1.00  0.00     0.016 A 
ATOM     35  C   UNL A   1      42.729  23.514  25.712  1.00  0.00     0.010 A 
ATOM     36  C   UNL A   1      42.788  22.921  28.064  1.00  0.00     0.010 A 
ATOM     37  C   UNL A   1      43.009  23.859  27.039  1.00  0.00    -0.014 A 
BRANCH  37  38
ATOM     38  C   UNL A   1      43.694  25.139  27.347  1.00  0.00     0.031 A 
ATOM     39  C   UNL A   1      42.886  26.264  27.937  1.00  0.00     0.074 A 
ATOM     40  C   UNL A   1      45.007  25.304  27.108  1.00  0.00     0.049 A 
ATOM     41  N   UNL A   1      43.244  27.493  28.201  1.00  0.00    -0.248 NA
ATOM     42  C   UNL A   1      41.484  25.959  28.272  1.00  0.00     0.031 C 
ATOM     43  C   UNL A   1      45.911  24.277  26.591  1.00  0.00     0.029 A 
ATOM     44  N   UNL A   1      45.807  26.411  27.259  1.00  0.00    -0.354 N 
ATOM     45  C   UNL A   1      42.114  28.111  28.721  1.00  0.00     0.074 A 
ATOM     46  C   UNL A   1      41.050  27.131  28.709  1.00  0.00     0.031 C 
ATOM     47  C   UNL A   1      47.139  24.808  26.453  1.00  0.00     0.029 A 
ATOM     48  C   UNL A   1      47.099  26.220  26.828  1.00  0.00     0.049 A 
ATOM     49  H   UNL A   1      45.485  27.259  27.640  1.00  0.00     0.167 HD
ATOM     50  C   UNL A   1      41.975  29.380  29.176  1.00  0.00     0.031 A 
ATOM     51  C   UNL A   1      48.121  27.093  26.719  1.00  0.00     0.031 A 
ATOM     52  C   UNL A   1      43.029  30.360  29.166  1.00  0.00     0.049 A 
ATOM     53  C   UNL A   1      47.913  28.529  27.135  1.00  0.00     0.074 A 
ATOM     54  C   UNL A   1      42.987  31.672  29.602  1.00  0.00     0.029 A 
ATOM     55  N   UNL A   1      44.311  30.138  28.688  1.00  0.00    -0.354 N 
ATOM     56  N   UNL A   1      46.843  29.097  27.642  1.00  0.00    -0.248 NA
ATOM     57  C   UNL A   1      49.054  29.442  26.968  1.00  0.00     0.031 C 
ATOM     58  C   UNL A   1      44.225  32.262  29.330  1.00  0.00     0.029 A 
ATOM     59  C   UNL A   1      45.062  31.297  28.794  1.00  0.00     0.049 A 
ATOM     60  H   UNL A   1      44.639  29.284  28.327  1.00  0.00     0.167 HD
ATOM     61  C   UNL A   1      47.196  30.421  27.888  1.00  0.00     0.074 A 
ATOM     62  C   UNL A   1      48.580  30.566  27.488  1.00  0.00     0.031 C 
ATOM     63  C   UNL A   1      46.443  31.426  28.400  1.00  0.00     0.031 A 
BRANCH  50  64
ATOM     64  C   UNL A   1      40.620  29.790  29.694  1.00  0.00    -0.014 A 
ATOM     65  C   UNL A   1      40.382  29.937  31.073  1.00  0.00     0.010 A 
ATOM     66  C   UNL A   1      39.581  30.071  28.788  1.00  0.00     0.010 A 
ATOM     67  C   UNL A   1      39.121  30.321  31.536  1.00  0.00     0.020 A 
ATOM     68  C   UNL A   1      38.328  30.487  29.246  1.00  0.00     0.020 A 
ATOM     69  C   UNL A   1      38.102  30.594  30.619  1.00  0.00     0.054 A 
BRANCH  69  70
ATOM     70  S   UNL A   1      36.485  31.117  31.251  1.00  0.00     0.124 S 
ATOM     71  O   UNL A   1      36.080  29.956  32.041  1.00  0.00    -0.237 OA
ATOM     72  O   UNL A   1      36.815  32.315  32.020  1.00  0.00    -0.237 OA
ATOM     73  O   UNL A   1      35.698  31.352  30.043  1.00  0.00    -0.744 OA
ENDBRANCH  69  70
ENDBRANCH  50  64
BRANCH  51  74
ATOM     74  C   UNL A   1      49.432  26.651  26.164  1.00  0.00    -0.014 A 
ATOM     75  C   UNL A   1      50.317  25.878  26.937  1.00  0.00     0.010 A 
ATOM     76  C   UNL A   1      49.816  27.028  24.863  1.00  0.00     0.010 A 
ATOM     77  C   UNL A   1      51.569  25.516  26.431  1.00  0.00     0.020 A 
ATOM     78  C   UNL A   1      51.053  26.637  24.341  1.00  0.00     0.020 A 
ATOM     79  C   UNL A   1      51.928  25.897  25.136  1.00  0.00     0.054 A 
BRANCH  79  80
ATOM     80  S   UNL A   1      53.547  25.387  24.492  1.00  0.00     0.124 S 
ATOM     81  O   UNL A   1      53.420  25.699  23.072  1.00  0.00    -0.237 OA
ATOM     82  O   UNL A   1      54.465  26.236  25.247  1.00  0.00    -0.237 OA
ATOM     83  O   UNL A   1      53.612  23.964  24.818  1.00  0.00    -0.744 OA
ENDBRANCH  79  80
ENDBRANCH  51  74
BRANCH  63  84
ATOM     84  C   UNL A   1      47.107  32.764  28.612  1.00  0.00    -0.014 A 
ATOM     85  C   UNL A   1      47.808  33.059  29.795  1.00  0.00     0.010 A 
ATOM     86  C   UNL A   1      47.082  33.719  27.578  1.00  0.00     0.010 A 
ATOM     87  C   UNL A   1      48.445  34.295  29.949  1.00  0.00     0.020 A 
ATOM     88  C   UNL A   1      47.745  34.940  27.715  1.00  0.00     0.020 A 
ATOM     89  C   UNL A   1      48.412  35.226  28.907  1.00  0.00     0.054 A 
BRANCH  89  90
ATOM     90  S   UNL A   1      49.291  36.800  29.114  1.00  0.00     0.124 S 
ATOM     91  O   UNL A   1      48.510  37.698  28.267  1.00  0.00    -0.237 OA
ATOM     92  O   UNL A   1      49.182  37.039  30.551  1.00  0.00    -0.237 OA
ATOM     93  O   UNL A   1      50.640  36.510  28.636  1.00  0.00    -0.744 OA
ENDBRANCH  89  90
ENDBRANCH  63  84
ENDBRANCH  37  38
ENDBRANCH  30  32
ENDBRANCH  29  30
ENDBRANCH  28  29
ENDBRANCH  27  28
ENDBRANCH  26  27
ENDBRANCH  25  26
ENDBRANCH   1  25
TORSDOF 23
ENDMDL
MODEL 2
REMARK VINA RESULT:      -8.8      1.955      8.850
REMARK SMILES CC(C)(C)OC(=O)N1CC[C@@]2(CCC[C@@H](C(=O)OCCOCCOCCOC(=O)c3ccc(-c4c5nc(c(-c6ccc(S(=O)(=O)[O-])cc6)c6ccc([nH]6)c(-c6ccc(S(=O)(=O)[O-])cc6)c6nc(c(-c7ccc(S(=O)(=O)[O-])cc7)c7ccc4[nH]7)C=C6)C=C5)cc3)O2)C1
REMARK SMILES IDX 22 1 21 2 20 3 19 4 18 5 16 6 17 7 15 8 8 9 9 10 91 11 10 12
REMARK SMILES IDX 11 13 12 14 90 15 13 16 14 17 6 18 7 19 5 20 2 21 1 22 3 23
REMARK SMILES IDX 4 24 23 25 24 26 25 27 26 28 27 29 28 30 29 31 30 32 31 33
REMARK SMILES IDX 89 34 32 35 88 36 33 37 34 38 35 39 82 40 36 41 87 42 81 43
REMARK SMILES IDX 83 44 37 45 86 46 80 47 79 48 38 50 68 51 49 52 67 53 50 54
REMARK SMILES IDX 53 55 66 56 84 57 51 58 52 59 65 61 85 62 54 63 39 64 40 65
REMARK SMILES IDX 48 66 41 67 47 68 42 69 43 70 44 71 45 72 46 73 69 74 70 75
REMARK SMILES IDX 78 76 71 77 77 78 72 79 73 80 74 81 75 82 76 83 55 84 56 85
REMARK SMILES IDX 64 86 57 87 63 88 58 89 59 90 60 91 61 92 62 93
REMARK H PARENT 83 49 53 60
REMARK Flexibility Score: inf
ROOT
ATOM      1  C   UNL A   1      34.534  32.367  28.659  1.00  0.00     0.188 C 
ENDROOT
BRANCH   1   2
ATOM      2  O   UNL A   1      34.288  31.473  27.598  1.00  0.00    -0.376 OA
BRANCH   2   3
ATOM      3  C   UNL A   1      33.012  31.415  26.983  1.00  0.00     0.202 C 
BRANCH   3   4
ATOM      4  C   UNL A   1      32.337  30.143  26.433  1.00  0.00     0.261 C 
BRANCH   4   5
ATOM      5  O   UNL A   1      31.105  30.308  25.725  1.00  0.00    -0.461 OA
BRANCH   5   6
ATOM      6  C   UNL A   1      31.027  29.713  24.498  1.00  0.00     0.335 C 
ATOM      7  O   UNL A   1      30.217  30.030  23.634  1.00  0.00    -0.249 OA
BRANCH   6   8
ATOM      8  C   UNL A   1      32.176  28.694  24.285  1.00  0.00     0.228 C 
ATOM      9  N   UNL A   1      33.045  24.038  24.911  1.00  0.00    -0.305 N 
ATOM     10  C   UNL A   1      34.202  24.723  25.451  1.00  0.00     0.126 C 
ATOM     11  C   UNL A   1      32.005  24.972  24.544  1.00  0.00     0.158 C 
ATOM     12  C   UNL A   1      33.871  26.221  25.334  1.00  0.00     0.059 C 
ATOM     13  C   UNL A   1      32.715  26.314  24.308  1.00  0.00     0.089 C 
ATOM     14  C   UNL A   1      33.193  26.401  22.851  1.00  0.00     0.037 C 
ATOM     15  O   UNL A   1      31.774  27.359  24.589  1.00  0.00    -0.358 OA
ATOM     16  C   UNL A   1      33.724  27.787  22.516  1.00  0.00     0.006 C 
ATOM     17  C   UNL A   1      32.676  28.833  22.849  1.00  0.00     0.044 C 
BRANCH   9  18
ATOM     18  C   UNL A   1      32.911  22.695  24.670  1.00  0.00     0.410 C 
ATOM     19  O   UNL A   1      31.848  22.103  24.840  1.00  0.00    -0.224 OA
BRANCH  18  20
ATOM     20  O   UNL A   1      34.065  22.103  24.261  1.00  0.00    -0.444 OA
BRANCH  20  21
ATOM     21  C   UNL A   1      34.741  21.132  25.115  1.00  0.00     0.106 C 
ATOM     22  C   UNL A   1      36.244  21.306  24.837  1.00  0.00     0.056 C 
ATOM     23  C   UNL A   1      34.315  19.721  24.698  1.00  0.00     0.056 C 
ATOM     24  C   UNL A   1      34.532  21.350  26.624  1.00  0.00     0.056 C 
ENDBRANCH  20  21
ENDBRANCH  18  20
ENDBRANCH   9  18
ENDBRANCH   6   8
ENDBRANCH   5   6
ENDBRANCH   4   5
ENDBRANCH   3   4
ENDBRANCH   2   3
ENDBRANCH   1   2
BRANCH   1  25
ATOM     25  C   UNL A   1      35.966  32.926  28.794  1.00  0.00     0.188 C 
BRANCH  25  26
ATOM     26  O   UNL A   1      36.305  33.758  29.882  1.00  0.00    -0.376 OA
BRANCH  26  27
ATOM     27  C   UNL A   1      36.352  33.228  31.194  1.00  0.00     0.202 C 
BRANCH  27  28
ATOM     28  C   UNL A   1      36.203  31.731  31.528  1.00  0.00     0.261 C 
BRANCH  28  29
ATOM     29  O   UNL A   1      37.006  31.204  32.591  1.00  0.00    -0.460 OA
BRANCH  29  30
ATOM     30  C   UNL A   1      37.454  29.935  32.407  1.00  0.00     0.338 C 
ATOM     31  O   UNL A   1      36.857  28.900  32.653  1.00  0.00    -0.246 OA
BRANCH  30  32
ATOM     32  C   UNL A   1      38.735  29.973  31.677  1.00  0.00     0.060 A 
ATOM     33  C   UNL A   1      38.716  30.027  30.275  1.00  0.00     0.016 A 
ATOM     34  C   UNL A   1      39.944  29.902  32.367  1.00  0.00     0.016 A 
ATOM     35  C   UNL A   1      39.911  29.999  29.557  1.00  0.00     0.010 A 
ATOM     36  C   UNL A   1      41.140  29.846  31.644  1.00  0.00     0.010 A 
ATOM     37  C   UNL A   1      41.128  29.870  30.237  1.00  0.00    -0.014 A 
BRANCH  37  38
ATOM     38  C   UNL A   1      42.376  29.590  29.484  1.00  0.00     0.031 A 
ATOM     39  C   UNL A   1      42.573  28.215  28.905  1.00  0.00     0.074 A 
ATOM     40  C   UNL A   1      43.318  30.534  29.317  1.00  0.00     0.049 A 
ATOM     41  N   UNL A   1      43.614  27.713  28.293  1.00  0.00    -0.248 NA
ATOM     42  C   UNL A   1      41.442  27.279  29.036  1.00  0.00     0.031 C 
ATOM     43  C   UNL A   1      43.224  31.918  29.781  1.00  0.00     0.029 A 
ATOM     44  N   UNL A   1      44.552  30.463  28.718  1.00  0.00    -0.354 N 
ATOM     45  C   UNL A   1      43.270  26.404  27.976  1.00  0.00     0.074 A 
ATOM     46  C   UNL A   1      41.937  26.179  28.489  1.00  0.00     0.031 C 
ATOM     47  C   UNL A   1      44.361  32.562  29.463  1.00  0.00     0.029 A 
ATOM     48  C   UNL A   1      45.279  31.627  28.814  1.00  0.00     0.049 A 
ATOM     49  H   UNL A   1      44.884  29.657  28.263  1.00  0.00     0.167 HD
ATOM     50  C   UNL A   1      43.997  25.475  27.311  1.00  0.00     0.031 A 
ATOM     51  C   UNL A   1      46.550  31.896  28.450  1.00  0.00     0.031 A 
ATOM     52  C   UNL A   1      45.333  25.695  26.822  1.00  0.00     0.049 A 
ATOM     53  C   UNL A   1      47.377  30.812  27.804  1.00  0.00     0.074 A 
ATOM     54  C   UNL A   1      46.154  24.815  26.139  1.00  0.00     0.029 A 
ATOM     55  N   UNL A   1      46.047  26.874  26.972  1.00  0.00    -0.354 N 
ATOM     56  N   UNL A   1      47.035  29.583  27.494  1.00  0.00    -0.248 NA
ATOM     57  C   UNL A   1      48.764  31.154  27.453  1.00  0.00     0.031 C 
ATOM     58  C   UNL A   1      47.387  25.441  25.931  1.00  0.00     0.029 A 
ATOM     59  C   UNL A   1      47.308  26.736  26.417  1.00  0.00     0.049 A 
ATOM     60  H   UNL A   1      45.707  27.688  27.408  1.00  0.00     0.167 HD
ATOM     61  C   UNL A   1      48.150  29.020  26.880  1.00  0.00     0.074 A 
ATOM     62  C   UNL A   1      49.172  30.045  26.849  1.00  0.00     0.031 C 
ATOM     63  C   UNL A   1      48.314  27.768  26.384  1.00  0.00     0.031 A 
BRANCH  50  64
ATOM     64  C   UNL A   1      43.372  24.120  27.102  1.00  0.00    -0.014 A 
ATOM     65  C   UNL A   1      43.426  23.131  28.102  1.00  0.00     0.010 A 
ATOM     66  C   UNL A   1      42.685  23.844  25.906  1.00  0.00     0.010 A 
ATOM     67  C   UNL A   1      42.837  21.882  27.894  1.00  0.00     0.020 A 
ATOM     68  C   UNL A   1      42.066  22.606  25.707  1.00  0.00     0.020 A 
ATOM     69  C   UNL A   1      42.161  21.628  26.697  1.00  0.00     0.054 A 
BRANCH  69  70
ATOM     70  S   UNL A   1      41.384  20.005  26.469  1.00  0.00     0.124 S 
ATOM     71  O   UNL A   1      41.565  19.395  27.784  1.00  0.00    -0.237 OA
ATOM     72  O   UNL A   1      40.008  20.355  26.125  1.00  0.00    -0.237 OA
ATOM     73  O   UNL A   1      42.158  19.397  25.389  1.00  0.00    -0.744 OA
ENDBRANCH  69  70
ENDBRANCH  50  64
BRANCH  51  74
ATOM     74  C   UNL A   1      47.138  33.240  28.713  1.00  0.00    -0.014 A 
ATOM     75  C   UNL A   1      47.782  33.518  29.932  1.00  0.00     0.010 A 
ATOM     76  C   UNL A   1      47.030  34.263  27.752  1.00  0.00     0.010 A 
ATOM     77  C   UNL A   1      48.280  34.797  30.196  1.00  0.00     0.020 A 
ATOM     78  C   UNL A   1      47.558  35.534  27.998  1.00  0.00     0.020 A 
ATOM     79  C   UNL A   1      48.166  35.797  29.226  1.00  0.00     0.054 A 
BRANCH  79  80
ATOM     80  S   UNL A   1      48.849  37.441  29.580  1.00  0.00     0.124 S 
ATOM     81  O   UNL A   1      50.285  37.199  29.492  1.00  0.00    -0.237 OA
ATOM     82  O   UNL A   1      48.276  38.254  28.510  1.00  0.00    -0.237 OA
ATOM     83  O   UNL A   1      48.345  37.740  30.918  1.00  0.00    -0.744 OA
ENDBRANCH  79  80
ENDBRANCH  51  74
BRANCH  63  84
ATOM     84  C   UNL A   1      49.626  27.444  25.715  1.00  0.00    -0.014 A 
ATOM     85  C   UNL A   1      50.648  26.754  26.393  1.00  0.00     0.010 A 
ATOM     86  C   UNL A   1      49.813  27.780  24.361  1.00  0.00     0.010 A 
ATOM     87  C   UNL A   1      51.841  26.434  25.736  1.00  0.00     0.020 A 
ATOM     88  C   UNL A   1      50.990  27.433  23.693  1.00  0.00     0.020 A 
ATOM     89  C   UNL A   1      52.002  26.773  24.389  1.00  0.00     0.054 A 
BRANCH  89  90
ATOM     90  S   UNL A   1      53.539  26.300  23.549  1.00  0.00     0.124 S 
ATOM     91  O   UNL A   1      54.351  27.505  23.697  1.00  0.00    -0.237 OA
ATOM     92  O   UNL A   1      53.983  25.144  24.323  1.00  0.00    -0.237 OA
ATOM     93  O   UNL A   1      53.111  26.002  22.184  1.00  0.00    -0.744 OA
ENDBRANCH  89  90
ENDBRANCH  63  84
ENDBRANCH  37  38
ENDBRANCH  30  32
ENDBRANCH  29  30
ENDBRANCH  28  29
ENDBRANCH  27  28
ENDBRANCH  26  27
ENDBRANCH  25  26
ENDBRANCH   1  25
TORSDOF 23
ENDMDL
MODEL 3
REMARK VINA RESULT:      -7.6      5.149     12.681
REMARK SMILES CC(C)(C)OC(=O)N1CC[C@@]2(CCC[C@@H](C(=O)OCCOCCOCCOC(=O)c3ccc(-c4c5nc(c(-c6ccc(S(=O)(=O)[O-])cc6)c6ccc([nH]6)c(-c6ccc(S(=O)(=O)[O-])cc6)c6nc(c(-c7ccc(S(=O)(=O)[O-])cc7)c7ccc4[nH]7)C=C6)C=C5)cc3)O2)C1
REMARK SMILES IDX 22 1 21 2 20 3 19 4 18 5 16 6 17 7 15 8 8 9 9 10 91 11 10 12
REMARK SMILES IDX 11 13 12 14 90 15 13 16 14 17 6 18 7 19 5 20 2 21 1 22 3 23
REMARK SMILES IDX 4 24 23 25 24 26 25 27 26 28 27 29 28 30 29 31 30 32 31 33
REMARK SMILES IDX 89 34 32 35 88 36 33 37 34 38 35 39 82 40 36 41 87 42 81 43
REMARK SMILES IDX 83 44 37 45 86 46 80 47 79 48 38 50 68 51 49 52 67 53 50 54
REMARK SMILES IDX 53 55 66 56 84 57 51 58 52 59 65 61 85 62 54 63 39 64 40 65
REMARK SMILES IDX 48 66 41 67 47 68 42 69 43 70 44 71 45 72 46 73 69 74 70 75
REMARK SMILES IDX 78 76 71 77 77 78 72 79 73 80 74 81 75 82 76 83 55 84 56 85
REMARK SMILES IDX 64 86 57 87 63 88 58 89 59 90 60 91 61 92 62 93
REMARK H PARENT 83 49 53 60
REMARK Flexibility Score: inf
ROOT
ATOM      1  C   UNL A   1      46.365  20.417  24.585  1.00  0.00     0.188 C 
ENDROOT
BRANCH   1   2
ATOM      2  O   UNL A   1      45.979  21.767  24.472  1.00  0.00    -0.376 OA
BRANCH   2   3
ATOM      3  C   UNL A   1      45.067  22.337  25.396  1.00  0.00     0.202 C 
BRANCH   3   4
ATOM      4  C   UNL A   1      45.245  23.688  26.117  1.00  0.00     0.261 C 
BRANCH   4   5
ATOM      5  O   UNL A   1      45.751  24.782  25.346  1.00  0.00    -0.461 OA
BRANCH   5   6
ATOM      6  C   UNL A   1      45.599  26.026  25.888  1.00  0.00     0.335 C 
ATOM      7  O   UNL A   1      44.633  26.751  25.678  1.00  0.00    -0.249 OA
BRANCH   6   8
ATOM      8  C   UNL A   1      46.724  26.346  26.906  1.00  0.00     0.228 C 
ATOM      9  N   UNL A   1      51.490  26.190  27.203  1.00  0.00    -0.305 N 
ATOM     10  C   UNL A   1      51.006  25.592  28.430  1.00  0.00     0.126 C 
ATOM     11  C   UNL A   1      50.405  26.457  26.285  1.00  0.00     0.158 C 
ATOM     12  C   UNL A   1      49.475  25.558  28.284  1.00  0.00     0.059 C 
ATOM     13  C   UNL A   1      49.141  26.563  27.154  1.00  0.00     0.089 C 
ATOM     14  C   UNL A   1      48.969  28.007  27.648  1.00  0.00     0.037 C 
ATOM     15  O   UNL A   1      48.024  26.173  26.344  1.00  0.00    -0.358 OA
ATOM     16  C   UNL A   1      47.631  28.206  28.344  1.00  0.00     0.006 C 
ATOM     17  C   UNL A   1      46.504  27.764  27.429  1.00  0.00     0.044 C 
BRANCH   9  18
ATOM     18  C   UNL A   1      52.776  26.563  26.909  1.00  0.00     0.410 C 
ATOM     19  O   UNL A   1      53.053  27.684  26.491  1.00  0.00    -0.224 OA
BRANCH  18  20
ATOM     20  O   UNL A   1      53.682  25.567  27.098  1.00  0.00    -0.444 OA
BRANCH  20  21
ATOM     21  C   UNL A   1      54.413  25.007  25.967  1.00  0.00     0.106 C 
ATOM     22  C   UNL A   1      53.376  24.221  25.146  1.00  0.00     0.056 C 
ATOM     23  C   UNL A   1      55.475  24.036  26.491  1.00  0.00     0.056 C 
ATOM     24  C   UNL A   1      55.035  26.052  25.024  1.00  0.00     0.056 C 
ENDBRANCH  20  21
ENDBRANCH  18  20
ENDBRANCH   9  18
ENDBRANCH   6   8
ENDBRANCH   5   6
ENDBRANCH   4   5
ENDBRANCH   3   4
ENDBRANCH   2   3
ENDBRANCH   1   2
BRANCH   1  25
ATOM     25  C   UNL A   1      45.446  19.487  25.405  1.00  0.00     0.188 C 
BRANCH  25  26
ATOM     26  O   UNL A   1      44.217  19.049  24.868  1.00  0.00    -0.376 OA
BRANCH  26  27
ATOM     27  C   UNL A   1      43.195  18.575  25.726  1.00  0.00     0.202 C 
BRANCH  27  28
ATOM     28  C   UNL A   1      41.839  19.280  25.929  1.00  0.00     0.261 C 
BRANCH  28  29
ATOM     29  O   UNL A   1      41.776  20.331  26.900  1.00  0.00    -0.460 OA
BRANCH  29  30
ATOM     30  C   UNL A   1      41.022  21.404  26.547  1.00  0.00     0.338 C 
ATOM     31  O   UNL A   1      39.967  21.393  25.934  1.00  0.00    -0.246 OA
BRANCH  30  32
ATOM     32  C   UNL A   1      41.573  22.616  27.181  1.00  0.00     0.060 A 
ATOM     33  C   UNL A   1      42.158  22.510  28.452  1.00  0.00     0.016 A 
ATOM     34  C   UNL A   1      41.466  23.854  26.550  1.00  0.00     0.016 A 
ATOM     35  C   UNL A   1      42.630  23.651  29.102  1.00  0.00     0.010 A 
ATOM     36  C   UNL A   1      41.914  24.999  27.216  1.00  0.00     0.010 A 
ATOM     37  C   UNL A   1      42.476  24.907  28.503  1.00  0.00    -0.014 A 
BRANCH  37  38
ATOM     38  C   UNL A   1      42.742  26.141  29.282  1.00  0.00     0.031 A 
ATOM     39  C   UNL A   1      44.057  26.268  30.003  1.00  0.00     0.074 A 
ATOM     40  C   UNL A   1      41.836  27.132  29.351  1.00  0.00     0.049 A 
ATOM     41  N   UNL A   1      44.472  27.205  30.814  1.00  0.00    -0.248 NA
ATOM     42  C   UNL A   1      45.035  25.188  29.779  1.00  0.00     0.031 C 
ATOM     43  C   UNL A   1      40.550  27.156  28.656  1.00  0.00     0.029 A 
ATOM     44  N   UNL A   1      41.859  28.310  30.057  1.00  0.00    -0.354 N 
ATOM     45  C   UNL A   1      45.751  26.826  31.205  1.00  0.00     0.074 A 
ATOM     46  C   UNL A   1      46.032  25.559  30.567  1.00  0.00     0.031 C 
ATOM     47  C   UNL A   1      39.899  28.286  28.984  1.00  0.00     0.029 A 
ATOM     48  C   UNL A   1      40.701  29.044  29.943  1.00  0.00     0.049 A 
ATOM     49  H   UNL A   1      42.631  28.602  30.593  1.00  0.00     0.167 HD
ATOM     50  C   UNL A   1      46.617  27.479  32.018  1.00  0.00     0.031 A 
ATOM     51  C   UNL A   1      40.320  30.177  30.567  1.00  0.00     0.031 A 
ATOM     52  C   UNL A   1      46.325  28.728  32.670  1.00  0.00     0.049 A 
ATOM     53  C   UNL A   1      41.261  30.832  31.549  1.00  0.00     0.074 A 
ATOM     54  C   UNL A   1      47.134  29.466  33.514  1.00  0.00     0.029 A 
ATOM     55  N   UNL A   1      45.128  29.419  32.558  1.00  0.00    -0.354 N 
ATOM     56  N   UNL A   1      42.474  30.472  31.897  1.00  0.00    -0.248 NA
ATOM     57  C   UNL A   1      40.781  32.050  32.219  1.00  0.00     0.031 C 
ATOM     58  C   UNL A   1      46.404  30.572  33.963  1.00  0.00     0.029 A 
ATOM     59  C   UNL A   1      45.168  30.562  33.339  1.00  0.00     0.049 A 
ATOM     60  H   UNL A   1      44.364  29.138  32.006  1.00  0.00     0.167 HD
ATOM     61  C   UNL A   1      42.914  31.440  32.797  1.00  0.00     0.074 A 
ATOM     62  C   UNL A   1      41.844  32.406  32.928  1.00  0.00     0.031 C 
ATOM     63  C   UNL A   1      44.098  31.522  33.454  1.00  0.00     0.031 A 
BRANCH  50  64
ATOM     64  C   UNL A   1      47.954  26.832  32.273  1.00  0.00    -0.014 A 
ATOM     65  C   UNL A   1      49.100  27.221  31.556  1.00  0.00     0.010 A 
ATOM     66  C   UNL A   1      48.075  25.849  33.273  1.00  0.00     0.010 A 
ATOM     67  C   UNL A   1      50.332  26.614  31.808  1.00  0.00     0.020 A 
ATOM     68  C   UNL A   1      49.313  25.262  33.551  1.00  0.00     0.020 A 
ATOM     69  C   UNL A   1      50.431  25.638  32.804  1.00  0.00     0.054 A 
BRANCH  69  70
ATOM     70  S   UNL A   1      52.051  24.889  33.126  1.00  0.00     0.124 S 
ATOM     71  O   UNL A   1      52.070  24.825  34.585  1.00  0.00    -0.237 OA
ATOM     72  O   UNL A   1      51.948  23.601  32.443  1.00  0.00    -0.237 OA
ATOM     73  O   UNL A   1      52.995  25.832  32.532  1.00  0.00    -0.744 OA
ENDBRANCH  69  70
ENDBRANCH  50  64
BRANCH  51  74
ATOM     74  C   UNL A   1      38.971  30.759  30.312  1.00  0.00    -0.014 A 
ATOM     75  C   UNL A   1      38.797  31.785  29.366  1.00  0.00     0.010 A 
ATOM     76  C   UNL A   1      37.853  30.308  31.039  1.00  0.00     0.010 A 
ATOM     77  C   UNL A   1      37.540  32.366  29.173  1.00  0.00     0.020 A 
ATOM     78  C   UNL A   1      36.589  30.862  30.824  1.00  0.00     0.020 A 
ATOM     79  C   UNL A   1      36.443  31.900  29.903  1.00  0.00     0.054 A 
BRANCH  79  80
ATOM     80  S   UNL A   1      34.816  32.650  29.612  1.00  0.00     0.124 S 
ATOM     81  O   UNL A   1      34.267  32.716  30.962  1.00  0.00    -0.237 OA
ATOM     82  O   UNL A   1      35.167  33.933  29.007  1.00  0.00    -0.237 OA
ATOM     83  O   UNL A   1      34.160  31.704  28.713  1.00  0.00    -0.744 OA
ENDBRANCH  79  80
ENDBRANCH  51  74
BRANCH  63  84
ATOM     84  C   UNL A   1      44.329  32.723  34.336  1.00  0.00    -0.014 A 
ATOM     85  C   UNL A   1      44.425  34.021  33.803  1.00  0.00     0.010 A 
ATOM     86  C   UNL A   1      44.387  32.553  35.733  1.00  0.00     0.010 A 
ATOM     87  C   UNL A   1      44.604  35.121  34.649  1.00  0.00     0.020 A 
ATOM     88  C   UNL A   1      44.532  33.652  36.582  1.00  0.00     0.020 A 
ATOM     89  C   UNL A   1      44.653  34.929  36.033  1.00  0.00     0.054 A 
BRANCH  89  90
ATOM     90  S   UNL A   1      44.833  36.380  37.109  1.00  0.00     0.124 S 
ATOM     91  O   UNL A   1      45.667  35.856  38.188  1.00  0.00    -0.237 OA
ATOM     92  O   UNL A   1      45.480  37.350  36.230  1.00  0.00    -0.237 OA
ATOM     93  O   UNL A   1      43.460  36.706  37.486  1.00  0.00    -0.744 OA
ENDBRANCH  89  90
ENDBRANCH  63  84
ENDBRANCH  37  38
ENDBRANCH  30  32
ENDBRANCH  29  30
ENDBRANCH  28  29
ENDBRANCH  27  28
ENDBRANCH  26  27
ENDBRANCH  25  26
ENDBRANCH   1  25
TORSDOF 23
ENDMDL
