MODEL 1
REMARK VINA RESULT:      -9.8      0.000      0.000
REMARK SMILES CC[C@@H]1CCC[C@@H](Oc2cncc(C(=O)OCCOCCOCCOC(=O)c3ccc(-c4c5nc(c(-c6ccc(S(=O)(=O)[O-])cc6)c6ccc([nH]6)c(-c6ccc(S(=O)(=O)[O-])cc6)c6nc(c(-c7ccc(S(=O)(=O)[O-])cc7)c7ccc4[nH]7)C=C6)C=C5)cc3)n2)C1
REMARK SMILES IDX 20 1 19 2 18 3 17 4 16 5 14 6 15 7 13 8 9 9 10 10 88 11
REMARK SMILES IDX 11 12 12 13 8 14 7 15 3 16 4 17 89 18 5 19 6 20 2 21 1 22
REMARK SMILES IDX 21 23 22 24 23 25 24 26 25 27 26 28 27 29 28 30 29 31 87 32
REMARK SMILES IDX 30 33 86 34 31 35 32 36 33 37 80 38 34 39 85 40 79 41 81 42
REMARK SMILES IDX 35 43 84 44 78 45 77 46 36 48 66 49 47 50 65 51 48 52 51 53
REMARK SMILES IDX 64 54 82 55 49 56 50 57 63 59 83 60 52 61 37 62 38 63 46 64
REMARK SMILES IDX 39 65 45 66 40 67 41 68 42 69 43 70 44 71 67 72 68 73 76 74
REMARK SMILES IDX 69 75 75 76 70 77 71 78 72 79 73 80 74 81 53 82 54 83 62 84
REMARK SMILES IDX 55 85 61 86 56 87 57 88 58 89 59 90 60 91
REMARK H PARENT 81 47 51 58
REMARK Flexibility Score: inf
ROOT
ATOM      1  C   UNL A   1      35.653  22.995  26.127  1.00  0.00     0.188 C 
ENDROOT
BRANCH   1   2
ATOM      2  O   UNL A   1      35.886  24.083  25.235  1.00  0.00    -0.376 OA
BRANCH   2   3
ATOM      3  C   UNL A   1      34.969  24.189  24.146  1.00  0.00     0.202 C 
BRANCH   3   4
ATOM      4  C   UNL A   1      34.001  25.377  24.246  1.00  0.00     0.261 C 
BRANCH   4   5
ATOM      5  O   UNL A   1      32.900  25.302  23.322  1.00  0.00    -0.458 OA
BRANCH   5   6
ATOM      6  C   UNL A   1      31.649  25.450  23.824  1.00  0.00     0.358 C 
ATOM      7  O   UNL A   1      30.723  26.044  23.299  1.00  0.00    -0.244 OA
BRANCH   6   8
ATOM      8  C   UNL A   1      31.513  24.491  24.947  1.00  0.00     0.170 A 
ATOM      9  C   UNL A   1      31.205  22.339  25.680  1.00  0.00     0.233 A 
ATOM     10  C   UNL A   1      30.472  22.844  26.744  1.00  0.00     0.179 A 
ATOM     11  N   UNL A   1      31.696  23.157  24.721  1.00  0.00    -0.203 NA
ATOM     12  N   UNL A   1      30.337  24.168  27.002  1.00  0.00    -0.257 NA
ATOM     13  C   UNL A   1      30.897  24.987  26.086  1.00  0.00     0.147 A 
BRANCH   9  14
ATOM     14  O   UNL A   1      31.287  21.007  25.413  1.00  0.00    -0.473 OA
BRANCH  14  15
ATOM     15  C   UNL A   1      32.514  20.422  24.935  1.00  0.00     0.175 C 
ATOM     16  C   UNL A   1      32.593  17.838  25.082  1.00  0.00    -0.008 C 
ATOM     17  C   UNL A   1      32.702  17.779  23.548  1.00  0.00     0.004 C 
ATOM     18  C   UNL A   1      33.083  19.182  25.638  1.00  0.00     0.048 C 
ATOM     19  C   UNL A   1      32.165  18.995  22.802  1.00  0.00     0.004 C 
ATOM     20  C   UNL A   1      32.562  20.336  23.405  1.00  0.00     0.045 C 
BRANCH  16  21
ATOM     21  C   UNL A   1      33.334  16.619  25.680  1.00  0.00     0.000 C 
ATOM     22  C   UNL A   1      32.765  15.262  25.290  1.00  0.00     0.004 C 
ENDBRANCH  16  21
ENDBRANCH  14  15
ENDBRANCH   9  14
ENDBRANCH   6   8
ENDBRANCH   5   6
ENDBRANCH   4   5
ENDBRANCH   3   4
ENDBRANCH   2   3
ENDBRANCH   1   2
BRANCH   1  23
ATOM     23  C   UNL A   1      36.210  21.663  25.603  1.00  0.00     0.188 C 
BRANCH  23  24
ATOM     24  O   UNL A   1      37.443  21.824  24.907  1.00  0.00    -0.376 OA
BRANCH  24  25
ATOM     25  C   UNL A   1      38.609  21.727  25.718  1.00  0.00     0.202 C 
BRANCH  25  26
ATOM     26  C   UNL A   1      39.292  20.354  25.682  1.00  0.00     0.261 C 
BRANCH  26  27
ATOM     27  O   UNL A   1      40.313  20.144  26.676  1.00  0.00    -0.460 OA
BRANCH  27  28
ATOM     28  C   UNL A   1      41.570  19.897  26.247  1.00  0.00     0.338 C 
ATOM     29  O   UNL A   1      41.971  18.903  25.671  1.00  0.00    -0.246 OA
BRANCH  28  30
ATOM     30  C   UNL A   1      42.370  21.120  26.456  1.00  0.00     0.060 A 
ATOM     31  C   UNL A   1      42.688  21.509  27.763  1.00  0.00     0.016 A 
ATOM     32  C   UNL A   1      42.787  21.888  25.366  1.00  0.00     0.016 A 
ATOM     33  C   UNL A   1      43.398  22.693  27.981  1.00  0.00     0.010 A 
ATOM     34  C   UNL A   1      43.487  23.077  25.589  1.00  0.00     0.010 A 
ATOM     35  C   UNL A   1      43.771  23.502  26.898  1.00  0.00    -0.014 A 
BRANCH  35  36
ATOM     36  C   UNL A   1      44.323  24.859  27.127  1.00  0.00     0.031 A 
ATOM     37  C   UNL A   1      43.390  25.959  27.559  1.00  0.00     0.074 A 
ATOM     38  C   UNL A   1      45.631  25.123  26.945  1.00  0.00     0.049 A 
ATOM     39  N   UNL A   1      43.647  27.222  27.786  1.00  0.00    -0.248 NA
ATOM     40  C   UNL A   1      41.981  25.584  27.759  1.00  0.00     0.031 C 
ATOM     41  C   UNL A   1      46.645  24.150  26.549  1.00  0.00     0.029 A 
ATOM     42  N   UNL A   1      46.322  26.305  27.062  1.00  0.00    -0.354 N 
ATOM     43  C   UNL A   1      42.435  27.792  28.157  1.00  0.00     0.074 A 
ATOM     44  C   UNL A   1      41.438  26.744  28.095  1.00  0.00     0.031 C 
ATOM     45  C   UNL A   1      47.831  24.778  26.442  1.00  0.00     0.029 A 
ATOM     46  C   UNL A   1      47.653  26.199  26.740  1.00  0.00     0.049 A 
ATOM     47  H   UNL A   1      45.903  27.147  27.350  1.00  0.00     0.167 HD
ATOM     48  C   UNL A   1      42.173  29.068  28.525  1.00  0.00     0.031 A 
ATOM     49  C   UNL A   1      48.616  27.140  26.677  1.00  0.00     0.031 A 
ATOM     50  C   UNL A   1      43.151  30.122  28.563  1.00  0.00     0.049 A 
ATOM     51  C   UNL A   1      48.288  28.570  27.024  1.00  0.00     0.074 A 
ATOM     52  C   UNL A   1      42.977  31.444  28.932  1.00  0.00     0.029 A 
ATOM     53  N   UNL A   1      44.483  29.977  28.209  1.00  0.00    -0.354 N 
ATOM     54  N   UNL A   1      47.145  29.083  27.410  1.00  0.00    -0.248 NA
ATOM     55  C   UNL A   1      49.386  29.545  26.934  1.00  0.00     0.031 C 
ATOM     56  C   UNL A   1      44.195  32.110  28.757  1.00  0.00     0.029 A 
ATOM     57  C   UNL A   1      45.138  31.190  28.328  1.00  0.00     0.049 A 
ATOM     58  H   UNL A   1      44.901  29.136  27.915  1.00  0.00     0.167 HD
ATOM     59  C   UNL A   1      47.392  30.435  27.633  1.00  0.00     0.074 A 
ATOM     60  C   UNL A   1      48.794  30.658  27.349  1.00  0.00     0.031 C 
ATOM     61  C   UNL A   1      46.534  31.403  28.042  1.00  0.00     0.031 A 
BRANCH  48  62
ATOM     62  C   UNL A   1      40.752  29.397  28.891  1.00  0.00    -0.014 A 
ATOM     63  C   UNL A   1      40.399  29.687  30.221  1.00  0.00     0.010 A 
ATOM     64  C   UNL A   1      39.762  29.434  27.893  1.00  0.00     0.010 A 
ATOM     65  C   UNL A   1      39.071  29.966  30.554  1.00  0.00     0.020 A 
ATOM     66  C   UNL A   1      38.437  29.736  28.219  1.00  0.00     0.020 A 
ATOM     67  C   UNL A   1      38.097  29.981  29.551  1.00  0.00     0.054 A 
BRANCH  67  68
ATOM     68  S   UNL A   1      36.382  30.352  30.008  1.00  0.00     0.124 S 
ATOM     69  O   UNL A   1      36.457  31.776  30.324  1.00  0.00    -0.237 OA
ATOM     70  O   UNL A   1      35.644  30.018  28.792  1.00  0.00    -0.237 OA
ATOM     71  O   UNL A   1      36.129  29.473  31.148  1.00  0.00    -0.744 OA
ENDBRANCH  67  68
ENDBRANCH  48  62
BRANCH  49  72
ATOM     72  C   UNL A   1      49.992  26.766  26.253  1.00  0.00    -0.014 A 
ATOM     73  C   UNL A   1      50.474  27.126  24.982  1.00  0.00     0.010 A 
ATOM     74  C   UNL A   1      50.827  26.039  27.122  1.00  0.00     0.010 A 
ATOM     75  C   UNL A   1      51.761  26.754  24.582  1.00  0.00     0.020 A 
ATOM     76  C   UNL A   1      52.123  25.686  26.734  1.00  0.00     0.020 A 
ATOM     77  C   UNL A   1      52.578  26.037  25.462  1.00  0.00     0.054 A 
BRANCH  77  78
ATOM     78  S   UNL A   1      54.265  25.613  24.945  1.00  0.00     0.124 S 
ATOM     79  O   UNL A   1      55.073  26.389  25.881  1.00  0.00    -0.237 OA
ATOM     80  O   UNL A   1      54.298  24.163  25.131  1.00  0.00    -0.237 OA
ATOM     81  O   UNL A   1      54.315  26.056  23.553  1.00  0.00    -0.744 OA
ENDBRANCH  77  78
ENDBRANCH  49  72
BRANCH  61  82
ATOM     82  C   UNL A   1      47.087  32.789  28.239  1.00  0.00    -0.014 A 
ATOM     83  C   UNL A   1      47.088  33.730  27.194  1.00  0.00     0.010 A 
ATOM     84  C   UNL A   1      47.557  33.175  29.508  1.00  0.00     0.010 A 
ATOM     85  C   UNL A   1      47.573  35.024  27.408  1.00  0.00     0.020 A 
ATOM     86  C   UNL A   1      48.023  34.474  29.731  1.00  0.00     0.020 A 
ATOM     87  C   UNL A   1      48.040  35.387  28.675  1.00  0.00     0.054 A 
BRANCH  87  88
ATOM     88  S   UNL A   1      48.622  37.085  28.943  1.00  0.00     0.124 S 
ATOM     89  O   UNL A   1      49.001  37.057  30.353  1.00  0.00    -0.237 OA
ATOM     90  O   UNL A   1      49.730  37.199  27.996  1.00  0.00    -0.237 OA
ATOM     91  O   UNL A   1      47.455  37.905  28.626  1.00  0.00    -0.744 OA
ENDBRANCH  87  88
ENDBRANCH  61  82
ENDBRANCH  35  36
ENDBRANCH  28  30
ENDBRANCH  27  28
ENDBRANCH  26  27
ENDBRANCH  25  26
ENDBRANCH  24  25
ENDBRANCH  23  24
ENDBRANCH   1  23
TORSDOF 23
ENDMDL
MODEL 2
REMARK VINA RESULT:      -9.8      2.348      7.641
REMARK SMILES CC[C@@H]1CCC[C@@H](Oc2cncc(C(=O)OCCOCCOCCOC(=O)c3ccc(-c4c5nc(c(-c6ccc(S(=O)(=O)[O-])cc6)c6ccc([nH]6)c(-c6ccc(S(=O)(=O)[O-])cc6)c6nc(c(-c7ccc(S(=O)(=O)[O-])cc7)c7ccc4[nH]7)C=C6)C=C5)cc3)n2)C1
REMARK SMILES IDX 20 1 19 2 18 3 17 4 16 5 14 6 15 7 13 8 9 9 10 10 88 11
REMARK SMILES IDX 11 12 12 13 8 14 7 15 3 16 4 17 89 18 5 19 6 20 2 21 1 22
REMARK SMILES IDX 21 23 22 24 23 25 24 26 25 27 26 28 27 29 28 30 29 31 87 32
REMARK SMILES IDX 30 33 86 34 31 35 32 36 33 37 80 38 34 39 85 40 79 41 81 42
REMARK SMILES IDX 35 43 84 44 78 45 77 46 36 48 66 49 47 50 65 51 48 52 51 53
REMARK SMILES IDX 64 54 82 55 49 56 50 57 63 59 83 60 52 61 37 62 38 63 46 64
REMARK SMILES IDX 39 65 45 66 40 67 41 68 42 69 43 70 44 71 67 72 68 73 76 74
REMARK SMILES IDX 69 75 75 76 70 77 71 78 72 79 73 80 74 81 53 82 54 83 62 84
REMARK SMILES IDX 55 85 61 86 56 87 57 88 58 89 59 90 60 91
REMARK H PARENT 81 47 51 58
REMARK Flexibility Score: inf
ROOT
ATOM      1  C   UNL A   1      31.785  29.402  26.168  1.00  0.00     0.188 C 
ENDROOT
BRANCH   1   2
ATOM      2  O   UNL A   1      31.677  29.555  24.754  1.00  0.00    -0.376 OA
BRANCH   2   3
ATOM      3  C   UNL A   1      31.966  28.386  23.988  1.00  0.00     0.202 C 
BRANCH   3   4
ATOM      4  C   UNL A   1      30.726  27.583  23.565  1.00  0.00     0.261 C 
BRANCH   4   5
ATOM      5  O   UNL A   1      30.311  26.609  24.540  1.00  0.00    -0.458 OA
BRANCH   5   6
ATOM      6  C   UNL A   1      30.596  25.308  24.286  1.00  0.00     0.358 C 
ATOM      7  O   UNL A   1      30.577  24.762  23.196  1.00  0.00    -0.244 OA
BRANCH   6   8
ATOM      8  C   UNL A   1      31.252  24.761  25.497  1.00  0.00     0.170 A 
ATOM      9  C   UNL A   1      33.096  23.829  26.495  1.00  0.00     0.233 A 
ATOM     10  C   UNL A   1      32.243  23.071  27.282  1.00  0.00     0.179 A 
ATOM     11  N   UNL A   1      32.613  24.655  25.539  1.00  0.00    -0.203 NA
ATOM     12  N   UNL A   1      30.894  23.214  27.284  1.00  0.00    -0.257 NA
ATOM     13  C   UNL A   1      30.415  24.099  26.383  1.00  0.00     0.147 A 
BRANCH   9  14
ATOM     14  O   UNL A   1      34.443  23.634  26.475  1.00  0.00    -0.473 OA
BRANCH  14  15
ATOM     15  C   UNL A   1      35.105  23.169  25.284  1.00  0.00     0.175 C 
ATOM     16  C   UNL A   1      37.229  21.755  25.727  1.00  0.00    -0.008 C 
ATOM     17  C   UNL A   1      36.539  20.554  25.056  1.00  0.00     0.004 C 
ATOM     18  C   UNL A   1      36.638  23.090  25.254  1.00  0.00     0.048 C 
ATOM     19  C   UNL A   1      35.015  20.592  25.045  1.00  0.00     0.004 C 
ATOM     20  C   UNL A   1      34.416  21.943  24.674  1.00  0.00     0.045 C 
BRANCH  16  21
ATOM     21  C   UNL A   1      38.755  21.643  25.497  1.00  0.00     0.000 C 
ATOM     22  C   UNL A   1      39.361  20.290  25.840  1.00  0.00     0.004 C 
ENDBRANCH  16  21
ENDBRANCH  14  15
ENDBRANCH   9  14
ENDBRANCH   6   8
ENDBRANCH   5   6
ENDBRANCH   4   5
ENDBRANCH   3   4
ENDBRANCH   2   3
ENDBRANCH   1   2
BRANCH   1  23
ATOM     23  C   UNL A   1      32.850  28.374  26.579  1.00  0.00     0.188 C 
BRANCH  23  24
ATOM     24  O   UNL A   1      33.866  28.943  27.401  1.00  0.00    -0.376 OA
BRANCH  24  25
ATOM     25  C   UNL A   1      34.165  30.308  27.131  1.00  0.00     0.202 C 
BRANCH  25  26
ATOM     26  C   UNL A   1      35.118  30.959  28.143  1.00  0.00     0.261 C 
BRANCH  26  27
ATOM     27  O   UNL A   1      36.487  30.514  28.078  1.00  0.00    -0.460 OA
BRANCH  27  28
ATOM     28  C   UNL A   1      36.943  29.729  29.079  1.00  0.00     0.338 C 
ATOM     29  O   UNL A   1      36.320  29.329  30.045  1.00  0.00    -0.246 OA
BRANCH  28  30
ATOM     30  C   UNL A   1      38.310  29.294  28.729  1.00  0.00     0.060 A 
ATOM     31  C   UNL A   1      39.154  28.823  29.741  1.00  0.00     0.016 A 
ATOM     32  C   UNL A   1      38.760  29.370  27.408  1.00  0.00     0.016 A 
ATOM     33  C   UNL A   1      40.468  28.459  29.436  1.00  0.00     0.010 A 
ATOM     34  C   UNL A   1      40.078  29.016  27.109  1.00  0.00     0.010 A 
ATOM     35  C   UNL A   1      40.949  28.587  28.125  1.00  0.00    -0.014 A 
BRANCH  35  36
ATOM     36  C   UNL A   1      42.393  28.417  27.832  1.00  0.00     0.031 A 
ATOM     37  C   UNL A   1      43.318  29.586  28.043  1.00  0.00     0.074 A 
ATOM     38  C   UNL A   1      42.883  27.250  27.374  1.00  0.00     0.049 A 
ATOM     39  N   UNL A   1      44.605  29.674  27.824  1.00  0.00    -0.248 NA
ATOM     40  C   UNL A   1      42.709  30.819  28.568  1.00  0.00     0.031 C 
ATOM     41  C   UNL A   1      42.105  26.035  27.145  1.00  0.00     0.029 A 
ATOM     42  N   UNL A   1      44.162  26.906  27.010  1.00  0.00    -0.354 N 
ATOM     43  C   UNL A   1      44.961  30.968  28.186  1.00  0.00     0.074 A 
ATOM     44  C   UNL A   1      43.749  31.637  28.609  1.00  0.00     0.031 C 
ATOM     45  C   UNL A   1      42.921  25.080  26.665  1.00  0.00     0.029 A 
ATOM     46  C   UNL A   1      44.273  25.623  26.531  1.00  0.00     0.049 A 
ATOM     47  H   UNL A   1      44.927  27.521  27.084  1.00  0.00     0.167 HD
ATOM     48  C   UNL A   1      46.185  31.547  28.176  1.00  0.00     0.031 A 
ATOM     49  C   UNL A   1      45.337  24.966  26.030  1.00  0.00     0.031 A 
ATOM     50  C   UNL A   1      47.389  30.899  27.733  1.00  0.00     0.049 A 
ATOM     51  C   UNL A   1      46.678  25.651  25.964  1.00  0.00     0.074 A 
ATOM     52  C   UNL A   1      48.677  31.406  27.696  1.00  0.00     0.029 A 
ATOM     53  N   UNL A   1      47.455  29.607  27.236  1.00  0.00    -0.354 N 
ATOM     54  N   UNL A   1      47.004  26.863  26.347  1.00  0.00    -0.248 NA
ATOM     55  C   UNL A   1      47.796  24.876  25.405  1.00  0.00     0.031 C 
ATOM     56  C   UNL A   1      49.513  30.435  27.135  1.00  0.00     0.029 A 
ATOM     57  C   UNL A   1      48.755  29.306  26.870  1.00  0.00     0.049 A 
ATOM     58  H   UNL A   1      46.689  28.993  27.156  1.00  0.00     0.167 HD
ATOM     59  C   UNL A   1      48.369  26.985  26.098  1.00  0.00     0.074 A 
ATOM     60  C   UNL A   1      48.808  25.722  25.542  1.00  0.00     0.031 C 
ATOM     61  C   UNL A   1      49.183  28.047  26.316  1.00  0.00     0.031 A 
BRANCH  48  62
ATOM     62  C   UNL A   1      46.270  32.975  28.641  1.00  0.00    -0.014 A 
ATOM     63  C   UNL A   1      45.924  34.035  27.784  1.00  0.00     0.010 A 
ATOM     64  C   UNL A   1      46.684  33.260  29.954  1.00  0.00     0.010 A 
ATOM     65  C   UNL A   1      46.031  35.358  28.218  1.00  0.00     0.020 A 
ATOM     66  C   UNL A   1      46.771  34.582  30.399  1.00  0.00     0.020 A 
ATOM     67  C   UNL A   1      46.462  35.623  29.521  1.00  0.00     0.054 A 
BRANCH  67  68
ATOM     68  S   UNL A   1      46.587  37.349  30.063  1.00  0.00     0.124 S 
ATOM     69  O   UNL A   1      47.699  37.287  31.008  1.00  0.00    -0.237 OA
ATOM     70  O   UNL A   1      46.862  38.060  28.817  1.00  0.00    -0.237 OA
ATOM     71  O   UNL A   1      45.280  37.622  30.656  1.00  0.00    -0.744 OA
ENDBRANCH  67  68
ENDBRANCH  48  62
BRANCH  49  72
ATOM     72  C   UNL A   1      45.181  23.573  25.532  1.00  0.00    -0.014 A 
ATOM     73  C   UNL A   1      45.371  22.477  26.393  1.00  0.00     0.010 A 
ATOM     74  C   UNL A   1      44.844  23.336  24.186  1.00  0.00     0.010 A 
ATOM     75  C   UNL A   1      45.242  21.170  25.914  1.00  0.00     0.020 A 
ATOM     76  C   UNL A   1      44.690  22.031  23.710  1.00  0.00     0.020 A 
ATOM     77  C   UNL A   1      44.900  20.955  24.575  1.00  0.00     0.054 A 
BRANCH  77  78
ATOM     78  S   UNL A   1      44.682  19.252  23.987  1.00  0.00     0.124 S 
ATOM     79  O   UNL A   1      43.470  18.843  24.688  1.00  0.00    -0.237 OA
ATOM     80  O   UNL A   1      44.549  19.431  22.542  1.00  0.00    -0.237 OA
ATOM     81  O   UNL A   1      45.911  18.586  24.413  1.00  0.00    -0.744 OA
ENDBRANCH  77  78
ENDBRANCH  49  72
BRANCH  61  82
ATOM     82  C   UNL A   1      50.643  27.887  25.985  1.00  0.00    -0.014 A 
ATOM     83  C   UNL A   1      51.537  27.294  26.895  1.00  0.00     0.010 A 
ATOM     84  C   UNL A   1      51.115  28.281  24.719  1.00  0.00     0.010 A 
ATOM     85  C   UNL A   1      52.882  27.122  26.553  1.00  0.00     0.020 A 
ATOM     86  C   UNL A   1      52.454  28.091  24.366  1.00  0.00     0.020 A 
ATOM     87  C   UNL A   1      53.333  27.524  25.292  1.00  0.00     0.054 A 
BRANCH  87  88
ATOM     88  S   UNL A   1      55.072  27.249  24.852  1.00  0.00     0.124 S 
ATOM     89  O   UNL A   1      55.162  27.901  23.549  1.00  0.00    -0.237 OA
ATOM     90  O   UNL A   1      55.789  27.914  25.938  1.00  0.00    -0.237 OA
ATOM     91  O   UNL A   1      55.198  25.793  24.832  1.00  0.00    -0.744 OA
ENDBRANCH  87  88
ENDBRANCH  61  82
ENDBRANCH  35  36
ENDBRANCH  28  30
ENDBRANCH  27  28
ENDBRANCH  26  27
ENDBRANCH  25  26
ENDBRANCH  24  25
ENDBRANCH  23  24
ENDBRANCH   1  23
TORSDOF 23
ENDMDL
MODEL 3
REMARK VINA RESULT:      -9.3      6.737     12.064
REMARK SMILES CC[C@@H]1CCC[C@@H](Oc2cncc(C(=O)OCCOCCOCCOC(=O)c3ccc(-c4c5nc(c(-c6ccc(S(=O)(=O)[O-])cc6)c6ccc([nH]6)c(-c6ccc(S(=O)(=O)[O-])cc6)c6nc(c(-c7ccc(S(=O)(=O)[O-])cc7)c7ccc4[nH]7)C=C6)C=C5)cc3)n2)C1
REMARK SMILES IDX 20 1 19 2 18 3 17 4 16 5 14 6 15 7 13 8 9 9 10 10 88 11
REMARK SMILES IDX 11 12 12 13 8 14 7 15 3 16 4 17 89 18 5 19 6 20 2 21 1 22
REMARK SMILES IDX 21 23 22 24 23 25 24 26 25 27 26 28 27 29 28 30 29 31 87 32
REMARK SMILES IDX 30 33 86 34 31 35 32 36 33 37 80 38 34 39 85 40 79 41 81 42
REMARK SMILES IDX 35 43 84 44 78 45 77 46 36 48 66 49 47 50 65 51 48 52 51 53
REMARK SMILES IDX 64 54 82 55 49 56 50 57 63 59 83 60 52 61 37 62 38 63 46 64
REMARK SMILES IDX 39 65 45 66 40 67 41 68 42 69 43 70 44 71 67 72 68 73 76 74
REMARK SMILES IDX 69 75 75 76 70 77 71 78 72 79 73 80 74 81 53 82 54 83 62 84
REMARK SMILES IDX 55 85 61 86 56 87 57 88 58 89 59 90 60 91
REMARK H PARENT 81 47 51 58
REMARK Flexibility Score: inf
ROOT
ATOM      1  C   UNL A   1      34.588  21.538  25.686  1.00  0.00     0.188 C 
ENDROOT
BRANCH   1   2
ATOM      2  O   UNL A   1      33.672  21.001  24.735  1.00  0.00    -0.376 OA
BRANCH   2   3
ATOM      3  C   UNL A   1      32.602  21.868  24.359  1.00  0.00     0.202 C 
BRANCH   3   4
ATOM      4  C   UNL A   1      31.835  22.477  25.542  1.00  0.00     0.261 C 
BRANCH   4   5
ATOM      5  O   UNL A   1      32.094  23.879  25.737  1.00  0.00    -0.458 OA
BRANCH   5   6
ATOM      6  C   UNL A   1      31.044  24.670  26.071  1.00  0.00     0.358 C 
ATOM      7  O   UNL A   1      30.130  24.380  26.823  1.00  0.00    -0.244 OA
BRANCH   6   8
ATOM      8  C   UNL A   1      31.378  26.046  25.634  1.00  0.00     0.170 A 
ATOM      9  C   UNL A   1      31.932  28.209  26.167  1.00  0.00     0.233 A 
ATOM     10  C   UNL A   1      31.188  28.631  25.076  1.00  0.00     0.179 A 
ATOM     11  N   UNL A   1      31.995  26.900  26.503  1.00  0.00    -0.203 NA
ATOM     12  N   UNL A   1      30.621  27.786  24.179  1.00  0.00    -0.257 NA
ATOM     13  C   UNL A   1      30.753  26.474  24.472  1.00  0.00     0.147 A 
BRANCH   9  14
ATOM     14  O   UNL A   1      32.450  29.074  27.081  1.00  0.00    -0.473 OA
BRANCH  14  15
ATOM     15  C   UNL A   1      33.511  29.980  26.722  1.00  0.00     0.175 C 
ATOM     16  C   UNL A   1      34.454  31.357  28.703  1.00  0.00    -0.008 C 
ATOM     17  C   UNL A   1      35.817  30.674  28.497  1.00  0.00     0.004 C 
ATOM     18  C   UNL A   1      33.609  31.344  27.422  1.00  0.00     0.048 C 
ATOM     19  C   UNL A   1      35.777  29.323  27.791  1.00  0.00     0.004 C 
ATOM     20  C   UNL A   1      34.861  29.269  26.574  1.00  0.00     0.045 C 
BRANCH  16  21
ATOM     21  C   UNL A   1      34.690  32.777  29.268  1.00  0.00     0.000 C 
ATOM     22  C   UNL A   1      36.012  33.418  28.871  1.00  0.00     0.004 C 
ENDBRANCH  16  21
ENDBRANCH  14  15
ENDBRANCH   9  14
ENDBRANCH   6   8
ENDBRANCH   5   6
ENDBRANCH   4   5
ENDBRANCH   3   4
ENDBRANCH   2   3
ENDBRANCH   1   2
BRANCH   1  23
ATOM     23  C   UNL A   1      35.959  21.870  25.075  1.00  0.00     0.188 C 
BRANCH  23  24
ATOM     24  O   UNL A   1      36.477  23.112  25.543  1.00  0.00    -0.376 OA
BRANCH  24  25
ATOM     25  C   UNL A   1      37.818  23.066  26.015  1.00  0.00     0.202 C 
BRANCH  25  26
ATOM     26  C   UNL A   1      38.380  24.423  26.460  1.00  0.00     0.261 C 
BRANCH  26  27
ATOM     27  O   UNL A   1      39.404  24.368  27.471  1.00  0.00    -0.460 OA
BRANCH  27  28
ATOM     28  C   UNL A   1      40.473  25.182  27.330  1.00  0.00     0.338 C 
ATOM     29  O   UNL A   1      41.320  25.145  26.457  1.00  0.00    -0.246 OA
BRANCH  28  30
ATOM     30  C   UNL A   1      40.366  26.251  28.343  1.00  0.00     0.060 A 
ATOM     31  C   UNL A   1      41.369  27.227  28.410  1.00  0.00     0.016 A 
ATOM     32  C   UNL A   1      39.290  26.278  29.234  1.00  0.00     0.016 A 
ATOM     33  C   UNL A   1      41.311  28.214  29.398  1.00  0.00     0.010 A 
ATOM     34  C   UNL A   1      39.242  27.260  30.227  1.00  0.00     0.010 A 
ATOM     35  C   UNL A   1      40.267  28.215  30.334  1.00  0.00    -0.014 A 
BRANCH  35  36
ATOM     36  C   UNL A   1      40.313  29.115  31.513  1.00  0.00     0.031 A 
ATOM     37  C   UNL A   1      41.393  28.908  32.541  1.00  0.00     0.074 A 
ATOM     38  C   UNL A   1      39.407  30.095  31.682  1.00  0.00     0.049 A 
ATOM     39  N   UNL A   1      41.605  29.552  33.660  1.00  0.00    -0.248 NA
ATOM     40  C   UNL A   1      42.359  27.830  32.271  1.00  0.00     0.031 C 
ATOM     41  C   UNL A   1      38.324  30.418  30.756  1.00  0.00     0.029 A 
ATOM     42  N   UNL A   1      39.254  30.995  32.708  1.00  0.00    -0.354 N 
ATOM     43  C   UNL A   1      42.728  28.961  34.227  1.00  0.00     0.074 A 
ATOM     44  C   UNL A   1      43.133  27.888  33.344  1.00  0.00     0.031 C 
ATOM     45  C   UNL A   1      37.607  31.437  31.264  1.00  0.00     0.029 A 
ATOM     46  C   UNL A   1      38.167  31.822  32.559  1.00  0.00     0.049 A 
ATOM     47  H   UNL A   1      39.865  31.043  33.478  1.00  0.00     0.167 HD
ATOM     48  C   UNL A   1      43.372  29.285  35.374  1.00  0.00     0.031 A 
ATOM     49  C   UNL A   1      37.670  32.771  33.378  1.00  0.00     0.031 A 
ATOM     50  C   UNL A   1      42.962  30.331  36.271  1.00  0.00     0.049 A 
ATOM     51  C   UNL A   1      38.362  33.069  34.684  1.00  0.00     0.074 A 
ATOM     52  C   UNL A   1      43.558  30.736  37.452  1.00  0.00     0.029 A 
ATOM     53  N   UNL A   1      41.844  31.131  36.093  1.00  0.00    -0.354 N 
ATOM     54  N   UNL A   1      39.446  32.526  35.185  1.00  0.00    -0.248 NA
ATOM     55  C   UNL A   1      37.767  34.116  35.529  1.00  0.00     0.031 C 
ATOM     56  C   UNL A   1      42.776  31.751  38.012  1.00  0.00     0.029 A 
ATOM     57  C   UNL A   1      41.720  32.012  37.154  1.00  0.00     0.049 A 
ATOM     58  H   UNL A   1      41.228  31.080  35.326  1.00  0.00     0.167 HD
ATOM     59  C   UNL A   1      39.675  33.183  36.392  1.00  0.00     0.074 A 
ATOM     60  C   UNL A   1      38.625  34.169  36.539  1.00  0.00     0.031 C 
ATOM     61  C   UNL A   1      40.670  32.989  37.292  1.00  0.00     0.031 A 
BRANCH  48  62
ATOM     62  C   UNL A   1      44.583  28.468  35.733  1.00  0.00    -0.014 A 
ATOM     63  C   UNL A   1      45.741  28.507  34.936  1.00  0.00     0.010 A 
ATOM     64  C   UNL A   1      44.569  27.667  36.888  1.00  0.00     0.010 A 
ATOM     65  C   UNL A   1      46.851  27.725  35.266  1.00  0.00     0.020 A 
ATOM     66  C   UNL A   1      45.686  26.901  37.233  1.00  0.00     0.020 A 
ATOM     67  C   UNL A   1      46.813  26.920  36.409  1.00  0.00     0.054 A 
BRANCH  67  68
ATOM     68  S   UNL A   1      48.268  25.919  36.818  1.00  0.00     0.124 S 
ATOM     69  O   UNL A   1      48.021  25.590  38.219  1.00  0.00    -0.237 OA
ATOM     70  O   UNL A   1      48.165  24.802  35.883  1.00  0.00    -0.237 OA
ATOM     71  O   UNL A   1      49.390  26.825  36.579  1.00  0.00    -0.744 OA
ENDBRANCH  67  68
ENDBRANCH  48  62
BRANCH  49  72
ATOM     72  C   UNL A   1      36.436  33.508  32.996  1.00  0.00    -0.014 A 
ATOM     73  C   UNL A   1      36.513  34.798  32.444  1.00  0.00     0.010 A 
ATOM     74  C   UNL A   1      35.172  32.919  33.190  1.00  0.00     0.010 A 
ATOM     75  C   UNL A   1      35.348  35.494  32.106  1.00  0.00     0.020 A 
ATOM     76  C   UNL A   1      34.007  33.602  32.830  1.00  0.00     0.020 A 
ATOM     77  C   UNL A   1      34.101  34.890  32.300  1.00  0.00     0.054 A 
BRANCH  77  78
ATOM     78  S   UNL A   1      32.604  35.786  31.802  1.00  0.00     0.124 S 
ATOM     79  O   UNL A   1      31.591  35.185  32.663  1.00  0.00    -0.237 OA
ATOM     80  O   UNL A   1      32.950  37.174  32.106  1.00  0.00    -0.237 OA
ATOM     81  O   UNL A   1      32.483  35.480  30.378  1.00  0.00    -0.744 OA
ENDBRANCH  77  78
ENDBRANCH  49  72
BRANCH  61  82
ATOM     82  C   UNL A   1      40.696  33.878  38.507  1.00  0.00    -0.014 A 
ATOM     83  C   UNL A   1      40.010  33.526  39.683  1.00  0.00     0.010 A 
ATOM     84  C   UNL A   1      41.470  35.053  38.492  1.00  0.00     0.010 A 
ATOM     85  C   UNL A   1      40.076  34.348  40.813  1.00  0.00     0.020 A 
ATOM     86  C   UNL A   1      41.556  35.865  39.626  1.00  0.00     0.020 A 
ATOM     87  C   UNL A   1      40.847  35.514  40.776  1.00  0.00     0.054 A 
BRANCH  87  88
ATOM     88  S   UNL A   1      40.957  36.541  42.268  1.00  0.00     0.124 S 
ATOM     89  O   UNL A   1      41.898  37.578  41.854  1.00  0.00    -0.237 OA
ATOM     90  O   UNL A   1      39.577  36.985  42.457  1.00  0.00    -0.237 OA
ATOM     91  O   UNL A   1      41.452  35.619  43.288  1.00  0.00    -0.744 OA
ENDBRANCH  87  88
ENDBRANCH  61  82
ENDBRANCH  35  36
ENDBRANCH  28  30
ENDBRANCH  27  28
ENDBRANCH  26  27
ENDBRANCH  25  26
ENDBRANCH  24  25
ENDBRANCH  23  24
ENDBRANCH   1  23
TORSDOF 23
ENDMDL
