MODEL 1
REMARK VINA RESULT:      -9.8      0.000      0.000
REMARK SMILES C[C@H]1SCCC[C@]1(Nc1ccc(Cl)cc1)C(=O)OCCOCCOCCOC(=O)c1ccc(-c2c3nc(c(-c4ccc(S(=O)(=O)[O-])cc4)c4ccc([nH]4)c(-c4ccc(S(=O)(=O)[O-])cc4)c4nc(c(-c5ccc(S(=O)(=O)[O-])cc5)c5ccc2[nH]5)C=C4)C=C3)cc1
REMARK SMILES IDX 23 1 22 2 21 3 20 4 19 5 18 6 16 7 17 8 7 9 1 10 2 11 3 12
REMARK SMILES IDX 4 13 6 14 5 15 8 16 9 18 10 19 15 20 11 21 14 22 12 23 13 24
REMARK SMILES IDX 24 25 25 26 26 27 27 28 28 29 29 30 30 31 31 32 89 33 32 34
REMARK SMILES IDX 88 35 33 36 34 37 35 38 82 39 36 40 87 41 81 42 83 43 37 44
REMARK SMILES IDX 86 45 80 46 79 47 38 49 68 50 49 51 67 52 50 53 53 54 66 55
REMARK SMILES IDX 84 56 51 57 52 58 65 60 85 61 54 62 39 63 40 64 48 65 41 66
REMARK SMILES IDX 47 67 42 68 43 69 44 70 45 71 46 72 69 73 70 74 78 75 71 76
REMARK SMILES IDX 77 77 72 78 73 79 74 80 75 81 76 82 55 83 56 84 64 85 57 86
REMARK SMILES IDX 63 87 58 88 59 89 60 90 61 91 62 92
REMARK H PARENT 8 17 83 48 53 59
REMARK Flexibility Score: inf
ROOT
ATOM      1  C   UNL A   1      35.664  21.066  25.010  1.00  0.00     0.188 C 
ENDROOT
BRANCH   1   2
ATOM      2  C   UNL A   1      34.137  21.125  24.916  1.00  0.00     0.188 C 
BRANCH   2   3
ATOM      3  O   UNL A   1      33.508  22.347  24.562  1.00  0.00    -0.376 OA
BRANCH   3   4
ATOM      4  C   UNL A   1      33.528  22.814  23.221  1.00  0.00     0.202 C 
BRANCH   4   5
ATOM      5  C   UNL A   1      34.089  24.208  22.888  1.00  0.00     0.261 C 
BRANCH   5   6
ATOM      6  O   UNL A   1      33.688  25.308  23.733  1.00  0.00    -0.461 OA
BRANCH   6   7
ATOM      7  C   UNL A   1      33.211  26.401  23.077  1.00  0.00     0.333 C 
ATOM      8  O   UNL A   1      33.844  26.943  22.171  1.00  0.00    -0.249 OA
BRANCH   7   9
ATOM      9  C   UNL A   1      31.805  26.941  23.580  1.00  0.00     0.147 C 
ATOM     10  C   UNL A   1      30.367  24.707  23.654  1.00  0.00     0.022 C 
ATOM     11  C   UNL A   1      30.529  26.137  23.134  1.00  0.00     0.080 C 
ATOM     12  S   UNL A   1      28.949  27.001  23.590  1.00  0.00    -0.156 SA
ATOM     13  C   UNL A   1      29.223  28.542  22.678  1.00  0.00     0.070 C 
ATOM     14  C   UNL A   1      31.752  28.358  22.910  1.00  0.00     0.042 C 
ATOM     15  C   UNL A   1      30.506  29.206  23.137  1.00  0.00     0.014 C 
BRANCH   9  16
ATOM     16  N   UNL A   1      31.773  27.127  25.069  1.00  0.00    -0.369 N 
ATOM     17  H   UNL A   1      31.261  26.510  25.641  1.00  0.00     0.161 HD
BRANCH  16  18
ATOM     18  C   UNL A   1      32.477  28.190  25.628  1.00  0.00     0.035 A 
ATOM     19  C   UNL A   1      33.848  28.070  25.882  1.00  0.00     0.027 A 
ATOM     20  C   UNL A   1      31.801  29.307  26.122  1.00  0.00     0.027 A 
ATOM     21  C   UNL A   1      34.515  28.996  26.687  1.00  0.00     0.022 A 
ATOM     22  C   UNL A   1      32.462  30.243  26.922  1.00  0.00     0.022 A 
ATOM     23  C   UNL A   1      33.812  30.070  27.219  1.00  0.00     0.041 A 
ATOM     24  Cl  UNL A   1      34.602  31.172  28.277  1.00  0.00    -0.084 Cl
ENDBRANCH  16  18
ENDBRANCH   9  16
ENDBRANCH   7   9
ENDBRANCH   6   7
ENDBRANCH   5   6
ENDBRANCH   4   5
ENDBRANCH   3   4
ENDBRANCH   2   3
ENDBRANCH   1   2
BRANCH   1  25
ATOM     25  O   UNL A   1      36.248  21.891  25.988  1.00  0.00    -0.376 OA
BRANCH  25  26
ATOM     26  C   UNL A   1      36.640  23.199  25.619  1.00  0.00     0.202 C 
BRANCH  26  27
ATOM     27  C   UNL A   1      38.123  23.613  25.620  1.00  0.00     0.261 C 
BRANCH  27  28
ATOM     28  O   UNL A   1      38.624  24.302  26.779  1.00  0.00    -0.460 OA
BRANCH  28  29
ATOM     29  C   UNL A   1      39.826  24.914  26.682  1.00  0.00     0.338 C 
ATOM     30  O   UNL A   1      40.574  24.890  25.716  1.00  0.00    -0.246 OA
BRANCH  29  31
ATOM     31  C   UNL A   1      39.964  25.838  27.838  1.00  0.00     0.060 A 
ATOM     32  C   UNL A   1      39.051  25.734  28.899  1.00  0.00     0.016 A 
ATOM     33  C   UNL A   1      41.000  26.775  27.900  1.00  0.00     0.016 A 
ATOM     34  C   UNL A   1      39.150  26.585  30.003  1.00  0.00     0.010 A 
ATOM     35  C   UNL A   1      41.083  27.643  28.997  1.00  0.00     0.010 A 
ATOM     36  C   UNL A   1      40.140  27.576  30.039  1.00  0.00    -0.014 A 
BRANCH  36  37
ATOM     37  C   UNL A   1      40.067  28.653  31.064  1.00  0.00     0.031 A 
ATOM     38  C   UNL A   1      41.024  28.604  32.228  1.00  0.00     0.074 A 
ATOM     39  C   UNL A   1      39.199  29.676  30.958  1.00  0.00     0.049 A 
ATOM     40  N   UNL A   1      41.160  29.434  33.231  1.00  0.00    -0.248 NA
ATOM     41  C   UNL A   1      41.955  27.464  32.261  1.00  0.00     0.031 C 
ATOM     42  C   UNL A   1      38.253  29.878  29.863  1.00  0.00     0.029 A 
ATOM     43  N   UNL A   1      38.982  30.746  31.792  1.00  0.00    -0.354 N 
ATOM     44  C   UNL A   1      42.176  28.908  34.021  1.00  0.00     0.074 A 
ATOM     45  C   UNL A   1      42.603  27.676  33.395  1.00  0.00     0.031 C 
ATOM     46  C   UNL A   1      37.560  31.009  30.088  1.00  0.00     0.029 A 
ATOM     47  C   UNL A   1      37.989  31.593  31.359  1.00  0.00     0.049 A 
ATOM     48  H   UNL A   1      39.490  30.894  32.622  1.00  0.00     0.167 HD
ATOM     49  C   UNL A   1      42.709  29.403  35.165  1.00  0.00     0.031 A 
ATOM     50  C   UNL A   1      37.477  32.705  31.926  1.00  0.00     0.031 A 
ATOM     51  C   UNL A   1      42.272  30.617  35.804  1.00  0.00     0.049 A 
ATOM     52  C   UNL A   1      38.030  33.193  33.242  1.00  0.00     0.074 A 
ATOM     53  C   UNL A   1      42.769  31.214  36.950  1.00  0.00     0.029 A 
ATOM     54  N   UNL A   1      41.220  31.409  35.368  1.00  0.00    -0.354 N 
ATOM     55  N   UNL A   1      39.017  32.706  33.957  1.00  0.00    -0.248 NA
ATOM     56  C   UNL A   1      37.400  34.388  33.820  1.00  0.00     0.031 C 
ATOM     57  C   UNL A   1      41.972  32.325  37.247  1.00  0.00     0.029 A 
ATOM     58  C   UNL A   1      41.026  32.466  36.243  1.00  0.00     0.049 A 
ATOM     59  H   UNL A   1      40.689  31.246  34.555  1.00  0.00     0.167 HD
ATOM     60  C   UNL A   1      39.147  33.557  35.053  1.00  0.00     0.074 A 
ATOM     61  C   UNL A   1      38.150  34.596  34.894  1.00  0.00     0.031 C 
ATOM     62  C   UNL A   1      40.018  33.487  36.092  1.00  0.00     0.031 A 
BRANCH  49  63
ATOM     63  C   UNL A   1      43.791  28.589  35.832  1.00  0.00    -0.014 A 
ATOM     64  C   UNL A   1      45.151  28.769  35.521  1.00  0.00     0.010 A 
ATOM     65  C   UNL A   1      43.433  27.627  36.795  1.00  0.00     0.010 A 
ATOM     66  C   UNL A   1      46.126  27.963  36.117  1.00  0.00     0.020 A 
ATOM     67  C   UNL A   1      44.407  26.843  37.418  1.00  0.00     0.020 A 
ATOM     68  C   UNL A   1      45.746  27.001  37.057  1.00  0.00     0.054 A 
BRANCH  68  69
ATOM     69  S   UNL A   1      47.031  25.963  37.809  1.00  0.00     0.124 S 
ATOM     70  O   UNL A   1      47.883  26.960  38.453  1.00  0.00    -0.237 OA
ATOM     71  O   UNL A   1      46.265  25.111  38.714  1.00  0.00    -0.237 OA
ATOM     72  O   UNL A   1      47.632  25.275  36.670  1.00  0.00    -0.744 OA
ENDBRANCH  68  69
ENDBRANCH  49  63
BRANCH  50  73
ATOM     73  C   UNL A   1      36.377  33.450  31.248  1.00  0.00    -0.014 A 
ATOM     74  C   UNL A   1      35.214  33.803  31.955  1.00  0.00     0.010 A 
ATOM     75  C   UNL A   1      36.486  33.808  29.892  1.00  0.00     0.010 A 
ATOM     76  C   UNL A   1      34.179  34.495  31.318  1.00  0.00     0.020 A 
ATOM     77  C   UNL A   1      35.466  34.526  29.260  1.00  0.00     0.020 A 
ATOM     78  C   UNL A   1      34.316  34.861  29.976  1.00  0.00     0.054 A 
BRANCH  78  79
ATOM     79  S   UNL A   1      32.989  35.821  29.195  1.00  0.00     0.124 S 
ATOM     80  O   UNL A   1      32.159  36.182  30.339  1.00  0.00    -0.237 OA
ATOM     81  O   UNL A   1      33.724  36.921  28.575  1.00  0.00    -0.237 OA
ATOM     82  O   UNL A   1      32.389  34.875  28.258  1.00  0.00    -0.744 OA
ENDBRANCH  78  79
ENDBRANCH  50  73
BRANCH  62  83
ATOM     83  C   UNL A   1      39.951  34.583  37.129  1.00  0.00    -0.014 A 
ATOM     84  C   UNL A   1      40.578  35.827  36.930  1.00  0.00     0.010 A 
ATOM     85  C   UNL A   1      39.233  34.368  38.321  1.00  0.00     0.010 A 
ATOM     86  C   UNL A   1      40.538  36.809  37.925  1.00  0.00     0.020 A 
ATOM     87  C   UNL A   1      39.161  35.360  39.304  1.00  0.00     0.020 A 
ATOM     88  C   UNL A   1      39.835  36.566  39.108  1.00  0.00     0.054 A 
BRANCH  88  89
ATOM     89  S   UNL A   1      39.802  37.855  40.385  1.00  0.00     0.124 S 
ATOM     90  O   UNL A   1      40.821  38.784  39.907  1.00  0.00    -0.237 OA
ATOM     91  O   UNL A   1      38.425  38.339  40.314  1.00  0.00    -0.237 OA
ATOM     92  O   UNL A   1      40.139  37.136  41.612  1.00  0.00    -0.744 OA
ENDBRANCH  88  89
ENDBRANCH  62  83
ENDBRANCH  36  37
ENDBRANCH  29  31
ENDBRANCH  28  29
ENDBRANCH  27  28
ENDBRANCH  26  27
ENDBRANCH  25  26
ENDBRANCH   1  25
TORSDOF 22
ENDMDL
MODEL 2
REMARK VINA RESULT:      -9.7      5.123      6.366
REMARK SMILES C[C@H]1SCCC[C@]1(Nc1ccc(Cl)cc1)C(=O)OCCOCCOCCOC(=O)c1ccc(-c2c3nc(c(-c4ccc(S(=O)(=O)[O-])cc4)c4ccc([nH]4)c(-c4ccc(S(=O)(=O)[O-])cc4)c4nc(c(-c5ccc(S(=O)(=O)[O-])cc5)c5ccc2[nH]5)C=C4)C=C3)cc1
REMARK SMILES IDX 23 1 22 2 21 3 20 4 19 5 18 6 16 7 17 8 7 9 1 10 2 11 3 12
REMARK SMILES IDX 4 13 6 14 5 15 8 16 9 18 10 19 15 20 11 21 14 22 12 23 13 24
REMARK SMILES IDX 24 25 25 26 26 27 27 28 28 29 29 30 30 31 31 32 89 33 32 34
REMARK SMILES IDX 88 35 33 36 34 37 35 38 82 39 36 40 87 41 81 42 83 43 37 44
REMARK SMILES IDX 86 45 80 46 79 47 38 49 68 50 49 51 67 52 50 53 53 54 66 55
REMARK SMILES IDX 84 56 51 57 52 58 65 60 85 61 54 62 39 63 40 64 48 65 41 66
REMARK SMILES IDX 47 67 42 68 43 69 44 70 45 71 46 72 69 73 70 74 78 75 71 76
REMARK SMILES IDX 77 77 72 78 73 79 74 80 75 81 76 82 55 83 56 84 64 85 57 86
REMARK SMILES IDX 63 87 58 88 59 89 60 90 61 91 62 92
REMARK H PARENT 8 17 83 48 53 59
REMARK Flexibility Score: inf
ROOT
ATOM      1  C   UNL A   1      34.100  20.232  24.815  1.00  0.00     0.188 C 
ENDROOT
BRANCH   1   2
ATOM      2  C   UNL A   1      33.303  20.496  26.096  1.00  0.00     0.188 C 
BRANCH   2   3
ATOM      3  O   UNL A   1      33.952  21.089  27.210  1.00  0.00    -0.376 OA
BRANCH   3   4
ATOM      4  C   UNL A   1      33.892  22.491  27.425  1.00  0.00     0.202 C 
BRANCH   4   5
ATOM      5  C   UNL A   1      34.080  23.470  26.252  1.00  0.00     0.261 C 
BRANCH   5   6
ATOM      6  O   UNL A   1      33.612  24.825  26.433  1.00  0.00    -0.461 OA
BRANCH   6   7
ATOM      7  C   UNL A   1      32.313  25.042  26.091  1.00  0.00     0.333 C 
ATOM      8  O   UNL A   1      31.382  24.617  26.775  1.00  0.00    -0.249 OA
BRANCH   7   9
ATOM      9  C   UNL A   1      32.086  25.851  24.744  1.00  0.00     0.147 C 
ATOM     10  C   UNL A   1      30.463  24.224  23.407  1.00  0.00     0.022 C 
ATOM     11  C   UNL A   1      31.774  25.013  23.450  1.00  0.00     0.080 C 
ATOM     12  S   UNL A   1      31.763  26.056  21.913  1.00  0.00    -0.156 SA
ATOM     13  C   UNL A   1      33.459  26.682  22.012  1.00  0.00     0.070 C 
ATOM     14  C   UNL A   1      33.478  26.548  24.554  1.00  0.00     0.042 C 
ATOM     15  C   UNL A   1      33.676  27.418  23.319  1.00  0.00     0.014 C 
BRANCH   9  16
ATOM     16  N   UNL A   1      31.045  26.921  24.898  1.00  0.00    -0.369 N 
ATOM     17  H   UNL A   1      30.156  26.820  24.486  1.00  0.00     0.161 HD
BRANCH  16  18
ATOM     18  C   UNL A   1      31.359  28.061  25.631  1.00  0.00     0.035 A 
ATOM     19  C   UNL A   1      31.300  29.325  25.031  1.00  0.00     0.027 A 
ATOM     20  C   UNL A   1      31.922  27.954  26.905  1.00  0.00     0.027 A 
ATOM     21  C   UNL A   1      31.870  30.442  25.644  1.00  0.00     0.022 A 
ATOM     22  C   UNL A   1      32.488  29.067  27.530  1.00  0.00     0.022 A 
ATOM     23  C   UNL A   1      32.479  30.302  26.886  1.00  0.00     0.041 A 
ATOM     24  Cl  UNL A   1      33.256  31.652  27.615  1.00  0.00    -0.084 Cl
ENDBRANCH  16  18
ENDBRANCH   9  16
ENDBRANCH   7   9
ENDBRANCH   6   7
ENDBRANCH   5   6
ENDBRANCH   4   5
ENDBRANCH   3   4
ENDBRANCH   2   3
ENDBRANCH   1   2
BRANCH   1  25
ATOM     25  O   UNL A   1      35.483  20.044  24.984  1.00  0.00    -0.376 OA
BRANCH  25  26
ATOM     26  C   UNL A   1      36.353  21.111  24.661  1.00  0.00     0.202 C 
BRANCH  26  27
ATOM     27  C   UNL A   1      37.843  21.064  25.046  1.00  0.00     0.261 C 
BRANCH  27  28
ATOM     28  O   UNL A   1      38.373  22.169  25.799  1.00  0.00    -0.460 OA
BRANCH  28  29
ATOM     29  C   UNL A   1      39.554  21.992  26.436  1.00  0.00     0.338 C 
ATOM     30  O   UNL A   1      40.270  21.005  26.372  1.00  0.00    -0.246 OA
BRANCH  29  31
ATOM     31  C   UNL A   1      39.965  23.301  27.008  1.00  0.00     0.060 A 
ATOM     32  C   UNL A   1      39.371  24.472  26.512  1.00  0.00     0.016 A 
ATOM     33  C   UNL A   1      40.896  23.379  28.048  1.00  0.00     0.016 A 
ATOM     34  C   UNL A   1      39.732  25.721  27.027  1.00  0.00     0.010 A 
ATOM     35  C   UNL A   1      41.273  24.634  28.547  1.00  0.00     0.010 A 
ATOM     36  C   UNL A   1      40.718  25.814  28.017  1.00  0.00    -0.014 A 
BRANCH  36  37
ATOM     37  C   UNL A   1      41.300  27.142  28.355  1.00  0.00     0.031 A 
ATOM     38  C   UNL A   1      42.777  27.355  28.143  1.00  0.00     0.074 A 
ATOM     39  C   UNL A   1      40.539  28.156  28.808  1.00  0.00     0.049 A 
ATOM     40  N   UNL A   1      43.502  28.424  28.349  1.00  0.00    -0.248 NA
ATOM     41  C   UNL A   1      43.535  26.203  27.626  1.00  0.00     0.031 C 
ATOM     42  C   UNL A   1      39.093  28.107  29.011  1.00  0.00     0.029 A 
ATOM     43  N   UNL A   1      40.888  29.434  29.173  1.00  0.00    -0.354 N 
ATOM     44  C   UNL A   1      44.803  28.070  28.004  1.00  0.00     0.074 A 
ATOM     45  C   UNL A   1      44.769  26.681  27.602  1.00  0.00     0.031 C 
ATOM     46  C   UNL A   1      38.675  29.306  29.458  1.00  0.00     0.029 A 
ATOM     47  C   UNL A   1      39.828  30.195  29.605  1.00  0.00     0.049 A 
ATOM     48  H   UNL A   1      41.811  29.773  29.128  1.00  0.00     0.167 HD
ATOM     49  C   UNL A   1      45.926  28.829  28.019  1.00  0.00     0.031 A 
ATOM     50  C   UNL A   1      39.791  31.458  30.076  1.00  0.00     0.031 A 
ATOM     51  C   UNL A   1      45.967  30.206  28.441  1.00  0.00     0.049 A 
ATOM     52  C   UNL A   1      41.067  32.259  30.162  1.00  0.00     0.074 A 
ATOM     53  C   UNL A   1      47.052  31.065  28.465  1.00  0.00     0.029 A 
ATOM     54  N   UNL A   1      44.884  30.918  28.934  1.00  0.00    -0.354 N 
ATOM     55  N   UNL A   1      42.282  31.923  29.796  1.00  0.00    -0.248 NA
ATOM     56  C   UNL A   1      40.960  33.615  30.718  1.00  0.00     0.031 C 
ATOM     57  C   UNL A   1      46.641  32.273  29.041  1.00  0.00     0.029 A 
ATOM     58  C   UNL A   1      45.282  32.194  29.303  1.00  0.00     0.049 A 
ATOM     59  H   UNL A   1      43.966  30.570  29.009  1.00  0.00     0.167 HD
ATOM     60  C   UNL A   1      43.076  33.039  30.049  1.00  0.00     0.074 A 
ATOM     61  C   UNL A   1      42.200  34.063  30.579  1.00  0.00     0.031 C 
ATOM     62  C   UNL A   1      44.410  33.203  29.851  1.00  0.00     0.031 A 
BRANCH  49  63
ATOM     63  C   UNL A   1      47.218  28.159  27.622  1.00  0.00    -0.014 A 
ATOM     64  C   UNL A   1      48.048  27.532  28.570  1.00  0.00     0.010 A 
ATOM     65  C   UNL A   1      47.605  28.156  26.269  1.00  0.00     0.010 A 
ATOM     66  C   UNL A   1      49.265  26.966  28.179  1.00  0.00     0.020 A 
ATOM     67  C   UNL A   1      48.804  27.562  25.870  1.00  0.00     0.020 A 
ATOM     68  C   UNL A   1      49.638  26.990  26.832  1.00  0.00     0.054 A 
BRANCH  68  69
ATOM     69  S   UNL A   1      51.227  26.256  26.355  1.00  0.00     0.124 S 
ATOM     70  O   UNL A   1      51.323  25.125  27.275  1.00  0.00    -0.237 OA
ATOM     71  O   UNL A   1      51.011  25.909  24.953  1.00  0.00    -0.237 OA
ATOM     72  O   UNL A   1      52.190  27.330  26.586  1.00  0.00    -0.744 OA
ENDBRANCH  68  69
ENDBRANCH  49  63
BRANCH  50  73
ATOM     73  C   UNL A   1      38.494  32.061  30.499  1.00  0.00    -0.014 A 
ATOM     74  C   UNL A   1      38.047  31.933  31.826  1.00  0.00     0.010 A 
ATOM     75  C   UNL A   1      37.697  32.763  29.576  1.00  0.00     0.010 A 
ATOM     76  C   UNL A   1      36.827  32.491  32.221  1.00  0.00     0.020 A 
ATOM     77  C   UNL A   1      36.492  33.348  29.975  1.00  0.00     0.020 A 
ATOM     78  C   UNL A   1      36.061  33.203  31.294  1.00  0.00     0.054 A 
BRANCH  78  79
ATOM     79  S   UNL A   1      34.518  33.979  31.852  1.00  0.00     0.124 S 
ATOM     80  O   UNL A   1      33.958  32.952  32.725  1.00  0.00    -0.237 OA
ATOM     81  O   UNL A   1      35.000  35.185  32.521  1.00  0.00    -0.237 OA
ATOM     82  O   UNL A   1      33.785  34.213  30.610  1.00  0.00    -0.744 OA
ENDBRANCH  78  79
ENDBRANCH  50  73
BRANCH  62  83
ATOM     83  C   UNL A   1      45.000  34.552  30.186  1.00  0.00    -0.014 A 
ATOM     84  C   UNL A   1      45.405  34.877  31.494  1.00  0.00     0.010 A 
ATOM     85  C   UNL A   1      45.166  35.509  29.166  1.00  0.00     0.010 A 
ATOM     86  C   UNL A   1      45.907  36.150  31.786  1.00  0.00     0.020 A 
ATOM     87  C   UNL A   1      45.700  36.770  29.446  1.00  0.00     0.020 A 
ATOM     88  C   UNL A   1      46.045  37.090  30.760  1.00  0.00     0.054 A 
BRANCH  88  89
ATOM     89  S   UNL A   1      46.695  38.735  31.165  1.00  0.00     0.124 S 
ATOM     90  O   UNL A   1      46.527  39.448  29.902  1.00  0.00    -0.237 OA
ATOM     91  O   UNL A   1      45.820  39.167  32.252  1.00  0.00    -0.237 OA
ATOM     92  O   UNL A   1      48.079  38.475  31.554  1.00  0.00    -0.744 OA
ENDBRANCH  88  89
ENDBRANCH  62  83
ENDBRANCH  36  37
ENDBRANCH  29  31
ENDBRANCH  28  29
ENDBRANCH  27  28
ENDBRANCH  26  27
ENDBRANCH  25  26
ENDBRANCH   1  25
TORSDOF 22
ENDMDL
MODEL 3
REMARK VINA RESULT:      -9.1      2.383      3.075
REMARK SMILES C[C@H]1SCCC[C@]1(Nc1ccc(Cl)cc1)C(=O)OCCOCCOCCOC(=O)c1ccc(-c2c3nc(c(-c4ccc(S(=O)(=O)[O-])cc4)c4ccc([nH]4)c(-c4ccc(S(=O)(=O)[O-])cc4)c4nc(c(-c5ccc(S(=O)(=O)[O-])cc5)c5ccc2[nH]5)C=C4)C=C3)cc1
REMARK SMILES IDX 23 1 22 2 21 3 20 4 19 5 18 6 16 7 17 8 7 9 1 10 2 11 3 12
REMARK SMILES IDX 4 13 6 14 5 15 8 16 9 18 10 19 15 20 11 21 14 22 12 23 13 24
REMARK SMILES IDX 24 25 25 26 26 27 27 28 28 29 29 30 30 31 31 32 89 33 32 34
REMARK SMILES IDX 88 35 33 36 34 37 35 38 82 39 36 40 87 41 81 42 83 43 37 44
REMARK SMILES IDX 86 45 80 46 79 47 38 49 68 50 49 51 67 52 50 53 53 54 66 55
REMARK SMILES IDX 84 56 51 57 52 58 65 60 85 61 54 62 39 63 40 64 48 65 41 66
REMARK SMILES IDX 47 67 42 68 43 69 44 70 45 71 46 72 69 73 70 74 78 75 71 76
REMARK SMILES IDX 77 77 72 78 73 79 74 80 75 81 76 82 55 83 56 84 64 85 57 86
REMARK SMILES IDX 63 87 58 88 59 89 60 90 61 91 62 92
REMARK H PARENT 8 17 83 48 53 59
REMARK Flexibility Score: inf
ROOT
ATOM      1  C   UNL A   1      35.784  21.011  25.521  1.00  0.00     0.188 C 
ENDROOT
BRANCH   1   2
ATOM      2  C   UNL A   1      34.794  21.587  24.504  1.00  0.00     0.188 C 
BRANCH   2   3
ATOM      3  O   UNL A   1      33.403  21.372  24.686  1.00  0.00    -0.376 OA
BRANCH   3   4
ATOM      4  C   UNL A   1      32.491  22.461  24.675  1.00  0.00     0.202 C 
BRANCH   4   5
ATOM      5  C   UNL A   1      32.560  23.548  25.763  1.00  0.00     0.261 C 
BRANCH   5   6
ATOM      6  O   UNL A   1      33.493  24.633  25.563  1.00  0.00    -0.461 OA
BRANCH   6   7
ATOM      7  C   UNL A   1      33.383  25.281  24.372  1.00  0.00     0.333 C 
ATOM      8  O   UNL A   1      34.083  24.986  23.404  1.00  0.00    -0.249 OA
BRANCH   7   9
ATOM      9  C   UNL A   1      32.315  26.456  24.329  1.00  0.00     0.147 C 
ATOM     10  C   UNL A   1      30.074  25.125  23.810  1.00  0.00     0.022 C 
ATOM     11  C   UNL A   1      31.049  26.239  23.422  1.00  0.00     0.080 C 
ATOM     12  S   UNL A   1      30.006  27.770  23.279  1.00  0.00    -0.156 SA
ATOM     13  C   UNL A   1      31.257  28.871  22.570  1.00  0.00     0.070 C 
ATOM     14  C   UNL A   1      33.160  27.630  23.721  1.00  0.00     0.042 C 
ATOM     15  C   UNL A   1      32.460  28.964  23.488  1.00  0.00     0.014 C 
BRANCH   9  16
ATOM     16  N   UNL A   1      31.871  26.864  25.703  1.00  0.00    -0.369 N 
ATOM     17  H   UNL A   1      31.101  26.424  26.132  1.00  0.00     0.161 HD
BRANCH  16  18
ATOM     18  C   UNL A   1      32.564  27.875  26.360  1.00  0.00     0.035 A 
ATOM     19  C   UNL A   1      31.916  29.068  26.701  1.00  0.00     0.027 A 
ATOM     20  C   UNL A   1      33.950  27.802  26.513  1.00  0.00     0.027 A 
ATOM     21  C   UNL A   1      32.639  30.194  27.099  1.00  0.00     0.022 A 
ATOM     22  C   UNL A   1      34.682  28.921  26.918  1.00  0.00     0.022 A 
ATOM     23  C   UNL A   1      34.025  30.119  27.188  1.00  0.00     0.041 A 
ATOM     24  Cl  UNL A   1      34.934  31.519  27.599  1.00  0.00    -0.084 Cl
ENDBRANCH  16  18
ENDBRANCH   9  16
ENDBRANCH   7   9
ENDBRANCH   6   7
ENDBRANCH   5   6
ENDBRANCH   4   5
ENDBRANCH   3   4
ENDBRANCH   2   3
ENDBRANCH   1   2
BRANCH   1  25
ATOM     25  O   UNL A   1      36.747  20.129  25.004  1.00  0.00    -0.376 OA
BRANCH  25  26
ATOM     26  C   UNL A   1      38.103  20.533  25.008  1.00  0.00     0.202 C 
BRANCH  26  27
ATOM     27  C   UNL A   1      38.673  21.384  26.158  1.00  0.00     0.261 C 
BRANCH  27  28
ATOM     28  O   UNL A   1      39.358  22.601  25.812  1.00  0.00    -0.460 OA
BRANCH  28  29
ATOM     29  C   UNL A   1      38.624  23.731  25.703  1.00  0.00     0.338 C 
ATOM     30  O   UNL A   1      37.553  23.847  25.128  1.00  0.00    -0.246 OA
BRANCH  29  31
ATOM     31  C   UNL A   1      39.203  24.743  26.627  1.00  0.00     0.060 A 
ATOM     32  C   UNL A   1      38.894  24.664  27.994  1.00  0.00     0.016 A 
ATOM     33  C   UNL A   1      40.069  25.738  26.165  1.00  0.00     0.016 A 
ATOM     34  C   UNL A   1      39.420  25.597  28.892  1.00  0.00     0.010 A 
ATOM     35  C   UNL A   1      40.577  26.686  27.064  1.00  0.00     0.010 A 
ATOM     36  C   UNL A   1      40.230  26.641  28.427  1.00  0.00    -0.014 A 
BRANCH  36  37
ATOM     37  C   UNL A   1      40.549  27.783  29.327  1.00  0.00     0.031 A 
ATOM     38  C   UNL A   1      41.862  27.770  30.067  1.00  0.00     0.074 A 
ATOM     39  C   UNL A   1      39.715  28.831  29.467  1.00  0.00     0.049 A 
ATOM     40  N   UNL A   1      42.364  28.656  30.889  1.00  0.00    -0.248 NA
ATOM     41  C   UNL A   1      42.725  26.598  29.845  1.00  0.00     0.031 C 
ATOM     42  C   UNL A   1      38.439  28.999  28.776  1.00  0.00     0.029 A 
ATOM     43  N   UNL A   1      39.830  29.959  30.242  1.00  0.00    -0.354 N 
ATOM     44  C   UNL A   1      43.591  28.142  31.295  1.00  0.00     0.074 A 
ATOM     45  C   UNL A   1      43.744  26.857  30.649  1.00  0.00     0.031 C 
ATOM     46  C   UNL A   1      37.891  30.169  29.152  1.00  0.00     0.029 A 
ATOM     47  C   UNL A   1      38.760  30.816  30.136  1.00  0.00     0.049 A 
ATOM     48  H   UNL A   1      40.607  30.139  30.819  1.00  0.00     0.167 HD
ATOM     49  C   UNL A   1      44.510  28.687  32.129  1.00  0.00     0.031 A 
ATOM     50  C   UNL A   1      38.503  31.980  30.766  1.00  0.00     0.031 A 
ATOM     51  C   UNL A   1      44.351  29.956  32.792  1.00  0.00     0.049 A 
ATOM     52  C   UNL A   1      39.503  32.528  31.754  1.00  0.00     0.074 A 
ATOM     53  C   UNL A   1      45.238  30.604  33.634  1.00  0.00     0.029 A 
ATOM     54  N   UNL A   1      43.223  30.759  32.709  1.00  0.00    -0.354 N 
ATOM     55  N   UNL A   1      40.676  32.050  32.098  1.00  0.00    -0.248 NA
ATOM     56  C   UNL A   1      39.143  33.782  32.431  1.00  0.00     0.031 C 
ATOM     57  C   UNL A   1      44.618  31.762  34.117  1.00  0.00     0.029 A 
ATOM     58  C   UNL A   1      43.374  31.877  33.515  1.00  0.00     0.049 A 
ATOM     59  H   UNL A   1      42.431  30.566  32.156  1.00  0.00     0.167 HD
ATOM     60  C   UNL A   1      41.206  32.963  33.007  1.00  0.00     0.074 A 
ATOM     61  C   UNL A   1      40.235  34.028  33.143  1.00  0.00     0.031 C 
ATOM     62  C   UNL A   1      42.394  32.924  33.664  1.00  0.00     0.031 A 
BRANCH  49  63
ATOM     63  C   UNL A   1      45.748  27.875  32.419  1.00  0.00    -0.014 A 
ATOM     64  C   UNL A   1      46.860  27.890  31.557  1.00  0.00     0.010 A 
ATOM     65  C   UNL A   1      45.797  27.086  33.582  1.00  0.00     0.010 A 
ATOM     66  C   UNL A   1      47.972  27.085  31.825  1.00  0.00     0.020 A 
ATOM     67  C   UNL A   1      46.921  26.307  33.871  1.00  0.00     0.020 A 
ATOM     68  C   UNL A   1      47.993  26.295  32.977  1.00  0.00     0.054 A 
BRANCH  68  69
ATOM     69  S   UNL A   1      49.445  25.255  33.295  1.00  0.00     0.124 S 
ATOM     70  O   UNL A   1      50.038  25.153  31.963  1.00  0.00    -0.237 OA
ATOM     71  O   UNL A   1      50.201  26.049  34.260  1.00  0.00    -0.237 OA
ATOM     72  O   UNL A   1      48.878  24.016  33.820  1.00  0.00    -0.744 OA
ENDBRANCH  68  69
ENDBRANCH  49  63
BRANCH  50  73
ATOM     73  C   UNL A   1      37.243  32.723  30.479  1.00  0.00    -0.014 A 
ATOM     74  C   UNL A   1      37.231  33.771  29.541  1.00  0.00     0.010 A 
ATOM     75  C   UNL A   1      36.048  32.389  31.142  1.00  0.00     0.010 A 
ATOM     76  C   UNL A   1      36.051  34.474  29.276  1.00  0.00     0.020 A 
ATOM     77  C   UNL A   1      34.860  33.069  30.858  1.00  0.00     0.020 A 
ATOM     78  C   UNL A   1      34.870  34.111  29.930  1.00  0.00     0.054 A 
BRANCH  78  79
ATOM     79  S   UNL A   1      33.339  34.992  29.514  1.00  0.00     0.124 S 
ATOM     80  O   UNL A   1      32.626  34.003  28.712  1.00  0.00    -0.237 OA
ATOM     81  O   UNL A   1      32.771  35.269  30.831  1.00  0.00    -0.237 OA
ATOM     82  O   UNL A   1      33.808  36.168  28.785  1.00  0.00    -0.744 OA
ENDBRANCH  78  79
ENDBRANCH  50  73
BRANCH  62  83
ATOM     83  C   UNL A   1      42.723  34.086  34.571  1.00  0.00    -0.014 A 
ATOM     84  C   UNL A   1      43.134  35.330  34.058  1.00  0.00     0.010 A 
ATOM     85  C   UNL A   1      42.605  33.932  35.966  1.00  0.00     0.010 A 
ATOM     86  C   UNL A   1      43.476  36.376  34.921  1.00  0.00     0.020 A 
ATOM     87  C   UNL A   1      42.912  34.987  36.832  1.00  0.00     0.020 A 
ATOM     88  C   UNL A   1      43.369  36.195  36.303  1.00  0.00     0.054 A 
BRANCH  88  89
ATOM     89  S   UNL A   1      43.821  37.565  37.403  1.00  0.00     0.124 S 
ATOM     90  O   UNL A   1      42.558  37.841  38.081  1.00  0.00    -0.237 OA
ATOM     91  O   UNL A   1      44.867  36.975  38.236  1.00  0.00    -0.237 OA
ATOM     92  O   UNL A   1      44.278  38.608  36.487  1.00  0.00    -0.744 OA
ENDBRANCH  88  89
ENDBRANCH  62  83
ENDBRANCH  36  37
ENDBRANCH  29  31
ENDBRANCH  28  29
ENDBRANCH  27  28
ENDBRANCH  26  27
ENDBRANCH  25  26
ENDBRANCH   1  25
TORSDOF 22
ENDMDL
