MODEL 1
REMARK VINA RESULT:     -10.0      0.000      0.000
REMARK SMILES Cc1cc(C(=O)Nc2ccn(C)n2)sc1/C=C/C(=O)OCCOCCOCCOC(=O)c1ccc(-c2c3nc(c(-c4ccc(S(=O)(=O)[O-])cc4)c4ccc([nH]4)c(-c4ccc(S(=O)(=O)[O-])cc4)c4nc(c(-c5ccc(S(=O)(=O)[O-])cc5)c5ccc2[nH]5)C=C4)C=C3)cc1
REMARK SMILES IDX 24 1 23 2 22 3 21 4 20 5 18 6 19 7 17 8 16 9 15 10 1 11 2 12
REMARK SMILES IDX 3 13 4 14 14 15 5 16 6 17 7 18 8 20 9 21 13 22 10 23 11 24
REMARK SMILES IDX 12 25 25 26 26 27 27 28 28 29 29 30 30 31 31 32 32 33 33 34
REMARK SMILES IDX 91 35 34 36 90 37 35 38 36 39 37 40 84 41 38 42 89 43 83 44
REMARK SMILES IDX 85 45 39 46 88 47 82 48 81 49 40 51 70 52 51 53 69 54 52 55
REMARK SMILES IDX 55 56 68 57 86 58 53 59 54 60 67 62 87 63 56 64 41 65 42 66
REMARK SMILES IDX 50 67 43 68 49 69 44 70 45 71 46 72 47 73 48 74 71 75 72 76
REMARK SMILES IDX 80 77 73 78 79 79 74 80 75 81 76 82 77 83 78 84 57 85 58 86
REMARK SMILES IDX 66 87 59 88 65 89 60 90 61 91 62 92 63 93 64 94
REMARK H PARENT 7 19 85 50 55 61
REMARK Flexibility Score: inf
ROOT
ATOM      1  C   UNL A   1      37.946  22.483  26.088  1.00  0.00     0.188 C 
ENDROOT
BRANCH   1   2
ATOM      2  O   UNL A   1      36.625  22.359  25.576  1.00  0.00    -0.376 OA
BRANCH   2   3
ATOM      3  C   UNL A   1      36.063  21.071  25.368  1.00  0.00     0.202 C 
BRANCH   3   4
ATOM      4  C   UNL A   1      34.593  20.915  24.946  1.00  0.00     0.261 C 
BRANCH   4   5
ATOM      5  O   UNL A   1      33.624  21.446  25.865  1.00  0.00    -0.460 OA
BRANCH   5   6
ATOM      6  C   UNL A   1      32.397  21.665  25.334  1.00  0.00     0.330 C 
ATOM      7  O   UNL A   1      31.417  20.943  25.450  1.00  0.00    -0.247 OA
BRANCH   6   8
ATOM      8  C   UNL A   1      32.292  22.976  24.662  1.00  0.00     0.095 C 
ATOM      9  C   UNL A   1      31.216  23.448  24.011  1.00  0.00     0.027 C 
BRANCH   9  10
ATOM     10  C   UNL A   1      31.189  24.728  23.355  1.00  0.00     0.031 A 
ATOM     11  C   UNL A   1      32.883  24.371  21.442  1.00  0.00     0.046 C 
ATOM     12  C   UNL A   1      31.948  25.185  22.279  1.00  0.00    -0.032 A 
ATOM     13  C   UNL A   1      31.727  26.588  22.028  1.00  0.00     0.029 A 
ATOM     14  C   UNL A   1      30.789  27.164  22.863  1.00  0.00     0.093 A 
ATOM     15  S   UNL A   1      30.067  25.952  23.815  1.00  0.00    -0.130 S 
BRANCH  14  16
ATOM     16  C   UNL A   1      30.300  28.545  22.805  1.00  0.00     0.266 C 
ATOM     17  O   UNL A   1      29.461  28.881  21.962  1.00  0.00    -0.268 OA
ATOM     18  N   UNL A   1      30.658  29.483  23.745  1.00  0.00    -0.304 N 
ATOM     19  H   UNL A   1      30.003  30.205  23.884  1.00  0.00     0.171 HD
BRANCH  18  20
ATOM     20  C   UNL A   1      31.786  29.568  24.519  1.00  0.00     0.154 A 
ATOM     21  C   UNL A   1      33.025  28.902  24.378  1.00  0.00     0.068 A 
ATOM     22  N   UNL A   1      31.796  30.399  25.561  1.00  0.00    -0.155 NA
ATOM     23  C   UNL A   1      33.754  29.268  25.486  1.00  0.00     0.110 A 
ATOM     24  N   UNL A   1      32.944  30.103  26.201  1.00  0.00    -0.274 N 
ATOM     25  C   UNL A   1      33.162  30.581  27.545  1.00  0.00     0.173 C 
ENDBRANCH  18  20
ENDBRANCH  14  16
ENDBRANCH   9  10
ENDBRANCH   6   8
ENDBRANCH   5   6
ENDBRANCH   4   5
ENDBRANCH   3   4
ENDBRANCH   2   3
ENDBRANCH   1   2
BRANCH   1  26
ATOM     26  C   UNL A   1      39.033  21.475  25.659  1.00  0.00     0.188 C 
BRANCH  26  27
ATOM     27  O   UNL A   1      40.066  21.297  26.600  1.00  0.00    -0.376 OA
BRANCH  27  28
ATOM     28  C   UNL A   1      41.395  21.664  26.271  1.00  0.00     0.202 C 
BRANCH  28  29
ATOM     29  C   UNL A   1      41.887  23.107  26.034  1.00  0.00     0.261 C 
BRANCH  29  30
ATOM     30  O   UNL A   1      41.293  24.162  26.791  1.00  0.00    -0.460 OA
BRANCH  30  31
ATOM     31  C   UNL A   1      41.494  25.417  26.342  1.00  0.00     0.338 C 
ATOM     32  O   UNL A   1      41.757  25.757  25.189  1.00  0.00    -0.246 OA
BRANCH  31  33
ATOM     33  C   UNL A   1      41.187  26.355  27.430  1.00  0.00     0.060 A 
ATOM     34  C   UNL A   1      41.976  27.502  27.576  1.00  0.00     0.016 A 
ATOM     35  C   UNL A   1      40.137  26.096  28.317  1.00  0.00     0.016 A 
ATOM     36  C   UNL A   1      41.729  28.387  28.626  1.00  0.00     0.010 A 
ATOM     37  C   UNL A   1      39.901  26.978  29.376  1.00  0.00     0.010 A 
ATOM     38  C   UNL A   1      40.710  28.114  29.548  1.00  0.00    -0.014 A 
BRANCH  38  39
ATOM     39  C   UNL A   1      40.593  28.930  30.781  1.00  0.00     0.031 A 
ATOM     40  C   UNL A   1      39.565  30.028  30.823  1.00  0.00     0.074 A 
ATOM     41  C   UNL A   1      41.376  28.694  31.848  1.00  0.00     0.049 A 
ATOM     42  N   UNL A   1      39.314  30.889  31.774  1.00  0.00    -0.248 NA
ATOM     43  C   UNL A   1      38.708  30.170  29.635  1.00  0.00     0.031 C 
ATOM     44  C   UNL A   1      42.383  27.637  31.944  1.00  0.00     0.029 A 
ATOM     45  N   UNL A   1      41.453  29.343  33.055  1.00  0.00    -0.354 N 
ATOM     46  C   UNL A   1      38.273  31.680  31.299  1.00  0.00     0.074 A 
ATOM     47  C   UNL A   1      37.960  31.212  29.967  1.00  0.00     0.031 C 
ATOM     48  C   UNL A   1      42.988  27.721  33.143  1.00  0.00     0.029 A 
ATOM     49  C   UNL A   1      42.436  28.856  33.883  1.00  0.00     0.049 A 
ATOM     50  H   UNL A   1      40.859  30.087  33.306  1.00  0.00     0.167 HD
ATOM     51  C   UNL A   1      37.634  32.701  31.917  1.00  0.00     0.031 A 
ATOM     52  C   UNL A   1      42.860  29.292  35.086  1.00  0.00     0.031 A 
ATOM     53  C   UNL A   1      37.964  33.183  33.231  1.00  0.00     0.049 A 
ATOM     54  C   UNL A   1      42.190  30.485  35.719  1.00  0.00     0.074 A 
ATOM     55  C   UNL A   1      37.370  34.207  33.946  1.00  0.00     0.029 A 
ATOM     56  N   UNL A   1      38.986  32.682  34.023  1.00  0.00    -0.354 N 
ATOM     57  N   UNL A   1      41.189  31.204  35.271  1.00  0.00    -0.248 NA
ATOM     58  C   UNL A   1      42.703  30.918  37.028  1.00  0.00     0.031 C 
ATOM     59  C   UNL A   1      38.069  34.364  35.147  1.00  0.00     0.029 A 
ATOM     60  C   UNL A   1      39.056  33.394  35.210  1.00  0.00     0.049 A 
ATOM     61  H   UNL A   1      39.574  31.932  33.779  1.00  0.00     0.167 HD
ATOM     62  C   UNL A   1      40.934  32.156  36.254  1.00  0.00     0.074 A 
ATOM     63  C   UNL A   1      41.876  31.913  37.326  1.00  0.00     0.031 C 
ATOM     64  C   UNL A   1      39.999  33.140  36.269  1.00  0.00     0.031 A 
BRANCH  51  65
ATOM     65  C   UNL A   1      36.532  33.389  31.155  1.00  0.00    -0.014 A 
ATOM     66  C   UNL A   1      36.761  33.937  29.880  1.00  0.00     0.010 A 
ATOM     67  C   UNL A   1      35.243  33.464  31.713  1.00  0.00     0.010 A 
ATOM     68  C   UNL A   1      35.730  34.584  29.194  1.00  0.00     0.020 A 
ATOM     69  C   UNL A   1      34.202  34.087  31.018  1.00  0.00     0.020 A 
ATOM     70  C   UNL A   1      34.457  34.659  29.771  1.00  0.00     0.054 A 
BRANCH  70  71
ATOM     71  S   UNL A   1      33.135  35.492  28.852  1.00  0.00     0.124 S 
ATOM     72  O   UNL A   1      33.889  36.425  28.019  1.00  0.00    -0.237 OA
ATOM     73  O   UNL A   1      32.494  34.390  28.140  1.00  0.00    -0.237 OA
ATOM     74  O   UNL A   1      32.322  36.111  29.898  1.00  0.00    -0.744 OA
ENDBRANCH  70  71
ENDBRANCH  51  65
BRANCH  52  75
ATOM     75  C   UNL A   1      43.995  28.610  35.766  1.00  0.00    -0.014 A 
ATOM     76  C   UNL A   1      45.321  29.014  35.529  1.00  0.00     0.010 A 
ATOM     77  C   UNL A   1      43.753  27.547  36.655  1.00  0.00     0.010 A 
ATOM     78  C   UNL A   1      46.383  28.359  36.160  1.00  0.00     0.020 A 
ATOM     79  C   UNL A   1      44.811  26.908  37.308  1.00  0.00     0.020 A 
ATOM     80  C   UNL A   1      46.120  27.312  37.048  1.00  0.00     0.054 A 
BRANCH  80  81
ATOM     81  S   UNL A   1      47.512  26.514  37.896  1.00  0.00     0.124 S 
ATOM     82  O   UNL A   1      48.593  27.468  37.669  1.00  0.00    -0.237 OA
ATOM     83  O   UNL A   1      47.027  26.420  39.270  1.00  0.00    -0.237 OA
ATOM     84  O   UNL A   1      47.646  25.235  37.202  1.00  0.00    -0.744 OA
ENDBRANCH  80  81
ENDBRANCH  52  75
BRANCH  64  85
ATOM     85  C   UNL A   1      39.917  34.006  37.499  1.00  0.00    -0.014 A 
ATOM     86  C   UNL A   1      40.685  35.177  37.626  1.00  0.00     0.010 A 
ATOM     87  C   UNL A   1      39.006  33.673  38.519  1.00  0.00     0.010 A 
ATOM     88  C   UNL A   1      40.565  35.981  38.763  1.00  0.00     0.020 A 
ATOM     89  C   UNL A   1      38.862  34.489  39.644  1.00  0.00     0.020 A 
ATOM     90  C   UNL A   1      39.655  35.632  39.765  1.00  0.00     0.054 A 
BRANCH  90  91
ATOM     91  S   UNL A   1      39.485  36.718  41.209  1.00  0.00     0.124 S 
ATOM     92  O   UNL A   1      38.829  37.888  40.633  1.00  0.00    -0.237 OA
ATOM     93  O   UNL A   1      38.664  35.920  42.117  1.00  0.00    -0.237 OA
ATOM     94  O   UNL A   1      40.863  36.928  41.648  1.00  0.00    -0.744 OA
ENDBRANCH  90  91
ENDBRANCH  64  85
ENDBRANCH  38  39
ENDBRANCH  31  33
ENDBRANCH  30  31
ENDBRANCH  29  30
ENDBRANCH  28  29
ENDBRANCH  27  28
ENDBRANCH  26  27
ENDBRANCH   1  26
TORSDOF 23
ENDMDL
MODEL 2
REMARK VINA RESULT:      -9.7      6.434     11.746
REMARK SMILES Cc1cc(C(=O)Nc2ccn(C)n2)sc1/C=C/C(=O)OCCOCCOCCOC(=O)c1ccc(-c2c3nc(c(-c4ccc(S(=O)(=O)[O-])cc4)c4ccc([nH]4)c(-c4ccc(S(=O)(=O)[O-])cc4)c4nc(c(-c5ccc(S(=O)(=O)[O-])cc5)c5ccc2[nH]5)C=C4)C=C3)cc1
REMARK SMILES IDX 24 1 23 2 22 3 21 4 20 5 18 6 19 7 17 8 16 9 15 10 1 11 2 12
REMARK SMILES IDX 3 13 4 14 14 15 5 16 6 17 7 18 8 20 9 21 13 22 10 23 11 24
REMARK SMILES IDX 12 25 25 26 26 27 27 28 28 29 29 30 30 31 31 32 32 33 33 34
REMARK SMILES IDX 91 35 34 36 90 37 35 38 36 39 37 40 84 41 38 42 89 43 83 44
REMARK SMILES IDX 85 45 39 46 88 47 82 48 81 49 40 51 70 52 51 53 69 54 52 55
REMARK SMILES IDX 55 56 68 57 86 58 53 59 54 60 67 62 87 63 56 64 41 65 42 66
REMARK SMILES IDX 50 67 43 68 49 69 44 70 45 71 46 72 47 73 48 74 71 75 72 76
REMARK SMILES IDX 80 77 73 78 79 79 74 80 75 81 76 82 77 83 78 84 57 85 58 86
REMARK SMILES IDX 66 87 59 88 65 89 60 90 61 91 62 92 63 93 64 94
REMARK H PARENT 7 19 85 50 55 61
REMARK Flexibility Score: inf
ROOT
ATOM      1  C   UNL A   1      31.513  29.422  25.754  1.00  0.00     0.188 C 
ENDROOT
BRANCH   1   2
ATOM      2  O   UNL A   1      31.045  28.525  24.753  1.00  0.00    -0.376 OA
BRANCH   2   3
ATOM      3  C   UNL A   1      31.880  28.192  23.654  1.00  0.00     0.202 C 
BRANCH   3   4
ATOM      4  C   UNL A   1      31.300  28.078  22.235  1.00  0.00     0.261 C 
BRANCH   4   5
ATOM      5  O   UNL A   1      31.245  26.750  21.690  1.00  0.00    -0.460 OA
BRANCH   5   6
ATOM      6  C   UNL A   1      32.444  26.124  21.593  1.00  0.00     0.330 C 
ATOM      7  O   UNL A   1      33.424  26.529  20.986  1.00  0.00    -0.247 OA
BRANCH   6   8
ATOM      8  C   UNL A   1      32.519  24.905  22.421  1.00  0.00     0.095 C 
ATOM      9  C   UNL A   1      31.571  24.461  23.263  1.00  0.00     0.027 C 
BRANCH   9  10
ATOM     10  C   UNL A   1      31.719  23.273  24.062  1.00  0.00     0.031 A 
ATOM     11  C   UNL A   1      30.510  23.951  26.237  1.00  0.00     0.046 C 
ATOM     12  C   UNL A   1      31.330  23.040  25.380  1.00  0.00    -0.032 A 
ATOM     13  C   UNL A   1      31.808  21.767  25.861  1.00  0.00     0.029 A 
ATOM     14  C   UNL A   1      32.500  21.036  24.915  1.00  0.00     0.093 A 
ATOM     15  S   UNL A   1      32.402  21.829  23.412  1.00  0.00    -0.130 S 
BRANCH  14  16
ATOM     16  C   UNL A   1      33.040  19.683  25.080  1.00  0.00     0.266 C 
ATOM     17  O   UNL A   1      32.290  18.731  25.320  1.00  0.00    -0.268 OA
ATOM     18  N   UNL A   1      34.368  19.400  24.863  1.00  0.00    -0.304 N 
ATOM     19  H   UNL A   1      34.556  18.473  24.587  1.00  0.00     0.171 HD
BRANCH  18  20
ATOM     20  C   UNL A   1      35.469  20.207  24.970  1.00  0.00     0.154 A 
ATOM     21  C   UNL A   1      36.841  19.869  24.921  1.00  0.00     0.068 A 
ATOM     22  N   UNL A   1      35.298  21.521  25.121  1.00  0.00    -0.155 NA
ATOM     23  C   UNL A   1      37.507  21.041  25.195  1.00  0.00     0.110 A 
ATOM     24  N   UNL A   1      36.537  21.982  25.383  1.00  0.00    -0.274 N 
ATOM     25  C   UNL A   1      36.711  23.316  25.906  1.00  0.00     0.173 C 
ENDBRANCH  18  20
ENDBRANCH  14  16
ENDBRANCH   9  10
ENDBRANCH   6   8
ENDBRANCH   5   6
ENDBRANCH   4   5
ENDBRANCH   3   4
ENDBRANCH   2   3
ENDBRANCH   1   2
BRANCH   1  26
ATOM     26  C   UNL A   1      32.714  29.025  26.638  1.00  0.00     0.188 C 
BRANCH  26  27
ATOM     27  O   UNL A   1      33.966  29.431  26.135  1.00  0.00    -0.376 OA
BRANCH  27  28
ATOM     28  C   UNL A   1      35.010  29.777  27.029  1.00  0.00     0.202 C 
BRANCH  28  29
ATOM     29  C   UNL A   1      34.815  30.256  28.482  1.00  0.00     0.261 C 
BRANCH  29  30
ATOM     30  O   UNL A   1      35.898  30.921  29.131  1.00  0.00    -0.460 OA
BRANCH  30  31
ATOM     31  C   UNL A   1      36.480  30.271  30.158  1.00  0.00     0.338 C 
ATOM     32  O   UNL A   1      35.922  29.809  31.153  1.00  0.00    -0.246 OA
BRANCH  31  33
ATOM     33  C   UNL A   1      37.895  30.051  29.828  1.00  0.00     0.060 A 
ATOM     34  C   UNL A   1      38.273  29.986  28.482  1.00  0.00     0.016 A 
ATOM     35  C   UNL A   1      38.845  29.891  30.843  1.00  0.00     0.016 A 
ATOM     36  C   UNL A   1      39.603  29.739  28.145  1.00  0.00     0.010 A 
ATOM     37  C   UNL A   1      40.175  29.630  30.501  1.00  0.00     0.010 A 
ATOM     38  C   UNL A   1      40.555  29.529  29.151  1.00  0.00    -0.014 A 
BRANCH  38  39
ATOM     39  C   UNL A   1      41.913  29.050  28.796  1.00  0.00     0.031 A 
ATOM     40  C   UNL A   1      43.051  30.033  28.807  1.00  0.00     0.074 A 
ATOM     41  C   UNL A   1      42.134  27.762  28.479  1.00  0.00     0.049 A 
ATOM     42  N   UNL A   1      44.306  29.850  28.493  1.00  0.00    -0.248 NA
ATOM     43  C   UNL A   1      42.727  31.406  29.231  1.00  0.00     0.031 C 
ATOM     44  C   UNL A   1      41.123  26.705  28.467  1.00  0.00     0.029 A 
ATOM     45  N   UNL A   1      43.289  27.128  28.092  1.00  0.00    -0.354 N 
ATOM     46  C   UNL A   1      44.924  31.082  28.675  1.00  0.00     0.074 A 
ATOM     47  C   UNL A   1      43.899  32.010  29.101  1.00  0.00     0.031 C 
ATOM     48  C   UNL A   1      41.701  25.555  28.076  1.00  0.00     0.029 A 
ATOM     49  C   UNL A   1      43.111  25.801  27.778  1.00  0.00     0.049 A 
ATOM     50  H   UNL A   1      44.162  27.579  28.045  1.00  0.00     0.167 HD
ATOM     51  C   UNL A   1      46.226  31.411  28.507  1.00  0.00     0.031 A 
ATOM     52  C   UNL A   1      43.980  24.898  27.281  1.00  0.00     0.031 A 
ATOM     53  C   UNL A   1      47.239  30.495  28.057  1.00  0.00     0.049 A 
ATOM     54  C   UNL A   1      45.407  25.309  27.020  1.00  0.00     0.074 A 
ATOM     55  C   UNL A   1      48.588  30.732  27.862  1.00  0.00     0.029 A 
ATOM     56  N   UNL A   1      47.012  29.169  27.722  1.00  0.00    -0.354 N 
ATOM     57  N   UNL A   1      45.982  26.470  27.224  1.00  0.00    -0.248 NA
ATOM     58  C   UNL A   1      46.304  24.282  26.470  1.00  0.00     0.031 C 
ATOM     59  C   UNL A   1      49.166  29.564  27.354  1.00  0.00     0.029 A 
ATOM     60  C   UNL A   1      48.192  28.581  27.295  1.00  0.00     0.049 A 
ATOM     61  H   UNL A   1      46.142  28.713  27.778  1.00  0.00     0.167 HD
ATOM     62  C   UNL A   1      47.314  26.305  26.855  1.00  0.00     0.074 A 
ATOM     63  C   UNL A   1      47.462  24.929  26.427  1.00  0.00     0.031 C 
ATOM     64  C   UNL A   1      48.325  27.210  26.873  1.00  0.00     0.031 A 
BRANCH  51  65
ATOM     65  C   UNL A   1      46.618  32.840  28.778  1.00  0.00    -0.014 A 
ATOM     66  C   UNL A   1      46.802  33.757  27.727  1.00  0.00     0.010 A 
ATOM     67  C   UNL A   1      46.779  33.277  30.105  1.00  0.00     0.010 A 
ATOM     68  C   UNL A   1      47.180  35.075  27.997  1.00  0.00     0.020 A 
ATOM     69  C   UNL A   1      47.131  34.602  30.381  1.00  0.00     0.020 A 
ATOM     70  C   UNL A   1      47.347  35.487  29.323  1.00  0.00     0.054 A 
BRANCH  70  71
ATOM     71  S   UNL A   1      47.824  37.207  29.645  1.00  0.00     0.124 S 
ATOM     72  O   UNL A   1      47.533  37.844  28.363  1.00  0.00    -0.237 OA
ATOM     73  O   UNL A   1      46.945  37.583  30.748  1.00  0.00    -0.237 OA
ATOM     74  O   UNL A   1      49.243  37.115  29.986  1.00  0.00    -0.744 OA
ENDBRANCH  70  71
ENDBRANCH  51  65
BRANCH  52  75
ATOM     75  C   UNL A   1      43.521  23.516  26.974  1.00  0.00    -0.014 A 
ATOM     76  C   UNL A   1      43.301  22.586  28.006  1.00  0.00     0.010 A 
ATOM     77  C   UNL A   1      43.304  23.121  25.641  1.00  0.00     0.010 A 
ATOM     78  C   UNL A   1      42.885  21.285  27.708  1.00  0.00     0.020 A 
ATOM     79  C   UNL A   1      42.863  21.829  25.342  1.00  0.00     0.020 A 
ATOM     80  C   UNL A   1      42.666  20.916  26.379  1.00  0.00     0.054 A 
BRANCH  80  81
ATOM     81  S   UNL A   1      42.074  19.238  26.023  1.00  0.00     0.124 S 
ATOM     82  O   UNL A   1      42.793  18.917  24.794  1.00  0.00    -0.237 OA
ATOM     83  O   UNL A   1      42.492  18.501  27.213  1.00  0.00    -0.237 OA
ATOM     84  O   UNL A   1      40.630  19.409  25.879  1.00  0.00    -0.744 OA
ENDBRANCH  80  81
ENDBRANCH  52  75
BRANCH  64  85
ATOM     85  C   UNL A   1      49.694  26.737  26.457  1.00  0.00    -0.014 A 
ATOM     86  C   UNL A   1      50.524  26.026  27.341  1.00  0.00     0.010 A 
ATOM     87  C   UNL A   1      50.129  26.955  25.136  1.00  0.00     0.010 A 
ATOM     88  C   UNL A   1      51.777  25.568  26.921  1.00  0.00     0.020 A 
ATOM     89  C   UNL A   1      51.367  26.475  24.704  1.00  0.00     0.020 A 
ATOM     90  C   UNL A   1      52.190  25.796  25.605  1.00  0.00     0.054 A 
BRANCH  90  91
ATOM     91  S   UNL A   1      53.801  25.152  25.070  1.00  0.00     0.124 S 
ATOM     92  O   UNL A   1      54.021  25.883  23.826  1.00  0.00    -0.237 OA
ATOM     93  O   UNL A   1      54.678  25.519  26.179  1.00  0.00    -0.237 OA
ATOM     94  O   UNL A   1      53.567  23.717  24.918  1.00  0.00    -0.744 OA
ENDBRANCH  90  91
ENDBRANCH  64  85
ENDBRANCH  38  39
ENDBRANCH  31  33
ENDBRANCH  30  31
ENDBRANCH  29  30
ENDBRANCH  28  29
ENDBRANCH  27  28
ENDBRANCH  26  27
ENDBRANCH   1  26
TORSDOF 23
ENDMDL
MODEL 3
REMARK VINA RESULT:      -9.5      7.183     12.697
REMARK SMILES Cc1cc(C(=O)Nc2ccn(C)n2)sc1/C=C/C(=O)OCCOCCOCCOC(=O)c1ccc(-c2c3nc(c(-c4ccc(S(=O)(=O)[O-])cc4)c4ccc([nH]4)c(-c4ccc(S(=O)(=O)[O-])cc4)c4nc(c(-c5ccc(S(=O)(=O)[O-])cc5)c5ccc2[nH]5)C=C4)C=C3)cc1
REMARK SMILES IDX 24 1 23 2 22 3 21 4 20 5 18 6 19 7 17 8 16 9 15 10 1 11 2 12
REMARK SMILES IDX 3 13 4 14 14 15 5 16 6 17 7 18 8 20 9 21 13 22 10 23 11 24
REMARK SMILES IDX 12 25 25 26 26 27 27 28 28 29 29 30 30 31 31 32 32 33 33 34
REMARK SMILES IDX 91 35 34 36 90 37 35 38 36 39 37 40 84 41 38 42 89 43 83 44
REMARK SMILES IDX 85 45 39 46 88 47 82 48 81 49 40 51 70 52 51 53 69 54 52 55
REMARK SMILES IDX 55 56 68 57 86 58 53 59 54 60 67 62 87 63 56 64 41 65 42 66
REMARK SMILES IDX 50 67 43 68 49 69 44 70 45 71 46 72 47 73 48 74 71 75 72 76
REMARK SMILES IDX 80 77 73 78 79 79 74 80 75 81 76 82 77 83 78 84 57 85 58 86
REMARK SMILES IDX 66 87 59 88 65 89 60 90 61 91 62 92 63 93 64 94
REMARK H PARENT 7 19 85 50 55 61
REMARK Flexibility Score: inf
ROOT
ATOM      1  C   UNL A   1      31.862  28.604  27.129  1.00  0.00     0.188 C 
ENDROOT
BRANCH   1   2
ATOM      2  O   UNL A   1      31.109  27.758  26.268  1.00  0.00    -0.376 OA
BRANCH   2   3
ATOM      3  C   UNL A   1      31.683  27.286  25.058  1.00  0.00     0.202 C 
BRANCH   3   4
ATOM      4  C   UNL A   1      31.716  28.176  23.806  1.00  0.00     0.261 C 
BRANCH   4   5
ATOM      5  O   UNL A   1      31.792  27.481  22.550  1.00  0.00    -0.460 OA
BRANCH   5   6
ATOM      6  C   UNL A   1      33.006  26.947  22.268  1.00  0.00     0.330 C 
ATOM      7  O   UNL A   1      33.882  27.460  21.588  1.00  0.00    -0.247 OA
BRANCH   6   8
ATOM      8  C   UNL A   1      33.249  25.678  22.981  1.00  0.00     0.095 C 
ATOM      9  C   UNL A   1      34.398  25.312  23.574  1.00  0.00     0.027 C 
BRANCH   9  10
ATOM     10  C   UNL A   1      34.577  24.045  24.233  1.00  0.00     0.031 A 
ATOM     11  C   UNL A   1      36.625  23.092  22.987  1.00  0.00     0.046 C 
ATOM     12  C   UNL A   1      35.491  23.028  23.960  1.00  0.00    -0.032 A 
ATOM     13  C   UNL A   1      35.233  21.851  24.753  1.00  0.00     0.029 A 
ATOM     14  C   UNL A   1      34.180  21.993  25.636  1.00  0.00     0.093 A 
ATOM     15  S   UNL A   1      33.641  23.607  25.613  1.00  0.00    -0.130 S 
BRANCH  14  16
ATOM     16  C   UNL A   1      33.728  21.004  26.620  1.00  0.00     0.266 C 
ATOM     17  O   UNL A   1      33.877  21.206  27.830  1.00  0.00    -0.268 OA
ATOM     18  N   UNL A   1      33.024  19.882  26.251  1.00  0.00    -0.304 N 
ATOM     19  H   UNL A   1      32.424  19.521  26.943  1.00  0.00     0.171 HD
BRANCH  18  20
ATOM     20  C   UNL A   1      33.028  19.189  25.069  1.00  0.00     0.154 A 
ATOM     21  C   UNL A   1      32.226  19.369  23.918  1.00  0.00     0.068 A 
ATOM     22  N   UNL A   1      33.908  18.203  24.898  1.00  0.00    -0.155 NA
ATOM     23  C   UNL A   1      32.570  18.335  23.079  1.00  0.00     0.110 A 
ATOM     24  N   UNL A   1      33.525  17.622  23.745  1.00  0.00    -0.274 N 
ATOM     25  C   UNL A   1      34.049  16.326  23.384  1.00  0.00     0.173 C 
ENDBRANCH  18  20
ENDBRANCH  14  16
ENDBRANCH   9  10
ENDBRANCH   6   8
ENDBRANCH   5   6
ENDBRANCH   4   5
ENDBRANCH   3   4
ENDBRANCH   2   3
ENDBRANCH   1   2
BRANCH   1  26
ATOM     26  C   UNL A   1      33.399  28.660  26.997  1.00  0.00     0.188 C 
BRANCH  26  27
ATOM     27  O   UNL A   1      33.940  29.960  27.035  1.00  0.00    -0.376 OA
BRANCH  27  28
ATOM     28  C   UNL A   1      35.304  30.150  27.370  1.00  0.00     0.202 C 
BRANCH  28  29
ATOM     29  C   UNL A   1      35.817  30.834  28.654  1.00  0.00     0.261 C 
BRANCH  29  30
ATOM     30  O   UNL A   1      37.207  30.740  28.967  1.00  0.00    -0.460 OA
BRANCH  30  31
ATOM     31  C   UNL A   1      37.618  29.605  29.566  1.00  0.00     0.338 C 
ATOM     32  O   UNL A   1      36.941  28.851  30.264  1.00  0.00    -0.246 OA
BRANCH  31  33
ATOM     33  C   UNL A   1      38.986  29.311  29.119  1.00  0.00     0.060 A 
ATOM     34  C   UNL A   1      39.979  29.092  30.082  1.00  0.00     0.016 A 
ATOM     35  C   UNL A   1      39.295  29.271  27.756  1.00  0.00     0.016 A 
ATOM     36  C   UNL A   1      41.293  28.851  29.682  1.00  0.00     0.010 A 
ATOM     37  C   UNL A   1      40.616  29.043  27.359  1.00  0.00     0.010 A 
ATOM     38  C   UNL A   1      41.625  28.855  28.321  1.00  0.00    -0.014 A 
BRANCH  38  39
ATOM     39  C   UNL A   1      43.048  28.821  27.907  1.00  0.00     0.031 A 
ATOM     40  C   UNL A   1      43.598  27.550  27.321  1.00  0.00     0.074 A 
ATOM     41  C   UNL A   1      43.836  29.903  28.039  1.00  0.00     0.049 A 
ATOM     42  N   UNL A   1      44.816  27.278  26.931  1.00  0.00    -0.248 NA
ATOM     43  C   UNL A   1      42.646  26.440  27.153  1.00  0.00     0.031 C 
ATOM     44  C   UNL A   1      43.413  31.203  28.558  1.00  0.00     0.029 A 
ATOM     45  N   UNL A   1      45.169  30.071  27.755  1.00  0.00    -0.354 N 
ATOM     46  C   UNL A   1      44.780  25.965  26.474  1.00  0.00     0.074 A 
ATOM     47  C   UNL A   1      43.427  25.488  26.662  1.00  0.00     0.031 C 
ATOM     48  C   UNL A   1      44.472  32.032  28.570  1.00  0.00     0.029 A 
ATOM     49  C   UNL A   1      45.652  31.312  28.092  1.00  0.00     0.049 A 
ATOM     50  H   UNL A   1      45.726  29.369  27.348  1.00  0.00     0.167 HD
ATOM     51  C   UNL A   1      45.781  25.224  25.944  1.00  0.00     0.031 A 
ATOM     52  C   UNL A   1      46.907  31.803  28.048  1.00  0.00     0.031 A 
ATOM     53  C   UNL A   1      47.132  25.689  25.783  1.00  0.00     0.049 A 
ATOM     54  C   UNL A   1      48.025  30.931  27.532  1.00  0.00     0.074 A 
ATOM     55  C   UNL A   1      48.216  25.016  25.249  1.00  0.00     0.029 A 
ATOM     56  N   UNL A   1      47.587  26.942  26.164  1.00  0.00    -0.354 N 
ATOM     57  N   UNL A   1      47.970  29.701  27.078  1.00  0.00    -0.248 NA
ATOM     58  C   UNL A   1      49.372  31.518  27.516  1.00  0.00     0.031 C 
ATOM     59  C   UNL A   1      49.340  25.841  25.361  1.00  0.00     0.029 A 
ATOM     60  C   UNL A   1      48.943  27.053  25.902  1.00  0.00     0.049 A 
ATOM     61  H   UNL A   1      47.030  27.649  26.562  1.00  0.00     0.167 HD
ATOM     62  C   UNL A   1      49.269  29.379  26.696  1.00  0.00     0.074 A 
ATOM     63  C   UNL A   1      50.084  30.546  26.959  1.00  0.00     0.031 C 
ATOM     64  C   UNL A   1      49.742  28.221  26.169  1.00  0.00     0.031 A 
BRANCH  51  65
ATOM     65  C   UNL A   1      45.454  23.813  25.533  1.00  0.00    -0.014 A 
ATOM     66  C   UNL A   1      45.055  23.510  24.219  1.00  0.00     0.010 A 
ATOM     67  C   UNL A   1      45.572  22.770  26.471  1.00  0.00     0.010 A 
ATOM     68  C   UNL A   1      44.741  22.197  23.860  1.00  0.00     0.020 A 
ATOM     69  C   UNL A   1      45.285  21.451  26.109  1.00  0.00     0.020 A 
ATOM     70  C   UNL A   1      44.854  21.176  24.810  1.00  0.00     0.054 A 
BRANCH  70  71
ATOM     71  S   UNL A   1      44.453  19.479  24.313  1.00  0.00     0.124 S 
ATOM     72  O   UNL A   1      44.517  19.569  22.856  1.00  0.00    -0.237 OA
ATOM     73  O   UNL A   1      45.517  18.700  24.942  1.00  0.00    -0.237 OA
ATOM     74  O   UNL A   1      43.117  19.261  24.864  1.00  0.00    -0.744 OA
ENDBRANCH  70  71
ENDBRANCH  51  65
BRANCH  52  75
ATOM     75  C   UNL A   1      47.184  33.185  28.525  1.00  0.00    -0.014 A 
ATOM     76  C   UNL A   1      47.518  33.428  29.868  1.00  0.00     0.010 A 
ATOM     77  C   UNL A   1      47.110  34.270  27.632  1.00  0.00     0.010 A 
ATOM     78  C   UNL A   1      47.761  34.732  30.312  1.00  0.00     0.020 A 
ATOM     79  C   UNL A   1      47.378  35.571  28.066  1.00  0.00     0.020 A 
ATOM     80  C   UNL A   1      47.693  35.794  29.407  1.00  0.00     0.054 A 
BRANCH  80  81
ATOM     81  S   UNL A   1      48.065  37.470  29.996  1.00  0.00     0.124 S 
ATOM     82  O   UNL A   1      47.269  38.293  29.092  1.00  0.00    -0.237 OA
ATOM     83  O   UNL A   1      47.605  37.422  31.381  1.00  0.00    -0.237 OA
ATOM     84  O   UNL A   1      49.513  37.575  29.831  1.00  0.00    -0.744 OA
ENDBRANCH  80  81
ENDBRANCH  52  75
BRANCH  64  85
ATOM     85  C   UNL A   1      51.203  28.168  25.800  1.00  0.00    -0.014 A 
ATOM     86  C   UNL A   1      51.665  28.643  24.561  1.00  0.00     0.010 A 
ATOM     87  C   UNL A   1      52.135  27.689  26.740  1.00  0.00     0.010 A 
ATOM     88  C   UNL A   1      53.029  28.613  24.256  1.00  0.00     0.020 A 
ATOM     89  C   UNL A   1      53.502  27.684  26.451  1.00  0.00     0.020 A 
ATOM     90  C   UNL A   1      53.939  28.133  25.204  1.00  0.00     0.054 A 
BRANCH  90  91
ATOM     91  S   UNL A   1      55.709  28.148  24.802  1.00  0.00     0.124 S 
ATOM     92  O   UNL A   1      55.705  28.664  23.436  1.00  0.00    -0.237 OA
ATOM     93  O   UNL A   1      56.261  29.047  25.813  1.00  0.00    -0.237 OA
ATOM     94  O   UNL A   1      56.107  26.748  24.938  1.00  0.00    -0.744 OA
ENDBRANCH  90  91
ENDBRANCH  64  85
ENDBRANCH  38  39
ENDBRANCH  31  33
ENDBRANCH  30  31
ENDBRANCH  29  30
ENDBRANCH  28  29
ENDBRANCH  27  28
ENDBRANCH  26  27
ENDBRANCH   1  26
TORSDOF 23
ENDMDL
