MODEL 1
REMARK VINA RESULT:      -9.7      0.000      0.000
REMARK SMILES NC(=O)c1c(F)cccc1N1CCC[C@H](CC(=O)OCCOCCOCCOC(=O)c2ccc(-c3c4nc(c(-c5ccc(S(=O)(=O)[O-])cc5)c5ccc([nH]5)c(-c5ccc(S(=O)(=O)[O-])cc5)c5nc(c(-c6ccc(S(=O)(=O)[O-])cc6)c6ccc3[nH]6)C=C5)C=C4)cc2)C1
REMARK SMILES IDX 23 1 22 2 21 3 20 4 19 5 17 6 18 7 16 8 15 9 11 10 12 11
REMARK SMILES IDX 91 12 13 13 14 14 10 15 4 16 5 17 6 18 7 19 9 20 8 21 2 22
REMARK SMILES IDX 1 23 3 26 24 27 25 28 26 29 27 30 28 31 29 32 30 33 31 34
REMARK SMILES IDX 32 35 90 36 33 37 89 38 34 39 35 40 36 41 83 42 37 43 88 44
REMARK SMILES IDX 82 45 84 46 38 47 87 48 81 49 80 50 39 52 69 53 50 54 68 55
REMARK SMILES IDX 51 56 54 57 67 58 85 59 52 60 53 61 66 63 86 64 55 65 40 66
REMARK SMILES IDX 41 67 49 68 42 69 48 70 43 71 44 72 45 73 46 74 47 75 70 76
REMARK SMILES IDX 71 77 79 78 72 79 78 80 73 81 74 82 75 83 76 84 77 85 56 86
REMARK SMILES IDX 57 87 65 88 58 89 64 90 59 91 60 92 61 93 62 94 63 95
REMARK H PARENT 1 24 1 25 84 51 54 62
REMARK Flexibility Score: inf
ROOT
ATOM      1  C   UNL A   1      34.599  33.240  28.136  1.00  0.00     0.188 C 
ENDROOT
BRANCH   1   2
ATOM      2  O   UNL A   1      33.691  32.152  27.990  1.00  0.00    -0.376 OA
BRANCH   2   3
ATOM      3  C   UNL A   1      34.253  30.891  27.628  1.00  0.00     0.202 C 
BRANCH   3   4
ATOM      4  C   UNL A   1      33.325  29.927  26.875  1.00  0.00     0.261 C 
BRANCH   4   5
ATOM      5  O   UNL A   1      33.919  28.634  26.660  1.00  0.00    -0.463 OA
BRANCH   5   6
ATOM      6  C   UNL A   1      33.650  28.064  25.460  1.00  0.00     0.306 C 
ATOM      7  O   UNL A   1      33.544  28.678  24.403  1.00  0.00    -0.252 OA
BRANCH   6   8
ATOM      8  C   UNL A   1      33.622  26.553  25.496  1.00  0.00     0.128 C 
BRANCH   8   9
ATOM      9  C   UNL A   1      32.330  25.795  25.869  1.00  0.00     0.019 C 
ATOM     10  N   UNL A   1      33.041  23.758  24.734  1.00  0.00    -0.371 N 
ATOM     11  C   UNL A   1      32.051  23.824  23.667  1.00  0.00     0.116 C 
ATOM     12  C   UNL A   1      32.674  24.294  26.045  1.00  0.00     0.120 C 
ATOM     13  C   UNL A   1      31.564  25.266  23.502  1.00  0.00     0.022 C 
ATOM     14  C   UNL A   1      31.190  25.902  24.842  1.00  0.00     0.008 C 
BRANCH  10  15
ATOM     15  C   UNL A   1      34.218  23.050  24.560  1.00  0.00     0.053 A 
ATOM     16  C   UNL A   1      34.347  21.654  24.710  1.00  0.00     0.098 A 
ATOM     17  C   UNL A   1      35.615  21.061  24.640  1.00  0.00     0.138 A 
ATOM     18  F   UNL A   1      35.764  19.732  24.771  1.00  0.00    -0.206 F 
ATOM     19  C   UNL A   1      36.763  21.820  24.430  1.00  0.00     0.040 A 
ATOM     20  C   UNL A   1      35.391  23.790  24.304  1.00  0.00     0.027 A 
ATOM     21  C   UNL A   1      36.652  23.191  24.255  1.00  0.00     0.005 A 
BRANCH  16  22
ATOM     22  C   UNL A   1      33.161  20.779  24.872  1.00  0.00     0.253 C 
ATOM     23  N   UNL A   1      32.642  20.672  26.134  1.00  0.00    -0.365 N 
ATOM     24  H   UNL A   1      31.855  20.103  26.296  1.00  0.00     0.159 HD
ATOM     25  H   UNL A   1      33.055  21.163  26.880  1.00  0.00     0.159 HD
ATOM     26  O   UNL A   1      32.657  20.167  23.938  1.00  0.00    -0.269 OA
ENDBRANCH  16  22
ENDBRANCH  10  15
ENDBRANCH   8   9
ENDBRANCH   6   8
ENDBRANCH   5   6
ENDBRANCH   4   5
ENDBRANCH   3   4
ENDBRANCH   2   3
ENDBRANCH   1   2
BRANCH   1  27
ATOM     27  C   UNL A   1      34.242  34.279  29.199  1.00  0.00     0.188 C 
BRANCH  27  28
ATOM     28  O   UNL A   1      34.497  33.900  30.548  1.00  0.00    -0.376 OA
BRANCH  28  29
ATOM     29  C   UNL A   1      35.685  33.134  30.770  1.00  0.00     0.202 C 
BRANCH  29  30
ATOM     30  C   UNL A   1      35.540  31.887  31.669  1.00  0.00     0.261 C 
BRANCH  30  31
ATOM     31  O   UNL A   1      36.727  31.072  31.789  1.00  0.00    -0.460 OA
BRANCH  31  32
ATOM     32  C   UNL A   1      36.847  30.008  30.961  1.00  0.00     0.338 C 
ATOM     33  O   UNL A   1      35.932  29.345  30.501  1.00  0.00    -0.246 OA
BRANCH  32  34
ATOM     34  C   UNL A   1      38.255  29.941  30.477  1.00  0.00     0.060 A 
ATOM     35  C   UNL A   1      38.481  30.016  29.094  1.00  0.00     0.016 A 
ATOM     36  C   UNL A   1      39.343  29.886  31.354  1.00  0.00     0.016 A 
ATOM     37  C   UNL A   1      39.784  29.984  28.587  1.00  0.00     0.010 A 
ATOM     38  C   UNL A   1      40.647  29.844  30.845  1.00  0.00     0.010 A 
ATOM     39  C   UNL A   1      40.875  29.855  29.457  1.00  0.00    -0.014 A 
BRANCH  39  40
ATOM     40  C   UNL A   1      42.218  29.514  28.918  1.00  0.00     0.031 A 
ATOM     41  C   UNL A   1      42.464  28.096  28.473  1.00  0.00     0.074 A 
ATOM     42  C   UNL A   1      43.198  30.429  28.792  1.00  0.00     0.049 A 
ATOM     43  N   UNL A   1      43.551  27.553  27.988  1.00  0.00    -0.248 NA
ATOM     44  C   UNL A   1      41.328  27.167  28.590  1.00  0.00     0.031 C 
ATOM     45  C   UNL A   1      43.089  31.846  29.136  1.00  0.00     0.029 A 
ATOM     46  N   UNL A   1      44.488  30.292  28.336  1.00  0.00    -0.354 N 
ATOM     47  C   UNL A   1      43.232  26.220  27.750  1.00  0.00     0.074 A 
ATOM     48  C   UNL A   1      41.862  26.031  28.171  1.00  0.00     0.031 C 
ATOM     49  C   UNL A   1      44.268  32.447  28.885  1.00  0.00     0.029 A 
ATOM     50  C   UNL A   1      45.224  31.453  28.393  1.00  0.00     0.049 A 
ATOM     51  H   UNL A   1      44.852  29.442  28.001  1.00  0.00     0.167 HD
ATOM     52  C   UNL A   1      44.004  25.241  27.224  1.00  0.00     0.031 A 
ATOM     53  C   UNL A   1      46.520  31.686  28.101  1.00  0.00     0.031 A 
ATOM     54  C   UNL A   1      45.374  25.414  26.821  1.00  0.00     0.049 A 
ATOM     55  C   UNL A   1      47.388  30.558  27.597  1.00  0.00     0.074 A 
ATOM     56  C   UNL A   1      46.230  24.477  26.268  1.00  0.00     0.029 A 
ATOM     57  N   UNL A   1      46.091  26.593  26.938  1.00  0.00    -0.354 N 
ATOM     58  N   UNL A   1      47.063  29.310  27.351  1.00  0.00    -0.248 NA
ATOM     59  C   UNL A   1      48.800  30.873  27.322  1.00  0.00     0.031 C 
ATOM     60  C   UNL A   1      47.485  25.075  26.107  1.00  0.00     0.029 A 
ATOM     61  C   UNL A   1      47.390  26.401  26.496  1.00  0.00     0.049 A 
ATOM     62  H   UNL A   1      45.732  27.441  27.285  1.00  0.00     0.167 HD
ATOM     63  C   UNL A   1      48.220  28.704  26.867  1.00  0.00     0.074 A 
ATOM     64  C   UNL A   1      49.249  29.722  26.842  1.00  0.00     0.031 C 
ATOM     65  C   UNL A   1      48.411  27.418  26.473  1.00  0.00     0.031 A 
BRANCH  52  66
ATOM     66  C   UNL A   1      43.388  23.874  27.094  1.00  0.00    -0.014 A 
ATOM     67  C   UNL A   1      43.206  23.044  28.215  1.00  0.00     0.010 A 
ATOM     68  C   UNL A   1      42.964  23.421  25.830  1.00  0.00     0.010 A 
ATOM     69  C   UNL A   1      42.652  21.770  28.069  1.00  0.00     0.020 A 
ATOM     70  C   UNL A   1      42.382  22.160  25.685  1.00  0.00     0.020 A 
ATOM     71  C   UNL A   1      42.246  21.335  26.802  1.00  0.00     0.054 A 
BRANCH  71  72
ATOM     72  S   UNL A   1      41.519  19.682  26.644  1.00  0.00     0.124 S 
ATOM     73  O   UNL A   1      42.089  19.223  25.379  1.00  0.00    -0.237 OA
ATOM     74  O   UNL A   1      42.009  19.000  27.838  1.00  0.00    -0.237 OA
ATOM     75  O   UNL A   1      40.080  19.937  26.620  1.00  0.00    -0.744 OA
ENDBRANCH  71  72
ENDBRANCH  52  66
BRANCH  53  76
ATOM     76  C   UNL A   1      47.098  33.046  28.296  1.00  0.00    -0.014 A 
ATOM     77  C   UNL A   1      47.682  33.413  29.521  1.00  0.00     0.010 A 
ATOM     78  C   UNL A   1      47.050  33.991  27.254  1.00  0.00     0.010 A 
ATOM     79  C   UNL A   1      48.195  34.702  29.705  1.00  0.00     0.020 A 
ATOM     80  C   UNL A   1      47.588  35.270  27.424  1.00  0.00     0.020 A 
ATOM     81  C   UNL A   1      48.149  35.621  28.653  1.00  0.00     0.054 A 
BRANCH  81  82
ATOM     82  S   UNL A   1      48.872  37.268  28.897  1.00  0.00     0.124 S 
ATOM     83  O   UNL A   1      47.688  38.123  28.901  1.00  0.00    -0.237 OA
ATOM     84  O   UNL A   1      49.553  37.124  30.180  1.00  0.00    -0.237 OA
ATOM     85  O   UNL A   1      49.756  37.427  27.744  1.00  0.00    -0.744 OA
ENDBRANCH  81  82
ENDBRANCH  53  76
BRANCH  65  86
ATOM     86  C   UNL A   1      49.770  27.037  25.941  1.00  0.00    -0.014 A 
ATOM     87  C   UNL A   1      50.097  27.191  24.583  1.00  0.00     0.010 A 
ATOM     88  C   UNL A   1      50.757  26.576  26.832  1.00  0.00     0.010 A 
ATOM     89  C   UNL A   1      51.375  26.862  24.120  1.00  0.00     0.020 A 
ATOM     90  C   UNL A   1      52.045  26.273  26.379  1.00  0.00     0.020 A 
ATOM     91  C   UNL A   1      52.341  26.405  25.022  1.00  0.00     0.054 A 
BRANCH  91  92
ATOM     92  S   UNL A   1      54.005  26.025  24.405  1.00  0.00     0.124 S 
ATOM     93  O   UNL A   1      54.136  24.608  24.735  1.00  0.00    -0.237 OA
ATOM     94  O   UNL A   1      53.896  26.330  22.981  1.00  0.00    -0.237 OA
ATOM     95  O   UNL A   1      54.871  26.924  25.164  1.00  0.00    -0.744 OA
ENDBRANCH  91  92
ENDBRANCH  65  86
ENDBRANCH  39  40
ENDBRANCH  32  34
ENDBRANCH  31  32
ENDBRANCH  30  31
ENDBRANCH  29  30
ENDBRANCH  28  29
ENDBRANCH  27  28
ENDBRANCH   1  27
TORSDOF 23
ENDMDL
MODEL 2
REMARK VINA RESULT:      -9.5      5.481     10.940
REMARK SMILES NC(=O)c1c(F)cccc1N1CCC[C@H](CC(=O)OCCOCCOCCOC(=O)c2ccc(-c3c4nc(c(-c5ccc(S(=O)(=O)[O-])cc5)c5ccc([nH]5)c(-c5ccc(S(=O)(=O)[O-])cc5)c5nc(c(-c6ccc(S(=O)(=O)[O-])cc6)c6ccc3[nH]6)C=C5)C=C4)cc2)C1
REMARK SMILES IDX 23 1 22 2 21 3 20 4 19 5 17 6 18 7 16 8 15 9 11 10 12 11
REMARK SMILES IDX 91 12 13 13 14 14 10 15 4 16 5 17 6 18 7 19 9 20 8 21 2 22
REMARK SMILES IDX 1 23 3 26 24 27 25 28 26 29 27 30 28 31 29 32 30 33 31 34
REMARK SMILES IDX 32 35 90 36 33 37 89 38 34 39 35 40 36 41 83 42 37 43 88 44
REMARK SMILES IDX 82 45 84 46 38 47 87 48 81 49 80 50 39 52 69 53 50 54 68 55
REMARK SMILES IDX 51 56 54 57 67 58 85 59 52 60 53 61 66 63 86 64 55 65 40 66
REMARK SMILES IDX 41 67 49 68 42 69 48 70 43 71 44 72 45 73 46 74 47 75 70 76
REMARK SMILES IDX 71 77 79 78 72 79 78 80 73 81 74 82 75 83 76 84 77 85 56 86
REMARK SMILES IDX 57 87 65 88 58 89 64 90 59 91 60 92 61 93 62 94 63 95
REMARK H PARENT 1 24 1 25 84 51 54 62
REMARK Flexibility Score: inf
ROOT
ATOM      1  C   UNL A   1      40.584  19.626  26.038  1.00  0.00     0.188 C 
ENDROOT
BRANCH   1   2
ATOM      2  O   UNL A   1      39.975  20.642  26.829  1.00  0.00    -0.376 OA
BRANCH   2   3
ATOM      3  C   UNL A   1      39.594  21.840  26.152  1.00  0.00     0.202 C 
BRANCH   3   4
ATOM      4  C   UNL A   1      38.120  21.941  25.735  1.00  0.00     0.261 C 
BRANCH   4   5
ATOM      5  O   UNL A   1      37.766  23.250  25.249  1.00  0.00    -0.463 OA
BRANCH   5   6
ATOM      6  C   UNL A   1      36.775  23.277  24.324  1.00  0.00     0.306 C 
ATOM      7  O   UNL A   1      36.894  22.902  23.162  1.00  0.00    -0.252 OA
BRANCH   6   8
ATOM      8  C   UNL A   1      35.433  23.689  24.883  1.00  0.00     0.128 C 
BRANCH   8   9
ATOM      9  C   UNL A   1      34.192  22.789  24.707  1.00  0.00     0.019 C 
ATOM     10  N   UNL A   1      32.679  24.473  25.611  1.00  0.00    -0.371 N 
ATOM     11  C   UNL A   1      32.360  23.750  26.836  1.00  0.00     0.116 C 
ATOM     12  C   UNL A   1      32.967  23.691  24.409  1.00  0.00     0.120 C 
ATOM     13  C   UNL A   1      33.470  22.743  27.145  1.00  0.00     0.022 C 
ATOM     14  C   UNL A   1      33.846  21.908  25.919  1.00  0.00     0.008 C 
BRANCH  10  15
ATOM     15  C   UNL A   1      32.534  25.848  25.548  1.00  0.00     0.053 A 
ATOM     16  C   UNL A   1      31.343  26.517  25.198  1.00  0.00     0.098 A 
ATOM     17  C   UNL A   1      31.349  27.909  25.036  1.00  0.00     0.138 A 
ATOM     18  F   UNL A   1      30.225  28.571  24.712  1.00  0.00    -0.206 F 
ATOM     19  C   UNL A   1      32.511  28.657  25.207  1.00  0.00     0.040 A 
ATOM     20  C   UNL A   1      33.686  26.634  25.758  1.00  0.00     0.027 A 
ATOM     21  C   UNL A   1      33.685  28.019  25.576  1.00  0.00     0.005 A 
BRANCH  16  22
ATOM     22  C   UNL A   1      30.057  25.790  25.063  1.00  0.00     0.253 C 
ATOM     23  N   UNL A   1      29.751  25.305  23.821  1.00  0.00    -0.365 N 
ATOM     24  H   UNL A   1      28.909  24.816  23.678  1.00  0.00     0.159 HD
ATOM     25  H   UNL A   1      30.372  25.445  23.071  1.00  0.00     0.159 HD
ATOM     26  O   UNL A   1      29.288  25.627  26.003  1.00  0.00    -0.269 OA
ENDBRANCH  16  22
ENDBRANCH  10  15
ENDBRANCH   8   9
ENDBRANCH   6   8
ENDBRANCH   5   6
ENDBRANCH   4   5
ENDBRANCH   3   4
ENDBRANCH   2   3
ENDBRANCH   1   2
BRANCH   1  27
ATOM     27  C   UNL A   1      42.077  19.391  26.273  1.00  0.00     0.188 C 
BRANCH  27  28
ATOM     28  O   UNL A   1      42.877  19.259  25.103  1.00  0.00    -0.376 OA
BRANCH  28  29
ATOM     29  C   UNL A   1      44.292  19.336  25.300  1.00  0.00     0.202 C 
BRANCH  29  30
ATOM     30  C   UNL A   1      44.955  20.698  25.000  1.00  0.00     0.261 C 
BRANCH  30  31
ATOM     31  O   UNL A   1      44.497  21.799  25.814  1.00  0.00    -0.460 OA
BRANCH  31  32
ATOM     32  C   UNL A   1      43.705  22.728  25.229  1.00  0.00     0.338 C 
ATOM     33  O   UNL A   1      43.192  22.648  24.126  1.00  0.00    -0.246 OA
BRANCH  32  34
ATOM     34  C   UNL A   1      43.328  23.743  26.254  1.00  0.00     0.060 A 
ATOM     35  C   UNL A   1      43.622  25.089  25.989  1.00  0.00     0.016 A 
ATOM     36  C   UNL A   1      42.631  23.403  27.418  1.00  0.00     0.016 A 
ATOM     37  C   UNL A   1      43.268  26.085  26.905  1.00  0.00     0.010 A 
ATOM     38  C   UNL A   1      42.285  24.400  28.339  1.00  0.00     0.010 A 
ATOM     39  C   UNL A   1      42.634  25.743  28.106  1.00  0.00    -0.014 A 
BRANCH  39  40
ATOM     40  C   UNL A   1      42.534  26.741  29.204  1.00  0.00     0.031 A 
ATOM     41  C   UNL A   1      43.579  26.708  30.289  1.00  0.00     0.074 A 
ATOM     42  C   UNL A   1      41.567  27.678  29.241  1.00  0.00     0.049 A 
ATOM     43  N   UNL A   1      43.696  27.458  31.354  1.00  0.00    -0.248 NA
ATOM     44  C   UNL A   1      44.635  25.691  30.150  1.00  0.00     0.031 C 
ATOM     45  C   UNL A   1      40.520  27.860  28.238  1.00  0.00     0.029 A 
ATOM     46  N   UNL A   1      41.314  28.657  30.173  1.00  0.00    -0.354 N 
ATOM     47  C   UNL A   1      44.830  27.000  32.015  1.00  0.00     0.074 A 
ATOM     48  C   UNL A   1      45.349  25.890  31.247  1.00  0.00     0.031 C 
ATOM     49  C   UNL A   1      39.732  28.886  28.612  1.00  0.00     0.029 A 
ATOM     50  C   UNL A   1      40.199  29.413  29.896  1.00  0.00     0.049 A 
ATOM     51  H   UNL A   1      41.879  28.803  30.965  1.00  0.00     0.167 HD
ATOM     52  C   UNL A   1      45.398  27.462  33.154  1.00  0.00     0.031 A 
ATOM     53  C   UNL A   1      39.610  30.399  30.603  1.00  0.00     0.031 A 
ATOM     54  C   UNL A   1      44.879  28.552  33.935  1.00  0.00     0.049 A 
ATOM     55  C   UNL A   1      40.211  30.842  31.915  1.00  0.00     0.074 A 
ATOM     56  C   UNL A   1      45.396  29.094  35.100  1.00  0.00     0.029 A 
ATOM     57  N   UNL A   1      43.723  29.258  33.643  1.00  0.00    -0.354 N 
ATOM     58  N   UNL A   1      41.300  30.417  32.512  1.00  0.00    -0.248 NA
ATOM     59  C   UNL A   1      39.504  31.906  32.648  1.00  0.00     0.031 C 
ATOM     60  C   UNL A   1      44.518  30.088  35.545  1.00  0.00     0.029 A 
ATOM     61  C   UNL A   1      43.492  30.210  34.622  1.00  0.00     0.049 A 
ATOM     62  H   UNL A   1      43.151  29.104  32.857  1.00  0.00     0.167 HD
ATOM     63  C   UNL A   1      41.422  31.180  33.670  1.00  0.00     0.074 A 
ATOM     64  C   UNL A   1      40.305  32.101  33.686  1.00  0.00     0.031 C 
ATOM     65  C   UNL A   1      42.378  31.126  34.633  1.00  0.00     0.031 A 
BRANCH  52  66
ATOM     66  C   UNL A   1      46.630  26.752  33.646  1.00  0.00    -0.014 A 
ATOM     67  C   UNL A   1      47.917  27.157  33.244  1.00  0.00     0.010 A 
ATOM     68  C   UNL A   1      46.500  25.676  34.543  1.00  0.00     0.010 A 
ATOM     69  C   UNL A   1      49.046  26.470  33.695  1.00  0.00     0.020 A 
ATOM     70  C   UNL A   1      47.629  25.007  35.020  1.00  0.00     0.020 A 
ATOM     71  C   UNL A   1      48.894  25.396  34.578  1.00  0.00     0.054 A 
BRANCH  71  72
ATOM     72  S   UNL A   1      50.378  24.531  35.158  1.00  0.00     0.124 S 
ATOM     73  O   UNL A   1      50.988  25.533  36.030  1.00  0.00    -0.237 OA
ATOM     74  O   UNL A   1      49.825  23.362  35.835  1.00  0.00    -0.237 OA
ATOM     75  O   UNL A   1      51.116  24.246  33.929  1.00  0.00    -0.744 OA
ENDBRANCH  71  72
ENDBRANCH  52  66
BRANCH  53  76
ATOM     76  C   UNL A   1      38.359  31.037  30.098  1.00  0.00    -0.014 A 
ATOM     77  C   UNL A   1      38.407  32.039  29.115  1.00  0.00     0.010 A 
ATOM     78  C   UNL A   1      37.110  30.651  30.618  1.00  0.00     0.010 A 
ATOM     79  C   UNL A   1      37.231  32.653  28.670  1.00  0.00     0.020 A 
ATOM     80  C   UNL A   1      35.930  31.240  30.155  1.00  0.00     0.020 A 
ATOM     81  C   UNL A   1      35.999  32.246  29.190  1.00  0.00     0.054 A 
BRANCH  81  82
ATOM     82  S   UNL A   1      34.483  33.016  28.555  1.00  0.00     0.124 S 
ATOM     83  O   UNL A   1      33.847  33.491  29.781  1.00  0.00    -0.237 OA
ATOM     84  O   UNL A   1      35.005  34.054  27.670  1.00  0.00    -0.237 OA
ATOM     85  O   UNL A   1      33.798  31.916  27.879  1.00  0.00    -0.744 OA
ENDBRANCH  81  82
ENDBRANCH  53  76
BRANCH  65  86
ATOM     86  C   UNL A   1      42.293  32.112  35.770  1.00  0.00    -0.014 A 
ATOM     87  C   UNL A   1      42.890  33.382  35.688  1.00  0.00     0.010 A 
ATOM     88  C   UNL A   1      41.545  31.783  36.916  1.00  0.00     0.010 A 
ATOM     89  C   UNL A   1      42.766  34.293  36.743  1.00  0.00     0.020 A 
ATOM     90  C   UNL A   1      41.395  32.700  37.961  1.00  0.00     0.020 A 
ATOM     91  C   UNL A   1      42.020  33.945  37.873  1.00  0.00     0.054 A 
BRANCH  91  92
ATOM     92  S   UNL A   1      41.839  35.159  39.210  1.00  0.00     0.124 S 
ATOM     93  O   UNL A   1      40.580  34.749  39.826  1.00  0.00    -0.237 OA
ATOM     94  O   UNL A   1      43.036  34.928  40.016  1.00  0.00    -0.237 OA
ATOM     95  O   UNL A   1      41.803  36.441  38.512  1.00  0.00    -0.744 OA
ENDBRANCH  91  92
ENDBRANCH  65  86
ENDBRANCH  39  40
ENDBRANCH  32  34
ENDBRANCH  31  32
ENDBRANCH  30  31
ENDBRANCH  29  30
ENDBRANCH  28  29
ENDBRANCH  27  28
ENDBRANCH   1  27
TORSDOF 23
ENDMDL
MODEL 3
REMARK VINA RESULT:      -9.3      1.118      8.041
REMARK SMILES NC(=O)c1c(F)cccc1N1CCC[C@H](CC(=O)OCCOCCOCCOC(=O)c2ccc(-c3c4nc(c(-c5ccc(S(=O)(=O)[O-])cc5)c5ccc([nH]5)c(-c5ccc(S(=O)(=O)[O-])cc5)c5nc(c(-c6ccc(S(=O)(=O)[O-])cc6)c6ccc3[nH]6)C=C5)C=C4)cc2)C1
REMARK SMILES IDX 23 1 22 2 21 3 20 4 19 5 17 6 18 7 16 8 15 9 11 10 12 11
REMARK SMILES IDX 91 12 13 13 14 14 10 15 4 16 5 17 6 18 7 19 9 20 8 21 2 22
REMARK SMILES IDX 1 23 3 26 24 27 25 28 26 29 27 30 28 31 29 32 30 33 31 34
REMARK SMILES IDX 32 35 90 36 33 37 89 38 34 39 35 40 36 41 83 42 37 43 88 44
REMARK SMILES IDX 82 45 84 46 38 47 87 48 81 49 80 50 39 52 69 53 50 54 68 55
REMARK SMILES IDX 51 56 54 57 67 58 85 59 52 60 53 61 66 63 86 64 55 65 40 66
REMARK SMILES IDX 41 67 49 68 42 69 48 70 43 71 44 72 45 73 46 74 47 75 70 76
REMARK SMILES IDX 71 77 79 78 72 79 78 80 73 81 74 82 75 83 76 84 77 85 56 86
REMARK SMILES IDX 57 87 65 88 58 89 64 90 59 91 60 92 61 93 62 94 63 95
REMARK H PARENT 1 24 1 25 84 51 54 62
REMARK Flexibility Score: inf
ROOT
ATOM      1  C   UNL A   1      32.602  32.913  27.799  1.00  0.00     0.188 C 
ENDROOT
BRANCH   1   2
ATOM      2  O   UNL A   1      32.890  32.024  26.724  1.00  0.00    -0.376 OA
BRANCH   2   3
ATOM      3  C   UNL A   1      32.934  30.632  27.037  1.00  0.00     0.202 C 
BRANCH   3   4
ATOM      4  C   UNL A   1      32.461  29.675  25.934  1.00  0.00     0.261 C 
BRANCH   4   5
ATOM      5  O   UNL A   1      32.952  28.333  26.111  1.00  0.00    -0.463 OA
BRANCH   5   6
ATOM      6  C   UNL A   1      32.409  27.404  25.286  1.00  0.00     0.306 C 
ATOM      7  O   UNL A   1      31.776  27.659  24.267  1.00  0.00    -0.252 OA
BRANCH   6   8
ATOM      8  C   UNL A   1      32.767  25.982  25.653  1.00  0.00     0.128 C 
BRANCH   8   9
ATOM      9  C   UNL A   1      31.680  24.985  26.106  1.00  0.00     0.019 C 
ATOM     10  N   UNL A   1      32.665  23.140  24.853  1.00  0.00    -0.371 N 
ATOM     11  C   UNL A   1      31.593  23.030  23.873  1.00  0.00     0.116 C 
ATOM     12  C   UNL A   1      32.316  23.575  26.206  1.00  0.00     0.120 C 
ATOM     13  C   UNL A   1      30.828  24.354  23.793  1.00  0.00     0.022 C 
ATOM     14  C   UNL A   1      30.456  24.886  25.179  1.00  0.00     0.008 C 
BRANCH  10  15
ATOM     15  C   UNL A   1      33.936  22.673  24.562  1.00  0.00     0.053 A 
ATOM     16  C   UNL A   1      34.433  21.408  24.934  1.00  0.00     0.098 A 
ATOM     17  C   UNL A   1      35.780  21.094  24.702  1.00  0.00     0.138 A 
ATOM     18  F   UNL A   1      36.276  19.892  25.039  1.00  0.00    -0.206 F 
ATOM     19  C   UNL A   1      36.650  22.009  24.114  1.00  0.00     0.040 A 
ATOM     20  C   UNL A   1      34.827  23.565  23.928  1.00  0.00     0.027 A 
ATOM     21  C   UNL A   1      36.171  23.248  23.719  1.00  0.00     0.005 A 
BRANCH  16  22
ATOM     22  C   UNL A   1      33.548  20.364  25.505  1.00  0.00     0.253 C 
ATOM     23  N   UNL A   1      33.510  20.268  26.870  1.00  0.00    -0.365 N 
ATOM     24  H   UNL A   1      32.939  19.591  27.299  1.00  0.00     0.159 HD
ATOM     25  H   UNL A   1      34.054  20.875  27.421  1.00  0.00     0.159 HD
ATOM     26  O   UNL A   1      32.880  19.609  24.809  1.00  0.00    -0.269 OA
ENDBRANCH  16  22
ENDBRANCH  10  15
ENDBRANCH   8   9
ENDBRANCH   6   8
ENDBRANCH   5   6
ENDBRANCH   4   5
ENDBRANCH   3   4
ENDBRANCH   2   3
ENDBRANCH   1   2
BRANCH   1  27
ATOM     27  C   UNL A   1      33.524  34.125  27.938  1.00  0.00     0.188 C 
BRANCH  27  28
ATOM     28  O   UNL A   1      34.913  33.874  27.751  1.00  0.00    -0.376 OA
BRANCH  28  29
ATOM     29  C   UNL A   1      35.747  34.086  28.895  1.00  0.00     0.202 C 
BRANCH  29  30
ATOM     30  C   UNL A   1      36.707  32.936  29.269  1.00  0.00     0.261 C 
BRANCH  30  31
ATOM     31  O   UNL A   1      36.074  31.663  29.523  1.00  0.00    -0.460 OA
BRANCH  31  32
ATOM     32  C   UNL A   1      36.567  30.904  30.529  1.00  0.00     0.338 C 
ATOM     33  O   UNL A   1      35.992  30.620  31.567  1.00  0.00    -0.246 OA
BRANCH  32  34
ATOM     34  C   UNL A   1      37.814  30.240  30.055  1.00  0.00     0.060 A 
ATOM     35  C   UNL A   1      38.712  29.758  31.018  1.00  0.00     0.016 A 
ATOM     36  C   UNL A   1      38.070  30.018  28.698  1.00  0.00     0.016 A 
ATOM     37  C   UNL A   1      39.885  29.103  30.628  1.00  0.00     0.010 A 
ATOM     38  C   UNL A   1      39.250  29.371  28.307  1.00  0.00     0.010 A 
ATOM     39  C   UNL A   1      40.182  28.942  29.269  1.00  0.00    -0.014 A 
BRANCH  39  40
ATOM     40  C   UNL A   1      41.550  28.531  28.851  1.00  0.00     0.031 A 
ATOM     41  C   UNL A   1      42.634  29.578  28.849  1.00  0.00     0.074 A 
ATOM     42  C   UNL A   1      41.848  27.264  28.506  1.00  0.00     0.049 A 
ATOM     43  N   UNL A   1      43.893  29.470  28.510  1.00  0.00    -0.248 NA
ATOM     44  C   UNL A   1      42.243  30.927  29.292  1.00  0.00     0.031 C 
ATOM     45  C   UNL A   1      40.914  26.140  28.506  1.00  0.00     0.029 A 
ATOM     46  N   UNL A   1      43.036  26.716  28.084  1.00  0.00    -0.354 N 
ATOM     47  C   UNL A   1      44.441  30.735  28.692  1.00  0.00     0.074 A 
ATOM     48  C   UNL A   1      43.373  31.600  29.141  1.00  0.00     0.031 C 
ATOM     49  C   UNL A   1      41.565  25.034  28.097  1.00  0.00     0.029 A 
ATOM     50  C   UNL A   1      42.951  25.377  27.775  1.00  0.00     0.049 A 
ATOM     51  H   UNL A   1      43.870  27.232  28.010  1.00  0.00     0.167 HD
ATOM     52  C   UNL A   1      45.719  31.144  28.507  1.00  0.00     0.031 A 
ATOM     53  C   UNL A   1      43.875  24.532  27.274  1.00  0.00     0.031 A 
ATOM     54  C   UNL A   1      46.784  30.297  28.043  1.00  0.00     0.049 A 
ATOM     55  C   UNL A   1      45.272  25.031  26.994  1.00  0.00     0.074 A 
ATOM     56  C   UNL A   1      48.113  30.626  27.836  1.00  0.00     0.029 A 
ATOM     57  N   UNL A   1      46.643  28.963  27.698  1.00  0.00    -0.354 N 
ATOM     58  N   UNL A   1      45.782  26.223  27.197  1.00  0.00    -0.248 NA
ATOM     59  C   UNL A   1      46.224  24.064  26.423  1.00  0.00     0.031 C 
ATOM     60  C   UNL A   1      48.762  29.504  27.310  1.00  0.00     0.029 A 
ATOM     61  C   UNL A   1      47.854  28.460  27.252  1.00  0.00     0.049 A 
ATOM     62  H   UNL A   1      45.806  28.448  27.761  1.00  0.00     0.167 HD
ATOM     63  C   UNL A   1      47.116  26.139  26.807  1.00  0.00     0.074 A 
ATOM     64  C   UNL A   1      47.340  24.778  26.368  1.00  0.00     0.031 C 
ATOM     65  C   UNL A   1      48.072  27.103  26.816  1.00  0.00     0.031 A 
BRANCH  52  66
ATOM     66  C   UNL A   1      46.022  32.594  28.774  1.00  0.00    -0.014 A 
ATOM     67  C   UNL A   1      46.187  33.512  27.720  1.00  0.00     0.010 A 
ATOM     68  C   UNL A   1      46.121  33.049  30.101  1.00  0.00     0.010 A 
ATOM     69  C   UNL A   1      46.490  34.849  27.989  1.00  0.00     0.020 A 
ATOM     70  C   UNL A   1      46.394  34.392  30.375  1.00  0.00     0.020 A 
ATOM     71  C   UNL A   1      46.595  35.279  29.316  1.00  0.00     0.054 A 
BRANCH  71  72
ATOM     72  S   UNL A   1      46.976  37.022  29.636  1.00  0.00     0.124 S 
ATOM     73  O   UNL A   1      45.861  37.421  30.493  1.00  0.00    -0.237 OA
ATOM     74  O   UNL A   1      48.278  36.951  30.293  1.00  0.00    -0.237 OA
ATOM     75  O   UNL A   1      46.984  37.626  28.305  1.00  0.00    -0.744 OA
ENDBRANCH  71  72
ENDBRANCH  52  66
BRANCH  53  76
ATOM     76  C   UNL A   1      43.511  23.117  26.978  1.00  0.00    -0.014 A 
ATOM     77  C   UNL A   1      43.706  22.575  25.696  1.00  0.00     0.010 A 
ATOM     78  C   UNL A   1      42.949  22.307  27.981  1.00  0.00     0.010 A 
ATOM     79  C   UNL A   1      43.334  21.255  25.418  1.00  0.00     0.020 A 
ATOM     80  C   UNL A   1      42.602  20.978  27.717  1.00  0.00     0.020 A 
ATOM     81  C   UNL A   1      42.789  20.463  26.433  1.00  0.00     0.054 A 
BRANCH  81  82
ATOM     82  S   UNL A   1      42.367  18.736  26.066  1.00  0.00     0.124 S 
ATOM     83  O   UNL A   1      40.969  18.844  25.660  1.00  0.00    -0.237 OA
ATOM     84  O   UNL A   1      43.311  18.403  25.002  1.00  0.00    -0.237 OA
ATOM     85  O   UNL A   1      42.601  18.050  27.334  1.00  0.00    -0.744 OA
ENDBRANCH  81  82
ENDBRANCH  53  76
BRANCH  65  86
ATOM     86  C   UNL A   1      49.464  26.722  26.379  1.00  0.00    -0.014 A 
ATOM     87  C   UNL A   1      50.369  26.108  27.260  1.00  0.00     0.010 A 
ATOM     88  C   UNL A   1      49.848  26.927  25.040  1.00  0.00     0.010 A 
ATOM     89  C   UNL A   1      51.643  25.732  26.820  1.00  0.00     0.020 A 
ATOM     90  C   UNL A   1      51.110  26.528  24.588  1.00  0.00     0.020 A 
ATOM     91  C   UNL A   1      52.005  25.945  25.486  1.00  0.00     0.054 A 
BRANCH  91  92
ATOM     92  S   UNL A   1      53.647  25.412  24.929  1.00  0.00     0.124 S 
ATOM     93  O   UNL A   1      54.530  26.227  25.759  1.00  0.00    -0.237 OA
ATOM     94  O   UNL A   1      53.642  23.983  25.234  1.00  0.00    -0.237 OA
ATOM     95  O   UNL A   1      53.654  25.739  23.505  1.00  0.00    -0.744 OA
ENDBRANCH  91  92
ENDBRANCH  65  86
ENDBRANCH  39  40
ENDBRANCH  32  34
ENDBRANCH  31  32
ENDBRANCH  30  31
ENDBRANCH  29  30
ENDBRANCH  28  29
ENDBRANCH  27  28
ENDBRANCH   1  27
TORSDOF 23
ENDMDL
