MODEL 1
REMARK VINA RESULT:     -10.0      0.000      0.000
REMARK SMILES CCNC(=O)c1cccc(-c2ccc(Cl)c(C(=O)OCCOCCOCCOC(=O)c3ccc(-c4c5nc(c(-c6ccc(S(=O)(=O)[O-])cc6)c6ccc([nH]6)c(-c6ccc(S(=O)(=O)[O-])cc6)c6nc(c(-c7ccc(S(=O)(=O)[O-])cc7)c7ccc4[nH]7)C=C6)C=C5)cc3)c2)c1
REMARK SMILES IDX 23 1 22 2 21 3 20 4 19 5 17 6 18 7 16 8 11 9 12 10 91 11
REMARK SMILES IDX 13 12 14 13 15 14 10 15 6 16 7 17 92 18 8 19 9 20 4 21 3 22
REMARK SMILES IDX 5 24 2 25 1 26 24 27 25 28 26 29 27 30 28 31 29 32 30 33
REMARK SMILES IDX 31 34 32 35 90 36 33 37 89 38 34 39 35 40 36 41 83 42 37 43
REMARK SMILES IDX 88 44 82 45 84 46 38 47 87 48 81 49 80 50 39 52 69 53 50 54
REMARK SMILES IDX 68 55 51 56 54 57 67 58 85 59 52 60 53 61 66 63 86 64 55 65
REMARK SMILES IDX 40 66 41 67 49 68 42 69 48 70 43 71 44 72 45 73 46 74 47 75
REMARK SMILES IDX 70 76 71 77 79 78 72 79 78 80 73 81 74 82 75 83 76 84 77 85
REMARK SMILES IDX 56 86 57 87 65 88 58 89 64 90 59 91 60 92 61 93 62 94 63 95
REMARK H PARENT 3 23 84 51 54 62
REMARK Flexibility Score: inf
ROOT
ATOM      1  C   UNL A   1      41.253  20.881  26.317  1.00  0.00     0.188 C 
ENDROOT
BRANCH   1   2
ATOM      2  O   UNL A   1      39.888  20.933  26.683  1.00  0.00    -0.376 OA
BRANCH   2   3
ATOM      3  C   UNL A   1      39.048  21.906  26.089  1.00  0.00     0.202 C 
BRANCH   3   4
ATOM      4  C   UNL A   1      37.776  21.490  25.334  1.00  0.00     0.261 C 
BRANCH   4   5
ATOM      5  O   UNL A   1      36.842  22.546  25.097  1.00  0.00    -0.460 OA
BRANCH   5   6
ATOM      6  C   UNL A   1      36.184  22.574  23.916  1.00  0.00     0.339 C 
ATOM      7  O   UNL A   1      36.673  22.573  22.802  1.00  0.00    -0.246 OA
BRANCH   6   8
ATOM      8  C   UNL A   1      34.738  22.581  24.229  1.00  0.00     0.079 A 
ATOM      9  C   UNL A   1      32.692  23.910  24.538  1.00  0.00    -0.017 A 
ATOM     10  C   UNL A   1      32.029  22.720  24.884  1.00  0.00     0.010 A 
ATOM     11  C   UNL A   1      34.058  23.813  24.216  1.00  0.00     0.026 A 
ATOM     12  C   UNL A   1      32.702  21.491  24.912  1.00  0.00     0.022 A 
ATOM     13  C   UNL A   1      34.058  21.417  24.584  1.00  0.00     0.055 A 
ATOM     14  Cl  UNL A   1      34.834  19.885  24.725  1.00  0.00    -0.083 Cl
BRANCH   9  15
ATOM     15  C   UNL A   1      31.977  25.203  24.464  1.00  0.00    -0.018 A 
ATOM     16  C   UNL A   1      32.036  27.616  24.055  1.00  0.00     0.040 A 
ATOM     17  C   UNL A   1      30.649  27.690  24.179  1.00  0.00     0.014 A 
ATOM     18  C   UNL A   1      32.691  26.395  24.243  1.00  0.00     0.022 A 
ATOM     19  C   UNL A   1      29.920  26.530  24.438  1.00  0.00     0.001 A 
ATOM     20  C   UNL A   1      30.579  25.300  24.569  1.00  0.00     0.009 A 
BRANCH  16  21
ATOM     21  C   UNL A   1      32.802  28.850  23.765  1.00  0.00     0.251 C 
ATOM     22  N   UNL A   1      33.137  29.717  24.776  1.00  0.00    -0.352 N 
ATOM     23  H   UNL A   1      33.507  30.579  24.477  1.00  0.00     0.163 HD
ATOM     24  O   UNL A   1      33.145  29.094  22.612  1.00  0.00    -0.269 OA
BRANCH  22  25
ATOM     25  C   UNL A   1      33.031  29.563  26.218  1.00  0.00     0.112 C 
ATOM     26  C   UNL A   1      34.259  28.879  26.786  1.00  0.00     0.027 C 
ENDBRANCH  22  25
ENDBRANCH  16  21
ENDBRANCH   9  15
ENDBRANCH   6   8
ENDBRANCH   5   6
ENDBRANCH   4   5
ENDBRANCH   3   4
ENDBRANCH   2   3
ENDBRANCH   1   2
BRANCH   1  27
ATOM     27  C   UNL A   1      42.197  21.006  27.533  1.00  0.00     0.188 C 
BRANCH  27  28
ATOM     28  O   UNL A   1      42.094  22.132  28.400  1.00  0.00    -0.376 OA
BRANCH  28  29
ATOM     29  C   UNL A   1      43.165  23.067  28.455  1.00  0.00     0.202 C 
BRANCH  29  30
ATOM     30  C   UNL A   1      43.096  24.323  27.577  1.00  0.00     0.261 C 
BRANCH  30  31
ATOM     31  O   UNL A   1      41.933  24.410  26.740  1.00  0.00    -0.460 OA
BRANCH  31  32
ATOM     32  C   UNL A   1      41.699  25.635  26.207  1.00  0.00     0.338 C 
ATOM     33  O   UNL A   1      41.693  25.937  25.026  1.00  0.00    -0.246 OA
BRANCH  32  34
ATOM     34  C   UNL A   1      41.265  26.569  27.265  1.00  0.00     0.060 A 
ATOM     35  C   UNL A   1      41.983  27.764  27.420  1.00  0.00     0.016 A 
ATOM     36  C   UNL A   1      40.222  26.251  28.135  1.00  0.00     0.016 A 
ATOM     37  C   UNL A   1      41.680  28.631  28.468  1.00  0.00     0.010 A 
ATOM     38  C   UNL A   1      39.934  27.111  29.201  1.00  0.00     0.010 A 
ATOM     39  C   UNL A   1      40.682  28.288  29.388  1.00  0.00    -0.014 A 
BRANCH  39  40
ATOM     40  C   UNL A   1      40.542  29.069  30.640  1.00  0.00     0.031 A 
ATOM     41  C   UNL A   1      39.497  30.151  30.701  1.00  0.00     0.074 A 
ATOM     42  C   UNL A   1      41.311  28.811  31.712  1.00  0.00     0.049 A 
ATOM     43  N   UNL A   1      39.212  30.973  31.677  1.00  0.00    -0.248 NA
ATOM     44  C   UNL A   1      38.660  30.326  29.502  1.00  0.00     0.031 C 
ATOM     45  C   UNL A   1      42.324  27.761  31.796  1.00  0.00     0.029 A 
ATOM     46  N   UNL A   1      41.360  29.427  32.939  1.00  0.00    -0.354 N 
ATOM     47  C   UNL A   1      38.169  31.764  31.212  1.00  0.00     0.074 A 
ATOM     48  C   UNL A   1      37.885  31.339  29.858  1.00  0.00     0.031 C 
ATOM     49  C   UNL A   1      42.907  27.814  33.007  1.00  0.00     0.029 A 
ATOM     50  C   UNL A   1      42.328  28.918  33.771  1.00  0.00     0.049 A 
ATOM     51  H   UNL A   1      40.759  30.162  33.197  1.00  0.00     0.167 HD
ATOM     52  C   UNL A   1      37.503  32.755  31.852  1.00  0.00     0.031 A 
ATOM     53  C   UNL A   1      42.715  29.313  35.001  1.00  0.00     0.031 A 
ATOM     54  C   UNL A   1      37.800  33.196  33.189  1.00  0.00     0.049 A 
ATOM     55  C   UNL A   1      42.013  30.471  35.664  1.00  0.00     0.074 A 
ATOM     56  C   UNL A   1      37.177  34.189  33.925  1.00  0.00     0.029 A 
ATOM     57  N   UNL A   1      38.810  32.679  33.985  1.00  0.00    -0.354 N 
ATOM     58  N   UNL A   1      41.011  31.192  35.219  1.00  0.00    -0.248 NA
ATOM     59  C   UNL A   1      42.491  30.862  36.997  1.00  0.00     0.031 C 
ATOM     60  C   UNL A   1      37.845  34.306  35.149  1.00  0.00     0.029 A 
ATOM     61  C   UNL A   1      38.845  33.349  35.196  1.00  0.00     0.049 A 
ATOM     62  H   UNL A   1      39.414  31.946  33.727  1.00  0.00     0.167 HD
ATOM     63  C   UNL A   1      40.722  32.103  36.232  1.00  0.00     0.074 A 
ATOM     64  C   UNL A   1      41.647  31.835  37.313  1.00  0.00     0.031 C 
ATOM     65  C   UNL A   1      39.771  33.070  36.264  1.00  0.00     0.031 A 
BRANCH  52  66
ATOM     66  C   UNL A   1      36.408  33.452  31.093  1.00  0.00    -0.014 A 
ATOM     67  C   UNL A   1      36.680  34.156  29.907  1.00  0.00     0.010 A 
ATOM     68  C   UNL A   1      35.082  33.379  31.561  1.00  0.00     0.010 A 
ATOM     69  C   UNL A   1      35.652  34.805  29.219  1.00  0.00     0.020 A 
ATOM     70  C   UNL A   1      34.048  34.009  30.863  1.00  0.00     0.020 A 
ATOM     71  C   UNL A   1      34.342  34.732  29.705  1.00  0.00     0.054 A 
BRANCH  71  72
ATOM     72  S   UNL A   1      33.023  35.571  28.784  1.00  0.00     0.124 S 
ATOM     73  O   UNL A   1      32.463  34.475  27.996  1.00  0.00    -0.237 OA
ATOM     74  O   UNL A   1      32.164  36.083  29.849  1.00  0.00    -0.237 OA
ATOM     75  O   UNL A   1      33.733  36.591  28.016  1.00  0.00    -0.744 OA
ENDBRANCH  71  72
ENDBRANCH  52  66
BRANCH  53  76
ATOM     76  C   UNL A   1      43.840  28.620  35.685  1.00  0.00    -0.014 A 
ATOM     77  C   UNL A   1      45.161  29.081  35.540  1.00  0.00     0.010 A 
ATOM     78  C   UNL A   1      43.595  27.484  36.477  1.00  0.00     0.010 A 
ATOM     79  C   UNL A   1      46.217  28.406  36.160  1.00  0.00     0.020 A 
ATOM     80  C   UNL A   1      44.646  26.821  37.118  1.00  0.00     0.020 A 
ATOM     81  C   UNL A   1      45.954  27.281  36.944  1.00  0.00     0.054 A 
BRANCH  81  82
ATOM     82  S   UNL A   1      47.335  26.445  37.773  1.00  0.00     0.124 S 
ATOM     83  O   UNL A   1      47.721  25.445  36.783  1.00  0.00    -0.237 OA
ATOM     84  O   UNL A   1      48.287  27.533  37.979  1.00  0.00    -0.237 OA
ATOM     85  O   UNL A   1      46.731  25.917  38.994  1.00  0.00    -0.744 OA
ENDBRANCH  81  82
ENDBRANCH  53  76
BRANCH  65  86
ATOM     86  C   UNL A   1      39.653  33.889  37.522  1.00  0.00    -0.014 A 
ATOM     87  C   UNL A   1      38.807  33.496  38.574  1.00  0.00     0.010 A 
ATOM     88  C   UNL A   1      40.449  35.041  37.676  1.00  0.00     0.010 A 
ATOM     89  C   UNL A   1      38.738  34.255  39.745  1.00  0.00     0.020 A 
ATOM     90  C   UNL A   1      40.400  35.787  38.855  1.00  0.00     0.020 A 
ATOM     91  C   UNL A   1      39.533  35.397  39.878  1.00  0.00     0.054 A 
BRANCH  91  92
ATOM     92  S   UNL A   1      39.459  36.343  41.425  1.00  0.00     0.124 S 
ATOM     93  O   UNL A   1      40.861  36.365  41.835  1.00  0.00    -0.237 OA
ATOM     94  O   UNL A   1      38.910  37.626  40.992  1.00  0.00    -0.237 OA
ATOM     95  O   UNL A   1      38.574  35.549  42.274  1.00  0.00    -0.744 OA
ENDBRANCH  91  92
ENDBRANCH  65  86
ENDBRANCH  39  40
ENDBRANCH  32  34
ENDBRANCH  31  32
ENDBRANCH  30  31
ENDBRANCH  29  30
ENDBRANCH  28  29
ENDBRANCH  27  28
ENDBRANCH   1  27
TORSDOF 23
ENDMDL
MODEL 2
REMARK VINA RESULT:      -9.9      5.033     11.142
REMARK SMILES CCNC(=O)c1cccc(-c2ccc(Cl)c(C(=O)OCCOCCOCCOC(=O)c3ccc(-c4c5nc(c(-c6ccc(S(=O)(=O)[O-])cc6)c6ccc([nH]6)c(-c6ccc(S(=O)(=O)[O-])cc6)c6nc(c(-c7ccc(S(=O)(=O)[O-])cc7)c7ccc4[nH]7)C=C6)C=C5)cc3)c2)c1
REMARK SMILES IDX 23 1 22 2 21 3 20 4 19 5 17 6 18 7 16 8 11 9 12 10 91 11
REMARK SMILES IDX 13 12 14 13 15 14 10 15 6 16 7 17 92 18 8 19 9 20 4 21 3 22
REMARK SMILES IDX 5 24 2 25 1 26 24 27 25 28 26 29 27 30 28 31 29 32 30 33
REMARK SMILES IDX 31 34 32 35 90 36 33 37 89 38 34 39 35 40 36 41 83 42 37 43
REMARK SMILES IDX 88 44 82 45 84 46 38 47 87 48 81 49 80 50 39 52 69 53 50 54
REMARK SMILES IDX 68 55 51 56 54 57 67 58 85 59 52 60 53 61 66 63 86 64 55 65
REMARK SMILES IDX 40 66 41 67 49 68 42 69 48 70 43 71 44 72 45 73 46 74 47 75
REMARK SMILES IDX 70 76 71 77 79 78 72 79 78 80 73 81 74 82 75 83 76 84 77 85
REMARK SMILES IDX 56 86 57 87 65 88 58 89 64 90 59 91 60 92 61 93 62 94 63 95
REMARK H PARENT 3 23 84 51 54 62
REMARK Flexibility Score: inf
ROOT
ATOM      1  C   UNL A   1      46.165  20.370  24.758  1.00  0.00     0.188 C 
ENDROOT
BRANCH   1   2
ATOM      2  O   UNL A   1      46.027  21.638  25.369  1.00  0.00    -0.376 OA
BRANCH   2   3
ATOM      3  C   UNL A   1      45.572  22.733  24.596  1.00  0.00     0.202 C 
BRANCH   3   4
ATOM      4  C   UNL A   1      45.483  24.142  25.205  1.00  0.00     0.261 C 
BRANCH   4   5
ATOM      5  O   UNL A   1      46.725  24.844  25.285  1.00  0.00    -0.460 OA
BRANCH   5   6
ATOM      6  C   UNL A   1      47.333  24.947  26.488  1.00  0.00     0.339 C 
ATOM      7  O   UNL A   1      47.494  24.062  27.308  1.00  0.00    -0.246 OA
BRANCH   6   8
ATOM      8  C   UNL A   1      47.794  26.346  26.620  1.00  0.00     0.079 A 
ATOM      9  C   UNL A   1      47.189  28.728  26.704  1.00  0.00    -0.017 A 
ATOM     10  C   UNL A   1      48.560  29.025  26.779  1.00  0.00     0.010 A 
ATOM     11  C   UNL A   1      46.829  27.371  26.620  1.00  0.00     0.026 A 
ATOM     12  C   UNL A   1      49.528  28.011  26.766  1.00  0.00     0.022 A 
ATOM     13  C   UNL A   1      49.149  26.669  26.687  1.00  0.00     0.055 A 
ATOM     14  Cl  UNL A   1      50.399  25.487  26.590  1.00  0.00    -0.083 Cl
BRANCH   9  15
ATOM     15  C   UNL A   1      46.161  29.790  26.761  1.00  0.00    -0.018 A 
ATOM     16  C   UNL A   1      45.560  32.150  26.505  1.00  0.00     0.040 A 
ATOM     17  C   UNL A   1      44.216  31.851  26.726  1.00  0.00     0.014 A 
ATOM     18  C   UNL A   1      46.521  31.136  26.571  1.00  0.00     0.022 A 
ATOM     19  C   UNL A   1      43.835  30.531  26.958  1.00  0.00     0.001 A 
ATOM     20  C   UNL A   1      44.798  29.512  26.965  1.00  0.00     0.009 A 
BRANCH  16  21
ATOM     21  C   UNL A   1      45.955  33.553  26.245  1.00  0.00     0.251 C 
ATOM     22  N   UNL A   1      46.443  34.340  27.260  1.00  0.00    -0.352 N 
ATOM     23  H   UNL A   1      46.534  35.295  27.037  1.00  0.00     0.163 HD
ATOM     24  O   UNL A   1      45.851  34.013  25.112  1.00  0.00    -0.269 OA
BRANCH  22  25
ATOM     25  C   UNL A   1      46.845  33.986  28.612  1.00  0.00     0.112 C 
ATOM     26  C   UNL A   1      45.686  34.122  29.579  1.00  0.00     0.027 C 
ENDBRANCH  22  25
ENDBRANCH  16  21
ENDBRANCH   9  15
ENDBRANCH   6   8
ENDBRANCH   5   6
ENDBRANCH   4   5
ENDBRANCH   3   4
ENDBRANCH   2   3
ENDBRANCH   1   2
BRANCH   1  27
ATOM     27  C   UNL A   1      44.838  19.580  24.728  1.00  0.00     0.188 C 
BRANCH  27  28
ATOM     28  O   UNL A   1      43.927  19.678  25.820  1.00  0.00    -0.376 OA
BRANCH  28  29
ATOM     29  C   UNL A   1      42.602  20.133  25.580  1.00  0.00     0.202 C 
BRANCH  29  30
ATOM     30  C   UNL A   1      42.007  21.202  26.506  1.00  0.00     0.261 C 
BRANCH  30  31
ATOM     31  O   UNL A   1      41.451  22.340  25.831  1.00  0.00    -0.460 OA
BRANCH  31  32
ATOM     32  C   UNL A   1      40.207  22.698  26.238  1.00  0.00     0.338 C 
ATOM     33  O   UNL A   1      39.211  21.996  26.272  1.00  0.00    -0.246 OA
BRANCH  32  34
ATOM     34  C   UNL A   1      40.241  24.053  26.824  1.00  0.00     0.060 A 
ATOM     35  C   UNL A   1      41.023  25.025  26.183  1.00  0.00     0.016 A 
ATOM     36  C   UNL A   1      39.580  24.349  28.017  1.00  0.00     0.016 A 
ATOM     37  C   UNL A   1      41.171  26.289  26.751  1.00  0.00     0.010 A 
ATOM     38  C   UNL A   1      39.749  25.610  28.598  1.00  0.00     0.010 A 
ATOM     39  C   UNL A   1      40.569  26.574  27.983  1.00  0.00    -0.014 A 
BRANCH  39  40
ATOM     40  C   UNL A   1      40.940  27.811  28.709  1.00  0.00     0.031 A 
ATOM     41  C   UNL A   1      42.310  27.902  29.328  1.00  0.00     0.074 A 
ATOM     42  C   UNL A   1      40.088  28.847  28.801  1.00  0.00     0.049 A 
ATOM     43  N   UNL A   1      42.840  28.871  30.026  1.00  0.00    -0.248 NA
ATOM     44  C   UNL A   1      43.199  26.745  29.129  1.00  0.00     0.031 C 
ATOM     45  C   UNL A   1      38.754  28.903  28.205  1.00  0.00     0.029 A 
ATOM     46  N   UNL A   1      40.223  30.054  29.441  1.00  0.00    -0.354 N 
ATOM     47  C   UNL A   1      44.121  28.442  30.354  1.00  0.00     0.074 A 
ATOM     48  C   UNL A   1      44.280  27.116  29.797  1.00  0.00     0.031 C 
ATOM     49  C   UNL A   1      38.185  30.079  28.522  1.00  0.00     0.029 A 
ATOM     50  C   UNL A   1      39.102  30.846  29.364  1.00  0.00     0.049 A 
ATOM     51  H   UNL A   1      41.043  30.326  29.912  1.00  0.00     0.167 HD
ATOM     52  C   UNL A   1      45.082  29.092  31.053  1.00  0.00     0.031 A 
ATOM     53  C   UNL A   1      38.841  32.044  29.926  1.00  0.00     0.031 A 
ATOM     54  C   UNL A   1      44.917  30.401  31.629  1.00  0.00     0.049 A 
ATOM     55  C   UNL A   1      39.897  32.714  30.768  1.00  0.00     0.074 A 
ATOM     56  C   UNL A   1      45.834  31.144  32.351  1.00  0.00     0.029 A 
ATOM     57  N   UNL A   1      43.756  31.154  31.558  1.00  0.00    -0.354 N 
ATOM     58  N   UNL A   1      41.112  32.306  31.047  1.00  0.00    -0.248 NA
ATOM     59  C   UNL A   1      39.545  34.011  31.366  1.00  0.00     0.031 C 
ATOM     60  C   UNL A   1      45.209  32.328  32.759  1.00  0.00     0.029 A 
ATOM     61  C   UNL A   1      43.924  32.345  32.244  1.00  0.00     0.049 A 
ATOM     62  H   UNL A   1      42.933  30.883  31.090  1.00  0.00     0.167 HD
ATOM     63  C   UNL A   1      41.679  33.310  31.828  1.00  0.00     0.074 A 
ATOM     64  C   UNL A   1      40.678  34.347  31.968  1.00  0.00     0.031 C 
ATOM     65  C   UNL A   1      42.919  33.369  32.374  1.00  0.00     0.031 A 
BRANCH  52  66
ATOM     66  C   UNL A   1      46.387  28.377  31.262  1.00  0.00    -0.014 A 
ATOM     67  C   UNL A   1      47.423  28.464  30.315  1.00  0.00     0.010 A 
ATOM     68  C   UNL A   1      46.591  27.627  32.436  1.00  0.00     0.010 A 
ATOM     69  C   UNL A   1      48.627  27.786  30.520  1.00  0.00     0.020 A 
ATOM     70  C   UNL A   1      47.802  26.965  32.655  1.00  0.00     0.020 A 
ATOM     71  C   UNL A   1      48.807  27.036  31.688  1.00  0.00     0.054 A 
BRANCH  71  72
ATOM     72  S   UNL A   1      50.385  26.178  31.937  1.00  0.00     0.124 S 
ATOM     73  O   UNL A   1      51.108  27.119  32.789  1.00  0.00    -0.237 OA
ATOM     74  O   UNL A   1      49.975  24.933  32.583  1.00  0.00    -0.237 OA
ATOM     75  O   UNL A   1      50.916  26.029  30.584  1.00  0.00    -0.744 OA
ENDBRANCH  71  72
ENDBRANCH  52  66
BRANCH  53  76
ATOM     76  C   UNL A   1      37.512  32.684  29.730  1.00  0.00    -0.014 A 
ATOM     77  C   UNL A   1      37.294  33.572  28.662  1.00  0.00     0.010 A 
ATOM     78  C   UNL A   1      36.458  32.415  30.622  1.00  0.00     0.010 A 
ATOM     79  C   UNL A   1      36.052  34.194  28.502  1.00  0.00     0.020 A 
ATOM     80  C   UNL A   1      35.209  33.016  30.451  1.00  0.00     0.020 A 
ATOM     81  C   UNL A   1      35.017  33.913  29.398  1.00  0.00     0.054 A 
BRANCH  81  82
ATOM     82  S   UNL A   1      33.401  34.699  29.147  1.00  0.00     0.124 S 
ATOM     83  O   UNL A   1      33.779  36.003  28.610  1.00  0.00    -0.237 OA
ATOM     84  O   UNL A   1      32.749  33.792  28.207  1.00  0.00    -0.237 OA
ATOM     85  O   UNL A   1      32.819  34.719  30.487  1.00  0.00    -0.744 OA
ENDBRANCH  81  82
ENDBRANCH  53  76
BRANCH  65  86
ATOM     86  C   UNL A   1      43.282  34.611  33.144  1.00  0.00    -0.014 A 
ATOM     87  C   UNL A   1      43.141  34.674  34.541  1.00  0.00     0.010 A 
ATOM     88  C   UNL A   1      43.831  35.713  32.460  1.00  0.00     0.010 A 
ATOM     89  C   UNL A   1      43.515  35.826  35.237  1.00  0.00     0.020 A 
ATOM     90  C   UNL A   1      44.229  36.856  33.156  1.00  0.00     0.020 A 
ATOM     91  C   UNL A   1      44.055  36.911  34.541  1.00  0.00     0.054 A 
BRANCH  91  92
ATOM     92  S   UNL A   1      44.575  38.381  35.471  1.00  0.00     0.124 S 
ATOM     93  O   UNL A   1      43.941  38.158  36.768  1.00  0.00    -0.237 OA
ATOM     94  O   UNL A   1      46.031  38.272  35.456  1.00  0.00    -0.237 OA
ATOM     95  O   UNL A   1      44.031  39.492  34.694  1.00  0.00    -0.744 OA
ENDBRANCH  91  92
ENDBRANCH  65  86
ENDBRANCH  39  40
ENDBRANCH  32  34
ENDBRANCH  31  32
ENDBRANCH  30  31
ENDBRANCH  29  30
ENDBRANCH  28  29
ENDBRANCH  27  28
ENDBRANCH   1  27
TORSDOF 23
ENDMDL
MODEL 3
REMARK VINA RESULT:      -8.8      1.656      2.393
REMARK SMILES CCNC(=O)c1cccc(-c2ccc(Cl)c(C(=O)OCCOCCOCCOC(=O)c3ccc(-c4c5nc(c(-c6ccc(S(=O)(=O)[O-])cc6)c6ccc([nH]6)c(-c6ccc(S(=O)(=O)[O-])cc6)c6nc(c(-c7ccc(S(=O)(=O)[O-])cc7)c7ccc4[nH]7)C=C6)C=C5)cc3)c2)c1
REMARK SMILES IDX 23 1 22 2 21 3 20 4 19 5 17 6 18 7 16 8 11 9 12 10 91 11
REMARK SMILES IDX 13 12 14 13 15 14 10 15 6 16 7 17 92 18 8 19 9 20 4 21 3 22
REMARK SMILES IDX 5 24 2 25 1 26 24 27 25 28 26 29 27 30 28 31 29 32 30 33
REMARK SMILES IDX 31 34 32 35 90 36 33 37 89 38 34 39 35 40 36 41 83 42 37 43
REMARK SMILES IDX 88 44 82 45 84 46 38 47 87 48 81 49 80 50 39 52 69 53 50 54
REMARK SMILES IDX 68 55 51 56 54 57 67 58 85 59 52 60 53 61 66 63 86 64 55 65
REMARK SMILES IDX 40 66 41 67 49 68 42 69 48 70 43 71 44 72 45 73 46 74 47 75
REMARK SMILES IDX 70 76 71 77 79 78 72 79 78 80 73 81 74 82 75 83 76 84 77 85
REMARK SMILES IDX 56 86 57 87 65 88 58 89 64 90 59 91 60 92 61 93 62 94 63 95
REMARK H PARENT 3 23 84 51 54 62
REMARK Flexibility Score: inf
ROOT
ATOM      1  C   UNL A   1      37.788  22.679  26.478  1.00  0.00     0.188 C 
ENDROOT
BRANCH   1   2
ATOM      2  O   UNL A   1      36.795  22.031  25.708  1.00  0.00    -0.376 OA
BRANCH   2   3
ATOM      3  C   UNL A   1      36.527  22.491  24.396  1.00  0.00     0.202 C 
BRANCH   3   4
ATOM      4  C   UNL A   1      35.779  23.815  24.166  1.00  0.00     0.261 C 
BRANCH   4   5
ATOM      5  O   UNL A   1      34.812  23.787  23.113  1.00  0.00    -0.460 OA
BRANCH   5   6
ATOM      6  C   UNL A   1      33.639  23.151  23.331  1.00  0.00     0.339 C 
ATOM      7  O   UNL A   1      33.211  22.175  22.743  1.00  0.00    -0.246 OA
BRANCH   6   8
ATOM      8  C   UNL A   1      32.969  23.854  24.447  1.00  0.00     0.079 A 
ATOM      9  C   UNL A   1      32.125  25.983  25.346  1.00  0.00    -0.017 A 
ATOM     10  C   UNL A   1      31.787  25.295  26.524  1.00  0.00     0.010 A 
ATOM     11  C   UNL A   1      32.724  25.234  24.316  1.00  0.00     0.026 A 
ATOM     12  C   UNL A   1      32.040  23.925  26.668  1.00  0.00     0.022 A 
ATOM     13  C   UNL A   1      32.632  23.199  25.630  1.00  0.00     0.055 A 
ATOM     14  Cl  UNL A   1      32.988  21.538  25.915  1.00  0.00    -0.083 Cl
BRANCH   9  15
ATOM     15  C   UNL A   1      31.822  27.420  25.171  1.00  0.00    -0.018 A 
ATOM     16  C   UNL A   1      30.871  29.216  23.806  1.00  0.00     0.040 A 
ATOM     17  C   UNL A   1      31.095  30.137  24.829  1.00  0.00     0.014 A 
ATOM     18  C   UNL A   1      31.275  27.886  23.962  1.00  0.00     0.022 A 
ATOM     19  C   UNL A   1      31.672  29.710  26.023  1.00  0.00     0.001 A 
ATOM     20  C   UNL A   1      32.022  28.363  26.194  1.00  0.00     0.009 A 
BRANCH  16  21
ATOM     21  C   UNL A   1      30.244  29.674  22.545  1.00  0.00     0.251 C 
ATOM     22  N   UNL A   1      29.289  30.662  22.560  1.00  0.00    -0.352 N 
ATOM     23  H   UNL A   1      28.817  30.796  21.705  1.00  0.00     0.163 HD
ATOM     24  O   UNL A   1      30.585  29.171  21.479  1.00  0.00    -0.269 OA
BRANCH  22  25
ATOM     25  C   UNL A   1      28.864  31.540  23.639  1.00  0.00     0.112 C 
ATOM     26  C   UNL A   1      27.396  31.338  23.960  1.00  0.00     0.027 C 
ENDBRANCH  22  25
ENDBRANCH  16  21
ENDBRANCH   9  15
ENDBRANCH   6   8
ENDBRANCH   5   6
ENDBRANCH   4   5
ENDBRANCH   3   4
ENDBRANCH   2   3
ENDBRANCH   1   2
BRANCH   1  27
ATOM     27  C   UNL A   1      39.198  22.540  25.863  1.00  0.00     0.188 C 
BRANCH  27  28
ATOM     28  O   UNL A   1      40.303  23.212  26.460  1.00  0.00    -0.376 OA
BRANCH  28  29
ATOM     29  C   UNL A   1      41.619  22.721  26.236  1.00  0.00     0.202 C 
BRANCH  29  30
ATOM     30  C   UNL A   1      42.685  23.681  25.693  1.00  0.00     0.261 C 
BRANCH  30  31
ATOM     31  O   UNL A   1      43.636  24.136  26.667  1.00  0.00    -0.460 OA
BRANCH  31  32
ATOM     32  C   UNL A   1      44.001  25.438  26.548  1.00  0.00     0.338 C 
ATOM     33  O   UNL A   1      44.665  25.940  25.658  1.00  0.00    -0.246 OA
BRANCH  32  34
ATOM     34  C   UNL A   1      43.323  26.246  27.582  1.00  0.00     0.060 A 
ATOM     35  C   UNL A   1      43.541  27.631  27.579  1.00  0.00     0.016 A 
ATOM     36  C   UNL A   1      42.547  25.652  28.578  1.00  0.00     0.016 A 
ATOM     37  C   UNL A   1      43.008  28.424  28.593  1.00  0.00     0.010 A 
ATOM     38  C   UNL A   1      42.032  26.447  29.608  1.00  0.00     0.010 A 
ATOM     39  C   UNL A   1      42.287  27.830  29.636  1.00  0.00    -0.014 A 
BRANCH  39  40
ATOM     40  C   UNL A   1      41.953  28.627  30.840  1.00  0.00     0.031 A 
ATOM     41  C   UNL A   1      40.755  29.538  30.793  1.00  0.00     0.074 A 
ATOM     42  C   UNL A   1      42.683  28.529  31.965  1.00  0.00     0.049 A 
ATOM     43  N   UNL A   1      40.289  30.342  31.712  1.00  0.00    -0.248 NA
ATOM     44  C   UNL A   1      39.978  29.538  29.541  1.00  0.00     0.031 C 
ATOM     45  C   UNL A   1      43.835  27.650  32.154  1.00  0.00     0.029 A 
ATOM     46  N   UNL A   1      42.561  29.189  33.163  1.00  0.00    -0.354 N 
ATOM     47  C   UNL A   1      39.170  30.946  31.152  1.00  0.00     0.074 A 
ATOM     48  C   UNL A   1      39.039  30.433  29.805  1.00  0.00     0.031 C 
ATOM     49  C   UNL A   1      44.326  27.836  33.392  1.00  0.00     0.029 A 
ATOM     50  C   UNL A   1      43.540  28.866  34.071  1.00  0.00     0.049 A 
ATOM     51  H   UNL A   1      41.841  29.834  33.353  1.00  0.00     0.167 HD
ATOM     52  C   UNL A   1      38.323  31.846  31.708  1.00  0.00     0.031 A 
ATOM     53  C   UNL A   1      43.785  29.360  35.302  1.00  0.00     0.031 A 
ATOM     54  C   UNL A   1      38.466  32.376  33.037  1.00  0.00     0.049 A 
ATOM     55  C   UNL A   1      42.877  30.421  35.869  1.00  0.00     0.074 A 
ATOM     56  C   UNL A   1      37.656  33.289  33.691  1.00  0.00     0.029 A 
ATOM     57  N   UNL A   1      39.490  32.050  33.912  1.00  0.00    -0.354 N 
ATOM     58  N   UNL A   1      41.807  30.964  35.336  1.00  0.00    -0.248 NA
ATOM     59  C   UNL A   1      43.206  30.930  37.209  1.00  0.00     0.031 C 
ATOM     60  C   UNL A   1      38.220  33.551  34.944  1.00  0.00     0.029 A 
ATOM     61  C   UNL A   1      39.348  32.761  35.091  1.00  0.00     0.049 A 
ATOM     62  H   UNL A   1      40.213  31.408  33.723  1.00  0.00     0.167 HD
ATOM     63  C   UNL A   1      41.321  31.856  36.288  1.00  0.00     0.074 A 
ATOM     64  C   UNL A   1      42.206  31.773  37.431  1.00  0.00     0.031 C 
ATOM     65  C   UNL A   1      40.236  32.667  36.222  1.00  0.00     0.031 A 
BRANCH  52  66
ATOM     66  C   UNL A   1      37.186  32.339  30.857  1.00  0.00    -0.014 A 
ATOM     67  C   UNL A   1      35.983  31.617  30.763  1.00  0.00     0.010 A 
ATOM     68  C   UNL A   1      37.312  33.558  30.164  1.00  0.00     0.010 A 
ATOM     69  C   UNL A   1      34.939  32.085  29.961  1.00  0.00     0.020 A 
ATOM     70  C   UNL A   1      36.261  34.040  29.379  1.00  0.00     0.020 A 
ATOM     71  C   UNL A   1      35.086  33.292  29.270  1.00  0.00     0.054 A 
BRANCH  71  72
ATOM     72  S   UNL A   1      33.710  33.885  28.249  1.00  0.00     0.124 S 
ATOM     73  O   UNL A   1      32.908  34.620  29.224  1.00  0.00    -0.237 OA
ATOM     74  O   UNL A   1      34.384  34.704  27.245  1.00  0.00    -0.237 OA
ATOM     75  O   UNL A   1      33.102  32.657  27.741  1.00  0.00    -0.744 OA
ENDBRANCH  71  72
ENDBRANCH  52  66
BRANCH  53  76
ATOM     76  C   UNL A   1      44.957  28.874  36.079  1.00  0.00    -0.014 A 
ATOM     77  C   UNL A   1      46.211  29.498  35.954  1.00  0.00     0.010 A 
ATOM     78  C   UNL A   1      44.825  27.771  36.942  1.00  0.00     0.010 A 
ATOM     79  C   UNL A   1      47.315  29.016  36.664  1.00  0.00     0.020 A 
ATOM     80  C   UNL A   1      45.921  27.301  37.671  1.00  0.00     0.020 A 
ATOM     81  C   UNL A   1      47.163  27.920  37.517  1.00  0.00     0.054 A 
BRANCH  81  82
ATOM     82  S   UNL A   1      48.600  27.336  38.460  1.00  0.00     0.124 S 
ATOM     83  O   UNL A   1      48.822  26.014  37.884  1.00  0.00    -0.237 OA
ATOM     84  O   UNL A   1      49.613  28.340  38.149  1.00  0.00    -0.237 OA
ATOM     85  O   UNL A   1      48.128  27.347  39.843  1.00  0.00    -0.744 OA
ENDBRANCH  81  82
ENDBRANCH  53  76
BRANCH  65  86
ATOM     86  C   UNL A   1      39.917  33.504  37.432  1.00  0.00    -0.014 A 
ATOM     87  C   UNL A   1      40.432  34.804  37.579  1.00  0.00     0.010 A 
ATOM     88  C   UNL A   1      39.039  33.000  38.410  1.00  0.00     0.010 A 
ATOM     89  C   UNL A   1      40.097  35.574  38.695  1.00  0.00     0.020 A 
ATOM     90  C   UNL A   1      38.682  33.777  39.515  1.00  0.00     0.020 A 
ATOM     91  C   UNL A   1      39.225  35.055  39.658  1.00  0.00     0.054 A 
BRANCH  91  92
ATOM     92  S   UNL A   1      38.769  36.090  41.078  1.00  0.00     0.124 S 
ATOM     93  O   UNL A   1      39.980  36.037  41.893  1.00  0.00    -0.237 OA
ATOM     94  O   UNL A   1      38.485  37.381  40.457  1.00  0.00    -0.237 OA
ATOM     95  O   UNL A   1      37.607  35.408  41.643  1.00  0.00    -0.744 OA
ENDBRANCH  91  92
ENDBRANCH  65  86
ENDBRANCH  39  40
ENDBRANCH  32  34
ENDBRANCH  31  32
ENDBRANCH  30  31
ENDBRANCH  29  30
ENDBRANCH  28  29
ENDBRANCH  27  28
ENDBRANCH   1  27
TORSDOF 23
ENDMDL
