MODEL 1
REMARK VINA RESULT:      -7.0      0.000      0.000
REMARK SMILES Cc1ccc(S(=O)(=O)n2cc(C(=O)C(=O)N[C@H](Cc3c[nH]c4ccccc34)C(=O)NCC(=O)OCCOCCOCCOC(=O)c3ccc(-c4c5nc(c(-c6ccc(S(=O)(=O)[O-])cc6)c6ccc([nH]6)c(-c6ccc(S(=O)(=O)[O-])cc6)c6nc(c(-c7ccc(S(=O)(=O)[O-])cc7)c7ccc4[nH]7)C=C6)C=C5)cc3)c3ccccc32)cc1
REMARK SMILES IDX 36 1 35 2 34 3 32 4 33 5 31 6 30 7 28 8 29 9 17 11 16 12
REMARK SMILES IDX 14 13 15 14 12 16 13 17 11 18 9 19 10 20 111 21 106 22
REMARK SMILES IDX 110 23 107 24 109 25 108 26 6 27 7 28 8 29 5 30 1 31 2 32
REMARK SMILES IDX 3 33 113 34 4 35 112 36 18 37 19 38 20 39 27 40 21 41 22 42
REMARK SMILES IDX 26 43 23 45 25 46 24 47 37 48 38 49 39 50 40 51 41 52 42 53
REMARK SMILES IDX 43 54 44 55 45 56 46 57 47 58 105 59 48 60 104 61 49 62
REMARK SMILES IDX 50 63 51 64 98 65 52 66 103 67 97 68 99 69 53 70 102 71
REMARK SMILES IDX 96 72 95 73 54 75 84 76 65 77 83 78 66 79 69 80 82 81 100 82
REMARK SMILES IDX 67 83 68 84 81 86 101 87 70 88 55 89 56 90 64 91 57 92 63 93
REMARK SMILES IDX 58 94 59 95 60 96 61 97 62 98 85 99 86 100 94 101 87 102
REMARK SMILES IDX 93 103 88 104 89 105 90 106 91 107 92 108 71 109 72 110
REMARK SMILES IDX 80 111 73 112 79 113 74 114 75 115 76 116 77 117 78 118
REMARK H PARENT 30 10 16 15 21 44 99 74 69 85
REMARK Flexibility Score: inf
ROOT
ATOM      1  C   UNL A   1      40.017  33.109  39.744  1.00  0.00     0.202 C 
ENDROOT
BRANCH   1   2
ATOM      2  C   UNL A   1      40.103  33.027  38.230  1.00  0.00     0.261 C 
BRANCH   2   3
ATOM      3  O   UNL A   1      39.449  32.045  37.319  1.00  0.00    -0.462 OA
BRANCH   3   4
ATOM      4  C   UNL A   1      38.575  32.223  36.303  1.00  0.00     0.325 C 
ATOM      5  O   UNL A   1      37.792  31.310  36.055  1.00  0.00    -0.250 OA
BRANCH   4   6
ATOM      6  C   UNL A   1      38.878  33.474  35.161  1.00  0.00     0.238 C 
BRANCH   6   7
ATOM      7  N   UNL A   1      38.805  33.984  33.707  1.00  0.00    -0.343 N 
ATOM      8  C   UNL A   1      38.150  33.695  32.512  1.00  0.00     0.243 C 
ATOM      9  O   UNL A   1      38.240  34.606  31.663  1.00  0.00    -0.273 OA
ATOM     10  H   UNL A   1      39.407  34.754  33.587  1.00  0.00     0.164 HD
BRANCH   8  11
ATOM     11  C   UNL A   1      37.483  32.299  31.946  1.00  0.00     0.176 C 
BRANCH  11  12
ATOM     12  N   UNL A   1      38.402  31.144  31.568  1.00  0.00    -0.337 N 
ATOM     13  C   UNL A   1      39.782  30.932  31.721  1.00  0.00     0.293 C 
ATOM     14  O   UNL A   1      40.283  31.164  32.820  1.00  0.00    -0.265 OA
ATOM     15  H   UNL A   1      37.936  30.398  31.127  1.00  0.00     0.164 HD
BRANCH  13  16
ATOM     16  C   UNL A   1      40.585  30.072  30.582  1.00  0.00     0.252 C 
ATOM     17  O   UNL A   1      39.931  29.011  30.527  1.00  0.00    -0.283 OA
BRANCH  16  18
ATOM     18  C   UNL A   1      42.073  30.278  29.713  1.00  0.00     0.054 A 
ATOM     19  N   UNL A   1      43.633  31.885  29.040  1.00  0.00    -0.240 N 
ATOM     20  C   UNL A   1      42.407  31.569  29.501  1.00  0.00     0.117 A 
ATOM     21  C   UNL A   1      44.174  30.684  28.588  1.00  0.00     0.065 A 
ATOM     22  C   UNL A   1      43.268  29.652  28.934  1.00  0.00     0.012 A 
ATOM     23  C   UNL A   1      45.353  30.463  27.828  1.00  0.00     0.028 A 
ATOM     24  C   UNL A   1      43.674  28.378  28.374  1.00  0.00     0.011 A 
ATOM     25  C   UNL A   1      45.670  29.213  27.339  1.00  0.00     0.002 A 
ATOM     26  C   UNL A   1      44.827  28.168  27.606  1.00  0.00     0.001 A 
BRANCH  19  27
ATOM     27  S   UNL A   1      44.434  33.328  28.499  1.00  0.00     0.268 S 
ATOM     28  O   UNL A   1      43.716  34.343  29.273  1.00  0.00    -0.201 OA
ATOM     29  O   UNL A   1      44.190  33.246  27.058  1.00  0.00    -0.201 OA
BRANCH  27  30
ATOM     30  C   UNL A   1      46.086  34.017  28.443  1.00  0.00     0.088 A 
ATOM     31  C   UNL A   1      49.678  36.356  27.580  1.00  0.00     0.044 C 
ATOM     32  C   UNL A   1      48.456  35.551  27.913  1.00  0.00    -0.051 A 
ATOM     33  C   UNL A   1      47.206  36.062  27.595  1.00  0.00     0.005 A 
ATOM     34  C   UNL A   1      48.519  34.263  28.458  1.00  0.00     0.005 A 
ATOM     35  C   UNL A   1      46.059  35.317  27.874  1.00  0.00     0.022 A 
ATOM     36  C   UNL A   1      47.348  33.487  28.673  1.00  0.00     0.022 A 
ENDBRANCH  27  30
ENDBRANCH  19  27
ENDBRANCH  16  18
ENDBRANCH  13  16
ENDBRANCH  11  12
BRANCH  11  37
ATOM     37  C   UNL A   1      36.214  32.687  31.009  1.00  0.00     0.072 C 
BRANCH  37  38
ATOM     38  C   UNL A   1      34.860  33.547  30.910  1.00  0.00    -0.020 A 
ATOM     39  C   UNL A   1      33.992  33.588  29.811  1.00  0.00     0.087 A 
ATOM     40  C   UNL A   1      34.445  34.731  31.639  1.00  0.00     0.003 A 
ATOM     41  N   UNL A   1      33.287  34.745  29.737  1.00  0.00    -0.361 N 
ATOM     42  C   UNL A   1      33.595  35.498  30.818  1.00  0.00     0.046 A 
ATOM     43  C   UNL A   1      34.761  35.284  32.888  1.00  0.00     0.010 A 
ATOM     44  H   UNL A   1      32.659  34.993  29.020  1.00  0.00     0.166 HD
ATOM     45  C   UNL A   1      33.166  36.796  31.090  1.00  0.00     0.026 A 
ATOM     46  C   UNL A   1      34.256  36.553  33.228  1.00  0.00     0.001 A 
ATOM     47  C   UNL A   1      33.510  37.314  32.326  1.00  0.00     0.002 A 
ENDBRANCH  37  38
ENDBRANCH  11  37
ENDBRANCH   8  11
ENDBRANCH   6   7
ENDBRANCH   4   6
ENDBRANCH   3   4
ENDBRANCH   2   3
ENDBRANCH   1   2
BRANCH   1  48
ATOM     48  O   UNL A   1      38.746  33.380  40.256  1.00  0.00    -0.376 OA
BRANCH  48  49
ATOM     49  C   UNL A   1      38.730  33.794  41.615  1.00  0.00     0.188 C 
BRANCH  49  50
ATOM     50  C   UNL A   1      39.711  34.900  42.027  1.00  0.00     0.188 C 
BRANCH  50  51
ATOM     51  O   UNL A   1      40.641  34.533  43.039  1.00  0.00    -0.376 OA
BRANCH  51  52
ATOM     52  C   UNL A   1      40.603  33.250  43.630  1.00  0.00     0.202 C 
BRANCH  52  53
ATOM     53  C   UNL A   1      41.686  32.409  42.969  1.00  0.00     0.261 C 
BRANCH  53  54
ATOM     54  O   UNL A   1      42.875  32.477  43.795  1.00  0.00    -0.460 OA
BRANCH  54  55
ATOM     55  C   UNL A   1      43.897  33.172  43.229  1.00  0.00     0.338 C 
ATOM     56  O   UNL A   1      44.159  34.338  43.484  1.00  0.00    -0.246 OA
BRANCH  55  57
ATOM     57  C   UNL A   1      44.532  32.349  42.144  1.00  0.00     0.060 A 
ATOM     58  C   UNL A   1      44.548  32.892  40.892  1.00  0.00     0.016 A 
ATOM     59  C   UNL A   1      44.912  30.993  42.244  1.00  0.00     0.016 A 
ATOM     60  C   UNL A   1      44.778  32.020  39.808  1.00  0.00     0.010 A 
ATOM     61  C   UNL A   1      45.101  30.130  41.085  1.00  0.00     0.010 A 
ATOM     62  C   UNL A   1      44.960  30.603  39.774  1.00  0.00    -0.014 A 
BRANCH  62  63
ATOM     63  C   UNL A   1      44.931  29.755  38.345  1.00  0.00     0.031 A 
ATOM     64  C   UNL A   1      45.648  28.190  38.343  1.00  0.00     0.074 A 
ATOM     65  C   UNL A   1      44.261  30.280  37.166  1.00  0.00     0.049 A 
ATOM     66  N   UNL A   1      45.076  27.130  37.831  1.00  0.00    -0.248 NA
ATOM     67  C   UNL A   1      47.018  27.725  38.678  1.00  0.00     0.031 C 
ATOM     68  C   UNL A   1      42.791  30.334  36.880  1.00  0.00     0.029 A 
ATOM     69  N   UNL A   1      44.660  30.711  35.837  1.00  0.00    -0.354 N 
ATOM     70  C   UNL A   1      45.892  26.046  37.637  1.00  0.00     0.074 A 
ATOM     71  C   UNL A   1      47.118  26.461  38.255  1.00  0.00     0.031 C 
ATOM     72  C   UNL A   1      42.479  30.868  35.667  1.00  0.00     0.029 A 
ATOM     73  C   UNL A   1      43.690  31.110  34.906  1.00  0.00     0.049 A 
ATOM     74  H   UNL A   1      45.613  30.725  35.591  1.00  0.00     0.167 HD
ATOM     75  C   UNL A   1      45.789  24.998  36.749  1.00  0.00     0.031 A 
ATOM     76  C   UNL A   1      43.790  31.552  33.594  1.00  0.00     0.031 A 
ATOM     77  C   UNL A   1      45.243  25.173  35.328  1.00  0.00     0.049 A 
ATOM     78  C   UNL A   1      44.589  30.641  32.557  1.00  0.00     0.074 A 
ATOM     79  C   UNL A   1      44.143  24.744  34.592  1.00  0.00     0.029 A 
ATOM     80  N   UNL A   1      45.964  25.882  34.313  1.00  0.00    -0.354 N 
ATOM     81  N   UNL A   1      44.278  29.379  32.291  1.00  0.00    -0.248 NA
ATOM     82  C   UNL A   1      45.759  30.976  31.740  1.00  0.00     0.031 C 
ATOM     83  C   UNL A   1      44.144  25.367  33.262  1.00  0.00     0.029 A 
ATOM     84  C   UNL A   1      45.199  26.277  33.157  1.00  0.00     0.049 A 
ATOM     85  H   UNL A   1      46.923  26.088  34.400  1.00  0.00     0.167 HD
ATOM     86  C   UNL A   1      45.427  28.652  31.883  1.00  0.00     0.074 A 
ATOM     87  C   UNL A   1      46.204  29.763  31.316  1.00  0.00     0.031 C 
ATOM     88  C   UNL A   1      45.763  27.282  32.090  1.00  0.00     0.031 A 
BRANCH  75  89
ATOM     89  C   UNL A   1      45.909  23.661  37.532  1.00  0.00    -0.014 A 
ATOM     90  C   UNL A   1      46.106  23.635  38.921  1.00  0.00     0.010 A 
ATOM     91  C   UNL A   1      45.954  22.381  36.898  1.00  0.00     0.010 A 
ATOM     92  C   UNL A   1      46.327  22.422  39.620  1.00  0.00     0.020 A 
ATOM     93  C   UNL A   1      46.151  21.173  37.577  1.00  0.00     0.020 A 
ATOM     94  C   UNL A   1      46.346  21.199  38.944  1.00  0.00     0.054 A 
BRANCH  94  95
ATOM     95  S   UNL A   1      46.617  19.645  39.839  1.00  0.00     0.124 S 
ATOM     96  O   UNL A   1      45.509  18.816  39.368  1.00  0.00    -0.237 OA
ATOM     97  O   UNL A   1      47.946  19.243  39.389  1.00  0.00    -0.237 OA
ATOM     98  O   UNL A   1      46.537  20.033  41.247  1.00  0.00    -0.744 OA
ENDBRANCH  94  95
ENDBRANCH  75  89
BRANCH  76  99
ATOM     99  C   UNL A   1      43.758  33.082  33.587  1.00  0.00    -0.014 A 
ATOM    100  C   UNL A   1      42.529  33.761  33.822  1.00  0.00     0.010 A 
ATOM    101  C   UNL A   1      44.937  33.815  33.822  1.00  0.00     0.010 A 
ATOM    102  C   UNL A   1      42.484  35.008  34.497  1.00  0.00     0.020 A 
ATOM    103  C   UNL A   1      44.898  35.062  34.487  1.00  0.00     0.020 A 
ATOM    104  C   UNL A   1      43.678  35.598  34.915  1.00  0.00     0.054 A 
BRANCH 104 105
ATOM    105  S   UNL A   1      43.716  36.712  36.389  1.00  0.00     0.124 S 
ATOM    106  O   UNL A   1      44.436  35.907  37.371  1.00  0.00    -0.237 OA
ATOM    107  O   UNL A   1      44.417  37.915  35.946  1.00  0.00    -0.237 OA
ATOM    108  O   UNL A   1      42.291  36.906  36.678  1.00  0.00    -0.744 OA
ENDBRANCH 104 105
ENDBRANCH  76  99
BRANCH  88 109
ATOM    109  C   UNL A   1      46.699  26.615  31.098  1.00  0.00    -0.014 A 
ATOM    110  C   UNL A   1      48.037  27.022  30.953  1.00  0.00     0.010 A 
ATOM    111  C   UNL A   1      46.163  25.784  30.088  1.00  0.00     0.010 A 
ATOM    112  C   UNL A   1      48.804  26.603  29.860  1.00  0.00     0.020 A 
ATOM    113  C   UNL A   1      46.905  25.399  28.973  1.00  0.00     0.020 A 
ATOM    114  C   UNL A   1      48.227  25.806  28.870  1.00  0.00     0.054 A 
BRANCH 114 115
ATOM    115  S   UNL A   1      49.203  25.367  27.415  1.00  0.00     0.124 S 
ATOM    116  O   UNL A   1      48.173  25.032  26.435  1.00  0.00    -0.237 OA
ATOM    117  O   UNL A   1      49.933  26.607  27.161  1.00  0.00    -0.237 OA
ATOM    118  O   UNL A   1      50.020  24.244  27.867  1.00  0.00    -0.744 OA
ENDBRANCH 114 115
ENDBRANCH  88 109
ENDBRANCH  62  63
ENDBRANCH  55  57
ENDBRANCH  54  55
ENDBRANCH  53  54
ENDBRANCH  52  53
ENDBRANCH  51  52
ENDBRANCH  50  51
ENDBRANCH  49  50
ENDBRANCH  48  49
ENDBRANCH   1  48
TORSDOF 29
ENDMDL
MODEL 2
REMARK VINA RESULT:      -6.8      3.915     10.326
REMARK SMILES Cc1ccc(S(=O)(=O)n2cc(C(=O)C(=O)N[C@H](Cc3c[nH]c4ccccc34)C(=O)NCC(=O)OCCOCCOCCOC(=O)c3ccc(-c4c5nc(c(-c6ccc(S(=O)(=O)[O-])cc6)c6ccc([nH]6)c(-c6ccc(S(=O)(=O)[O-])cc6)c6nc(c(-c7ccc(S(=O)(=O)[O-])cc7)c7ccc4[nH]7)C=C6)C=C5)cc3)c3ccccc32)cc1
REMARK SMILES IDX 36 1 35 2 34 3 32 4 33 5 31 6 30 7 28 8 29 9 17 11 16 12
REMARK SMILES IDX 14 13 15 14 12 16 13 17 11 18 9 19 10 20 111 21 106 22
REMARK SMILES IDX 110 23 107 24 109 25 108 26 6 27 7 28 8 29 5 30 1 31 2 32
REMARK SMILES IDX 3 33 113 34 4 35 112 36 18 37 19 38 20 39 27 40 21 41 22 42
REMARK SMILES IDX 26 43 23 45 25 46 24 47 37 48 38 49 39 50 40 51 41 52 42 53
REMARK SMILES IDX 43 54 44 55 45 56 46 57 47 58 105 59 48 60 104 61 49 62
REMARK SMILES IDX 50 63 51 64 98 65 52 66 103 67 97 68 99 69 53 70 102 71
REMARK SMILES IDX 96 72 95 73 54 75 84 76 65 77 83 78 66 79 69 80 82 81 100 82
REMARK SMILES IDX 67 83 68 84 81 86 101 87 70 88 55 89 56 90 64 91 57 92 63 93
REMARK SMILES IDX 58 94 59 95 60 96 61 97 62 98 85 99 86 100 94 101 87 102
REMARK SMILES IDX 93 103 88 104 89 105 90 106 91 107 92 108 71 109 72 110
REMARK SMILES IDX 80 111 73 112 79 113 74 114 75 115 76 116 77 117 78 118
REMARK H PARENT 30 10 16 15 21 44 99 74 69 85
REMARK Flexibility Score: inf
ROOT
ATOM      1  C   UNL A   1      40.890  34.868  33.930  1.00  0.00     0.202 C 
ENDROOT
BRANCH   1   2
ATOM      2  C   UNL A   1      41.510  36.050  34.655  1.00  0.00     0.261 C 
BRANCH   2   3
ATOM      3  O   UNL A   1      41.353  36.442  36.085  1.00  0.00    -0.462 OA
BRANCH   3   4
ATOM      4  C   UNL A   1      40.568  35.935  37.063  1.00  0.00     0.325 C 
ATOM      5  O   UNL A   1      39.599  36.599  37.420  1.00  0.00    -0.250 OA
BRANCH   4   6
ATOM      6  C   UNL A   1      41.182  34.655  38.036  1.00  0.00     0.238 C 
BRANCH   6   7
ATOM      7  N   UNL A   1      42.313  33.654  38.343  1.00  0.00    -0.343 N 
ATOM      8  C   UNL A   1      43.699  33.550  38.235  1.00  0.00     0.243 C 
ATOM      9  O   UNL A   1      44.180  32.607  38.897  1.00  0.00    -0.273 OA
ATOM     10  H   UNL A   1      41.941  32.832  38.740  1.00  0.00     0.164 HD
BRANCH   8  11
ATOM     11  C   UNL A   1      44.771  34.293  37.230  1.00  0.00     0.176 C 
BRANCH  11  12
ATOM     12  N   UNL A   1      45.317  33.522  36.035  1.00  0.00    -0.337 N 
ATOM     13  C   UNL A   1      44.783  32.502  35.232  1.00  0.00     0.293 C 
ATOM     14  O   UNL A   1      43.639  32.643  34.803  1.00  0.00    -0.265 OA
ATOM     15  H   UNL A   1      46.227  33.792  35.775  1.00  0.00     0.164 HD
BRANCH  13  16
ATOM     16  C   UNL A   1      45.789  31.366  34.616  1.00  0.00     0.252 C 
ATOM     17  O   UNL A   1      46.879  31.969  34.554  1.00  0.00    -0.283 OA
BRANCH  16  18
ATOM     18  C   UNL A   1      45.584  29.773  33.957  1.00  0.00     0.054 A 
ATOM     19  N   UNL A   1      44.532  27.720  34.338  1.00  0.00    -0.240 N 
ATOM     20  C   UNL A   1      44.955  28.916  34.790  1.00  0.00     0.117 A 
ATOM     21  C   UNL A   1      45.164  27.549  33.109  1.00  0.00     0.065 A 
ATOM     22  C   UNL A   1      45.855  28.749  32.815  1.00  0.00     0.012 A 
ATOM     23  C   UNL A   1      45.237  26.389  32.293  1.00  0.00     0.028 A 
ATOM     24  C   UNL A   1      46.669  28.617  31.623  1.00  0.00     0.011 A 
ATOM     25  C   UNL A   1      46.031  26.351  31.166  1.00  0.00     0.002 A 
ATOM     26  C   UNL A   1      46.755  27.463  30.832  1.00  0.00     0.001 A 
BRANCH  19  27
ATOM     27  S   UNL A   1      43.837  26.289  35.038  1.00  0.00     0.268 S 
ATOM     28  O   UNL A   1      42.489  26.337  34.469  1.00  0.00    -0.201 OA
ATOM     29  O   UNL A   1      44.006  26.581  36.463  1.00  0.00    -0.201 OA
BRANCH  27  30
ATOM     30  C   UNL A   1      44.145  24.526  35.095  1.00  0.00     0.088 A 
ATOM     31  C   UNL A   1      45.749  20.523  35.814  1.00  0.00     0.044 C 
ATOM     32  C   UNL A   1      45.163  21.882  35.570  1.00  0.00    -0.051 A 
ATOM     33  C   UNL A   1      45.551  22.938  36.383  1.00  0.00     0.005 A 
ATOM     34  C   UNL A   1      44.300  22.159  34.503  1.00  0.00     0.005 A 
ATOM     35  C   UNL A   1      45.036  24.216  36.156  1.00  0.00     0.022 A 
ATOM     36  C   UNL A   1      43.837  23.477  34.241  1.00  0.00     0.022 A 
ENDBRANCH  27  30
ENDBRANCH  19  27
ENDBRANCH  16  18
ENDBRANCH  13  16
ENDBRANCH  11  12
BRANCH  11  37
ATOM     37  C   UNL A   1      45.751  35.223  38.132  1.00  0.00     0.072 C 
BRANCH  37  38
ATOM     38  C   UNL A   1      47.277  35.546  38.520  1.00  0.00    -0.020 A 
ATOM     39  C   UNL A   1      47.754  36.757  39.038  1.00  0.00     0.087 A 
ATOM     40  C   UNL A   1      48.510  34.928  38.070  1.00  0.00     0.003 A 
ATOM     41  N   UNL A   1      49.063  36.974  38.755  1.00  0.00    -0.361 N 
ATOM     42  C   UNL A   1      49.540  35.890  38.101  1.00  0.00     0.046 A 
ATOM     43  C   UNL A   1      48.857  33.669  37.560  1.00  0.00     0.010 A 
ATOM     44  H   UNL A   1      49.577  37.781  38.987  1.00  0.00     0.166 HD
ATOM     45  C   UNL A   1      50.809  35.731  37.548  1.00  0.00     0.026 A 
ATOM     46  C   UNL A   1      50.165  33.453  37.087  1.00  0.00     0.001 A 
ATOM     47  C   UNL A   1      51.109  34.479  37.039  1.00  0.00     0.002 A 
ENDBRANCH  37  38
ENDBRANCH  11  37
ENDBRANCH   8  11
ENDBRANCH   6   7
ENDBRANCH   4   6
ENDBRANCH   3   4
ENDBRANCH   2   3
ENDBRANCH   1   2
BRANCH   1  48
ATOM     48  O   UNL A   1      40.262  33.926  34.750  1.00  0.00    -0.376 OA
BRANCH  48  49
ATOM     49  C   UNL A   1      39.833  32.750  34.081  1.00  0.00     0.188 C 
BRANCH  49  50
ATOM     50  C   UNL A   1      39.363  32.897  32.627  1.00  0.00     0.188 C 
BRANCH  50  51
ATOM     51  O   UNL A   1      38.006  32.537  32.394  1.00  0.00    -0.376 OA
BRANCH  51  52
ATOM     52  C   UNL A   1      37.334  32.957  31.224  1.00  0.00     0.202 C 
BRANCH  52  53
ATOM     53  C   UNL A   1      37.698  31.983  30.113  1.00  0.00     0.261 C 
BRANCH  53  54
ATOM     54  O   UNL A   1      36.610  31.036  29.971  1.00  0.00    -0.460 OA
BRANCH  54  55
ATOM     55  C   UNL A   1      36.830  29.850  30.596  1.00  0.00     0.338 C 
ATOM     56  O   UNL A   1      36.252  29.493  31.613  1.00  0.00    -0.246 OA
BRANCH  55  57
ATOM     57  C   UNL A   1      37.987  29.141  29.951  1.00  0.00     0.060 A 
ATOM     58  C   UNL A   1      38.994  28.734  30.776  1.00  0.00     0.016 A 
ATOM     59  C   UNL A   1      38.236  29.050  28.564  1.00  0.00     0.016 A 
ATOM     60  C   UNL A   1      40.235  28.421  30.182  1.00  0.00     0.010 A 
ATOM     61  C   UNL A   1      39.550  28.757  28.008  1.00  0.00     0.010 A 
ATOM     62  C   UNL A   1      40.662  28.499  28.821  1.00  0.00    -0.014 A 
BRANCH  62  63
ATOM     63  C   UNL A   1      42.263  28.348  28.400  1.00  0.00     0.031 A 
ATOM     64  C   UNL A   1      42.901  26.753  28.285  1.00  0.00     0.074 A 
ATOM     65  C   UNL A   1      43.072  29.511  28.071  1.00  0.00     0.049 A 
ATOM     66  N   UNL A   1      43.627  26.334  27.279  1.00  0.00    -0.248 NA
ATOM     67  C   UNL A   1      42.975  25.640  29.264  1.00  0.00     0.031 C 
ATOM     68  C   UNL A   1      43.070  30.316  26.807  1.00  0.00     0.029 A 
ATOM     69  N   UNL A   1      44.233  30.175  28.637  1.00  0.00    -0.354 N 
ATOM     70  C   UNL A   1      44.302  25.157  27.481  1.00  0.00     0.074 A 
ATOM     71  C   UNL A   1      43.800  24.721  28.752  1.00  0.00     0.031 C 
ATOM     72  C   UNL A   1      43.969  31.338  26.795  1.00  0.00     0.029 A 
ATOM     73  C   UNL A   1      44.802  31.278  27.981  1.00  0.00     0.049 A 
ATOM     74  H   UNL A   1      44.621  29.853  29.482  1.00  0.00     0.167 HD
ATOM     75  C   UNL A   1      45.453  24.677  26.897  1.00  0.00     0.031 A 
ATOM     76  C   UNL A   1      45.894  32.078  28.289  1.00  0.00     0.031 A 
ATOM     77  C   UNL A   1      46.623  25.588  26.510  1.00  0.00     0.049 A 
ATOM     78  C   UNL A   1      47.292  31.363  28.564  1.00  0.00     0.074 A 
ATOM     79  C   UNL A   1      47.259  26.001  25.344  1.00  0.00     0.029 A 
ATOM     80  N   UNL A   1      47.456  26.221  27.490  1.00  0.00    -0.354 N 
ATOM     81  N   UNL A   1      47.901  30.571  27.691  1.00  0.00    -0.248 NA
ATOM     82  C   UNL A   1      48.141  31.416  29.758  1.00  0.00     0.031 C 
ATOM     83  C   UNL A   1      48.292  27.000  25.651  1.00  0.00     0.029 A 
ATOM     84  C   UNL A   1      48.270  27.311  27.013  1.00  0.00     0.049 A 
ATOM     85  H   UNL A   1      47.471  25.929  28.430  1.00  0.00     0.167 HD
ATOM     86  C   UNL A   1      48.714  29.616  28.356  1.00  0.00     0.074 A 
ATOM     87  C   UNL A   1      49.008  30.386  29.574  1.00  0.00     0.031 C 
ATOM     88  C   UNL A   1      49.028  28.273  27.996  1.00  0.00     0.031 A 
BRANCH  75  89
ATOM     89  C   UNL A   1      45.184  23.244  26.359  1.00  0.00    -0.014 A 
ATOM     90  C   UNL A   1      46.216  22.440  25.854  1.00  0.00     0.010 A 
ATOM     91  C   UNL A   1      43.873  22.690  26.222  1.00  0.00     0.010 A 
ATOM     92  C   UNL A   1      45.957  21.180  25.260  1.00  0.00     0.020 A 
ATOM     93  C   UNL A   1      43.603  21.438  25.657  1.00  0.00     0.020 A 
ATOM     94  C   UNL A   1      44.653  20.686  25.168  1.00  0.00     0.054 A 
BRANCH  94  95
ATOM     95  S   UNL A   1      44.321  19.066  24.421  1.00  0.00     0.124 S 
ATOM     96  O   UNL A   1      44.459  19.346  22.994  1.00  0.00    -0.237 OA
ATOM     97  O   UNL A   1      45.360  18.225  25.006  1.00  0.00    -0.237 OA
ATOM     98  O   UNL A   1      42.959  18.752  24.856  1.00  0.00    -0.744 OA
ENDBRANCH  94  95
ENDBRANCH  75  89
BRANCH  76  99
ATOM     99  C   UNL A   1      45.392  33.342  28.990  1.00  0.00    -0.014 A 
ATOM    100  C   UNL A   1      44.562  33.228  30.140  1.00  0.00     0.010 A 
ATOM    101  C   UNL A   1      46.083  34.560  28.832  1.00  0.00     0.010 A 
ATOM    102  C   UNL A   1      44.621  34.170  31.199  1.00  0.00     0.020 A 
ATOM    103  C   UNL A   1      46.138  35.507  29.880  1.00  0.00     0.020 A 
ATOM    104  C   UNL A   1      45.494  35.254  31.096  1.00  0.00     0.054 A 
BRANCH 104 105
ATOM    105  S   UNL A   1      46.208  36.038  32.609  1.00  0.00     0.124 S 
ATOM    106  O   UNL A   1      45.923  37.453  32.394  1.00  0.00    -0.237 OA
ATOM    107  O   UNL A   1      45.496  35.430  33.732  1.00  0.00    -0.237 OA
ATOM    108  O   UNL A   1      47.626  35.675  32.516  1.00  0.00    -0.744 OA
ENDBRANCH 104 105
ENDBRANCH  76  99
BRANCH  88 109
ATOM    109  C   UNL A   1      50.328  27.679  28.507  1.00  0.00    -0.014 A 
ATOM    110  C   UNL A   1      50.373  26.417  29.128  1.00  0.00     0.010 A 
ATOM    111  C   UNL A   1      51.463  28.508  28.649  1.00  0.00     0.010 A 
ATOM    112  C   UNL A   1      51.505  26.003  29.840  1.00  0.00     0.020 A 
ATOM    113  C   UNL A   1      52.576  28.123  29.393  1.00  0.00     0.020 A 
ATOM    114  C   UNL A   1      52.592  26.866  29.979  1.00  0.00     0.054 A 
BRANCH 114 115
ATOM    115  S   UNL A   1      53.998  26.352  30.992  1.00  0.00     0.124 S 
ATOM    116  O   UNL A   1      54.949  25.877  29.990  1.00  0.00    -0.237 OA
ATOM    117  O   UNL A   1      54.358  27.602  31.657  1.00  0.00    -0.237 OA
ATOM    118  O   UNL A   1      53.443  25.319  31.862  1.00  0.00    -0.744 OA
ENDBRANCH 114 115
ENDBRANCH  88 109
ENDBRANCH  62  63
ENDBRANCH  55  57
ENDBRANCH  54  55
ENDBRANCH  53  54
ENDBRANCH  52  53
ENDBRANCH  51  52
ENDBRANCH  50  51
ENDBRANCH  49  50
ENDBRANCH  48  49
ENDBRANCH   1  48
TORSDOF 29
ENDMDL
MODEL 3
REMARK VINA RESULT:      -6.7      4.583     10.126
REMARK SMILES Cc1ccc(S(=O)(=O)n2cc(C(=O)C(=O)N[C@H](Cc3c[nH]c4ccccc34)C(=O)NCC(=O)OCCOCCOCCOC(=O)c3ccc(-c4c5nc(c(-c6ccc(S(=O)(=O)[O-])cc6)c6ccc([nH]6)c(-c6ccc(S(=O)(=O)[O-])cc6)c6nc(c(-c7ccc(S(=O)(=O)[O-])cc7)c7ccc4[nH]7)C=C6)C=C5)cc3)c3ccccc32)cc1
REMARK SMILES IDX 36 1 35 2 34 3 32 4 33 5 31 6 30 7 28 8 29 9 17 11 16 12
REMARK SMILES IDX 14 13 15 14 12 16 13 17 11 18 9 19 10 20 111 21 106 22
REMARK SMILES IDX 110 23 107 24 109 25 108 26 6 27 7 28 8 29 5 30 1 31 2 32
REMARK SMILES IDX 3 33 113 34 4 35 112 36 18 37 19 38 20 39 27 40 21 41 22 42
REMARK SMILES IDX 26 43 23 45 25 46 24 47 37 48 38 49 39 50 40 51 41 52 42 53
REMARK SMILES IDX 43 54 44 55 45 56 46 57 47 58 105 59 48 60 104 61 49 62
REMARK SMILES IDX 50 63 51 64 98 65 52 66 103 67 97 68 99 69 53 70 102 71
REMARK SMILES IDX 96 72 95 73 54 75 84 76 65 77 83 78 66 79 69 80 82 81 100 82
REMARK SMILES IDX 67 83 68 84 81 86 101 87 70 88 55 89 56 90 64 91 57 92 63 93
REMARK SMILES IDX 58 94 59 95 60 96 61 97 62 98 85 99 86 100 94 101 87 102
REMARK SMILES IDX 93 103 88 104 89 105 90 106 91 107 92 108 71 109 72 110
REMARK SMILES IDX 80 111 73 112 79 113 74 114 75 115 76 116 77 117 78 118
REMARK H PARENT 30 10 16 15 21 44 99 74 69 85
REMARK Flexibility Score: inf
ROOT
ATOM      1  C   UNL A   1      44.659  39.367  27.664  1.00  0.00     0.202 C 
ENDROOT
BRANCH   1   2
ATOM      2  C   UNL A   1      45.656  38.452  26.976  1.00  0.00     0.261 C 
BRANCH   2   3
ATOM      3  O   UNL A   1      45.529  36.993  26.694  1.00  0.00    -0.462 OA
BRANCH   3   4
ATOM      4  C   UNL A   1      44.773  36.039  27.281  1.00  0.00     0.325 C 
ATOM      5  O   UNL A   1      44.179  36.336  28.314  1.00  0.00    -0.250 OA
BRANCH   4   6
ATOM      6  C   UNL A   1      45.019  34.396  26.834  1.00  0.00     0.238 C 
BRANCH   6   7
ATOM      7  N   UNL A   1      44.423  33.028  26.444  1.00  0.00    -0.343 N 
ATOM      8  C   UNL A   1      44.419  31.706  26.885  1.00  0.00     0.243 C 
ATOM      9  O   UNL A   1      43.531  31.007  26.353  1.00  0.00    -0.273 OA
ATOM     10  H   UNL A   1      43.875  33.116  25.630  1.00  0.00     0.164 HD
BRANCH   8  11
ATOM     11  C   UNL A   1      45.498  30.859  27.798  1.00  0.00     0.176 C 
BRANCH  11  12
ATOM     12  N   UNL A   1      45.807  29.416  27.421  1.00  0.00    -0.337 N 
ATOM     13  C   UNL A   1      45.503  28.185  28.024  1.00  0.00     0.293 C 
ATOM     14  O   UNL A   1      44.346  27.994  28.395  1.00  0.00    -0.265 OA
ATOM     15  H   UNL A   1      46.325  29.329  26.588  1.00  0.00     0.164 HD
BRANCH  13  16
ATOM     16  C   UNL A   1      46.571  26.951  27.893  1.00  0.00     0.252 C 
ATOM     17  O   UNL A   1      45.892  26.056  27.350  1.00  0.00    -0.283 OA
BRANCH  16  18
ATOM     18  C   UNL A   1      48.182  26.656  28.468  1.00  0.00     0.054 A 
ATOM     19  N   UNL A   1      50.436  26.839  27.874  1.00  0.00    -0.240 N 
ATOM     20  C   UNL A   1      49.135  26.817  27.525  1.00  0.00     0.117 A 
ATOM     21  C   UNL A   1      50.473  26.359  29.180  1.00  0.00     0.065 A 
ATOM     22  C   UNL A   1      49.134  26.192  29.610  1.00  0.00     0.012 A 
ATOM     23  C   UNL A   1      51.596  25.985  29.965  1.00  0.00     0.028 A 
ATOM     24  C   UNL A   1      49.068  25.554  30.910  1.00  0.00     0.011 A 
ATOM     25  C   UNL A   1      51.443  25.390  31.200  1.00  0.00     0.002 A 
ATOM     26  C   UNL A   1      50.179  25.167  31.673  1.00  0.00     0.001 A 
BRANCH  19  27
ATOM     27  S   UNL A   1      51.957  26.872  27.035  1.00  0.00     0.268 S 
ATOM     28  O   UNL A   1      52.432  28.211  27.389  1.00  0.00    -0.201 OA
ATOM     29  O   UNL A   1      51.511  26.629  25.662  1.00  0.00    -0.201 OA
BRANCH  27  30
ATOM     30  C   UNL A   1      53.489  25.947  26.978  1.00  0.00     0.088 A 
ATOM     31  C   UNL A   1      56.634  22.991  26.276  1.00  0.00     0.044 C 
ATOM     32  C   UNL A   1      55.581  24.034  26.513  1.00  0.00    -0.051 A 
ATOM     33  C   UNL A   1      54.448  24.040  25.712  1.00  0.00     0.005 A 
ATOM     34  C   UNL A   1      55.646  24.956  27.564  1.00  0.00     0.005 A 
ATOM     35  C   UNL A   1      53.445  24.986  25.933  1.00  0.00     0.022 A 
ATOM     36  C   UNL A   1      54.588  25.869  27.822  1.00  0.00     0.022 A 
ENDBRANCH  27  30
ENDBRANCH  19  27
ENDBRANCH  16  18
ENDBRANCH  13  16
ENDBRANCH  11  12
BRANCH  11  37
ATOM     37  C   UNL A   1      45.290  31.282  29.351  1.00  0.00     0.072 C 
BRANCH  37  38
ATOM     38  C   UNL A   1      44.217  31.682  30.479  1.00  0.00    -0.020 A 
ATOM     39  C   UNL A   1      43.818  30.878  31.555  1.00  0.00     0.087 A 
ATOM     40  C   UNL A   1      43.148  32.663  30.452  1.00  0.00     0.003 A 
ATOM     41  N   UNL A   1      42.570  31.170  32.000  1.00  0.00    -0.361 N 
ATOM     42  C   UNL A   1      42.106  32.226  31.293  1.00  0.00     0.046 A 
ATOM     43  C   UNL A   1      42.911  33.848  29.740  1.00  0.00     0.010 A 
ATOM     44  H   UNL A   1      42.086  30.695  32.714  1.00  0.00     0.166 HD
ATOM     45  C   UNL A   1      40.834  32.794  31.364  1.00  0.00     0.026 A 
ATOM     46  C   UNL A   1      41.669  34.495  29.873  1.00  0.00     0.001 A 
ATOM     47  C   UNL A   1      40.634  33.953  30.635  1.00  0.00     0.002 A 
ENDBRANCH  37  38
ENDBRANCH  11  37
ENDBRANCH   8  11
ENDBRANCH   6   7
ENDBRANCH   4   6
ENDBRANCH   3   4
ENDBRANCH   2   3
ENDBRANCH   1   2
BRANCH   1  48
ATOM     48  O   UNL A   1      43.857  40.127  26.808  1.00  0.00    -0.376 OA
BRANCH  48  49
ATOM     49  C   UNL A   1      44.149  41.517  26.800  1.00  0.00     0.188 C 
BRANCH  49  50
ATOM     50  C   UNL A   1      45.064  42.052  27.909  1.00  0.00     0.188 C 
BRANCH  50  51
ATOM     51  O   UNL A   1      44.567  43.191  28.602  1.00  0.00    -0.376 OA
BRANCH  51  52
ATOM     52  C   UNL A   1      45.126  43.593  29.836  1.00  0.00     0.202 C 
BRANCH  52  53
ATOM     53  C   UNL A   1      45.002  42.420  30.798  1.00  0.00     0.261 C 
BRANCH  53  54
ATOM     54  O   UNL A   1      43.616  42.320  31.208  1.00  0.00    -0.460 OA
BRANCH  54  55
ATOM     55  C   UNL A   1      43.014  41.162  30.828  1.00  0.00     0.338 C 
ATOM     56  O   UNL A   1      42.099  41.097  30.020  1.00  0.00    -0.246 OA
BRANCH  55  57
ATOM     57  C   UNL A   1      43.525  40.024  31.666  1.00  0.00     0.060 A 
ATOM     58  C   UNL A   1      43.869  38.881  31.005  1.00  0.00     0.016 A 
ATOM     59  C   UNL A   1      43.477  39.943  33.075  1.00  0.00     0.016 A 
ATOM     60  C   UNL A   1      43.982  37.698  31.766  1.00  0.00     0.010 A 
ATOM     61  C   UNL A   1      43.564  38.686  33.806  1.00  0.00     0.010 A 
ATOM     62  C   UNL A   1      43.748  37.458  33.155  1.00  0.00    -0.014 A 
BRANCH  62  63
ATOM     63  C   UNL A   1      43.669  35.917  33.771  1.00  0.00     0.031 A 
ATOM     64  C   UNL A   1      45.089  34.950  33.657  1.00  0.00     0.074 A 
ATOM     65  C   UNL A   1      42.477  35.431  34.446  1.00  0.00     0.049 A 
ATOM     66  N   UNL A   1      45.576  34.255  34.654  1.00  0.00    -0.248 NA
ATOM     67  C   UNL A   1      45.911  34.525  32.495  1.00  0.00     0.031 C 
ATOM     68  C   UNL A   1      42.000  35.745  35.831  1.00  0.00     0.029 A 
ATOM     69  N   UNL A   1      41.483  34.398  34.206  1.00  0.00    -0.354 N 
ATOM     70  C   UNL A   1      46.516  33.314  34.323  1.00  0.00     0.074 A 
ATOM     71  C   UNL A   1      46.740  33.570  32.929  1.00  0.00     0.031 C 
ATOM     72  C   UNL A   1      40.850  35.106  36.183  1.00  0.00     0.029 A 
ATOM     73  C   UNL A   1      40.470  34.164  35.148  1.00  0.00     0.049 A 
ATOM     74  H   UNL A   1      41.520  33.863  33.380  1.00  0.00     0.167 HD
ATOM     75  C   UNL A   1      46.879  32.150  34.963  1.00  0.00     0.031 A 
ATOM     76  C   UNL A   1      39.421  33.256  35.175  1.00  0.00     0.031 A 
ATOM     77  C   UNL A   1      45.867  31.263  35.696  1.00  0.00     0.049 A 
ATOM     78  C   UNL A   1      39.761  31.712  34.974  1.00  0.00     0.074 A 
ATOM     79  C   UNL A   1      45.616  30.859  37.004  1.00  0.00     0.029 A 
ATOM     80  N   UNL A   1      44.875  30.498  35.000  1.00  0.00    -0.354 N 
ATOM     81  N   UNL A   1      40.596  31.032  35.750  1.00  0.00    -0.248 NA
ATOM     82  C   UNL A   1      39.268  30.779  33.956  1.00  0.00     0.031 C 
ATOM     83  C   UNL A   1      44.388  30.054  37.062  1.00  0.00     0.029 A 
ATOM     84  C   UNL A   1      43.783  30.006  35.803  1.00  0.00     0.049 A 
ATOM     85  H   UNL A   1      44.934  30.321  34.034  1.00  0.00     0.167 HD
ATOM     86  C   UNL A   1      41.191  29.960  35.035  1.00  0.00     0.074 A 
ATOM     87  C   UNL A   1      40.120  29.724  34.056  1.00  0.00     0.031 C 
ATOM     88  C   UNL A   1      42.491  29.388  35.160  1.00  0.00     0.031 A 
BRANCH  75  89
ATOM     89  C   UNL A   1      48.422  32.141  35.154  1.00  0.00    -0.014 A 
ATOM     90  C   UNL A   1      49.092  31.031  35.689  1.00  0.00     0.010 A 
ATOM     91  C   UNL A   1      49.248  33.285  34.923  1.00  0.00     0.010 A 
ATOM     92  C   UNL A   1      50.481  31.063  35.969  1.00  0.00     0.020 A 
ATOM     93  C   UNL A   1      50.624  33.324  35.175  1.00  0.00     0.020 A 
ATOM     94  C   UNL A   1      51.238  32.208  35.708  1.00  0.00     0.054 A 
BRANCH  94  95
ATOM     95  S   UNL A   1      53.019  32.246  36.052  1.00  0.00     0.124 S 
ATOM     96  O   UNL A   1      53.583  32.576  34.746  1.00  0.00    -0.237 OA
ATOM     97  O   UNL A   1      53.126  33.285  37.072  1.00  0.00    -0.237 OA
ATOM     98  O   UNL A   1      53.313  30.892  36.524  1.00  0.00    -0.744 OA
ENDBRANCH  94  95
ENDBRANCH  75  89
BRANCH  76  99
ATOM     99  C   UNL A   1      38.154  33.956  34.676  1.00  0.00    -0.014 A 
ATOM    100  C   UNL A   1      38.112  34.476  33.352  1.00  0.00     0.010 A 
ATOM    101  C   UNL A   1      36.913  33.695  35.289  1.00  0.00     0.010 A 
ATOM    102  C   UNL A   1      36.913  34.488  32.594  1.00  0.00     0.020 A 
ATOM    103  C   UNL A   1      35.714  33.713  34.541  1.00  0.00     0.020 A 
ATOM    104  C   UNL A   1      35.738  34.006  33.173  1.00  0.00     0.054 A 
BRANCH 104 105
ATOM    105  S   UNL A   1      34.404  33.268  32.128  1.00  0.00     0.124 S 
ATOM    106  O   UNL A   1      35.060  32.090  31.570  1.00  0.00    -0.237 OA
ATOM    107  O   UNL A   1      33.305  32.983  33.050  1.00  0.00    -0.237 OA
ATOM    108  O   UNL A   1      34.129  34.336  31.161  1.00  0.00    -0.744 OA
ENDBRANCH 104 105
ENDBRANCH  76  99
BRANCH  88 109
ATOM    109  C   UNL A   1      42.682  27.943  34.739  1.00  0.00    -0.014 A 
ATOM    110  C   UNL A   1      42.337  26.872  35.584  1.00  0.00     0.010 A 
ATOM    111  C   UNL A   1      43.493  27.646  33.621  1.00  0.00     0.010 A 
ATOM    112  C   UNL A   1      42.769  25.569  35.312  1.00  0.00     0.020 A 
ATOM    113  C   UNL A   1      43.965  26.360  33.367  1.00  0.00     0.020 A 
ATOM    114  C   UNL A   1      43.594  25.326  34.213  1.00  0.00     0.054 A 
BRANCH 114 115
ATOM    115  S   UNL A   1      44.227  23.656  33.942  1.00  0.00     0.124 S 
ATOM    116  O   UNL A   1      43.396  23.180  32.839  1.00  0.00    -0.237 OA
ATOM    117  O   UNL A   1      45.625  23.919  33.608  1.00  0.00    -0.237 OA
ATOM    118  O   UNL A   1      44.007  22.986  35.221  1.00  0.00    -0.744 OA
ENDBRANCH 114 115
ENDBRANCH  88 109
ENDBRANCH  62  63
ENDBRANCH  55  57
ENDBRANCH  54  55
ENDBRANCH  53  54
ENDBRANCH  52  53
ENDBRANCH  51  52
ENDBRANCH  50  51
ENDBRANCH  49  50
ENDBRANCH  48  49
ENDBRANCH   1  48
TORSDOF 29
ENDMDL
