MODEL 1
REMARK VINA RESULT:     -12.2      0.000      0.000
REMARK SMILES Cc1c(NC(=O)c2cccc(-c3cc4ccccc4oc3=O)c2)cccc1C(=O)OCCOCCOCCOC(=O)c1ccc(-c2c3nc(c(-c4ccc(S(=O)(=O)[O-])cc4)c4ccc([nH]4)c(-c4ccc(S(=O)(=O)[O-])cc4)c4nc(c(-c5ccc(S(=O)(=O)[O-])cc5)c5ccc2[nH]5)C=C4)C=C3)cc1
REMARK SMILES IDX 34 1 33 2 32 3 31 4 30 5 28 6 29 7 27 8 1 9 2 10 3 11 24 12
REMARK SMILES IDX 26 13 25 14 4 15 5 16 6 18 7 19 8 20 23 21 9 22 11 23 10 24
REMARK SMILES IDX 12 25 13 26 21 27 14 28 20 29 22 30 15 31 19 32 16 33 18 34
REMARK SMILES IDX 17 35 35 36 36 37 37 38 38 39 39 40 40 41 41 42 42 43 43 44
REMARK SMILES IDX 101 45 44 46 100 47 45 48 46 49 47 50 94 51 48 52 99 53
REMARK SMILES IDX 93 54 95 55 49 56 98 57 92 58 91 59 50 61 80 62 61 63 79 64
REMARK SMILES IDX 62 65 65 66 78 67 96 68 63 69 64 70 77 72 97 73 66 74 51 75
REMARK SMILES IDX 52 76 60 77 53 78 59 79 54 80 55 81 56 82 57 83 58 84 81 85
REMARK SMILES IDX 82 86 90 87 83 88 89 89 84 90 85 91 86 92 87 93 88 94 67 95
REMARK SMILES IDX 68 96 76 97 69 98 75 99 70 100 71 101 72 102 73 103 74 104
REMARK H PARENT 4 17 95 60 65 71
REMARK Flexibility Score: inf
ROOT
ATOM      1  C   UNL A   1      34.713  33.941  30.091  1.00  0.00     0.188 C 
ENDROOT
BRANCH   1   2
ATOM      2  O   UNL A   1      34.262  33.667  28.743  1.00  0.00    -0.376 OA
BRANCH   2   3
ATOM      3  C   UNL A   1      34.057  32.355  28.175  1.00  0.00     0.202 C 
BRANCH   3   4
ATOM      4  C   UNL A   1      32.720  31.810  27.244  1.00  0.00     0.261 C 
BRANCH   4   5
ATOM      5  O   UNL A   1      32.304  30.277  26.417  1.00  0.00    -0.460 OA
BRANCH   5   6
ATOM      6  C   UNL A   1      32.077  28.863  26.720  1.00  0.00     0.338 C 
ATOM      7  O   UNL A   1      32.204  28.335  27.824  1.00  0.00    -0.246 OA
BRANCH   6   8
ATOM      8  C   UNL A   1      31.809  27.677  25.825  1.00  0.00     0.065 A 
ATOM      9  C   UNL A   1      33.461  28.251  24.060  1.00  0.00     0.047 C 
ATOM     10  C   UNL A   1      32.246  27.517  24.524  1.00  0.00    -0.013 A 
ATOM     11  C   UNL A   1      31.531  26.604  23.694  1.00  0.00     0.045 A 
ATOM     12  C   UNL A   1      30.481  25.802  24.178  1.00  0.00     0.026 A 
ATOM     13  C   UNL A   1      30.811  26.752  26.318  1.00  0.00     0.016 A 
ATOM     14  C   UNL A   1      30.144  25.843  25.511  1.00  0.00     0.003 A 
BRANCH  11  15
ATOM     15  N   UNL A   1      31.943  26.448  22.366  1.00  0.00    -0.322 N 
ATOM     16  C   UNL A   1      32.832  25.577  21.787  1.00  0.00     0.255 C 
ATOM     17  H   UNL A   1      31.521  27.074  21.734  1.00  0.00     0.170 HD
ATOM     18  O   UNL A   1      33.373  25.924  20.734  1.00  0.00    -0.269 OA
BRANCH  16  19
ATOM     19  C   UNL A   1      33.055  24.173  22.262  1.00  0.00     0.040 A 
ATOM     20  C   UNL A   1      32.399  23.160  21.550  1.00  0.00     0.014 A 
ATOM     21  C   UNL A   1      33.664  23.852  23.487  1.00  0.00     0.022 A 
ATOM     22  C   UNL A   1      32.333  21.860  22.051  1.00  0.00     0.001 A 
ATOM     23  C   UNL A   1      33.573  22.543  24.021  1.00  0.00    -0.010 A 
ATOM     24  C   UNL A   1      32.907  21.558  23.283  1.00  0.00     0.009 A 
BRANCH  23  25
ATOM     25  C   UNL A   1      33.982  22.146  25.399  1.00  0.00     0.068 A 
ATOM     26  C   UNL A   1      33.336  21.220  26.137  1.00  0.00     0.028 A 
ATOM     27  C   UNL A   1      35.460  22.015  25.617  1.00  0.00     0.344 A 
ATOM     28  C   UNL A   1      33.694  19.878  25.649  1.00  0.00     0.018 A 
ATOM     29  O   UNL A   1      35.955  20.735  25.353  1.00  0.00    -0.422 OA
ATOM     30  O   UNL A   1      36.172  22.967  25.914  1.00  0.00    -0.246 OA
ATOM     31  C   UNL A   1      32.752  18.878  25.506  1.00  0.00     0.012 A 
ATOM     32  C   UNL A   1      35.011  19.697  25.190  1.00  0.00     0.138 A 
ATOM     33  C   UNL A   1      33.123  17.739  24.809  1.00  0.00     0.001 A 
ATOM     34  C   UNL A   1      35.381  18.569  24.485  1.00  0.00     0.048 A 
ATOM     35  C   UNL A   1      34.409  17.604  24.265  1.00  0.00     0.004 A 
ENDBRANCH  23  25
ENDBRANCH  16  19
ENDBRANCH  11  15
ENDBRANCH   6   8
ENDBRANCH   5   6
ENDBRANCH   4   5
ENDBRANCH   3   4
ENDBRANCH   2   3
ENDBRANCH   1   2
BRANCH   1  36
ATOM     36  C   UNL A   1      35.989  33.377  30.732  1.00  0.00     0.188 C 
BRANCH  36  37
ATOM     37  O   UNL A   1      35.708  32.614  31.885  1.00  0.00    -0.376 OA
BRANCH  37  38
ATOM     38  C   UNL A   1      35.922  31.218  31.781  1.00  0.00     0.202 C 
BRANCH  38  39
ATOM     39  C   UNL A   1      37.000  30.798  30.768  1.00  0.00     0.261 C 
BRANCH  39  40
ATOM     40  O   UNL A   1      36.856  29.443  30.284  1.00  0.00    -0.460 OA
BRANCH  40  41
ATOM     41  C   UNL A   1      37.393  29.139  29.043  1.00  0.00     0.338 C 
ATOM     42  O   UNL A   1      36.763  29.224  28.027  1.00  0.00    -0.246 OA
BRANCH  41  43
ATOM     43  C   UNL A   1      38.880  29.040  29.134  1.00  0.00     0.060 A 
ATOM     44  C   UNL A   1      39.697  28.949  30.259  1.00  0.00     0.016 A 
ATOM     45  C   UNL A   1      39.512  29.010  27.941  1.00  0.00     0.016 A 
ATOM     46  C   UNL A   1      41.149  29.034  30.183  1.00  0.00     0.010 A 
ATOM     47  C   UNL A   1      40.895  29.136  27.912  1.00  0.00     0.010 A 
ATOM     48  C   UNL A   1      41.857  29.217  28.978  1.00  0.00    -0.014 A 
BRANCH  48  49
ATOM     49  C   UNL A   1      43.606  29.434  28.877  1.00  0.00     0.031 A 
ATOM     50  C   UNL A   1      44.685  30.441  27.877  1.00  0.00     0.074 A 
ATOM     51  C   UNL A   1      44.333  28.528  29.575  1.00  0.00     0.049 A 
ATOM     52  N   UNL A   1      45.932  30.139  27.537  1.00  0.00    -0.248 NA
ATOM     53  C   UNL A   1      44.446  31.776  27.145  1.00  0.00     0.031 C 
ATOM     54  C   UNL A   1      45.748  28.593  29.918  1.00  0.00     0.029 A 
ATOM     55  N   UNL A   1      43.944  27.250  29.991  1.00  0.00    -0.354 N 
ATOM     56  C   UNL A   1      46.463  31.243  26.827  1.00  0.00     0.074 A 
ATOM     57  C   UNL A   1      45.391  31.916  26.241  1.00  0.00     0.031 C 
ATOM     58  C   UNL A   1      46.170  27.356  30.225  1.00  0.00     0.029 A 
ATOM     59  C   UNL A   1      45.084  26.448  29.901  1.00  0.00     0.049 A 
ATOM     60  H   UNL A   1      43.047  26.972  30.287  1.00  0.00     0.167 HD
ATOM     61  C   UNL A   1      47.698  31.793  27.026  1.00  0.00     0.031 A 
ATOM     62  C   UNL A   1      45.145  25.399  29.033  1.00  0.00     0.031 A 
ATOM     63  C   UNL A   1      48.568  30.754  27.479  1.00  0.00     0.049 A 
ATOM     64  C   UNL A   1      46.347  25.474  28.120  1.00  0.00     0.074 A 
ATOM     65  C   UNL A   1      49.030  30.355  28.713  1.00  0.00     0.029 A 
ATOM     66  N   UNL A   1      48.702  29.680  26.618  1.00  0.00    -0.354 N 
ATOM     67  N   UNL A   1      47.044  26.562  27.919  1.00  0.00    -0.248 NA
ATOM     68  C   UNL A   1      46.886  24.331  27.391  1.00  0.00     0.031 C 
ATOM     69  C   UNL A   1      49.217  28.940  28.629  1.00  0.00     0.029 A 
ATOM     70  C   UNL A   1      48.951  28.531  27.330  1.00  0.00     0.049 A 
ATOM     71  H   UNL A   1      48.630  29.732  25.638  1.00  0.00     0.167 HD
ATOM     72  C   UNL A   1      48.067  26.304  27.051  1.00  0.00     0.074 A 
ATOM     73  C   UNL A   1      47.940  24.887  26.766  1.00  0.00     0.031 C 
ATOM     74  C   UNL A   1      48.924  27.268  26.605  1.00  0.00     0.031 A 
BRANCH  61  75
ATOM     75  C   UNL A   1      48.040  33.299  26.899  1.00  0.00    -0.014 A 
ATOM     76  C   UNL A   1      47.364  34.253  27.685  1.00  0.00     0.010 A 
ATOM     77  C   UNL A   1      48.923  33.862  25.937  1.00  0.00     0.010 A 
ATOM     78  C   UNL A   1      47.565  35.650  27.527  1.00  0.00     0.020 A 
ATOM     79  C   UNL A   1      49.171  35.242  25.798  1.00  0.00     0.020 A 
ATOM     80  C   UNL A   1      48.472  36.137  26.586  1.00  0.00     0.054 A 
BRANCH  80  81
ATOM     81  S   UNL A   1      48.706  37.926  26.353  1.00  0.00     0.124 S 
ATOM     82  O   UNL A   1      47.668  38.490  27.213  1.00  0.00    -0.237 OA
ATOM     83  O   UNL A   1      50.080  38.133  26.799  1.00  0.00    -0.237 OA
ATOM     84  O   UNL A   1      48.487  38.122  24.920  1.00  0.00    -0.744 OA
ENDBRANCH  80  81
ENDBRANCH  61  75
BRANCH  62  85
ATOM     85  C   UNL A   1      43.833  24.715  28.783  1.00  0.00    -0.014 A 
ATOM     86  C   UNL A   1      43.144  25.065  27.594  1.00  0.00     0.010 A 
ATOM     87  C   UNL A   1      43.430  23.542  29.447  1.00  0.00     0.010 A 
ATOM     88  C   UNL A   1      42.179  24.224  27.027  1.00  0.00     0.020 A 
ATOM     89  C   UNL A   1      42.437  22.700  28.891  1.00  0.00     0.020 A 
ATOM     90  C   UNL A   1      41.846  23.031  27.665  1.00  0.00     0.054 A 
BRANCH  90  91
ATOM     91  S   UNL A   1      40.786  21.858  26.751  1.00  0.00     0.124 S 
ATOM     92  O   UNL A   1      41.602  21.538  25.585  1.00  0.00    -0.237 OA
ATOM     93  O   UNL A   1      40.630  20.768  27.715  1.00  0.00    -0.237 OA
ATOM     94  O   UNL A   1      39.577  22.631  26.485  1.00  0.00    -0.744 OA
ENDBRANCH  90  91
ENDBRANCH  62  85
BRANCH  74  95
ATOM     95  C   UNL A   1      49.793  27.128  25.377  1.00  0.00    -0.014 A 
ATOM     96  C   UNL A   1      49.291  27.195  24.069  1.00  0.00     0.010 A 
ATOM     97  C   UNL A   1      51.201  27.107  25.527  1.00  0.00     0.010 A 
ATOM     98  C   UNL A   1      50.142  27.144  22.960  1.00  0.00     0.020 A 
ATOM     99  C   UNL A   1      52.062  27.129  24.428  1.00  0.00     0.020 A 
ATOM    100  C   UNL A   1      51.522  27.102  23.149  1.00  0.00     0.054 A 
BRANCH 100 101
ATOM    101  S   UNL A   1      52.628  27.045  21.719  1.00  0.00     0.124 S 
ATOM    102  O   UNL A   1      53.765  26.301  22.256  1.00  0.00    -0.237 OA
ATOM    103  O   UNL A   1      51.838  26.338  20.712  1.00  0.00    -0.237 OA
ATOM    104  O   UNL A   1      52.876  28.455  21.431  1.00  0.00    -0.744 OA
ENDBRANCH 100 101
ENDBRANCH  74  95
ENDBRANCH  48  49
ENDBRANCH  41  43
ENDBRANCH  40  41
ENDBRANCH  39  40
ENDBRANCH  38  39
ENDBRANCH  37  38
ENDBRANCH  36  37
ENDBRANCH   1  36
TORSDOF 23
ENDMDL
MODEL 2
REMARK VINA RESULT:     -11.5      7.733     12.718
REMARK SMILES Cc1c(NC(=O)c2cccc(-c3cc4ccccc4oc3=O)c2)cccc1C(=O)OCCOCCOCCOC(=O)c1ccc(-c2c3nc(c(-c4ccc(S(=O)(=O)[O-])cc4)c4ccc([nH]4)c(-c4ccc(S(=O)(=O)[O-])cc4)c4nc(c(-c5ccc(S(=O)(=O)[O-])cc5)c5ccc2[nH]5)C=C4)C=C3)cc1
REMARK SMILES IDX 34 1 33 2 32 3 31 4 30 5 28 6 29 7 27 8 1 9 2 10 3 11 24 12
REMARK SMILES IDX 26 13 25 14 4 15 5 16 6 18 7 19 8 20 23 21 9 22 11 23 10 24
REMARK SMILES IDX 12 25 13 26 21 27 14 28 20 29 22 30 15 31 19 32 16 33 18 34
REMARK SMILES IDX 17 35 35 36 36 37 37 38 38 39 39 40 40 41 41 42 42 43 43 44
REMARK SMILES IDX 101 45 44 46 100 47 45 48 46 49 47 50 94 51 48 52 99 53
REMARK SMILES IDX 93 54 95 55 49 56 98 57 92 58 91 59 50 61 80 62 61 63 79 64
REMARK SMILES IDX 62 65 65 66 78 67 96 68 63 69 64 70 77 72 97 73 66 74 51 75
REMARK SMILES IDX 52 76 60 77 53 78 59 79 54 80 55 81 56 82 57 83 58 84 81 85
REMARK SMILES IDX 82 86 90 87 83 88 89 89 84 90 85 91 86 92 87 93 88 94 67 95
REMARK SMILES IDX 68 96 76 97 69 98 75 99 70 100 71 101 72 102 73 103 74 104
REMARK H PARENT 4 17 95 60 65 71
REMARK Flexibility Score: inf
ROOT
ATOM      1  C   UNL A   1      41.466  27.135  26.676  1.00  0.00     0.188 C 
ENDROOT
BRANCH   1   2
ATOM      2  O   UNL A   1      42.862  26.809  26.480  1.00  0.00    -0.376 OA
BRANCH   2   3
ATOM      3  C   UNL A   1      43.406  26.085  25.354  1.00  0.00     0.202 C 
BRANCH   3   4
ATOM      4  C   UNL A   1      43.664  24.392  25.219  1.00  0.00     0.261 C 
BRANCH   4   5
ATOM      5  O   UNL A   1      42.812  22.937  25.821  1.00  0.00    -0.460 OA
BRANCH   5   6
ATOM      6  C   UNL A   1      41.783  22.560  26.792  1.00  0.00     0.338 C 
ATOM      7  O   UNL A   1      41.973  21.942  27.839  1.00  0.00    -0.246 OA
BRANCH   6   8
ATOM      8  C   UNL A   1      40.277  22.649  26.740  1.00  0.00     0.065 A 
ATOM      9  C   UNL A   1      39.867  20.344  25.906  1.00  0.00     0.047 C 
ATOM     10  C   UNL A   1      39.424  21.754  26.123  1.00  0.00    -0.013 A 
ATOM     11  C   UNL A   1      38.124  22.219  25.764  1.00  0.00     0.045 A 
ATOM     12  C   UNL A   1      37.657  23.502  26.105  1.00  0.00     0.026 A 
ATOM     13  C   UNL A   1      39.722  23.911  27.181  1.00  0.00     0.016 A 
ATOM     14  C   UNL A   1      38.445  24.342  26.857  1.00  0.00     0.003 A 
BRANCH  11  15
ATOM     15  N   UNL A   1      37.256  21.335  25.114  1.00  0.00    -0.322 N 
ATOM     16  C   UNL A   1      35.924  21.064  25.306  1.00  0.00     0.255 C 
ATOM     17  H   UNL A   1      37.675  20.815  24.390  1.00  0.00     0.170 HD
ATOM     18  O   UNL A   1      35.509  19.956  24.958  1.00  0.00    -0.269 OA
BRANCH  16  19
ATOM     19  C   UNL A   1      34.921  22.083  25.753  1.00  0.00     0.040 A 
ATOM     20  C   UNL A   1      34.266  21.827  26.964  1.00  0.00     0.014 A 
ATOM     21  C   UNL A   1      34.441  23.117  24.931  1.00  0.00     0.022 A 
ATOM     22  C   UNL A   1      33.147  22.568  27.345  1.00  0.00     0.001 A 
ATOM     23  C   UNL A   1      33.286  23.853  25.291  1.00  0.00    -0.010 A 
ATOM     24  C   UNL A   1      32.656  23.567  26.508  1.00  0.00     0.009 A 
BRANCH  23  25
ATOM     25  C   UNL A   1      32.564  24.809  24.404  1.00  0.00     0.068 A 
ATOM     26  C   UNL A   1      31.538  25.585  24.812  1.00  0.00     0.028 A 
ATOM     27  C   UNL A   1      33.429  25.586  23.457  1.00  0.00     0.344 A 
ATOM     28  C   UNL A   1      32.067  26.715  25.591  1.00  0.00     0.018 A 
ATOM     29  O   UNL A   1      33.897  26.792  23.985  1.00  0.00    -0.422 OA
ATOM     30  O   UNL A   1      33.762  25.155  22.359  1.00  0.00    -0.246 OA
ATOM     31  C   UNL A   1      31.463  27.146  26.756  1.00  0.00     0.012 A 
ATOM     32  C   UNL A   1      33.304  27.248  25.183  1.00  0.00     0.138 A 
ATOM     33  C   UNL A   1      32.162  28.040  27.552  1.00  0.00     0.001 A 
ATOM     34  C   UNL A   1      34.008  28.129  25.978  1.00  0.00     0.048 A 
ATOM     35  C   UNL A   1      33.440  28.493  27.190  1.00  0.00     0.004 A 
ENDBRANCH  23  25
ENDBRANCH  16  19
ENDBRANCH  11  15
ENDBRANCH   6   8
ENDBRANCH   5   6
ENDBRANCH   4   5
ENDBRANCH   3   4
ENDBRANCH   2   3
ENDBRANCH   1   2
BRANCH   1  36
ATOM     36  C   UNL A   1      40.856  27.685  27.974  1.00  0.00     0.188 C 
BRANCH  36  37
ATOM     37  O   UNL A   1      40.288  28.963  27.790  1.00  0.00    -0.376 OA
BRANCH  37  38
ATOM     38  C   UNL A   1      38.874  29.021  27.741  1.00  0.00     0.202 C 
BRANCH  38  39
ATOM     39  C   UNL A   1      38.209  29.719  28.939  1.00  0.00     0.261 C 
BRANCH  39  40
ATOM     40  O   UNL A   1      37.927  28.838  30.050  1.00  0.00    -0.460 OA
BRANCH  40  41
ATOM     41  C   UNL A   1      37.469  29.408  31.227  1.00  0.00     0.338 C 
ATOM     42  O   UNL A   1      36.330  29.748  31.382  1.00  0.00    -0.246 OA
BRANCH  41  43
ATOM     43  C   UNL A   1      38.471  29.216  32.318  1.00  0.00     0.060 A 
ATOM     44  C   UNL A   1      38.632  29.918  33.510  1.00  0.00     0.016 A 
ATOM     45  C   UNL A   1      39.325  28.190  32.116  1.00  0.00     0.016 A 
ATOM     46  C   UNL A   1      39.774  29.716  34.392  1.00  0.00     0.010 A 
ATOM     47  C   UNL A   1      40.424  28.058  32.956  1.00  0.00     0.010 A 
ATOM     48  C   UNL A   1      40.813  28.802  34.123  1.00  0.00    -0.014 A 
BRANCH  48  49
ATOM     49  C   UNL A   1      42.259  28.621  35.121  1.00  0.00     0.031 A 
ATOM     50  C   UNL A   1      42.820  27.408  36.300  1.00  0.00     0.074 A 
ATOM     51  C   UNL A   1      43.064  29.710  35.157  1.00  0.00     0.049 A 
ATOM     52  N   UNL A   1      43.629  27.641  37.327  1.00  0.00    -0.248 NA
ATOM     53  C   UNL A   1      42.483  25.914  36.465  1.00  0.00     0.031 C 
ATOM     54  C   UNL A   1      44.435  29.791  35.646  1.00  0.00     0.029 A 
ATOM     55  N   UNL A   1      42.725  31.040  34.887  1.00  0.00    -0.354 N 
ATOM     56  C   UNL A   1      43.902  26.399  37.949  1.00  0.00     0.074 A 
ATOM     57  C   UNL A   1      42.825  25.554  37.684  1.00  0.00     0.031 C 
ATOM     58  C   UNL A   1      44.723  31.077  35.902  1.00  0.00     0.029 A 
ATOM     59  C   UNL A   1      43.483  31.821  35.763  1.00  0.00     0.049 A 
ATOM     60  H   UNL A   1      42.081  31.362  34.215  1.00  0.00     0.167 HD
ATOM     61  C   UNL A   1      45.135  25.969  38.349  1.00  0.00     0.031 A 
ATOM     62  C   UNL A   1      42.891  32.584  36.726  1.00  0.00     0.031 A 
ATOM     63  C   UNL A   1      45.909  27.120  38.690  1.00  0.00     0.049 A 
ATOM     64  C   UNL A   1      43.432  32.292  38.107  1.00  0.00     0.074 A 
ATOM     65  C   UNL A   1      46.864  27.867  38.038  1.00  0.00     0.029 A 
ATOM     66  N   UNL A   1      45.377  27.911  39.693  1.00  0.00    -0.354 N 
ATOM     67  N   UNL A   1      44.106  31.215  38.415  1.00  0.00    -0.248 NA
ATOM     68  C   UNL A   1      43.293  33.199  39.241  1.00  0.00     0.031 C 
ATOM     69  C   UNL A   1      46.720  29.205  38.519  1.00  0.00     0.029 A 
ATOM     70  C   UNL A   1      45.746  29.222  39.508  1.00  0.00     0.049 A 
ATOM     71  H   UNL A   1      44.815  27.582  40.431  1.00  0.00     0.167 HD
ATOM     72  C   UNL A   1      44.460  31.250  39.733  1.00  0.00     0.074 A 
ATOM     73  C   UNL A   1      43.948  32.524  40.203  1.00  0.00     0.031 C 
ATOM     74  C   UNL A   1      45.117  30.227  40.353  1.00  0.00     0.031 A 
BRANCH  61  75
ATOM     75  C   UNL A   1      45.628  24.500  38.310  1.00  0.00    -0.014 A 
ATOM     76  C   UNL A   1      46.142  23.951  37.119  1.00  0.00     0.010 A 
ATOM     77  C   UNL A   1      45.496  23.561  39.371  1.00  0.00     0.010 A 
ATOM     78  C   UNL A   1      46.504  22.582  37.004  1.00  0.00     0.020 A 
ATOM     79  C   UNL A   1      45.894  22.212  39.290  1.00  0.00     0.020 A 
ATOM     80  C   UNL A   1      46.382  21.721  38.095  1.00  0.00     0.054 A 
BRANCH  80  81
ATOM     81  S   UNL A   1      46.807  19.959  37.944  1.00  0.00     0.124 S 
ATOM     82  O   UNL A   1      47.969  19.993  37.058  1.00  0.00    -0.237 OA
ATOM     83  O   UNL A   1      47.076  19.572  39.325  1.00  0.00    -0.237 OA
ATOM     84  O   UNL A   1      45.609  19.359  37.358  1.00  0.00    -0.744 OA
ENDBRANCH  80  81
ENDBRANCH  61  75
BRANCH  62  85
ATOM     85  C   UNL A   1      41.542  33.126  36.354  1.00  0.00    -0.014 A 
ATOM     86  C   UNL A   1      41.452  33.838  35.131  1.00  0.00     0.010 A 
ATOM     87  C   UNL A   1      40.341  32.690  36.943  1.00  0.00     0.010 A 
ATOM     88  C   UNL A   1      40.233  34.004  34.464  1.00  0.00     0.020 A 
ATOM     89  C   UNL A   1      39.102  32.877  36.284  1.00  0.00     0.020 A 
ATOM     90  C   UNL A   1      39.064  33.501  35.030  1.00  0.00     0.054 A 
BRANCH  90  91
ATOM     91  S   UNL A   1      37.559  33.512  33.998  1.00  0.00     0.124 S 
ATOM     92  O   UNL A   1      36.709  32.532  34.666  1.00  0.00    -0.237 OA
ATOM     93  O   UNL A   1      37.112  34.901  34.118  1.00  0.00    -0.237 OA
ATOM     94  O   UNL A   1      38.050  33.129  32.678  1.00  0.00    -0.744 OA
ENDBRANCH  90  91
ENDBRANCH  62  85
BRANCH  74  95
ATOM     95  C   UNL A   1      45.177  30.043  41.852  1.00  0.00    -0.014 A 
ATOM     96  C   UNL A   1      44.595  28.952  42.516  1.00  0.00     0.010 A 
ATOM     97  C   UNL A   1      46.003  30.899  42.620  1.00  0.00     0.010 A 
ATOM     98  C   UNL A   1      44.746  28.776  43.895  1.00  0.00     0.020 A 
ATOM     99  C   UNL A   1      46.220  30.690  43.983  1.00  0.00     0.020 A 
ATOM    100  C   UNL A   1      45.551  29.652  44.620  1.00  0.00     0.054 A 
BRANCH 100 101
ATOM    101  S   UNL A   1      45.757  29.424  46.402  1.00  0.00     0.124 S 
ATOM    102  O   UNL A   1      45.960  30.799  46.853  1.00  0.00    -0.237 OA
ATOM    103  O   UNL A   1      44.493  28.813  46.810  1.00  0.00    -0.237 OA
ATOM    104  O   UNL A   1      46.923  28.551  46.495  1.00  0.00    -0.744 OA
ENDBRANCH 100 101
ENDBRANCH  74  95
ENDBRANCH  48  49
ENDBRANCH  41  43
ENDBRANCH  40  41
ENDBRANCH  39  40
ENDBRANCH  38  39
ENDBRANCH  37  38
ENDBRANCH  36  37
ENDBRANCH   1  36
TORSDOF 23
ENDMDL
MODEL 3
REMARK VINA RESULT:     -10.9      8.445     14.577
REMARK SMILES Cc1c(NC(=O)c2cccc(-c3cc4ccccc4oc3=O)c2)cccc1C(=O)OCCOCCOCCOC(=O)c1ccc(-c2c3nc(c(-c4ccc(S(=O)(=O)[O-])cc4)c4ccc([nH]4)c(-c4ccc(S(=O)(=O)[O-])cc4)c4nc(c(-c5ccc(S(=O)(=O)[O-])cc5)c5ccc2[nH]5)C=C4)C=C3)cc1
REMARK SMILES IDX 34 1 33 2 32 3 31 4 30 5 28 6 29 7 27 8 1 9 2 10 3 11 24 12
REMARK SMILES IDX 26 13 25 14 4 15 5 16 6 18 7 19 8 20 23 21 9 22 11 23 10 24
REMARK SMILES IDX 12 25 13 26 21 27 14 28 20 29 22 30 15 31 19 32 16 33 18 34
REMARK SMILES IDX 17 35 35 36 36 37 37 38 38 39 39 40 40 41 41 42 42 43 43 44
REMARK SMILES IDX 101 45 44 46 100 47 45 48 46 49 47 50 94 51 48 52 99 53
REMARK SMILES IDX 93 54 95 55 49 56 98 57 92 58 91 59 50 61 80 62 61 63 79 64
REMARK SMILES IDX 62 65 65 66 78 67 96 68 63 69 64 70 77 72 97 73 66 74 51 75
REMARK SMILES IDX 52 76 60 77 53 78 59 79 54 80 55 81 56 82 57 83 58 84 81 85
REMARK SMILES IDX 82 86 90 87 83 88 89 89 84 90 85 91 86 92 87 93 88 94 67 95
REMARK SMILES IDX 68 96 76 97 69 98 75 99 70 100 71 101 72 102 73 103 74 104
REMARK H PARENT 4 17 95 60 65 71
REMARK Flexibility Score: inf
ROOT
ATOM      1  C   UNL A   1      42.192  27.159  27.962  1.00  0.00     0.188 C 
ENDROOT
BRANCH   1   2
ATOM      2  O   UNL A   1      43.536  26.641  27.826  1.00  0.00    -0.376 OA
BRANCH   2   3
ATOM      3  C   UNL A   1      44.116  26.116  26.611  1.00  0.00     0.202 C 
BRANCH   3   4
ATOM      4  C   UNL A   1      44.136  24.484  26.076  1.00  0.00     0.261 C 
BRANCH   4   5
ATOM      5  O   UNL A   1      42.973  23.124  26.141  1.00  0.00    -0.460 OA
BRANCH   5   6
ATOM      6  C   UNL A   1      41.888  22.614  26.980  1.00  0.00     0.338 C 
ATOM      7  O   UNL A   1      42.013  21.833  27.923  1.00  0.00    -0.246 OA
BRANCH   6   8
ATOM      8  C   UNL A   1      40.387  22.736  26.861  1.00  0.00     0.065 A 
ATOM      9  C   UNL A   1      39.954  20.407  26.111  1.00  0.00     0.047 C 
ATOM     10  C   UNL A   1      39.538  21.835  26.248  1.00  0.00    -0.013 A 
ATOM     11  C   UNL A   1      38.266  22.314  25.815  1.00  0.00     0.045 A 
ATOM     12  C   UNL A   1      37.818  23.621  26.081  1.00  0.00     0.026 A 
ATOM     13  C   UNL A   1      39.848  24.028  27.224  1.00  0.00     0.016 A 
ATOM     14  C   UNL A   1      38.596  24.475  26.829  1.00  0.00     0.003 A 
BRANCH  11  15
ATOM     15  N   UNL A   1      37.404  21.423  25.168  1.00  0.00    -0.322 N 
ATOM     16  C   UNL A   1      36.071  21.150  25.355  1.00  0.00     0.255 C 
ATOM     17  H   UNL A   1      37.827  20.896  24.452  1.00  0.00     0.170 HD
ATOM     18  O   UNL A   1      35.659  20.039  25.015  1.00  0.00    -0.269 OA
BRANCH  16  19
ATOM     19  C   UNL A   1      35.064  22.172  25.786  1.00  0.00     0.040 A 
ATOM     20  C   UNL A   1      34.441  21.954  27.022  1.00  0.00     0.014 A 
ATOM     21  C   UNL A   1      34.549  23.167  24.938  1.00  0.00     0.022 A 
ATOM     22  C   UNL A   1      33.321  22.693  27.401  1.00  0.00     0.001 A 
ATOM     23  C   UNL A   1      33.392  23.901  25.298  1.00  0.00    -0.010 A 
ATOM     24  C   UNL A   1      32.795  23.652  26.539  1.00  0.00     0.009 A 
BRANCH  23  25
ATOM     25  C   UNL A   1      32.635  24.812  24.392  1.00  0.00     0.068 A 
ATOM     26  C   UNL A   1      31.557  25.527  24.775  1.00  0.00     0.028 A 
ATOM     27  C   UNL A   1      33.475  25.637  23.463  1.00  0.00     0.344 A 
ATOM     28  C   UNL A   1      32.002  26.687  25.564  1.00  0.00     0.018 A 
ATOM     29  O   UNL A   1      33.860  26.869  23.999  1.00  0.00    -0.422 OA
ATOM     30  O   UNL A   1      33.857  25.225  22.374  1.00  0.00    -0.246 OA
ATOM     31  C   UNL A   1      31.348  27.083  26.714  1.00  0.00     0.012 A 
ATOM     32  C   UNL A   1      33.214  27.290  25.182  1.00  0.00     0.138 A 
ATOM     33  C   UNL A   1      31.975  28.017  27.523  1.00  0.00     0.001 A 
ATOM     34  C   UNL A   1      33.848  28.212  25.991  1.00  0.00     0.048 A 
ATOM     35  C   UNL A   1      33.232  28.543  27.189  1.00  0.00     0.004 A 
ENDBRANCH  23  25
ENDBRANCH  16  19
ENDBRANCH  11  15
ENDBRANCH   6   8
ENDBRANCH   5   6
ENDBRANCH   4   5
ENDBRANCH   3   4
ENDBRANCH   2   3
ENDBRANCH   1   2
BRANCH   1  36
ATOM     36  C   UNL A   1      41.626  27.845  29.214  1.00  0.00     0.188 C 
BRANCH  36  37
ATOM     37  O   UNL A   1      41.093  29.118  28.923  1.00  0.00    -0.376 OA
BRANCH  37  38
ATOM     38  C   UNL A   1      39.721  29.159  28.572  1.00  0.00     0.202 C 
BRANCH  38  39
ATOM     39  C   UNL A   1      38.914  30.292  29.228  1.00  0.00     0.261 C 
BRANCH  39  40
ATOM     40  O   UNL A   1      38.144  29.876  30.377  1.00  0.00    -0.460 OA
BRANCH  40  41
ATOM     41  C   UNL A   1      37.144  30.723  30.827  1.00  0.00     0.338 C 
ATOM     42  O   UNL A   1      36.127  30.904  30.219  1.00  0.00    -0.246 OA
BRANCH  41  43
ATOM     43  C   UNL A   1      37.368  31.071  32.261  1.00  0.00     0.060 A 
ATOM     44  C   UNL A   1      36.957  32.193  32.978  1.00  0.00     0.016 A 
ATOM     45  C   UNL A   1      38.051  30.140  32.962  1.00  0.00     0.016 A 
ATOM     46  C   UNL A   1      37.409  32.466  34.336  1.00  0.00     0.010 A 
ATOM     47  C   UNL A   1      38.500  30.457  34.238  1.00  0.00     0.010 A 
ATOM     48  C   UNL A   1      38.297  31.631  35.044  1.00  0.00    -0.014 A 
BRANCH  48  49
ATOM     49  C   UNL A   1      38.943  31.999  36.645  1.00  0.00     0.031 A 
ATOM     50  C   UNL A   1      38.219  32.417  38.219  1.00  0.00     0.074 A 
ATOM     51  C   UNL A   1      40.284  32.187  36.688  1.00  0.00     0.049 A 
ATOM     52  N   UNL A   1      38.787  33.158  39.162  1.00  0.00    -0.248 NA
ATOM     53  C   UNL A   1      36.830  32.114  38.816  1.00  0.00     0.031 C 
ATOM     54  C   UNL A   1      41.143  32.228  37.865  1.00  0.00     0.029 A 
ATOM     55  N   UNL A   1      41.137  32.544  35.638  1.00  0.00    -0.354 N 
ATOM     56  C   UNL A   1      37.924  33.164  40.284  1.00  0.00     0.074 A 
ATOM     57  C   UNL A   1      36.628  32.947  39.814  1.00  0.00     0.031 C 
ATOM     58  C   UNL A   1      42.292  32.840  37.535  1.00  0.00     0.029 A 
ATOM     59  C   UNL A   1      42.116  33.370  36.194  1.00  0.00     0.049 A 
ATOM     60  H   UNL A   1      41.061  32.269  34.695  1.00  0.00     0.167 HD
ATOM     61  C   UNL A   1      38.310  32.980  41.581  1.00  0.00     0.031 A 
ATOM     62  C   UNL A   1      42.235  34.677  35.825  1.00  0.00     0.031 A 
ATOM     63  C   UNL A   1      39.645  33.469  41.711  1.00  0.00     0.049 A 
ATOM     64  C   UNL A   1      42.191  35.617  37.007  1.00  0.00     0.074 A 
ATOM     65  C   UNL A   1      40.890  32.880  41.717  1.00  0.00     0.029 A 
ATOM     66  N   UNL A   1      39.819  34.803  41.389  1.00  0.00    -0.354 N 
ATOM     67  N   UNL A   1      41.738  35.286  38.188  1.00  0.00    -0.248 NA
ATOM     68  C   UNL A   1      42.684  36.990  36.971  1.00  0.00     0.031 C 
ATOM     69  C   UNL A   1      41.787  33.839  41.153  1.00  0.00     0.029 A 
ATOM     70  C   UNL A   1      41.087  35.011  40.900  1.00  0.00     0.049 A 
ATOM     71  H   UNL A   1      39.133  35.501  41.495  1.00  0.00     0.167 HD
ATOM     72  C   UNL A   1      41.839  36.348  39.040  1.00  0.00     0.074 A 
ATOM     73  C   UNL A   1      42.459  37.386  38.237  1.00  0.00     0.031 C 
ATOM     74  C   UNL A   1      41.383  36.315  40.325  1.00  0.00     0.031 A 
BRANCH  61  75
ATOM     75  C   UNL A   1      37.479  32.254  42.670  1.00  0.00    -0.014 A 
ATOM     76  C   UNL A   1      36.506  32.954  43.410  1.00  0.00     0.010 A 
ATOM     77  C   UNL A   1      37.688  30.917  43.108  1.00  0.00     0.010 A 
ATOM     78  C   UNL A   1      35.797  32.362  44.490  1.00  0.00     0.020 A 
ATOM     79  C   UNL A   1      36.962  30.298  44.144  1.00  0.00     0.020 A 
ATOM     80  C   UNL A   1      36.027  31.034  44.848  1.00  0.00     0.054 A 
BRANCH  80  81
ATOM     81  S   UNL A   1      35.150  30.281  46.252  1.00  0.00     0.124 S 
ATOM     82  O   UNL A   1      35.693  28.924  46.267  1.00  0.00    -0.237 OA
ATOM     83  O   UNL A   1      35.542  31.132  47.371  1.00  0.00    -0.237 OA
ATOM     84  O   UNL A   1      33.740  30.372  45.873  1.00  0.00    -0.744 OA
ENDBRANCH  80  81
ENDBRANCH  61  75
BRANCH  62  85
ATOM     85  C   UNL A   1      41.861  34.961  34.400  1.00  0.00    -0.014 A 
ATOM     86  C   UNL A   1      42.916  35.301  33.515  1.00  0.00     0.010 A 
ATOM     87  C   UNL A   1      40.630  34.585  33.830  1.00  0.00     0.010 A 
ATOM     88  C   UNL A   1      42.789  35.157  32.128  1.00  0.00     0.020 A 
ATOM     89  C   UNL A   1      40.490  34.462  32.427  1.00  0.00     0.020 A 
ATOM     90  C   UNL A   1      41.584  34.714  31.590  1.00  0.00     0.054 A 
BRANCH  90  91
ATOM     91  S   UNL A   1      41.562  34.295  29.813  1.00  0.00     0.124 S 
ATOM     92  O   UNL A   1      40.135  34.283  29.508  1.00  0.00    -0.237 OA
ATOM     93  O   UNL A   1      42.311  35.407  29.224  1.00  0.00    -0.237 OA
ATOM     94  O   UNL A   1      42.231  32.999  29.763  1.00  0.00    -0.744 OA
ENDBRANCH  90  91
ENDBRANCH  62  85
BRANCH  74  95
ATOM     95  C   UNL A   1      41.111  37.546  41.160  1.00  0.00    -0.014 A 
ATOM     96  C   UNL A   1      41.986  38.005  42.157  1.00  0.00     0.010 A 
ATOM     97  C   UNL A   1      40.025  38.387  40.818  1.00  0.00     0.010 A 
ATOM     98  C   UNL A   1      41.738  39.195  42.849  1.00  0.00     0.020 A 
ATOM     99  C   UNL A   1      39.810  39.612  41.451  1.00  0.00     0.020 A 
ATOM    100  C   UNL A   1      40.645  39.986  42.496  1.00  0.00     0.054 A 
BRANCH 100 101
ATOM    101  S   UNL A   1      40.325  41.529  43.381  1.00  0.00     0.124 S 
ATOM    102  O   UNL A   1      38.904  41.735  43.110  1.00  0.00    -0.237 OA
ATOM    103  O   UNL A   1      40.655  41.197  44.766  1.00  0.00    -0.237 OA
ATOM    104  O   UNL A   1      41.233  42.477  42.741  1.00  0.00    -0.744 OA
ENDBRANCH 100 101
ENDBRANCH  74  95
ENDBRANCH  48  49
ENDBRANCH  41  43
ENDBRANCH  40  41
ENDBRANCH  39  40
ENDBRANCH  38  39
ENDBRANCH  37  38
ENDBRANCH  36  37
ENDBRANCH   1  36
TORSDOF 23
ENDMDL
