MODEL 1
REMARK VINA RESULT:     -10.1      0.000      0.000
REMARK SMILES O=C(OCCOCCOCCOC(=O)c1ccc(C[N@H+]2CC[N@H+]3CCCC[C@@H]3C2)c(F)c1)c1ccc(-c2c3nc(c(-c4ccc(S(=O)(=O)[O-])cc4)c4ccc([nH]4)c(-c4ccc(S(=O)(=O)[O-])cc4)c4nc(c(-c5ccc(S(=O)(=O)[O-])cc5)c5ccc2[nH]5)C=C4)C=C3)cc1
REMARK SMILES IDX 7 1 6 2 5 3 4 4 3 5 2 6 1 7 33 8 34 9 92 10 35 11 91 12
REMARK SMILES IDX 36 13 37 14 38 15 85 16 39 17 90 18 84 19 86 20 40 21 89 22
REMARK SMILES IDX 83 23 82 24 41 26 71 27 52 28 70 29 53 30 56 31 69 32 87 33
REMARK SMILES IDX 54 34 55 35 68 37 88 38 57 39 42 40 43 41 51 42 44 43 50 44
REMARK SMILES IDX 45 45 46 46 47 47 48 48 49 49 72 50 73 51 81 52 74 53 80 54
REMARK SMILES IDX 75 55 76 56 77 57 78 58 79 59 58 60 59 61 67 62 60 63 66 64
REMARK SMILES IDX 61 65 62 66 63 67 64 68 65 69 8 70 9 71 10 72 11 73 12 74
REMARK SMILES IDX 13 75 14 76 15 77 16 78 32 79 17 80 30 81 18 82 31 83 19 84
REMARK SMILES IDX 20 85 21 86 29 87 22 89 28 90 23 91 27 92 24 93 26 95 25 96
REMARK H PARENT 86 25 56 36 20 88 23 94
REMARK Flexibility Score: inf
ROOT
ATOM      1  C   UNL A   1      35.824  33.129  28.809  1.00  0.00     0.188 C 
ENDROOT
BRANCH   1   2
ATOM      2  O   UNL A   1      35.758  32.812  30.203  1.00  0.00    -0.376 OA
BRANCH   2   3
ATOM      3  C   UNL A   1      36.745  31.853  30.610  1.00  0.00     0.202 C 
BRANCH   3   4
ATOM      4  C   UNL A   1      36.212  30.499  31.126  1.00  0.00     0.261 C 
BRANCH   4   5
ATOM      5  O   UNL A   1      36.477  29.380  30.265  1.00  0.00    -0.460 OA
BRANCH   5   6
ATOM      6  C   UNL A   1      37.142  29.332  29.085  1.00  0.00     0.338 C 
ATOM      7  O   UNL A   1      36.534  29.666  28.068  1.00  0.00    -0.246 OA
BRANCH   6   8
ATOM      8  C   UNL A   1      38.572  28.910  28.946  1.00  0.00     0.060 A 
ATOM      9  C   UNL A   1      39.357  28.336  29.948  1.00  0.00     0.016 A 
ATOM     10  C   UNL A   1      39.161  29.080  27.689  1.00  0.00     0.016 A 
ATOM     11  C   UNL A   1      40.716  28.066  29.776  1.00  0.00     0.010 A 
ATOM     12  C   UNL A   1      40.503  28.743  27.486  1.00  0.00     0.010 A 
ATOM     13  C   UNL A   1      41.315  28.284  28.551  1.00  0.00    -0.014 A 
BRANCH  13  14
ATOM     14  C   UNL A   1      42.778  28.155  28.326  1.00  0.00     0.031 A 
ATOM     15  C   UNL A   1      43.539  29.427  28.267  1.00  0.00     0.074 A 
ATOM     16  C   UNL A   1      43.483  27.005  28.220  1.00  0.00     0.049 A 
ATOM     17  N   UNL A   1      44.762  29.611  27.876  1.00  0.00    -0.248 NA
ATOM     18  C   UNL A   1      42.876  30.626  28.817  1.00  0.00     0.031 C 
ATOM     19  C   UNL A   1      43.094  25.693  28.700  1.00  0.00     0.029 A 
ATOM     20  N   UNL A   1      44.639  26.733  27.515  1.00  0.00    -0.354 N 
ATOM     21  C   UNL A   1      45.061  30.901  28.259  1.00  0.00     0.074 A 
ATOM     22  C   UNL A   1      43.845  31.521  28.732  1.00  0.00     0.031 C 
ATOM     23  C   UNL A   1      43.805  24.747  28.060  1.00  0.00     0.029 A 
ATOM     24  C   UNL A   1      44.726  25.389  27.157  1.00  0.00     0.049 A 
ATOM     25  H   UNL A   1      45.320  27.408  27.292  1.00  0.00     0.167 HD
ATOM     26  C   UNL A   1      46.288  31.451  28.316  1.00  0.00     0.031 A 
ATOM     27  C   UNL A   1      45.428  24.802  26.163  1.00  0.00     0.031 A 
ATOM     28  C   UNL A   1      47.449  30.787  27.802  1.00  0.00     0.049 A 
ATOM     29  C   UNL A   1      46.592  25.607  25.699  1.00  0.00     0.074 A 
ATOM     30  C   UNL A   1      48.756  31.224  27.772  1.00  0.00     0.029 A 
ATOM     31  N   UNL A   1      47.422  29.538  27.186  1.00  0.00    -0.354 N 
ATOM     32  N   UNL A   1      46.874  26.850  25.995  1.00  0.00    -0.248 NA
ATOM     33  C   UNL A   1      47.629  24.889  24.953  1.00  0.00     0.031 C 
ATOM     34  C   UNL A   1      49.500  30.286  27.048  1.00  0.00     0.029 A 
ATOM     35  C   UNL A   1      48.672  29.228  26.693  1.00  0.00     0.049 A 
ATOM     36  H   UNL A   1      46.628  28.962  27.114  1.00  0.00     0.167 HD
ATOM     37  C   UNL A   1      48.194  27.013  25.639  1.00  0.00     0.074 A 
ATOM     38  C   UNL A   1      48.603  25.789  24.969  1.00  0.00     0.031 C 
ATOM     39  C   UNL A   1      49.020  28.033  25.963  1.00  0.00     0.031 A 
BRANCH  26  40
ATOM     40  C   UNL A   1      46.357  32.819  28.912  1.00  0.00    -0.014 A 
ATOM     41  C   UNL A   1      46.341  33.007  30.309  1.00  0.00     0.010 A 
ATOM     42  C   UNL A   1      46.301  33.932  28.061  1.00  0.00     0.010 A 
ATOM     43  C   UNL A   1      46.197  34.289  30.843  1.00  0.00     0.020 A 
ATOM     44  C   UNL A   1      46.185  35.216  28.592  1.00  0.00     0.020 A 
ATOM     45  C   UNL A   1      46.105  35.384  29.977  1.00  0.00     0.054 A 
BRANCH  45  46
ATOM     46  S   UNL A   1      45.864  37.033  30.686  1.00  0.00     0.124 S 
ATOM     47  O   UNL A   1      44.414  37.077  30.859  1.00  0.00    -0.237 OA
ATOM     48  O   UNL A   1      46.641  36.967  31.921  1.00  0.00    -0.237 OA
ATOM     49  O   UNL A   1      46.397  37.929  29.663  1.00  0.00    -0.744 OA
ENDBRANCH  45  46
ENDBRANCH  26  40
BRANCH  27  50
ATOM     50  C   UNL A   1      45.176  23.447  25.577  1.00  0.00    -0.014 A 
ATOM     51  C   UNL A   1      44.448  23.224  24.399  1.00  0.00     0.010 A 
ATOM     52  C   UNL A   1      45.687  22.317  26.259  1.00  0.00     0.010 A 
ATOM     53  C   UNL A   1      44.322  21.927  23.866  1.00  0.00     0.020 A 
ATOM     54  C   UNL A   1      45.573  21.023  25.728  1.00  0.00     0.020 A 
ATOM     55  C   UNL A   1      44.910  20.837  24.517  1.00  0.00     0.054 A 
BRANCH  55  56
ATOM     56  S   UNL A   1      44.959  19.206  23.711  1.00  0.00     0.124 S 
ATOM     57  O   UNL A   1      44.081  18.411  24.563  1.00  0.00    -0.237 OA
ATOM     58  O   UNL A   1      44.455  19.485  22.369  1.00  0.00    -0.237 OA
ATOM     59  O   UNL A   1      46.377  18.854  23.763  1.00  0.00    -0.744 OA
ENDBRANCH  55  56
ENDBRANCH  27  50
BRANCH  39  60
ATOM     60  C   UNL A   1      50.455  27.840  25.611  1.00  0.00    -0.014 A 
ATOM     61  C   UNL A   1      50.961  28.293  24.385  1.00  0.00     0.010 A 
ATOM     62  C   UNL A   1      51.308  27.246  26.557  1.00  0.00     0.010 A 
ATOM     63  C   UNL A   1      52.319  28.162  24.112  1.00  0.00     0.020 A 
ATOM     64  C   UNL A   1      52.671  27.149  26.302  1.00  0.00     0.020 A 
ATOM     65  C   UNL A   1      53.166  27.609  25.080  1.00  0.00     0.054 A 
BRANCH  65  66
ATOM     66  S   UNL A   1      54.943  27.581  24.749  1.00  0.00     0.124 S 
ATOM     67  O   UNL A   1      55.493  27.329  26.078  1.00  0.00    -0.237 OA
ATOM     68  O   UNL A   1      55.068  26.481  23.796  1.00  0.00    -0.237 OA
ATOM     69  O   UNL A   1      55.213  28.907  24.201  1.00  0.00    -0.744 OA
ENDBRANCH  65  66
ENDBRANCH  39  60
ENDBRANCH  13  14
ENDBRANCH   6   8
ENDBRANCH   5   6
ENDBRANCH   4   5
ENDBRANCH   3   4
ENDBRANCH   2   3
ENDBRANCH   1   2
BRANCH   1  70
ATOM     70  C   UNL A   1      34.614  32.717  27.972  1.00  0.00     0.188 C 
BRANCH  70  71
ATOM     71  O   UNL A   1      33.992  31.472  28.260  1.00  0.00    -0.376 OA
BRANCH  71  72
ATOM     72  C   UNL A   1      33.592  30.674  27.154  1.00  0.00     0.202 C 
BRANCH  72  73
ATOM     73  C   UNL A   1      32.105  30.321  26.966  1.00  0.00     0.261 C 
BRANCH  73  74
ATOM     74  O   UNL A   1      31.824  29.089  26.283  1.00  0.00    -0.460 OA
BRANCH  74  75
ATOM     75  C   UNL A   1      31.445  29.215  24.978  1.00  0.00     0.338 C 
ATOM     76  O   UNL A   1      30.662  30.028  24.534  1.00  0.00    -0.246 OA
BRANCH  75  77
ATOM     77  C   UNL A   1      32.032  28.122  24.153  1.00  0.00     0.063 A 
ATOM     78  C   UNL A   1      31.351  27.769  22.980  1.00  0.00     0.016 A 
ATOM     79  C   UNL A   1      33.158  27.391  24.539  1.00  0.00     0.055 A 
ATOM     80  C   UNL A   1      31.696  26.600  22.291  1.00  0.00     0.013 A 
ATOM     81  C   UNL A   1      33.510  26.244  23.826  1.00  0.00     0.132 A 
ATOM     82  C   UNL A   1      32.710  25.766  22.787  1.00  0.00     0.042 A 
ATOM     83  F   UNL A   1      34.544  25.511  24.266  1.00  0.00    -0.206 F 
BRANCH  82  84
ATOM     84  C   UNL A   1      32.783  24.319  22.354  1.00  0.00     0.302 C 
BRANCH  84  85
ATOM     85  N   UNL A   1      31.816  23.385  22.953  1.00  0.00    -0.322 N 
ATOM     86  C   UNL A   1      32.067  21.964  22.712  1.00  0.00     0.324 C 
ATOM     87  C   UNL A   1      31.499  23.570  24.381  1.00  0.00     0.328 C 
ATOM     88  H   UNL A   1      30.993  23.667  22.420  1.00  0.00     0.348 HD
ATOM     89  C   UNL A   1      33.035  21.285  23.704  1.00  0.00     0.324 C 
ATOM     90  C   UNL A   1      32.522  23.003  25.392  1.00  0.00     0.239 C 
ATOM     91  N   UNL A   1      32.915  21.621  25.122  1.00  0.00    -0.323 N 
ATOM     92  C   UNL A   1      32.065  23.119  26.850  1.00  0.00     0.071 C 
ATOM     93  C   UNL A   1      34.072  21.221  25.919  1.00  0.00     0.262 C 
ATOM     94  H   UNL A   1      32.131  21.048  25.434  1.00  0.00     0.348 HD
ATOM     95  C   UNL A   1      33.199  22.706  27.792  1.00  0.00     0.012 C 
ATOM     96  C   UNL A   1      33.797  21.351  27.419  1.00  0.00     0.062 C 
ENDBRANCH  84  85
ENDBRANCH  82  84
ENDBRANCH  75  77
ENDBRANCH  74  75
ENDBRANCH  73  74
ENDBRANCH  72  73
ENDBRANCH  71  72
ENDBRANCH  70  71
ENDBRANCH   1  70
TORSDOF 22
ENDMDL
MODEL 2
REMARK VINA RESULT:     -10.0      1.819      3.176
REMARK SMILES O=C(OCCOCCOCCOC(=O)c1ccc(C[N@H+]2CC[N@H+]3CCCC[C@@H]3C2)c(F)c1)c1ccc(-c2c3nc(c(-c4ccc(S(=O)(=O)[O-])cc4)c4ccc([nH]4)c(-c4ccc(S(=O)(=O)[O-])cc4)c4nc(c(-c5ccc(S(=O)(=O)[O-])cc5)c5ccc2[nH]5)C=C4)C=C3)cc1
REMARK SMILES IDX 7 1 6 2 5 3 4 4 3 5 2 6 1 7 33 8 34 9 92 10 35 11 91 12
REMARK SMILES IDX 36 13 37 14 38 15 85 16 39 17 90 18 84 19 86 20 40 21 89 22
REMARK SMILES IDX 83 23 82 24 41 26 71 27 52 28 70 29 53 30 56 31 69 32 87 33
REMARK SMILES IDX 54 34 55 35 68 37 88 38 57 39 42 40 43 41 51 42 44 43 50 44
REMARK SMILES IDX 45 45 46 46 47 47 48 48 49 49 72 50 73 51 81 52 74 53 80 54
REMARK SMILES IDX 75 55 76 56 77 57 78 58 79 59 58 60 59 61 67 62 60 63 66 64
REMARK SMILES IDX 61 65 62 66 63 67 64 68 65 69 8 70 9 71 10 72 11 73 12 74
REMARK SMILES IDX 13 75 14 76 15 77 16 78 32 79 17 80 30 81 18 82 31 83 19 84
REMARK SMILES IDX 20 85 21 86 29 87 22 89 28 90 23 91 27 92 24 93 26 95 25 96
REMARK H PARENT 86 25 56 36 20 88 23 94
REMARK Flexibility Score: inf
ROOT
ATOM      1  C   UNL A   1      31.733  30.079  25.810  1.00  0.00     0.188 C 
ENDROOT
BRANCH   1   2
ATOM      2  O   UNL A   1      32.538  29.537  26.861  1.00  0.00    -0.376 OA
BRANCH   2   3
ATOM      3  C   UNL A   1      33.936  29.820  26.703  1.00  0.00     0.202 C 
BRANCH   3   4
ATOM      4  C   UNL A   1      34.894  29.109  27.683  1.00  0.00     0.261 C 
BRANCH   4   5
ATOM      5  O   UNL A   1      35.594  29.985  28.582  1.00  0.00    -0.460 OA
BRANCH   5   6
ATOM      6  C   UNL A   1      36.742  30.682  28.396  1.00  0.00     0.338 C 
ATOM      7  O   UNL A   1      36.649  31.881  28.132  1.00  0.00    -0.246 OA
BRANCH   6   8
ATOM      8  C   UNL A   1      38.110  30.085  28.506  1.00  0.00     0.060 A 
ATOM      9  C   UNL A   1      38.885  30.020  29.666  1.00  0.00     0.016 A 
ATOM     10  C   UNL A   1      38.643  29.512  27.347  1.00  0.00     0.016 A 
ATOM     11  C   UNL A   1      40.197  29.543  29.668  1.00  0.00     0.010 A 
ATOM     12  C   UNL A   1      39.930  28.964  27.357  1.00  0.00     0.010 A 
ATOM     13  C   UNL A   1      40.747  29.027  28.511  1.00  0.00    -0.014 A 
BRANCH  13  14
ATOM     14  C   UNL A   1      42.174  28.629  28.395  1.00  0.00     0.031 A 
ATOM     15  C   UNL A   1      43.137  29.733  28.161  1.00  0.00     0.074 A 
ATOM     16  C   UNL A   1      42.681  27.382  28.531  1.00  0.00     0.049 A 
ATOM     17  N   UNL A   1      44.384  29.647  27.814  1.00  0.00    -0.248 NA
ATOM     18  C   UNL A   1      42.667  31.101  28.456  1.00  0.00     0.031 C 
ATOM     19  C   UNL A   1      42.067  26.257  29.208  1.00  0.00     0.029 A 
ATOM     20  N   UNL A   1      43.794  26.808  27.951  1.00  0.00    -0.354 N 
ATOM     21  C   UNL A   1      44.882  30.921  27.984  1.00  0.00     0.074 A 
ATOM     22  C   UNL A   1      43.774  31.801  28.272  1.00  0.00     0.031 C 
ATOM     23  C   UNL A   1      42.627  25.110  28.783  1.00  0.00     0.029 A 
ATOM     24  C   UNL A   1      43.668  25.425  27.837  1.00  0.00     0.049 A 
ATOM     25  H   UNL A   1      44.585  27.315  27.654  1.00  0.00     0.167 HD
ATOM     26  C   UNL A   1      46.181  31.271  28.015  1.00  0.00     0.031 A 
ATOM     27  C   UNL A   1      44.290  24.564  27.001  1.00  0.00     0.031 A 
ATOM     28  C   UNL A   1      47.230  30.350  27.691  1.00  0.00     0.049 A 
ATOM     29  C   UNL A   1      45.584  25.078  26.472  1.00  0.00     0.074 A 
ATOM     30  C   UNL A   1      48.591  30.562  27.660  1.00  0.00     0.029 A 
ATOM     31  N   UNL A   1      47.013  29.031  27.300  1.00  0.00    -0.354 N 
ATOM     32  N   UNL A   1      46.060  26.293  26.563  1.00  0.00    -0.248 NA
ATOM     33  C   UNL A   1      46.508  24.082  25.922  1.00  0.00     0.031 C 
ATOM     34  C   UNL A   1      49.189  29.403  27.153  1.00  0.00     0.029 A 
ATOM     35  C   UNL A   1      48.208  28.443  26.940  1.00  0.00     0.049 A 
ATOM     36  H   UNL A   1      46.137  28.584  27.284  1.00  0.00     0.167 HD
ATOM     37  C   UNL A   1      47.398  26.178  26.261  1.00  0.00     0.074 A 
ATOM     38  C   UNL A   1      47.617  24.804  25.837  1.00  0.00     0.031 C 
ATOM     39  C   UNL A   1      48.372  27.096  26.450  1.00  0.00     0.031 A 
BRANCH  26  40
ATOM     40  C   UNL A   1      46.460  32.696  28.368  1.00  0.00    -0.014 A 
ATOM     41  C   UNL A   1      46.758  33.649  27.373  1.00  0.00     0.010 A 
ATOM     42  C   UNL A   1      46.554  33.052  29.720  1.00  0.00     0.010 A 
ATOM     43  C   UNL A   1      47.217  34.918  27.732  1.00  0.00     0.020 A 
ATOM     44  C   UNL A   1      46.986  34.327  30.082  1.00  0.00     0.020 A 
ATOM     45  C   UNL A   1      47.340  35.242  29.087  1.00  0.00     0.054 A 
BRANCH  45  46
ATOM     46  S   UNL A   1      47.988  36.874  29.533  1.00  0.00     0.124 S 
ATOM     47  O   UNL A   1      46.794  37.710  29.429  1.00  0.00    -0.237 OA
ATOM     48  O   UNL A   1      48.488  36.659  30.888  1.00  0.00    -0.237 OA
ATOM     49  O   UNL A   1      49.014  37.125  28.525  1.00  0.00    -0.744 OA
ENDBRANCH  45  46
ENDBRANCH  26  40
BRANCH  27  50
ATOM     50  C   UNL A   1      43.832  23.183  26.645  1.00  0.00    -0.014 A 
ATOM     51  C   UNL A   1      44.427  22.390  25.654  1.00  0.00     0.010 A 
ATOM     52  C   UNL A   1      42.721  22.648  27.338  1.00  0.00     0.010 A 
ATOM     53  C   UNL A   1      43.993  21.069  25.432  1.00  0.00     0.020 A 
ATOM     54  C   UNL A   1      42.288  21.329  27.129  1.00  0.00     0.020 A 
ATOM     55  C   UNL A   1      42.945  20.535  26.191  1.00  0.00     0.054 A 
BRANCH  55  56
ATOM     56  S   UNL A   1      42.543  18.764  26.080  1.00  0.00     0.124 S 
ATOM     57  O   UNL A   1      42.798  18.301  27.440  1.00  0.00    -0.237 OA
ATOM     58  O   UNL A   1      41.142  18.768  25.666  1.00  0.00    -0.237 OA
ATOM     59  O   UNL A   1      43.473  18.277  25.062  1.00  0.00    -0.744 OA
ENDBRANCH  55  56
ENDBRANCH  27  50
BRANCH  39  60
ATOM     60  C   UNL A   1      49.764  26.618  26.218  1.00  0.00    -0.014 A 
ATOM     61  C   UNL A   1      50.478  25.963  27.230  1.00  0.00     0.010 A 
ATOM     62  C   UNL A   1      50.331  26.785  24.942  1.00  0.00     0.010 A 
ATOM     63  C   UNL A   1      51.750  25.468  26.964  1.00  0.00     0.020 A 
ATOM     64  C   UNL A   1      51.585  26.257  24.663  1.00  0.00     0.020 A 
ATOM     65  C   UNL A   1      52.286  25.601  25.678  1.00  0.00     0.054 A 
BRANCH  65  66
ATOM     66  S   UNL A   1      53.881  24.824  25.328  1.00  0.00     0.124 S 
ATOM     67  O   UNL A   1      54.330  25.571  24.156  1.00  0.00    -0.237 OA
ATOM     68  O   UNL A   1      54.628  25.073  26.558  1.00  0.00    -0.237 OA
ATOM     69  O   UNL A   1      53.538  23.426  25.085  1.00  0.00    -0.744 OA
ENDBRANCH  65  66
ENDBRANCH  39  60
ENDBRANCH  13  14
ENDBRANCH   6   8
ENDBRANCH   5   6
ENDBRANCH   4   5
ENDBRANCH   3   4
ENDBRANCH   2   3
ENDBRANCH   1   2
BRANCH   1  70
ATOM     70  C   UNL A   1      31.915  29.443  24.433  1.00  0.00     0.188 C 
BRANCH  70  71
ATOM     71  O   UNL A   1      30.767  28.925  23.775  1.00  0.00    -0.376 OA
BRANCH  71  72
ATOM     72  C   UNL A   1      30.979  27.940  22.773  1.00  0.00     0.202 C 
BRANCH  72  73
ATOM     73  C   UNL A   1      32.415  27.508  22.422  1.00  0.00     0.261 C 
BRANCH  73  74
ATOM     74  O   UNL A   1      32.809  26.197  22.857  1.00  0.00    -0.460 OA
BRANCH  74  75
ATOM     75  C   UNL A   1      33.154  25.328  21.862  1.00  0.00     0.338 C 
ATOM     76  O   UNL A   1      33.148  25.560  20.672  1.00  0.00    -0.246 OA
BRANCH  75  77
ATOM     77  C   UNL A   1      33.434  23.975  22.422  1.00  0.00     0.063 A 
ATOM     78  C   UNL A   1      32.451  22.993  22.241  1.00  0.00     0.016 A 
ATOM     79  C   UNL A   1      34.569  23.679  23.180  1.00  0.00     0.055 A 
ATOM     80  C   UNL A   1      32.527  21.784  22.944  1.00  0.00     0.013 A 
ATOM     81  C   UNL A   1      34.647  22.458  23.851  1.00  0.00     0.132 A 
ATOM     82  C   UNL A   1      33.575  21.563  23.849  1.00  0.00     0.042 A 
ATOM     83  F   UNL A   1      35.707  22.231  24.641  1.00  0.00    -0.206 F 
BRANCH  82  84
ATOM     84  C   UNL A   1      33.436  20.517  24.933  1.00  0.00     0.302 C 
BRANCH  84  85
ATOM     85  N   UNL A   1      32.770  20.922  26.181  1.00  0.00    -0.322 N 
ATOM     86  C   UNL A   1      33.642  21.467  27.222  1.00  0.00     0.324 C 
ATOM     87  C   UNL A   1      31.585  21.791  26.060  1.00  0.00     0.328 C 
ATOM     88  H   UNL A   1      32.443  20.001  26.476  1.00  0.00     0.348 HD
ATOM     89  C   UNL A   1      33.932  22.979  27.121  1.00  0.00     0.324 C 
ATOM     90  C   UNL A   1      31.855  23.296  25.833  1.00  0.00     0.239 C 
ATOM     91  N   UNL A   1      32.826  23.869  26.765  1.00  0.00    -0.323 N 
ATOM     92  C   UNL A   1      30.584  24.151  25.844  1.00  0.00     0.071 C 
ATOM     93  C   UNL A   1      33.257  25.200  26.348  1.00  0.00     0.262 C 
ATOM     94  H   UNL A   1      32.324  23.984  27.646  1.00  0.00     0.348 HD
ATOM     95  C   UNL A   1      30.913  25.590  25.437  1.00  0.00     0.012 C 
ATOM     96  C   UNL A   1      32.076  26.167  26.241  1.00  0.00     0.062 C 
ENDBRANCH  84  85
ENDBRANCH  82  84
ENDBRANCH  75  77
ENDBRANCH  74  75
ENDBRANCH  73  74
ENDBRANCH  72  73
ENDBRANCH  71  72
ENDBRANCH  70  71
ENDBRANCH   1  70
TORSDOF 22
ENDMDL
MODEL 3
REMARK VINA RESULT:      -9.8      6.850     11.810
REMARK SMILES O=C(OCCOCCOCCOC(=O)c1ccc(C[N@H+]2CC[N@H+]3CCCC[C@@H]3C2)c(F)c1)c1ccc(-c2c3nc(c(-c4ccc(S(=O)(=O)[O-])cc4)c4ccc([nH]4)c(-c4ccc(S(=O)(=O)[O-])cc4)c4nc(c(-c5ccc(S(=O)(=O)[O-])cc5)c5ccc2[nH]5)C=C4)C=C3)cc1
REMARK SMILES IDX 7 1 6 2 5 3 4 4 3 5 2 6 1 7 33 8 34 9 92 10 35 11 91 12
REMARK SMILES IDX 36 13 37 14 38 15 85 16 39 17 90 18 84 19 86 20 40 21 89 22
REMARK SMILES IDX 83 23 82 24 41 26 71 27 52 28 70 29 53 30 56 31 69 32 87 33
REMARK SMILES IDX 54 34 55 35 68 37 88 38 57 39 42 40 43 41 51 42 44 43 50 44
REMARK SMILES IDX 45 45 46 46 47 47 48 48 49 49 72 50 73 51 81 52 74 53 80 54
REMARK SMILES IDX 75 55 76 56 77 57 78 58 79 59 58 60 59 61 67 62 60 63 66 64
REMARK SMILES IDX 61 65 62 66 63 67 64 68 65 69 8 70 9 71 10 72 11 73 12 74
REMARK SMILES IDX 13 75 14 76 15 77 16 78 32 79 17 80 30 81 18 82 31 83 19 84
REMARK SMILES IDX 20 85 21 86 29 87 22 89 28 90 23 91 27 92 24 93 26 95 25 96
REMARK H PARENT 86 25 56 36 20 88 23 94
REMARK Flexibility Score: inf
ROOT
ATOM      1  C   UNL A   1      35.797  22.971  25.681  1.00  0.00     0.188 C 
ENDROOT
BRANCH   1   2
ATOM      2  O   UNL A   1      36.733  23.752  26.430  1.00  0.00    -0.376 OA
BRANCH   2   3
ATOM      3  C   UNL A   1      37.991  23.919  25.758  1.00  0.00     0.202 C 
BRANCH   3   4
ATOM      4  C   UNL A   1      39.258  23.675  26.607  1.00  0.00     0.261 C 
BRANCH   4   5
ATOM      5  O   UNL A   1      40.402  24.454  26.218  1.00  0.00    -0.460 OA
BRANCH   5   6
ATOM      6  C   UNL A   1      40.698  25.750  26.479  1.00  0.00     0.338 C 
ATOM      7  O   UNL A   1      41.142  26.436  25.558  1.00  0.00    -0.246 OA
BRANCH   6   8
ATOM      8  C   UNL A   1      40.505  26.400  27.815  1.00  0.00     0.060 A 
ATOM      9  C   UNL A   1      39.445  26.167  28.693  1.00  0.00     0.016 A 
ATOM     10  C   UNL A   1      41.497  27.295  28.230  1.00  0.00     0.016 A 
ATOM     11  C   UNL A   1      39.276  26.889  29.876  1.00  0.00     0.010 A 
ATOM     12  C   UNL A   1      41.374  27.969  29.449  1.00  0.00     0.010 A 
ATOM     13  C   UNL A   1      40.226  27.815  30.262  1.00  0.00    -0.014 A 
BRANCH  13  14
ATOM     14  C   UNL A   1      40.053  28.719  31.428  1.00  0.00     0.031 A 
ATOM     15  C   UNL A   1      39.307  29.976  31.170  1.00  0.00     0.074 A 
ATOM     16  C   UNL A   1      40.461  28.490  32.699  1.00  0.00     0.049 A 
ATOM     17  N   UNL A   1      39.202  31.016  31.936  1.00  0.00    -0.248 NA
ATOM     18  C   UNL A   1      38.491  30.024  29.941  1.00  0.00     0.031 C 
ATOM     19  C   UNL A   1      40.762  27.208  33.302  1.00  0.00     0.029 A 
ATOM     20  N   UNL A   1      40.846  29.379  33.682  1.00  0.00    -0.354 N 
ATOM     21  C   UNL A   1      38.209  31.777  31.357  1.00  0.00     0.074 A 
ATOM     22  C   UNL A   1      37.879  31.187  30.082  1.00  0.00     0.031 C 
ATOM     23  C   UNL A   1      41.526  27.388  34.395  1.00  0.00     0.029 A 
ATOM     24  C   UNL A   1      41.731  28.801  34.589  1.00  0.00     0.049 A 
ATOM     25  H   UNL A   1      40.532  30.311  33.736  1.00  0.00     0.167 HD
ATOM     26  C   UNL A   1      37.559  32.807  31.930  1.00  0.00     0.031 A 
ATOM     27  C   UNL A   1      42.634  29.383  35.409  1.00  0.00     0.031 A 
ATOM     28  C   UNL A   1      37.959  33.359  33.190  1.00  0.00     0.049 A 
ATOM     29  C   UNL A   1      42.326  30.807  35.720  1.00  0.00     0.074 A 
ATOM     30  C   UNL A   1      37.410  34.413  33.888  1.00  0.00     0.029 A 
ATOM     31  N   UNL A   1      39.052  32.908  33.926  1.00  0.00    -0.354 N 
ATOM     32  N   UNL A   1      41.432  31.575  35.151  1.00  0.00    -0.248 NA
ATOM     33  C   UNL A   1      42.982  31.376  36.900  1.00  0.00     0.031 C 
ATOM     34  C   UNL A   1      38.232  34.663  34.993  1.00  0.00     0.029 A 
ATOM     35  C   UNL A   1      39.249  33.717  35.025  1.00  0.00     0.049 A 
ATOM     36  H   UNL A   1      39.602  32.126  33.695  1.00  0.00     0.167 HD
ATOM     37  C   UNL A   1      41.279  32.641  36.008  1.00  0.00     0.074 A 
ATOM     38  C   UNL A   1      42.281  32.491  37.051  1.00  0.00     0.031 C 
ATOM     39  C   UNL A   1      40.306  33.579  35.997  1.00  0.00     0.031 A 
BRANCH  26  40
ATOM     40  C   UNL A   1      36.416  33.366  31.147  1.00  0.00    -0.014 A 
ATOM     41  C   UNL A   1      36.586  33.800  29.817  1.00  0.00     0.010 A 
ATOM     42  C   UNL A   1      35.192  33.582  31.796  1.00  0.00     0.010 A 
ATOM     43  C   UNL A   1      35.569  34.507  29.173  1.00  0.00     0.020 A 
ATOM     44  C   UNL A   1      34.164  34.264  31.146  1.00  0.00     0.020 A 
ATOM     45  C   UNL A   1      34.369  34.746  29.850  1.00  0.00     0.054 A 
BRANCH  45  46
ATOM     46  S   UNL A   1      33.080  35.710  29.019  1.00  0.00     0.124 S 
ATOM     47  O   UNL A   1      33.872  36.657  28.236  1.00  0.00    -0.237 OA
ATOM     48  O   UNL A   1      32.370  34.696  28.246  1.00  0.00    -0.237 OA
ATOM     49  O   UNL A   1      32.323  36.296  30.122  1.00  0.00    -0.744 OA
ENDBRANCH  45  46
ENDBRANCH  26  40
BRANCH  27  50
ATOM     50  C   UNL A   1      43.815  28.718  36.046  1.00  0.00    -0.014 A 
ATOM     51  C   UNL A   1      43.725  27.804  37.106  1.00  0.00     0.010 A 
ATOM     52  C   UNL A   1      45.105  29.039  35.562  1.00  0.00     0.010 A 
ATOM     53  C   UNL A   1      44.874  27.157  37.599  1.00  0.00     0.020 A 
ATOM     54  C   UNL A   1      46.255  28.392  36.042  1.00  0.00     0.020 A 
ATOM     55  C   UNL A   1      46.129  27.432  37.044  1.00  0.00     0.054 A 
BRANCH  55  56
ATOM     56  S   UNL A   1      47.575  26.427  37.506  1.00  0.00     0.124 S 
ATOM     57  O   UNL A   1      48.059  27.109  38.702  1.00  0.00    -0.237 OA
ATOM     58  O   UNL A   1      47.000  25.102  37.724  1.00  0.00    -0.237 OA
ATOM     59  O   UNL A   1      48.437  26.527  36.330  1.00  0.00    -0.744 OA
ENDBRANCH  55  56
ENDBRANCH  27  50
BRANCH  39  60
ATOM     60  C   UNL A   1      40.278  34.496  37.172  1.00  0.00    -0.014 A 
ATOM     61  C   UNL A   1      40.972  35.713  37.151  1.00  0.00     0.010 A 
ATOM     62  C   UNL A   1      39.491  34.144  38.283  1.00  0.00     0.010 A 
ATOM     63  C   UNL A   1      40.871  36.579  38.235  1.00  0.00     0.020 A 
ATOM     64  C   UNL A   1      39.358  35.025  39.349  1.00  0.00     0.020 A 
ATOM     65  C   UNL A   1      40.050  36.238  39.316  1.00  0.00     0.054 A 
BRANCH  65  66
ATOM     66  S   UNL A   1      39.832  37.447  40.643  1.00  0.00     0.124 S 
ATOM     67  O   UNL A   1      38.857  36.780  41.501  1.00  0.00    -0.237 OA
ATOM     68  O   UNL A   1      41.182  37.559  41.191  1.00  0.00    -0.237 OA
ATOM     69  O   UNL A   1      39.346  38.637  39.949  1.00  0.00    -0.744 OA
ENDBRANCH  65  66
ENDBRANCH  39  60
ENDBRANCH  13  14
ENDBRANCH   6   8
ENDBRANCH   5   6
ENDBRANCH   4   5
ENDBRANCH   3   4
ENDBRANCH   2   3
ENDBRANCH   1   2
BRANCH   1  70
ATOM     70  C   UNL A   1      36.326  22.348  24.390  1.00  0.00     0.188 C 
BRANCH  70  71
ATOM     71  O   UNL A   1      37.178  21.216  24.493  1.00  0.00    -0.376 OA
BRANCH  71  72
ATOM     72  C   UNL A   1      36.560  19.956  24.719  1.00  0.00     0.202 C 
BRANCH  72  73
ATOM     73  C   UNL A   1      35.094  19.899  25.187  1.00  0.00     0.261 C 
BRANCH  73  74
ATOM     74  O   UNL A   1      34.180  19.193  24.333  1.00  0.00    -0.460 OA
BRANCH  74  75
ATOM     75  C   UNL A   1      32.856  19.422  24.574  1.00  0.00     0.338 C 
ATOM     76  O   UNL A   1      32.016  18.583  24.816  1.00  0.00    -0.246 OA
BRANCH  75  77
ATOM     77  C   UNL A   1      32.530  20.862  24.377  1.00  0.00     0.063 A 
ATOM     78  C   UNL A   1      31.775  21.489  25.377  1.00  0.00     0.016 A 
ATOM     79  C   UNL A   1      32.862  21.573  23.221  1.00  0.00     0.055 A 
ATOM     80  C   UNL A   1      31.221  22.756  25.151  1.00  0.00     0.013 A 
ATOM     81  C   UNL A   1      32.329  22.847  23.021  1.00  0.00     0.132 A 
ATOM     82  C   UNL A   1      31.403  23.390  23.914  1.00  0.00     0.042 A 
ATOM     83  F   UNL A   1      32.593  23.475  21.866  1.00  0.00    -0.206 F 
BRANCH  82  84
ATOM     84  C   UNL A   1      30.464  24.495  23.481  1.00  0.00     0.302 C 
BRANCH  84  85
ATOM     85  N   UNL A   1      30.013  25.442  24.513  1.00  0.00    -0.322 N 
ATOM     86  C   UNL A   1      31.050  26.292  25.097  1.00  0.00     0.324 C 
ATOM     87  C   UNL A   1      28.844  26.281  24.190  1.00  0.00     0.328 C 
ATOM     88  H   UNL A   1      29.714  24.762  25.213  1.00  0.00     0.348 HD
ATOM     89  C   UNL A   1      31.356  27.591  24.322  1.00  0.00     0.324 C 
ATOM     90  C   UNL A   1      29.112  27.523  23.309  1.00  0.00     0.239 C 
ATOM     91  N   UNL A   1      30.230  28.344  23.770  1.00  0.00    -0.323 N 
ATOM     92  C   UNL A   1      27.879  28.413  23.121  1.00  0.00     0.071 C 
ATOM     93  C   UNL A   1      30.623  29.336  22.772  1.00  0.00     0.262 C 
ATOM     94  H   UNL A   1      29.876  28.861  24.575  1.00  0.00     0.348 HD
ATOM     95  C   UNL A   1      28.175  29.514  22.099  1.00  0.00     0.012 C 
ATOM     96  C   UNL A   1      29.463  30.270  22.418  1.00  0.00     0.062 C 
ENDBRANCH  84  85
ENDBRANCH  82  84
ENDBRANCH  75  77
ENDBRANCH  74  75
ENDBRANCH  73  74
ENDBRANCH  72  73
ENDBRANCH  71  72
ENDBRANCH  70  71
ENDBRANCH   1  70
TORSDOF 22
ENDMDL
