MODEL 1
REMARK VINA RESULT:     -10.3      0.000      0.000
REMARK SMILES [NH3+][C@@]1(C(=O)OCCOCCOCCOC(=O)c2ccc(-c3c4nc(c(-c5ccc(S(=O)(=O)[O-])cc5)c5ccc([nH]5)c(-c5ccc(S(=O)(=O)[O-])cc5)c5nc(c(-c6ccc(S(=O)(=O)[O-])cc6)c6ccc3[nH]6)C=C5)C=C4)cc2)CC[C@@H]([N@H+]2CC[C@H]([NH+]3CCOCC3)C2)C1
REMARK SMILES IDX 10 1 9 2 8 3 7 4 6 5 5 6 3 7 4 8 2 9 77 10 91 11 78 12 79 13
REMARK SMILES IDX 1 14 80 18 81 19 90 20 82 22 83 23 84 24 85 25 89 26 86 28
REMARK SMILES IDX 88 29 87 30 11 31 12 32 13 33 14 34 15 35 16 36 17 37 18 38
REMARK SMILES IDX 76 39 19 40 75 41 20 42 21 43 22 44 69 45 23 46 74 47 68 48
REMARK SMILES IDX 70 49 24 50 73 51 67 52 66 53 25 55 55 56 36 57 54 58 37 59
REMARK SMILES IDX 40 60 53 61 71 62 38 63 39 64 52 66 72 67 41 68 26 69 27 70
REMARK SMILES IDX 35 71 28 72 34 73 29 74 30 75 31 76 32 77 33 78 56 79 57 80
REMARK SMILES IDX 65 81 58 82 64 83 59 84 60 85 61 86 62 87 63 88 42 89 43 90
REMARK SMILES IDX 51 91 44 92 50 93 45 94 46 95 47 96 48 97 49 98
REMARK H PARENT 1 15 1 16 1 17 80 21 84 27 70 54 40 65
REMARK Flexibility Score: inf
ROOT
ATOM      1  C   UNL A   1      37.561  23.107  25.160  1.00  0.00     0.188 C 
ENDROOT
BRANCH   1   2
ATOM      2  C   UNL A   1      36.616  22.958  23.963  1.00  0.00     0.188 C 
BRANCH   2   3
ATOM      3  O   UNL A   1      35.747  21.836  23.942  1.00  0.00    -0.376 OA
BRANCH   3   4
ATOM      4  C   UNL A   1      34.555  21.894  24.725  1.00  0.00     0.202 C 
BRANCH   4   5
ATOM      5  C   UNL A   1      33.683  23.161  24.666  1.00  0.00     0.261 C 
BRANCH   5   6
ATOM      6  O   UNL A   1      32.736  23.196  23.575  1.00  0.00    -0.459 OA
BRANCH   6   7
ATOM      7  C   UNL A   1      33.063  24.004  22.529  1.00  0.00     0.368 C 
ATOM      8  O   UNL A   1      33.867  23.689  21.658  1.00  0.00    -0.245 OA
BRANCH   7   9
ATOM      9  C   UNL A   1      32.288  25.364  22.513  1.00  0.00     0.198 C 
ATOM     10  C   UNL A   1      33.281  26.430  23.002  1.00  0.00     0.087 C 
ATOM     11  C   UNL A   1      31.061  25.508  23.449  1.00  0.00     0.145 C 
ATOM     12  C   UNL A   1      32.939  26.599  24.477  1.00  0.00     0.072 C 
ATOM     13  C   UNL A   1      31.409  26.530  24.544  1.00  0.00     0.191 C 
BRANCH   9  14
ATOM     14  N   UNL A   1      31.901  25.637  21.108  1.00  0.00    -0.343 N 
ATOM     15  H   UNL A   1      31.181  26.360  21.088  1.00  0.00     0.345 HD
ATOM     16  H   UNL A   1      31.536  24.784  20.684  1.00  0.00     0.345 HD
ATOM     17  H   UNL A   1      32.717  25.956  20.585  1.00  0.00     0.345 HD
ENDBRANCH   9  14
BRANCH  13  18
ATOM     18  N   UNL A   1      30.766  27.847  24.452  1.00  0.00    -0.327 N 
ATOM     19  C   UNL A   1      31.598  29.018  24.693  1.00  0.00     0.269 C 
ATOM     20  C   UNL A   1      30.076  28.106  23.179  1.00  0.00     0.328 C 
ATOM     21  H   UNL A   1      30.111  27.745  25.228  1.00  0.00     0.348 HD
ATOM     22  C   UNL A   1      30.685  30.166  24.323  1.00  0.00     0.132 C 
ATOM     23  C   UNL A   1      29.836  29.642  23.162  1.00  0.00     0.245 C 
BRANCH  23  24
ATOM     24  N   UNL A   1      28.448  30.126  23.049  1.00  0.00    -0.324 N 
ATOM     25  C   UNL A   1      27.923  30.147  21.668  1.00  0.00     0.291 C 
ATOM     26  C   UNL A   1      28.131  31.408  23.701  1.00  0.00     0.291 C 
ATOM     27  H   UNL A   1      27.967  29.406  23.587  1.00  0.00     0.348 HD
ATOM     28  C   UNL A   1      28.192  31.440  20.867  1.00  0.00     0.221 C 
ATOM     29  C   UNL A   1      28.476  32.657  22.883  1.00  0.00     0.221 C 
ATOM     30  O   UNL A   1      27.847  32.624  21.596  1.00  0.00    -0.370 OA
ENDBRANCH  23  24
ENDBRANCH  13  18
ENDBRANCH   7   9
ENDBRANCH   6   7
ENDBRANCH   5   6
ENDBRANCH   4   5
ENDBRANCH   3   4
ENDBRANCH   2   3
ENDBRANCH   1   2
BRANCH   1  31
ATOM     31  O   UNL A   1      37.956  21.891  25.757  1.00  0.00    -0.376 OA
BRANCH  31  32
ATOM     32  C   UNL A   1      39.328  21.695  26.074  1.00  0.00     0.202 C 
BRANCH  32  33
ATOM     33  C   UNL A   1      40.014  22.686  27.039  1.00  0.00     0.261 C 
BRANCH  33  34
ATOM     34  O   UNL A   1      39.991  24.079  26.674  1.00  0.00    -0.460 OA
BRANCH  34  35
ATOM     35  C   UNL A   1      41.140  24.784  26.818  1.00  0.00     0.338 C 
ATOM     36  O   UNL A   1      42.095  24.776  26.056  1.00  0.00    -0.246 OA
BRANCH  35  37
ATOM     37  C   UNL A   1      40.911  25.804  27.879  1.00  0.00     0.060 A 
ATOM     38  C   UNL A   1      41.871  26.816  28.056  1.00  0.00     0.016 A 
ATOM     39  C   UNL A   1      39.733  25.823  28.627  1.00  0.00     0.016 A 
ATOM     40  C   UNL A   1      41.671  27.823  29.005  1.00  0.00     0.010 A 
ATOM     41  C   UNL A   1      39.546  26.817  29.594  1.00  0.00     0.010 A 
ATOM     42  C   UNL A   1      40.527  27.803  29.815  1.00  0.00    -0.014 A 
BRANCH  42  43
ATOM     43  C   UNL A   1      40.456  28.650  31.034  1.00  0.00     0.031 A 
ATOM     44  C   UNL A   1      39.454  29.775  31.049  1.00  0.00     0.074 A 
ATOM     45  C   UNL A   1      41.247  28.447  32.104  1.00  0.00     0.049 A 
ATOM     46  N   UNL A   1      39.253  30.700  31.950  1.00  0.00    -0.248 NA
ATOM     47  C   UNL A   1      38.560  29.866  29.882  1.00  0.00     0.031 C 
ATOM     48  C   UNL A   1      42.220  27.367  32.250  1.00  0.00     0.029 A 
ATOM     49  N   UNL A   1      41.360  29.161  33.273  1.00  0.00    -0.354 N 
ATOM     50  C   UNL A   1      38.225  31.493  31.452  1.00  0.00     0.074 A 
ATOM     51  C   UNL A   1      37.862  30.956  30.160  1.00  0.00     0.031 C 
ATOM     52  C   UNL A   1      42.842  27.499  33.436  1.00  0.00     0.029 A 
ATOM     53  C   UNL A   1      42.342  28.695  34.115  1.00  0.00     0.049 A 
ATOM     54  H   UNL A   1      40.790  29.936  33.487  1.00  0.00     0.167 HD
ATOM     55  C   UNL A   1      37.632  32.571  32.017  1.00  0.00     0.031 A 
ATOM     56  C   UNL A   1      42.803  29.189  35.283  1.00  0.00     0.031 A 
ATOM     57  C   UNL A   1      38.006  33.122  33.292  1.00  0.00     0.049 A 
ATOM     58  C   UNL A   1      42.190  30.446  35.854  1.00  0.00     0.074 A 
ATOM     59  C   UNL A   1      37.457  34.208  33.952  1.00  0.00     0.029 A 
ATOM     60  N   UNL A   1      39.029  32.641  34.094  1.00  0.00    -0.354 N 
ATOM     61  N   UNL A   1      41.205  31.174  35.383  1.00  0.00    -0.248 NA
ATOM     62  C   UNL A   1      42.748  30.942  37.121  1.00  0.00     0.031 C 
ATOM     63  C   UNL A   1      38.193  34.424  35.122  1.00  0.00     0.029 A 
ATOM     64  C   UNL A   1      39.150  33.426  35.228  1.00  0.00     0.049 A 
ATOM     65  H   UNL A   1      39.588  31.857  33.887  1.00  0.00     0.167 HD
ATOM     66  C   UNL A   1      41.006  32.194  36.311  1.00  0.00     0.074 A 
ATOM     67  C   UNL A   1      41.963  31.982  37.375  1.00  0.00     0.031 C 
ATOM     68  C   UNL A   1      40.107  33.209  36.284  1.00  0.00     0.031 A 
BRANCH  55  69
ATOM     69  C   UNL A   1      36.546  33.255  31.228  1.00  0.00    -0.014 A 
ATOM     70  C   UNL A   1      35.209  33.257  31.669  1.00  0.00     0.010 A 
ATOM     71  C   UNL A   1      36.871  33.919  30.032  1.00  0.00     0.010 A 
ATOM     72  C   UNL A   1      34.213  33.869  30.905  1.00  0.00     0.020 A 
ATOM     73  C   UNL A   1      35.884  34.562  29.281  1.00  0.00     0.020 A 
ATOM     74  C   UNL A   1      34.556  34.516  29.713  1.00  0.00     0.054 A 
BRANCH  74  75
ATOM     75  S   UNL A   1      33.244  35.309  28.746  1.00  0.00     0.124 S 
ATOM     76  O   UNL A   1      34.011  36.173  27.851  1.00  0.00    -0.237 OA
ATOM     77  O   UNL A   1      32.585  34.173  28.109  1.00  0.00    -0.237 OA
ATOM     78  O   UNL A   1      32.446  36.008  29.750  1.00  0.00    -0.744 OA
ENDBRANCH  74  75
ENDBRANCH  55  69
BRANCH  56  79
ATOM     79  C   UNL A   1      43.928  28.509  35.989  1.00  0.00    -0.014 A 
ATOM     80  C   UNL A   1      43.678  27.484  36.918  1.00  0.00     0.010 A 
ATOM     81  C   UNL A   1      45.258  28.889  35.735  1.00  0.00     0.010 A 
ATOM     82  C   UNL A   1      44.737  26.858  37.585  1.00  0.00     0.020 A 
ATOM     83  C   UNL A   1      46.321  28.245  36.377  1.00  0.00     0.020 A 
ATOM     84  C   UNL A   1      46.053  27.238  37.305  1.00  0.00     0.054 A 
BRANCH  84  85
ATOM     85  S   UNL A   1      47.410  26.366  38.135  1.00  0.00     0.124 S 
ATOM     86  O   UNL A   1      48.392  27.429  38.313  1.00  0.00    -0.237 OA
ATOM     87  O   UNL A   1      46.771  25.882  39.357  1.00  0.00    -0.237 OA
ATOM     88  O   UNL A   1      47.782  25.323  37.180  1.00  0.00    -0.744 OA
ENDBRANCH  84  85
ENDBRANCH  56  79
BRANCH  68  89
ATOM     89  C   UNL A   1      40.075  34.155  37.461  1.00  0.00    -0.014 A 
ATOM     90  C   UNL A   1      39.294  33.889  38.599  1.00  0.00     0.010 A 
ATOM     91  C   UNL A   1      40.898  35.297  37.450  1.00  0.00     0.010 A 
ATOM     92  C   UNL A   1      39.313  34.764  39.690  1.00  0.00     0.020 A 
ATOM     93  C   UNL A   1      40.944  36.158  38.551  1.00  0.00     0.020 A 
ATOM     94  C   UNL A   1      40.140  35.892  39.660  1.00  0.00     0.054 A 
BRANCH  94  95
ATOM     95  S   UNL A   1      40.179  36.986  41.107  1.00  0.00     0.124 S 
ATOM     96  O   UNL A   1      40.078  36.036  42.211  1.00  0.00    -0.237 OA
ATOM     97  O   UNL A   1      41.471  37.654  40.967  1.00  0.00    -0.237 OA
ATOM     98  O   UNL A   1      39.015  37.849  40.921  1.00  0.00    -0.744 OA
ENDBRANCH  94  95
ENDBRANCH  68  89
ENDBRANCH  42  43
ENDBRANCH  35  37
ENDBRANCH  34  35
ENDBRANCH  33  34
ENDBRANCH  32  33
ENDBRANCH  31  32
ENDBRANCH   1  31
TORSDOF 23
ENDMDL
MODEL 2
REMARK VINA RESULT:      -9.8      5.690     12.984
REMARK SMILES [NH3+][C@@]1(C(=O)OCCOCCOCCOC(=O)c2ccc(-c3c4nc(c(-c5ccc(S(=O)(=O)[O-])cc5)c5ccc([nH]5)c(-c5ccc(S(=O)(=O)[O-])cc5)c5nc(c(-c6ccc(S(=O)(=O)[O-])cc6)c6ccc3[nH]6)C=C5)C=C4)cc2)CC[C@@H]([N@H+]2CC[C@H]([NH+]3CCOCC3)C2)C1
REMARK SMILES IDX 10 1 9 2 8 3 7 4 6 5 5 6 3 7 4 8 2 9 77 10 91 11 78 12 79 13
REMARK SMILES IDX 1 14 80 18 81 19 90 20 82 22 83 23 84 24 85 25 89 26 86 28
REMARK SMILES IDX 88 29 87 30 11 31 12 32 13 33 14 34 15 35 16 36 17 37 18 38
REMARK SMILES IDX 76 39 19 40 75 41 20 42 21 43 22 44 69 45 23 46 74 47 68 48
REMARK SMILES IDX 70 49 24 50 73 51 67 52 66 53 25 55 55 56 36 57 54 58 37 59
REMARK SMILES IDX 40 60 53 61 71 62 38 63 39 64 52 66 72 67 41 68 26 69 27 70
REMARK SMILES IDX 35 71 28 72 34 73 29 74 30 75 31 76 32 77 33 78 56 79 57 80
REMARK SMILES IDX 65 81 58 82 64 83 59 84 60 85 61 86 62 87 63 88 42 89 43 90
REMARK SMILES IDX 51 91 44 92 50 93 45 94 46 95 47 96 48 97 49 98
REMARK H PARENT 1 15 1 16 1 17 80 21 84 27 70 54 40 65
REMARK Flexibility Score: inf
ROOT
ATOM      1  C   UNL A   1      33.617  34.593  32.575  1.00  0.00     0.188 C 
ENDROOT
BRANCH   1   2
ATOM      2  C   UNL A   1      34.329  33.326  33.062  1.00  0.00     0.188 C 
BRANCH   2   3
ATOM      3  O   UNL A   1      35.685  33.442  33.464  1.00  0.00    -0.376 OA
BRANCH   3   4
ATOM      4  C   UNL A   1      36.515  32.285  33.374  1.00  0.00     0.202 C 
BRANCH   4   5
ATOM      5  C   UNL A   1      38.044  32.455  33.419  1.00  0.00     0.261 C 
BRANCH   5   6
ATOM      6  O   UNL A   1      38.698  31.785  34.519  1.00  0.00    -0.459 OA
BRANCH   6   7
ATOM      7  C   UNL A   1      40.055  31.704  34.446  1.00  0.00     0.368 C 
ATOM      8  O   UNL A   1      40.776  32.668  34.204  1.00  0.00    -0.245 OA
BRANCH   7   9
ATOM      9  C   UNL A   1      40.622  30.275  34.739  1.00  0.00     0.198 C 
ATOM     10  C   UNL A   1      42.104  30.467  35.098  1.00  0.00     0.087 C 
ATOM     11  C   UNL A   1      40.627  29.248  33.577  1.00  0.00     0.145 C 
ATOM     12  C   UNL A   1      42.837  30.162  33.798  1.00  0.00     0.072 C 
ATOM     13  C   UNL A   1      42.087  28.976  33.182  1.00  0.00     0.191 C 
BRANCH   9  14
ATOM     14  N   UNL A   1      39.882  29.734  35.903  1.00  0.00    -0.343 N 
ATOM     15  H   UNL A   1      38.879  29.823  35.741  1.00  0.00     0.345 HD
ATOM     16  H   UNL A   1      40.138  30.257  36.742  1.00  0.00     0.345 HD
ATOM     17  H   UNL A   1      40.120  28.750  36.031  1.00  0.00     0.345 HD
ENDBRANCH   9  14
BRANCH  13  18
ATOM     18  N   UNL A   1      42.648  27.675  33.567  1.00  0.00    -0.327 N 
ATOM     19  C   UNL A   1      43.530  27.015  32.612  1.00  0.00     0.269 C 
ATOM     20  C   UNL A   1      43.376  27.673  34.846  1.00  0.00     0.328 C 
ATOM     21  H   UNL A   1      41.775  27.149  33.624  1.00  0.00     0.348 HD
ATOM     22  C   UNL A   1      44.066  25.840  33.400  1.00  0.00     0.132 C 
ATOM     23  C   UNL A   1      44.187  26.347  34.839  1.00  0.00     0.245 C 
BRANCH  23  24
ATOM     24  N   UNL A   1      43.953  25.385  35.931  1.00  0.00    -0.324 N 
ATOM     25  C   UNL A   1      43.180  24.190  35.533  1.00  0.00     0.291 C 
ATOM     26  C   UNL A   1      43.396  25.918  37.186  1.00  0.00     0.291 C 
ATOM     27  H   UNL A   1      44.915  25.117  36.137  1.00  0.00     0.348 HD
ATOM     28  C   UNL A   1      41.644  24.320  35.633  1.00  0.00     0.221 C 
ATOM     29  C   UNL A   1      41.872  26.081  37.204  1.00  0.00     0.221 C 
ATOM     30  O   UNL A   1      41.215  24.847  36.894  1.00  0.00    -0.370 OA
ENDBRANCH  23  24
ENDBRANCH  13  18
ENDBRANCH   7   9
ENDBRANCH   6   7
ENDBRANCH   5   6
ENDBRANCH   4   5
ENDBRANCH   3   4
ENDBRANCH   2   3
ENDBRANCH   1   2
BRANCH   1  31
ATOM     31  O   UNL A   1      33.177  34.547  31.236  1.00  0.00    -0.376 OA
BRANCH  31  32
ATOM     32  C   UNL A   1      34.132  34.695  30.194  1.00  0.00     0.202 C 
BRANCH  32  33
ATOM     33  C   UNL A   1      34.252  33.577  29.135  1.00  0.00     0.261 C 
BRANCH  33  34
ATOM     34  O   UNL A   1      34.465  32.237  29.618  1.00  0.00    -0.460 OA
BRANCH  34  35
ATOM     35  C   UNL A   1      34.510  31.239  28.701  1.00  0.00     0.338 C 
ATOM     36  O   UNL A   1      33.711  31.052  27.796  1.00  0.00    -0.246 OA
BRANCH  35  37
ATOM     37  C   UNL A   1      35.858  30.612  28.785  1.00  0.00     0.060 A 
ATOM     38  C   UNL A   1      36.315  30.169  30.039  1.00  0.00     0.016 A 
ATOM     39  C   UNL A   1      36.624  30.377  27.642  1.00  0.00     0.016 A 
ATOM     40  C   UNL A   1      37.553  29.528  30.154  1.00  0.00     0.010 A 
ATOM     41  C   UNL A   1      37.873  29.759  27.763  1.00  0.00     0.010 A 
ATOM     42  C   UNL A   1      38.362  29.361  29.023  1.00  0.00    -0.014 A 
BRANCH  42  43
ATOM     43  C   UNL A   1      39.795  28.995  29.172  1.00  0.00     0.031 A 
ATOM     44  C   UNL A   1      40.743  30.057  29.665  1.00  0.00     0.074 A 
ATOM     45  C   UNL A   1      40.262  27.766  28.883  1.00  0.00     0.049 A 
ATOM     46  N   UNL A   1      42.042  30.016  29.802  1.00  0.00    -0.248 NA
ATOM     47  C   UNL A   1      40.135  31.342  30.054  1.00  0.00     0.031 C 
ATOM     48  C   UNL A   1      39.453  26.628  28.450  1.00  0.00     0.029 A 
ATOM     49  N   UNL A   1      41.547  27.278  28.901  1.00  0.00    -0.354 N 
ATOM     50  C   UNL A   1      42.410  31.272  30.273  1.00  0.00     0.074 A 
ATOM     51  C   UNL A   1      41.201  32.058  30.374  1.00  0.00     0.031 C 
ATOM     52  C   UNL A   1      40.264  25.578  28.229  1.00  0.00     0.029 A 
ATOM     53  C   UNL A   1      41.652  25.978  28.464  1.00  0.00     0.049 A 
ATOM     54  H   UNL A   1      42.320  27.810  29.198  1.00  0.00     0.167 HD
ATOM     55  C   UNL A   1      43.641  31.732  30.595  1.00  0.00     0.031 A 
ATOM     56  C   UNL A   1      42.741  25.210  28.252  1.00  0.00     0.031 A 
ATOM     57  C   UNL A   1      44.849  30.960  30.473  1.00  0.00     0.049 A 
ATOM     58  C   UNL A   1      44.115  25.771  28.531  1.00  0.00     0.074 A 
ATOM     59  C   UNL A   1      46.144  31.337  30.784  1.00  0.00     0.029 A 
ATOM     60  N   UNL A   1      44.914  29.661  29.993  1.00  0.00    -0.354 N 
ATOM     61  N   UNL A   1      44.447  26.953  28.995  1.00  0.00    -0.248 NA
ATOM     62  C   UNL A   1      45.262  24.890  28.264  1.00  0.00     0.031 C 
ATOM     63  C   UNL A   1      47.000  30.290  30.428  1.00  0.00     0.029 A 
ATOM     64  C   UNL A   1      46.230  29.233  29.967  1.00  0.00     0.049 A 
ATOM     65  H   UNL A   1      44.139  29.124  29.710  1.00  0.00     0.167 HD
ATOM     66  C   UNL A   1      45.836  26.944  29.105  1.00  0.00     0.074 A 
ATOM     67  C   UNL A   1      46.280  25.637  28.670  1.00  0.00     0.031 C 
ATOM     68  C   UNL A   1      46.666  27.928  29.532  1.00  0.00     0.031 A 
BRANCH  55  69
ATOM     69  C   UNL A   1      43.745  33.160  31.064  1.00  0.00    -0.014 A 
ATOM     70  C   UNL A   1      43.847  34.227  30.153  1.00  0.00     0.010 A 
ATOM     71  C   UNL A   1      43.724  33.440  32.443  1.00  0.00     0.010 A 
ATOM     72  C   UNL A   1      43.975  35.540  30.612  1.00  0.00     0.020 A 
ATOM     73  C   UNL A   1      43.818  34.754  32.907  1.00  0.00     0.020 A 
ATOM     74  C   UNL A   1      43.963  35.795  31.987  1.00  0.00     0.054 A 
BRANCH  74  75
ATOM     75  S   UNL A   1      44.122  37.510  32.554  1.00  0.00     0.124 S 
ATOM     76  O   UNL A   1      43.717  38.257  31.365  1.00  0.00    -0.237 OA
ATOM     77  O   UNL A   1      43.189  37.563  33.676  1.00  0.00    -0.237 OA
ATOM     78  O   UNL A   1      45.532  37.629  32.912  1.00  0.00    -0.744 OA
ENDBRANCH  74  75
ENDBRANCH  55  69
BRANCH  56  79
ATOM     79  C   UNL A   1      42.585  23.824  27.721  1.00  0.00    -0.014 A 
ATOM     80  C   UNL A   1      42.562  23.583  26.335  1.00  0.00     0.010 A 
ATOM     81  C   UNL A   1      42.453  22.736  28.603  1.00  0.00     0.010 A 
ATOM     82  C   UNL A   1      42.404  22.283  25.844  1.00  0.00     0.020 A 
ATOM     83  C   UNL A   1      42.325  21.432  28.116  1.00  0.00     0.020 A 
ATOM     84  C   UNL A   1      42.293  21.214  26.738  1.00  0.00     0.054 A 
BRANCH  84  85
ATOM     85  S   UNL A   1      42.154  19.531  26.075  1.00  0.00     0.124 S 
ATOM     86  O   UNL A   1      40.721  19.417  25.828  1.00  0.00    -0.237 OA
ATOM     87  O   UNL A   1      42.999  19.593  24.884  1.00  0.00    -0.237 OA
ATOM     88  O   UNL A   1      42.673  18.693  27.155  1.00  0.00    -0.744 OA
ENDBRANCH  84  85
ENDBRANCH  56  79
BRANCH  68  89
ATOM     89  C   UNL A   1      48.143  27.626  29.599  1.00  0.00    -0.014 A 
ATOM     90  C   UNL A   1      49.031  28.064  28.602  1.00  0.00     0.010 A 
ATOM     91  C   UNL A   1      48.658  26.948  30.721  1.00  0.00     0.010 A 
ATOM     92  C   UNL A   1      50.401  27.802  28.708  1.00  0.00     0.020 A 
ATOM     93  C   UNL A   1      50.030  26.712  30.847  1.00  0.00     0.020 A 
ATOM     94  C   UNL A   1      50.892  27.129  29.832  1.00  0.00     0.054 A 
BRANCH  94  95
ATOM     95  S   UNL A   1      52.679  26.842  29.968  1.00  0.00     0.124 S 
ATOM     96  O   UNL A   1      52.929  25.945  28.843  1.00  0.00    -0.237 OA
ATOM     97  O   UNL A   1      53.230  28.188  29.835  1.00  0.00    -0.237 OA
ATOM     98  O   UNL A   1      52.834  26.239  31.290  1.00  0.00    -0.744 OA
ENDBRANCH  94  95
ENDBRANCH  68  89
ENDBRANCH  42  43
ENDBRANCH  35  37
ENDBRANCH  34  35
ENDBRANCH  33  34
ENDBRANCH  32  33
ENDBRANCH  31  32
ENDBRANCH   1  31
TORSDOF 23
ENDMDL
MODEL 3
REMARK VINA RESULT:      -9.8      6.409     12.168
REMARK SMILES [NH3+][C@@]1(C(=O)OCCOCCOCCOC(=O)c2ccc(-c3c4nc(c(-c5ccc(S(=O)(=O)[O-])cc5)c5ccc([nH]5)c(-c5ccc(S(=O)(=O)[O-])cc5)c5nc(c(-c6ccc(S(=O)(=O)[O-])cc6)c6ccc3[nH]6)C=C5)C=C4)cc2)CC[C@@H]([N@H+]2CC[C@H]([NH+]3CCOCC3)C2)C1
REMARK SMILES IDX 10 1 9 2 8 3 7 4 6 5 5 6 3 7 4 8 2 9 77 10 91 11 78 12 79 13
REMARK SMILES IDX 1 14 80 18 81 19 90 20 82 22 83 23 84 24 85 25 89 26 86 28
REMARK SMILES IDX 88 29 87 30 11 31 12 32 13 33 14 34 15 35 16 36 17 37 18 38
REMARK SMILES IDX 76 39 19 40 75 41 20 42 21 43 22 44 69 45 23 46 74 47 68 48
REMARK SMILES IDX 70 49 24 50 73 51 67 52 66 53 25 55 55 56 36 57 54 58 37 59
REMARK SMILES IDX 40 60 53 61 71 62 38 63 39 64 52 66 72 67 41 68 26 69 27 70
REMARK SMILES IDX 35 71 28 72 34 73 29 74 30 75 31 76 32 77 33 78 56 79 57 80
REMARK SMILES IDX 65 81 58 82 64 83 59 84 60 85 61 86 62 87 63 88 42 89 43 90
REMARK SMILES IDX 51 91 44 92 50 93 45 94 46 95 47 96 48 97 49 98
REMARK H PARENT 1 15 1 16 1 17 80 21 84 27 70 54 40 65
REMARK Flexibility Score: inf
ROOT
ATOM      1  C   UNL A   1      33.691  31.744  27.835  1.00  0.00     0.188 C 
ENDROOT
BRANCH   1   2
ATOM      2  C   UNL A   1      33.339  30.451  27.090  1.00  0.00     0.188 C 
BRANCH   2   3
ATOM      3  O   UNL A   1      32.119  30.416  26.366  1.00  0.00    -0.376 OA
BRANCH   3   4
ATOM      4  C   UNL A   1      31.818  29.243  25.612  1.00  0.00     0.202 C 
BRANCH   4   5
ATOM      5  C   UNL A   1      31.339  29.392  24.156  1.00  0.00     0.261 C 
BRANCH   5   6
ATOM      6  O   UNL A   1      32.050  28.580  23.196  1.00  0.00    -0.459 OA
BRANCH   6   7
ATOM      7  C   UNL A   1      31.339  27.567  22.630  1.00  0.00     0.368 C 
ATOM      8  O   UNL A   1      30.268  27.733  22.055  1.00  0.00    -0.245 OA
BRANCH   7   9
ATOM      9  C   UNL A   1      32.031  26.167  22.742  1.00  0.00     0.198 C 
ATOM     10  C   UNL A   1      31.416  25.482  23.972  1.00  0.00     0.087 C 
ATOM     11  C   UNL A   1      33.560  26.134  22.995  1.00  0.00     0.145 C 
ATOM     12  C   UNL A   1      32.432  25.735  25.078  1.00  0.00     0.072 C 
ATOM     13  C   UNL A   1      33.802  25.580  24.408  1.00  0.00     0.191 C 
BRANCH   9  14
ATOM     14  N   UNL A   1      31.694  25.407  21.515  1.00  0.00    -0.343 N 
ATOM     15  H   UNL A   1      31.535  26.056  20.745  1.00  0.00     0.345 HD
ATOM     16  H   UNL A   1      30.849  24.858  21.675  1.00  0.00     0.345 HD
ATOM     17  H   UNL A   1      32.466  24.781  21.279  1.00  0.00     0.345 HD
ENDBRANCH   9  14
BRANCH  13  18
ATOM     18  N   UNL A   1      34.341  24.218  24.503  1.00  0.00    -0.327 N 
ATOM     19  C   UNL A   1      35.712  24.006  24.058  1.00  0.00     0.269 C 
ATOM     20  C   UNL A   1      34.262  23.618  25.845  1.00  0.00     0.328 C 
ATOM     21  H   UNL A   1      33.709  23.762  23.844  1.00  0.00     0.348 HD
ATOM     22  C   UNL A   1      35.990  22.580  24.481  1.00  0.00     0.132 C 
ATOM     23  C   UNL A   1      35.219  22.395  25.790  1.00  0.00     0.245 C 
BRANCH  23  24
ATOM     24  N   UNL A   1      34.659  21.062  26.077  1.00  0.00    -0.324 N 
ATOM     25  C   UNL A   1      34.491  20.203  24.886  1.00  0.00     0.291 C 
ATOM     26  C   UNL A   1      33.425  21.013  26.879  1.00  0.00     0.291 C 
ATOM     27  H   UNL A   1      35.399  20.685  26.669  1.00  0.00     0.348 HD
ATOM     28  C   UNL A   1      33.148  20.349  24.137  1.00  0.00     0.221 C 
ATOM     29  C   UNL A   1      32.127  21.223  26.091  1.00  0.00     0.221 C 
ATOM     30  O   UNL A   1      32.017  20.286  25.014  1.00  0.00    -0.370 OA
ENDBRANCH  23  24
ENDBRANCH  13  18
ENDBRANCH   7   9
ENDBRANCH   6   7
ENDBRANCH   5   6
ENDBRANCH   4   5
ENDBRANCH   3   4
ENDBRANCH   2   3
ENDBRANCH   1   2
BRANCH   1  31
ATOM     31  O   UNL A   1      34.754  31.626  28.754  1.00  0.00    -0.376 OA
BRANCH  31  32
ATOM     32  C   UNL A   1      34.909  32.622  29.757  1.00  0.00     0.202 C 
BRANCH  32  33
ATOM     33  C   UNL A   1      35.464  32.204  31.136  1.00  0.00     0.261 C 
BRANCH  33  34
ATOM     34  O   UNL A   1      36.299  31.031  31.179  1.00  0.00    -0.460 OA
BRANCH  34  35
ATOM     35  C   UNL A   1      37.355  31.044  32.029  1.00  0.00     0.338 C 
ATOM     36  O   UNL A   1      37.305  31.162  33.244  1.00  0.00    -0.246 OA
BRANCH  35  37
ATOM     37  C   UNL A   1      38.546  30.569  31.272  1.00  0.00     0.060 A 
ATOM     38  C   UNL A   1      39.583  29.935  31.980  1.00  0.00     0.016 A 
ATOM     39  C   UNL A   1      38.608  30.659  29.880  1.00  0.00     0.016 A 
ATOM     40  C   UNL A   1      40.696  29.428  31.302  1.00  0.00     0.010 A 
ATOM     41  C   UNL A   1      39.733  30.174  29.206  1.00  0.00     0.010 A 
ATOM     42  C   UNL A   1      40.800  29.586  29.914  1.00  0.00    -0.014 A 
BRANCH  42  43
ATOM     43  C   UNL A   1      42.100  29.361  29.228  1.00  0.00     0.031 A 
ATOM     44  C   UNL A   1      42.371  27.989  28.670  1.00  0.00     0.074 A 
ATOM     45  C   UNL A   1      43.026  30.330  29.097  1.00  0.00     0.049 A 
ATOM     46  N   UNL A   1      43.451  27.517  28.105  1.00  0.00    -0.248 NA
ATOM     47  C   UNL A   1      41.268  27.017  28.767  1.00  0.00     0.031 C 
ATOM     48  C   UNL A   1      42.877  31.715  29.539  1.00  0.00     0.029 A 
ATOM     49  N   UNL A   1      44.289  30.283  28.558  1.00  0.00    -0.354 N 
ATOM     50  C   UNL A   1      43.166  26.191  27.798  1.00  0.00     0.074 A 
ATOM     51  C   UNL A   1      41.822  25.928  28.260  1.00  0.00     0.031 C 
ATOM     52  C   UNL A   1      44.014  32.382  29.266  1.00  0.00     0.029 A 
ATOM     53  C   UNL A   1      44.984  31.464  28.669  1.00  0.00     0.049 A 
ATOM     54  H   UNL A   1      44.663  29.477  28.133  1.00  0.00     0.167 HD
ATOM     55  C   UNL A   1      43.948  25.273  27.184  1.00  0.00     0.031 A 
ATOM     56  C   UNL A   1      46.261  31.764  28.351  1.00  0.00     0.031 A 
ATOM     57  C   UNL A   1      45.294  25.525  26.742  1.00  0.00     0.049 A 
ATOM     58  C   UNL A   1      47.149  30.700  27.749  1.00  0.00     0.074 A 
ATOM     59  C   UNL A   1      46.164  24.660  26.101  1.00  0.00     0.029 A 
ATOM     60  N   UNL A   1      45.971  26.724  26.907  1.00  0.00    -0.354 N 
ATOM     61  N   UNL A   1      46.860  29.457  27.445  1.00  0.00    -0.248 NA
ATOM     62  C   UNL A   1      48.534  31.085  27.442  1.00  0.00     0.031 C 
ATOM     63  C   UNL A   1      47.389  25.314  25.939  1.00  0.00     0.029 A 
ATOM     64  C   UNL A   1      47.258  26.613  26.409  1.00  0.00     0.049 A 
ATOM     65  H   UNL A   1      45.592  27.535  27.318  1.00  0.00     0.167 HD
ATOM     66  C   UNL A   1      48.017  28.923  26.882  1.00  0.00     0.074 A 
ATOM     67  C   UNL A   1      49.005  29.981  26.877  1.00  0.00     0.031 C 
ATOM     68  C   UNL A   1      48.237  27.671  26.408  1.00  0.00     0.031 A 
BRANCH  55  69
ATOM     69  C   UNL A   1      43.378  23.891  26.999  1.00  0.00    -0.014 A 
ATOM     70  C   UNL A   1      42.738  23.514  25.803  1.00  0.00     0.010 A 
ATOM     71  C   UNL A   1      43.497  22.947  28.036  1.00  0.00     0.010 A 
ATOM     72  C   UNL A   1      42.188  22.238  25.667  1.00  0.00     0.020 A 
ATOM     73  C   UNL A   1      42.978  21.659  27.891  1.00  0.00     0.020 A 
ATOM     74  C   UNL A   1      42.309  21.318  26.714  1.00  0.00     0.054 A 
BRANCH  74  75
ATOM     75  S   UNL A   1      41.593  19.666  26.506  1.00  0.00     0.124 S 
ATOM     76  O   UNL A   1      40.162  19.962  26.460  1.00  0.00    -0.237 OA
ATOM     77  O   UNL A   1      42.181  19.219  25.247  1.00  0.00    -0.237 OA
ATOM     78  O   UNL A   1      42.039  18.941  27.692  1.00  0.00    -0.744 OA
ENDBRANCH  74  75
ENDBRANCH  55  69
BRANCH  56  79
ATOM     79  C   UNL A   1      46.795  33.131  28.618  1.00  0.00    -0.014 A 
ATOM     80  C   UNL A   1      46.774  34.120  27.618  1.00  0.00     0.010 A 
ATOM     81  C   UNL A   1      47.332  33.450  29.879  1.00  0.00     0.010 A 
ATOM     82  C   UNL A   1      47.287  35.396  27.872  1.00  0.00     0.020 A 
ATOM     83  C   UNL A   1      47.818  34.734  30.146  1.00  0.00     0.020 A 
ATOM     84  C   UNL A   1      47.799  35.698  29.136  1.00  0.00     0.054 A 
BRANCH  84  85
ATOM     85  S   UNL A   1      48.398  37.380  29.459  1.00  0.00     0.124 S 
ATOM     86  O   UNL A   1      49.309  37.599  28.340  1.00  0.00    -0.237 OA
ATOM     87  O   UNL A   1      47.164  38.162  29.433  1.00  0.00    -0.237 OA
ATOM     88  O   UNL A   1      49.032  37.272  30.772  1.00  0.00    -0.744 OA
ENDBRANCH  84  85
ENDBRANCH  56  79
BRANCH  68  89
ATOM     89  C   UNL A   1      49.585  27.375  25.797  1.00  0.00    -0.014 A 
ATOM     90  C   UNL A   1      50.649  26.871  26.565  1.00  0.00     0.010 A 
ATOM     91  C   UNL A   1      49.766  27.544  24.410  1.00  0.00     0.010 A 
ATOM     92  C   UNL A   1      51.876  26.571  25.965  1.00  0.00     0.020 A 
ATOM     93  C   UNL A   1      50.980  27.215  23.801  1.00  0.00     0.020 A 
ATOM     94  C   UNL A   1      52.033  26.742  24.586  1.00  0.00     0.054 A 
BRANCH  94  95
ATOM     95  S   UNL A   1      53.621  26.302  23.825  1.00  0.00     0.124 S 
ATOM     96  O   UNL A   1      54.427  27.490  24.094  1.00  0.00    -0.237 OA
ATOM     97  O   UNL A   1      54.005  25.100  24.561  1.00  0.00    -0.237 OA
ATOM     98  O   UNL A   1      53.284  26.084  22.420  1.00  0.00    -0.744 OA
ENDBRANCH  94  95
ENDBRANCH  68  89
ENDBRANCH  42  43
ENDBRANCH  35  37
ENDBRANCH  34  35
ENDBRANCH  33  34
ENDBRANCH  32  33
ENDBRANCH  31  32
ENDBRANCH   1  31
TORSDOF 23
ENDMDL
