MODEL 1
REMARK VINA RESULT:     -13.9      0.000      0.000
REMARK SMILES Cc1ccccc1S(=O)(=O)Nc1ccc(N2CCOCC2)cc1C(=O)OCCOCCOCCOC(=O)c1ccc(-c2c3nc(c(-c4ccc(S(=O)(=O)[O-])cc4)c4ccc([nH]4)c(-c4ccc(S(=O)(=O)[O-])cc4)c4nc(c(-c5ccc(S(=O)(=O)[O-])cc5)c5ccc2[nH]5)C=C4)C=C3)cc1
REMARK SMILES IDX 30 1 29 2 28 3 27 4 26 5 24 6 25 7 23 8 12 9 13 10 14 11
REMARK SMILES IDX 22 12 15 13 11 14 8 16 9 17 10 18 7 19 1 20 2 21 3 22 4 23
REMARK SMILES IDX 6 24 5 25 16 26 17 27 21 28 18 29 20 30 19 31 31 32 32 33
REMARK SMILES IDX 33 34 34 35 35 36 36 37 37 38 38 39 39 40 97 41 40 42 96 43
REMARK SMILES IDX 41 44 42 45 43 46 90 47 44 48 95 49 89 50 91 51 45 52 94 53
REMARK SMILES IDX 88 54 87 55 46 57 76 58 57 59 75 60 58 61 61 62 74 63 92 64
REMARK SMILES IDX 59 65 60 66 73 68 93 69 62 70 47 71 48 72 56 73 49 74 55 75
REMARK SMILES IDX 50 76 51 77 52 78 53 79 54 80 77 81 78 82 86 83 79 84 85 85
REMARK SMILES IDX 80 86 81 87 82 88 83 89 84 90 63 91 64 92 72 93 65 94 71 95
REMARK SMILES IDX 66 96 67 97 68 98 69 99 70 100
REMARK H PARENT 11 15 91 56 61 67
REMARK Flexibility Score: inf
ROOT
ATOM      1  C   UNL A   1      33.022  30.025  26.931  1.00  0.00     0.188 C 
ENDROOT
BRANCH   1   2
ATOM      2  O   UNL A   1      32.898  29.317  25.666  1.00  0.00    -0.376 OA
BRANCH   2   3
ATOM      3  C   UNL A   1      33.522  29.397  24.334  1.00  0.00     0.202 C 
BRANCH   3   4
ATOM      4  C   UNL A   1      33.825  28.402  22.771  1.00  0.00     0.261 C 
BRANCH   4   5
ATOM      5  O   UNL A   1      33.760  26.677  21.973  1.00  0.00    -0.460 OA
BRANCH   5   6
ATOM      6  C   UNL A   1      33.306  25.050  22.461  1.00  0.00     0.340 C 
ATOM      7  O   UNL A   1      33.484  23.934  21.933  1.00  0.00    -0.246 OA
BRANCH   6   8
ATOM      8  C   UNL A   1      32.993  24.687  23.818  1.00  0.00     0.086 A 
ATOM      9  C   UNL A   1      32.188  25.357  24.827  1.00  0.00     0.064 A 
ATOM     10  C   UNL A   1      32.197  24.590  25.999  1.00  0.00     0.030 A 
ATOM     11  C   UNL A   1      32.647  23.200  25.979  1.00  0.00     0.028 A 
ATOM     12  C   UNL A   1      33.652  23.474  23.918  1.00  0.00     0.043 A 
ATOM     13  C   UNL A   1      33.285  22.594  24.875  1.00  0.00     0.038 A 
BRANCH   9  14
ATOM     14  N   UNL A   1      31.328  26.724  24.709  1.00  0.00    -0.279 N 
ATOM     15  H   UNL A   1      31.516  27.367  25.429  1.00  0.00     0.180 HD
BRANCH  14  16
ATOM     16  S   UNL A   1      29.903  27.402  23.348  1.00  0.00     0.262 S 
ATOM     17  O   UNL A   1      28.759  26.570  23.635  1.00  0.00    -0.201 OA
ATOM     18  O   UNL A   1      30.477  27.263  22.016  1.00  0.00    -0.201 OA
BRANCH  16  19
ATOM     19  C   UNL A   1      29.664  29.445  23.693  1.00  0.00     0.090 A 
ATOM     20  C   UNL A   1      27.387  28.486  22.941  1.00  0.00     0.046 C 
ATOM     21  C   UNL A   1      28.556  29.752  22.507  1.00  0.00    -0.031 A 
ATOM     22  C   UNL A   1      28.118  31.663  21.824  1.00  0.00     0.005 A 
ATOM     23  C   UNL A   1      28.583  33.034  22.584  1.00  0.00     0.000 A 
ATOM     24  C   UNL A   1      30.249  30.973  24.463  1.00  0.00     0.022 A 
ATOM     25  C   UNL A   1      29.611  32.689  23.889  1.00  0.00     0.001 A 
ENDBRANCH  16  19
ENDBRANCH  14  16
ENDBRANCH   9  14
BRANCH  13  26
ATOM     26  N   UNL A   1      33.451  21.257  24.570  1.00  0.00    -0.367 N 
ATOM     27  C   UNL A   1      33.112  20.686  23.229  1.00  0.00     0.145 C 
ATOM     28  C   UNL A   1      33.724  20.267  25.615  1.00  0.00     0.145 C 
ATOM     29  C   UNL A   1      32.133  19.506  23.330  1.00  0.00     0.181 C 
ATOM     30  C   UNL A   1      32.819  19.012  25.507  1.00  0.00     0.181 C 
ATOM     31  O   UNL A   1      32.687  18.494  24.178  1.00  0.00    -0.378 OA
ENDBRANCH  13  26
ENDBRANCH   6   8
ENDBRANCH   5   6
ENDBRANCH   4   5
ENDBRANCH   3   4
ENDBRANCH   2   3
ENDBRANCH   1   2
BRANCH   1  32
ATOM     32  C   UNL A   1      34.178  30.887  27.501  1.00  0.00     0.188 C 
BRANCH  32  33
ATOM     33  O   UNL A   1      33.804  32.053  28.202  1.00  0.00    -0.376 OA
BRANCH  33  34
ATOM     34  C   UNL A   1      34.632  33.247  28.002  1.00  0.00     0.202 C 
BRANCH  34  35
ATOM     35  C   UNL A   1      36.192  33.579  28.824  1.00  0.00     0.261 C 
BRANCH  35  36
ATOM     36  O   UNL A   1      37.534  32.398  29.144  1.00  0.00    -0.460 OA
BRANCH  36  37
ATOM     37  C   UNL A   1      37.971  30.834  28.823  1.00  0.00     0.338 C 
ATOM     38  O   UNL A   1      37.347  30.301  27.903  1.00  0.00    -0.246 OA
BRANCH  37  39
ATOM     39  C   UNL A   1      39.221  29.853  29.791  1.00  0.00     0.060 A 
ATOM     40  C   UNL A   1      39.130  29.090  31.468  1.00  0.00     0.016 A 
ATOM     41  C   UNL A   1      41.005  29.372  28.927  1.00  0.00     0.016 A 
ATOM     42  C   UNL A   1      40.785  28.246  31.921  1.00  0.00     0.010 A 
ATOM     43  C   UNL A   1      42.274  28.765  29.443  1.00  0.00     0.010 A 
ATOM     44  C   UNL A   1      42.312  28.211  30.755  1.00  0.00    -0.014 A 
BRANCH  44  45
ATOM     45  C   UNL A   1      43.873  27.120  30.361  1.00  0.00     0.031 A 
ATOM     46  C   UNL A   1      45.588  27.848  30.401  1.00  0.00     0.074 A 
ATOM     47  C   UNL A   1      43.876  25.811  29.934  1.00  0.00     0.049 A 
ATOM     48  N   UNL A   1      46.174  28.329  29.314  1.00  0.00    -0.248 NA
ATOM     49  C   UNL A   1      46.269  28.684  31.601  1.00  0.00     0.031 C 
ATOM     50  C   UNL A   1      44.999  24.878  29.901  1.00  0.00     0.029 A 
ATOM     51  N   UNL A   1      42.825  24.972  29.569  1.00  0.00    -0.354 N 
ATOM     52  C   UNL A   1      47.245  29.095  29.751  1.00  0.00     0.074 A 
ATOM     53  C   UNL A   1      46.802  29.703  30.941  1.00  0.00     0.031 C 
ATOM     54  C   UNL A   1      44.637  23.718  29.309  1.00  0.00     0.029 A 
ATOM     55  C   UNL A   1      43.257  23.826  28.877  1.00  0.00     0.049 A 
ATOM     56  H   UNL A   1      41.882  25.162  29.774  1.00  0.00     0.167 HD
ATOM     57  C   UNL A   1      48.511  28.582  29.692  1.00  0.00     0.031 A 
ATOM     58  C   UNL A   1      42.741  23.545  27.644  1.00  0.00     0.031 A 
ATOM     59  C   UNL A   1      48.432  27.260  29.074  1.00  0.00     0.049 A 
ATOM     60  C   UNL A   1      43.723  24.185  26.658  1.00  0.00     0.074 A 
ATOM     61  C   UNL A   1      48.442  25.962  29.556  1.00  0.00     0.029 A 
ATOM     62  N   UNL A   1      47.743  27.194  27.873  1.00  0.00    -0.354 N 
ATOM     63  N   UNL A   1      44.745  24.913  27.038  1.00  0.00    -0.248 NA
ATOM     64  C   UNL A   1      43.747  23.933  25.225  1.00  0.00     0.031 C 
ATOM     65  C   UNL A   1      47.823  25.123  28.560  1.00  0.00     0.029 A 
ATOM     66  C   UNL A   1      47.388  25.918  27.511  1.00  0.00     0.049 A 
ATOM     67  H   UNL A   1      47.527  27.987  27.329  1.00  0.00     0.167 HD
ATOM     68  C   UNL A   1      45.608  25.128  26.011  1.00  0.00     0.074 A 
ATOM     69  C   UNL A   1      44.924  24.494  24.890  1.00  0.00     0.031 C 
ATOM     70  C   UNL A   1      46.818  25.756  26.167  1.00  0.00     0.031 A 
BRANCH  57  71
ATOM     71  C   UNL A   1      49.623  29.124  30.590  1.00  0.00    -0.014 A 
ATOM     72  C   UNL A   1      50.359  28.225  31.368  1.00  0.00     0.010 A 
ATOM     73  C   UNL A   1      50.008  30.492  30.695  1.00  0.00     0.010 A 
ATOM     74  C   UNL A   1      51.425  28.653  32.176  1.00  0.00     0.020 A 
ATOM     75  C   UNL A   1      51.022  30.944  31.552  1.00  0.00     0.020 A 
ATOM     76  C   UNL A   1      51.759  30.006  32.253  1.00  0.00     0.054 A 
BRANCH  76  77
ATOM     77  S   UNL A   1      53.233  30.501  33.181  1.00  0.00     0.124 S 
ATOM     78  O   UNL A   1      53.842  31.493  32.301  1.00  0.00    -0.237 OA
ATOM     79  O   UNL A   1      52.652  31.019  34.416  1.00  0.00    -0.237 OA
ATOM     80  O   UNL A   1      53.989  29.258  33.326  1.00  0.00    -0.744 OA
ENDBRANCH  76  77
ENDBRANCH  57  71
BRANCH  58  81
ATOM     81  C   UNL A   1      41.222  23.621  27.664  1.00  0.00    -0.014 A 
ATOM     82  C   UNL A   1      40.496  24.697  27.075  1.00  0.00     0.010 A 
ATOM     83  C   UNL A   1      40.595  22.392  27.640  1.00  0.00     0.010 A 
ATOM     84  C   UNL A   1      39.223  24.509  26.465  1.00  0.00     0.020 A 
ATOM     85  C   UNL A   1      39.576  22.201  26.702  1.00  0.00     0.020 A 
ATOM     86  C   UNL A   1      38.767  23.224  26.262  1.00  0.00     0.054 A 
BRANCH  86  87
ATOM     87  S   UNL A   1      37.145  22.881  25.504  1.00  0.00     0.124 S 
ATOM     88  O   UNL A   1      37.093  21.424  25.479  1.00  0.00    -0.237 OA
ATOM     89  O   UNL A   1      36.230  23.535  26.440  1.00  0.00    -0.237 OA
ATOM     90  O   UNL A   1      37.185  23.504  24.186  1.00  0.00    -0.744 OA
ENDBRANCH  86  87
ENDBRANCH  58  81
BRANCH  70  91
ATOM     91  C   UNL A   1      47.647  26.331  25.027  1.00  0.00    -0.014 A 
ATOM     92  C   UNL A   1      47.185  27.301  24.142  1.00  0.00     0.010 A 
ATOM     93  C   UNL A   1      49.014  25.957  24.873  1.00  0.00     0.010 A 
ATOM     94  C   UNL A   1      47.984  27.778  23.105  1.00  0.00     0.020 A 
ATOM     95  C   UNL A   1      49.862  26.516  23.926  1.00  0.00     0.020 A 
ATOM     96  C   UNL A   1      49.316  27.386  23.007  1.00  0.00     0.054 A 
BRANCH  96  97
ATOM     97  S   UNL A   1      50.301  28.013  21.647  1.00  0.00     0.124 S 
ATOM     98  O   UNL A   1      51.593  28.225  22.295  1.00  0.00    -0.237 OA
ATOM     99  O   UNL A   1      50.249  26.909  20.692  1.00  0.00    -0.237 OA
ATOM    100  O   UNL A   1      49.601  29.226  21.235  1.00  0.00    -0.744 OA
ENDBRANCH  96  97
ENDBRANCH  70  91
ENDBRANCH  44  45
ENDBRANCH  37  39
ENDBRANCH  36  37
ENDBRANCH  35  36
ENDBRANCH  34  35
ENDBRANCH  33  34
ENDBRANCH  32  33
ENDBRANCH   1  32
TORSDOF 24
ENDMDL
MODEL 2
REMARK VINA RESULT:     -12.3      5.601     12.152
REMARK SMILES Cc1ccccc1S(=O)(=O)Nc1ccc(N2CCOCC2)cc1C(=O)OCCOCCOCCOC(=O)c1ccc(-c2c3nc(c(-c4ccc(S(=O)(=O)[O-])cc4)c4ccc([nH]4)c(-c4ccc(S(=O)(=O)[O-])cc4)c4nc(c(-c5ccc(S(=O)(=O)[O-])cc5)c5ccc2[nH]5)C=C4)C=C3)cc1
REMARK SMILES IDX 30 1 29 2 28 3 27 4 26 5 24 6 25 7 23 8 12 9 13 10 14 11
REMARK SMILES IDX 22 12 15 13 11 14 8 16 9 17 10 18 7 19 1 20 2 21 3 22 4 23
REMARK SMILES IDX 6 24 5 25 16 26 17 27 21 28 18 29 20 30 19 31 31 32 32 33
REMARK SMILES IDX 33 34 34 35 35 36 36 37 37 38 38 39 39 40 97 41 40 42 96 43
REMARK SMILES IDX 41 44 42 45 43 46 90 47 44 48 95 49 89 50 91 51 45 52 94 53
REMARK SMILES IDX 88 54 87 55 46 57 76 58 57 59 75 60 58 61 61 62 74 63 92 64
REMARK SMILES IDX 59 65 60 66 73 68 93 69 62 70 47 71 48 72 56 73 49 74 55 75
REMARK SMILES IDX 50 76 51 77 52 78 53 79 54 80 77 81 78 82 86 83 79 84 85 85
REMARK SMILES IDX 80 86 81 87 82 88 83 89 84 90 63 91 64 92 72 93 65 94 71 95
REMARK SMILES IDX 66 96 67 97 68 98 69 99 70 100
REMARK H PARENT 11 15 91 56 61 67
REMARK Flexibility Score: inf
ROOT
ATOM      1  C   UNL A   1      42.201  23.438  26.174  1.00  0.00     0.188 C 
ENDROOT
BRANCH   1   2
ATOM      2  O   UNL A   1      40.980  23.717  26.914  1.00  0.00    -0.376 OA
BRANCH   2   3
ATOM      3  C   UNL A   1      39.627  24.201  26.593  1.00  0.00     0.202 C 
BRANCH   3   4
ATOM      4  C   UNL A   1      37.971  23.642  25.907  1.00  0.00     0.261 C 
BRANCH   4   5
ATOM      5  O   UNL A   1      36.884  22.149  25.456  1.00  0.00    -0.460 OA
BRANCH   5   6
ATOM      6  C   UNL A   1      35.311  21.515  25.921  1.00  0.00     0.340 C 
ATOM      7  O   UNL A   1      34.704  21.488  27.011  1.00  0.00    -0.246 OA
BRANCH   6   8
ATOM      8  C   UNL A   1      34.245  21.274  24.985  1.00  0.00     0.086 A 
ATOM      9  C   UNL A   1      33.607  22.149  24.014  1.00  0.00     0.064 A 
ATOM     10  C   UNL A   1      32.610  21.431  23.341  1.00  0.00     0.030 A 
ATOM     11  C   UNL A   1      32.564  19.972  23.408  1.00  0.00     0.028 A 
ATOM     12  C   UNL A   1      33.988  19.935  25.227  1.00  0.00     0.043 A 
ATOM     13  C   UNL A   1      33.352  19.200  24.289  1.00  0.00     0.038 A 
BRANCH   9  14
ATOM     14  N   UNL A   1      33.950  23.687  23.641  1.00  0.00    -0.279 N 
ATOM     15  H   UNL A   1      34.837  23.975  23.953  1.00  0.00     0.180 HD
BRANCH  14  16
ATOM     16  S   UNL A   1      32.902  25.182  22.638  1.00  0.00     0.262 S 
ATOM     17  O   UNL A   1      31.613  24.575  22.407  1.00  0.00    -0.201 OA
ATOM     18  O   UNL A   1      33.670  25.525  21.449  1.00  0.00    -0.201 OA
BRANCH  16  19
ATOM     19  C   UNL A   1      32.919  26.863  23.873  1.00  0.00     0.090 A 
ATOM     20  C   UNL A   1      30.719  25.578  24.296  1.00  0.00     0.046 C 
ATOM     21  C   UNL A   1      31.301  27.194  23.837  1.00  0.00    -0.031 A 
ATOM     22  C   UNL A   1      30.497  29.014  24.424  1.00  0.00     0.005 A 
ATOM     23  C   UNL A   1      31.327  30.157  25.249  1.00  0.00     0.000 A 
ATOM     24  C   UNL A   1      33.844  28.179  24.699  1.00  0.00     0.022 A 
ATOM     25  C   UNL A   1      32.962  29.733  25.398  1.00  0.00     0.001 A 
ENDBRANCH  16  19
ENDBRANCH  14  16
ENDBRANCH   9  14
BRANCH  13  26
ATOM     26  N   UNL A   1      33.678  17.858  24.243  1.00  0.00    -0.367 N 
ATOM     27  C   UNL A   1      32.643  16.776  24.238  1.00  0.00     0.145 C 
ATOM     28  C   UNL A   1      35.053  17.401  24.458  1.00  0.00     0.145 C 
ATOM     29  C   UNL A   1      32.860  15.759  25.369  1.00  0.00     0.181 C 
ATOM     30  C   UNL A   1      35.146  16.226  25.467  1.00  0.00     0.181 C 
ATOM     31  O   UNL A   1      34.172  15.195  25.263  1.00  0.00    -0.378 OA
ENDBRANCH  13  26
ENDBRANCH   6   8
ENDBRANCH   5   6
ENDBRANCH   4   5
ENDBRANCH   3   4
ENDBRANCH   2   3
ENDBRANCH   1   2
BRANCH   1  32
ATOM     32  C   UNL A   1      43.253  24.395  25.555  1.00  0.00     0.188 C 
BRANCH  32  33
ATOM     33  O   UNL A   1      44.579  24.254  26.017  1.00  0.00    -0.376 OA
BRANCH  33  34
ATOM     34  C   UNL A   1      45.637  24.866  25.207  1.00  0.00     0.202 C 
BRANCH  34  35
ATOM     35  C   UNL A   1      45.917  26.629  25.025  1.00  0.00     0.261 C 
BRANCH  35  36
ATOM     36  O   UNL A   1      45.508  27.933  26.222  1.00  0.00    -0.460 OA
BRANCH  36  37
ATOM     37  C   UNL A   1      45.623  29.572  26.423  1.00  0.00     0.338 C 
ATOM     38  O   UNL A   1      46.227  30.162  25.525  1.00  0.00    -0.246 OA
BRANCH  37  39
ATOM     39  C   UNL A   1      45.005  30.513  27.905  1.00  0.00     0.060 A 
ATOM     40  C   UNL A   1      45.144  32.296  28.354  1.00  0.00     0.016 A 
ATOM     41  C   UNL A   1      43.871  29.552  29.301  1.00  0.00     0.016 A 
ATOM     42  C   UNL A   1      44.333  32.634  30.052  1.00  0.00     0.010 A 
ATOM     43  C   UNL A   1      43.363  29.929  30.659  1.00  0.00     0.010 A 
ATOM     44  C   UNL A   1      43.489  31.273  31.114  1.00  0.00    -0.014 A 
BRANCH  44  45
ATOM     45  C   UNL A   1      42.084  31.063  32.442  1.00  0.00     0.031 A 
ATOM     46  C   UNL A   1      40.564  32.140  32.410  1.00  0.00     0.074 A 
ATOM     47  C   UNL A   1      42.104  30.230  33.538  1.00  0.00     0.049 A 
ATOM     48  N   UNL A   1      40.479  33.260  33.114  1.00  0.00    -0.248 NA
ATOM     49  C   UNL A   1      39.575  32.401  31.162  1.00  0.00     0.031 C 
ATOM     50  C   UNL A   1      40.984  29.831  34.386  1.00  0.00     0.029 A 
ATOM     51  N   UNL A   1      43.122  29.428  34.050  1.00  0.00    -0.354 N 
ATOM     52  C   UNL A   1      39.408  33.971  32.593  1.00  0.00     0.074 A 
ATOM     53  C   UNL A   1      39.435  33.719  31.208  1.00  0.00     0.031 C 
ATOM     54  C   UNL A   1      41.418  29.092  35.433  1.00  0.00     0.029 A 
ATOM     55  C   UNL A   1      42.863  28.989  35.362  1.00  0.00     0.049 A 
ATOM     56  H   UNL A   1      43.935  29.194  33.548  1.00  0.00     0.167 HD
ATOM     57  C   UNL A   1      38.210  33.967  33.251  1.00  0.00     0.031 A 
ATOM     58  C   UNL A   1      43.769  29.241  36.352  1.00  0.00     0.031 A 
ATOM     59  C   UNL A   1      38.376  33.197  34.481  1.00  0.00     0.049 A 
ATOM     60  C   UNL A   1      43.299  30.555  36.983  1.00  0.00     0.074 A 
ATOM     61  C   UNL A   1      38.052  31.908  34.870  1.00  0.00     0.029 A 
ATOM     62  N   UNL A   1      39.452  33.554  35.279  1.00  0.00    -0.354 N 
ATOM     63  N   UNL A   1      42.290  31.252  36.516  1.00  0.00    -0.248 NA
ATOM     64  C   UNL A   1      43.785  31.094  38.244  1.00  0.00     0.031 C 
ATOM     65  C   UNL A   1      38.906  31.558  35.977  1.00  0.00     0.029 A 
ATOM     66  C   UNL A   1      39.782  32.606  36.217  1.00  0.00     0.049 A 
ATOM     67  H   UNL A   1      39.937  34.406  35.182  1.00  0.00     0.167 HD
ATOM     68  C   UNL A   1      41.901  32.209  37.397  1.00  0.00     0.074 A 
ATOM     69  C   UNL A   1      42.883  32.070  38.466  1.00  0.00     0.031 C 
ATOM     70  C   UNL A   1      40.792  32.995  37.209  1.00  0.00     0.031 A 
BRANCH  57  71
ATOM     71  C   UNL A   1      36.906  34.274  32.515  1.00  0.00    -0.014 A 
ATOM     72  C   UNL A   1      35.813  34.746  33.248  1.00  0.00     0.010 A 
ATOM     73  C   UNL A   1      36.699  34.144  31.111  1.00  0.00     0.010 A 
ATOM     74  C   UNL A   1      34.604  35.095  32.624  1.00  0.00     0.020 A 
ATOM     75  C   UNL A   1      35.475  34.418  30.483  1.00  0.00     0.020 A 
ATOM     76  C   UNL A   1      34.446  34.941  31.246  1.00  0.00     0.054 A 
BRANCH  76  77
ATOM     77  S   UNL A   1      32.931  35.543  30.458  1.00  0.00     0.124 S 
ATOM     78  O   UNL A   1      33.338  36.847  29.946  1.00  0.00    -0.237 OA
ATOM     79  O   UNL A   1      32.685  34.514  29.451  1.00  0.00    -0.237 OA
ATOM     80  O   UNL A   1      31.961  35.585  31.550  1.00  0.00    -0.744 OA
ENDBRANCH  76  77
ENDBRANCH  57  71
BRANCH  58  81
ATOM     81  C   UNL A   1      45.170  28.839  35.917  1.00  0.00    -0.014 A 
ATOM     82  C   UNL A   1      45.547  27.483  35.686  1.00  0.00     0.010 A 
ATOM     83  C   UNL A   1      45.809  29.779  35.134  1.00  0.00     0.010 A 
ATOM     84  C   UNL A   1      46.491  27.118  34.685  1.00  0.00     0.020 A 
ATOM     85  C   UNL A   1      46.394  29.342  33.942  1.00  0.00     0.020 A 
ATOM     86  C   UNL A   1      46.908  28.075  33.784  1.00  0.00     0.054 A 
BRANCH  86  87
ATOM     87  S   UNL A   1      48.126  27.709  32.477  1.00  0.00     0.124 S 
ATOM     88  O   UNL A   1      47.515  28.285  31.285  1.00  0.00    -0.237 OA
ATOM     89  O   UNL A   1      49.319  28.395  32.976  1.00  0.00    -0.237 OA
ATOM     90  O   UNL A   1      48.250  26.256  32.448  1.00  0.00    -0.744 OA
ENDBRANCH  86  87
ENDBRANCH  58  81
BRANCH  70  91
ATOM     91  C   UNL A   1      40.513  34.290  37.959  1.00  0.00    -0.014 A 
ATOM     92  C   UNL A   1      41.327  35.417  37.894  1.00  0.00     0.010 A 
ATOM     93  C   UNL A   1      39.311  34.441  38.710  1.00  0.00     0.010 A 
ATOM     94  C   UNL A   1      41.031  36.571  38.618  1.00  0.00     0.020 A 
ATOM     95  C   UNL A   1      38.936  35.624  39.332  1.00  0.00     0.020 A 
ATOM     96  C   UNL A   1      39.837  36.667  39.326  1.00  0.00     0.054 A 
BRANCH  96  97
ATOM     97  S   UNL A   1      39.506  38.164  40.256  1.00  0.00     0.124 S 
ATOM     98  O   UNL A   1      40.694  38.961  39.960  1.00  0.00    -0.237 OA
ATOM     99  O   UNL A   1      38.263  38.637  39.651  1.00  0.00    -0.237 OA
ATOM    100  O   UNL A   1      39.390  37.703  41.636  1.00  0.00    -0.744 OA
ENDBRANCH  96  97
ENDBRANCH  70  91
ENDBRANCH  44  45
ENDBRANCH  37  39
ENDBRANCH  36  37
ENDBRANCH  35  36
ENDBRANCH  34  35
ENDBRANCH  33  34
ENDBRANCH  32  33
ENDBRANCH   1  32
TORSDOF 24
ENDMDL
MODEL 3
REMARK VINA RESULT:     -11.7      7.725     13.615
REMARK SMILES Cc1ccccc1S(=O)(=O)Nc1ccc(N2CCOCC2)cc1C(=O)OCCOCCOCCOC(=O)c1ccc(-c2c3nc(c(-c4ccc(S(=O)(=O)[O-])cc4)c4ccc([nH]4)c(-c4ccc(S(=O)(=O)[O-])cc4)c4nc(c(-c5ccc(S(=O)(=O)[O-])cc5)c5ccc2[nH]5)C=C4)C=C3)cc1
REMARK SMILES IDX 30 1 29 2 28 3 27 4 26 5 24 6 25 7 23 8 12 9 13 10 14 11
REMARK SMILES IDX 22 12 15 13 11 14 8 16 9 17 10 18 7 19 1 20 2 21 3 22 4 23
REMARK SMILES IDX 6 24 5 25 16 26 17 27 21 28 18 29 20 30 19 31 31 32 32 33
REMARK SMILES IDX 33 34 34 35 35 36 36 37 37 38 38 39 39 40 97 41 40 42 96 43
REMARK SMILES IDX 41 44 42 45 43 46 90 47 44 48 95 49 89 50 91 51 45 52 94 53
REMARK SMILES IDX 88 54 87 55 46 57 76 58 57 59 75 60 58 61 61 62 74 63 92 64
REMARK SMILES IDX 59 65 60 66 73 68 93 69 62 70 47 71 48 72 56 73 49 74 55 75
REMARK SMILES IDX 50 76 51 77 52 78 53 79 54 80 77 81 78 82 86 83 79 84 85 85
REMARK SMILES IDX 80 86 81 87 82 88 83 89 84 90 63 91 64 92 72 93 65 94 71 95
REMARK SMILES IDX 66 96 67 97 68 98 69 99 70 100
REMARK H PARENT 11 15 91 56 61 67
REMARK Flexibility Score: inf
ROOT
ATOM      1  C   UNL A   1      37.758  34.584  32.118  1.00  0.00     0.188 C 
ENDROOT
BRANCH   1   2
ATOM      2  O   UNL A   1      38.968  34.352  31.345  1.00  0.00    -0.376 OA
BRANCH   2   3
ATOM      3  C   UNL A   1      39.523  34.826  30.066  1.00  0.00     0.202 C 
BRANCH   3   4
ATOM      4  C   UNL A   1      41.140  35.055  29.140  1.00  0.00     0.261 C 
BRANCH   4   5
ATOM      5  O   UNL A   1      41.945  35.425  27.457  1.00  0.00    -0.460 OA
BRANCH   5   6
ATOM      6  C   UNL A   1      43.477  35.090  26.662  1.00  0.00     0.340 C 
ATOM      7  O   UNL A   1      43.814  34.247  25.806  1.00  0.00    -0.246 OA
BRANCH   6   8
ATOM      8  C   UNL A   1      44.547  36.047  26.570  1.00  0.00     0.086 A 
ATOM      9  C   UNL A   1      44.667  37.404  27.080  1.00  0.00     0.064 A 
ATOM     10  C   UNL A   1      45.918  37.918  26.718  1.00  0.00     0.030 A 
ATOM     11  C   UNL A   1      46.982  37.034  26.248  1.00  0.00     0.028 A 
ATOM     12  C   UNL A   1      45.490  35.312  25.871  1.00  0.00     0.043 A 
ATOM     13  C   UNL A   1      46.790  35.673  25.927  1.00  0.00     0.038 A 
BRANCH   9  14
ATOM     14  N   UNL A   1      43.624  38.253  27.983  1.00  0.00    -0.279 N 
ATOM     15  H   UNL A   1      43.493  37.879  28.883  1.00  0.00     0.180 HD
BRANCH  14  16
ATOM     16  S   UNL A   1      42.501  39.973  27.631  1.00  0.00     0.262 S 
ATOM     17  O   UNL A   1      42.164  40.417  28.962  1.00  0.00    -0.201 OA
ATOM     18  O   UNL A   1      41.381  39.591  26.781  1.00  0.00    -0.201 OA
BRANCH  16  19
ATOM     19  C   UNL A   1      43.701  41.257  26.508  1.00  0.00     0.090 A 
ATOM     20  C   UNL A   1      44.912  40.770  28.737  1.00  0.00     0.046 C 
ATOM     21  C   UNL A   1      44.333  42.135  27.757  1.00  0.00    -0.031 A 
ATOM     22  C   UNL A   1      45.277  43.965  27.500  1.00  0.00     0.005 A 
ATOM     23  C   UNL A   1      45.752  44.553  26.050  1.00  0.00     0.000 A 
ATOM     24  C   UNL A   1      44.147  41.970  24.907  1.00  0.00     0.022 A 
ATOM     25  C   UNL A   1      45.212  43.561  24.784  1.00  0.00     0.001 A 
ENDBRANCH  16  19
ENDBRANCH  14  16
ENDBRANCH   9  14
BRANCH  13  26
ATOM     26  N   UNL A   1      47.712  34.651  25.809  1.00  0.00    -0.367 N 
ATOM     27  C   UNL A   1      47.520  33.312  26.451  1.00  0.00     0.145 C 
ATOM     28  C   UNL A   1      49.053  34.894  25.270  1.00  0.00     0.145 C 
ATOM     29  C   UNL A   1      48.703  32.923  27.350  1.00  0.00     0.181 C 
ATOM     30  C   UNL A   1      50.175  34.279  26.147  1.00  0.00     0.181 C 
ATOM     31  O   UNL A   1      49.914  32.941  26.585  1.00  0.00    -0.378 OA
ENDBRANCH  13  26
ENDBRANCH   6   8
ENDBRANCH   5   6
ENDBRANCH   4   5
ENDBRANCH   3   4
ENDBRANCH   2   3
ENDBRANCH   1   2
BRANCH   1  32
ATOM     32  C   UNL A   1      36.410  33.817  32.145  1.00  0.00     0.188 C 
BRANCH  32  33
ATOM     33  O   UNL A   1      35.258  34.560  31.806  1.00  0.00    -0.376 OA
BRANCH  33  34
ATOM     34  C   UNL A   1      34.407  34.021  30.741  1.00  0.00     0.202 C 
BRANCH  34  35
ATOM     35  C   UNL A   1      34.982  33.451  29.139  1.00  0.00     0.261 C 
BRANCH  35  36
ATOM     36  O   UNL A   1      34.756  31.799  28.418  1.00  0.00    -0.460 OA
BRANCH  36  37
ATOM     37  C   UNL A   1      35.623  30.450  28.006  1.00  0.00     0.338 C 
ATOM     38  O   UNL A   1      35.080  29.720  27.176  1.00  0.00    -0.246 OA
BRANCH  37  39
ATOM     39  C   UNL A   1      37.249  29.953  28.763  1.00  0.00     0.060 A 
ATOM     40  C   UNL A   1      38.472  28.663  28.271  1.00  0.00     0.016 A 
ATOM     41  C   UNL A   1      37.978  31.002  30.353  1.00  0.00     0.016 A 
ATOM     42  C   UNL A   1      39.937  28.612  29.499  1.00  0.00     0.010 A 
ATOM     43  C   UNL A   1      39.125  30.791  31.294  1.00  0.00     0.010 A 
ATOM     44  C   UNL A   1      40.082  29.771  31.025  1.00  0.00    -0.014 A 
BRANCH  44  45
ATOM     45  C   UNL A   1      41.430  30.595  32.159  1.00  0.00     0.031 A 
ATOM     46  C   UNL A   1      40.946  31.570  33.672  1.00  0.00     0.074 A 
ATOM     47  C   UNL A   1      42.787  30.638  31.928  1.00  0.00     0.049 A 
ATOM     48  N   UNL A   1      40.778  32.884  33.638  1.00  0.00    -0.248 NA
ATOM     49  C   UNL A   1      39.984  31.095  34.876  1.00  0.00     0.031 C 
ATOM     50  C   UNL A   1      43.850  30.984  32.868  1.00  0.00     0.029 A 
ATOM     51  N   UNL A   1      43.534  30.230  30.825  1.00  0.00    -0.354 N 
ATOM     52  C   UNL A   1      40.091  33.222  34.795  1.00  0.00     0.074 A 
ATOM     53  C   UNL A   1      39.201  32.155  35.020  1.00  0.00     0.031 C 
ATOM     54  C   UNL A   1      45.047  31.024  32.241  1.00  0.00     0.029 A 
ATOM     55  C   UNL A   1      44.843  30.744  30.832  1.00  0.00     0.049 A 
ATOM     56  H   UNL A   1      43.181  29.647  30.115  1.00  0.00     0.167 HD
ATOM     57  C   UNL A   1      40.770  33.762  35.851  1.00  0.00     0.031 A 
ATOM     58  C   UNL A   1      45.297  31.461  29.762  1.00  0.00     0.031 A 
ATOM     59  C   UNL A   1      42.167  33.922  35.453  1.00  0.00     0.049 A 
ATOM     60  C   UNL A   1      45.008  32.921  30.124  1.00  0.00     0.074 A 
ATOM     61  C   UNL A   1      43.330  33.207  35.685  1.00  0.00     0.029 A 
ATOM     62  N   UNL A   1      42.383  34.580  34.252  1.00  0.00    -0.354 N 
ATOM     63  N   UNL A   1      44.361  33.274  31.209  1.00  0.00    -0.248 NA
ATOM     64  C   UNL A   1      45.546  34.075  29.420  1.00  0.00     0.031 C 
ATOM     65  C   UNL A   1      44.263  33.540  34.637  1.00  0.00     0.029 A 
ATOM     66  C   UNL A   1      43.646  34.403  33.745  1.00  0.00     0.049 A 
ATOM     67  H   UNL A   1      41.694  35.125  33.804  1.00  0.00     0.167 HD
ATOM     68  C   UNL A   1      44.476  34.608  31.440  1.00  0.00     0.074 A 
ATOM     69  C   UNL A   1      45.227  35.064  30.276  1.00  0.00     0.031 C 
ATOM     70  C   UNL A   1      43.999  35.216  32.574  1.00  0.00     0.031 A 
BRANCH  57  71
ATOM     71  C   UNL A   1      40.212  33.678  37.272  1.00  0.00    -0.014 A 
ATOM     72  C   UNL A   1      40.981  33.060  38.263  1.00  0.00     0.010 A 
ATOM     73  C   UNL A   1      38.959  34.205  37.700  1.00  0.00     0.010 A 
ATOM     74  C   UNL A   1      40.548  32.996  39.597  1.00  0.00     0.020 A 
ATOM     75  C   UNL A   1      38.480  34.084  39.012  1.00  0.00     0.020 A 
ATOM     76  C   UNL A   1      39.307  33.518  39.967  1.00  0.00     0.054 A 
BRANCH  76  77
ATOM     77  S   UNL A   1      38.850  33.554  41.718  1.00  0.00     0.124 S 
ATOM     78  O   UNL A   1      37.761  34.525  41.740  1.00  0.00    -0.237 OA
ATOM     79  O   UNL A   1      38.467  32.166  41.959  1.00  0.00    -0.237 OA
ATOM     80  O   UNL A   1      40.074  33.985  42.391  1.00  0.00    -0.744 OA
ENDBRANCH  76  77
ENDBRANCH  57  71
BRANCH  58  81
ATOM     81  C   UNL A   1      45.015  30.725  28.461  1.00  0.00    -0.014 A 
ATOM     82  C   UNL A   1      45.278  29.335  28.288  1.00  0.00     0.010 A 
ATOM     83  C   UNL A   1      43.940  31.223  27.753  1.00  0.00     0.010 A 
ATOM     84  C   UNL A   1      44.461  28.504  27.470  1.00  0.00     0.020 A 
ATOM     85  C   UNL A   1      42.974  30.314  27.313  1.00  0.00     0.020 A 
ATOM     86  C   UNL A   1      43.272  29.010  26.988  1.00  0.00     0.054 A 
BRANCH  86  87
ATOM     87  S   UNL A   1      42.166  28.030  25.920  1.00  0.00     0.124 S 
ATOM     88  O   UNL A   1      40.887  28.720  26.046  1.00  0.00    -0.237 OA
ATOM     89  O   UNL A   1      42.825  28.143  24.618  1.00  0.00    -0.237 OA
ATOM     90  O   UNL A   1      42.177  26.680  26.472  1.00  0.00    -0.744 OA
ENDBRANCH  86  87
ENDBRANCH  58  81
BRANCH  70  91
ATOM     91  C   UNL A   1      43.783  36.715  32.725  1.00  0.00    -0.014 A 
ATOM     92  C   UNL A   1      43.608  37.356  33.948  1.00  0.00     0.010 A 
ATOM     93  C   UNL A   1      43.848  37.569  31.586  1.00  0.00     0.010 A 
ATOM     94  C   UNL A   1      43.395  38.731  34.025  1.00  0.00     0.020 A 
ATOM     95  C   UNL A   1      43.767  38.953  31.657  1.00  0.00     0.020 A 
ATOM     96  C   UNL A   1      43.481  39.519  32.881  1.00  0.00     0.054 A 
BRANCH  96  97
ATOM     97  S   UNL A   1      43.184  41.281  33.024  1.00  0.00     0.124 S 
ATOM     98  O   UNL A   1      43.310  41.713  31.634  1.00  0.00    -0.237 OA
ATOM     99  O   UNL A   1      41.833  41.324  33.577  1.00  0.00    -0.237 OA
ATOM    100  O   UNL A   1      44.238  41.744  33.922  1.00  0.00    -0.744 OA
ENDBRANCH  96  97
ENDBRANCH  70  91
ENDBRANCH  44  45
ENDBRANCH  37  39
ENDBRANCH  36  37
ENDBRANCH  35  36
ENDBRANCH  34  35
ENDBRANCH  33  34
ENDBRANCH  32  33
ENDBRANCH   1  32
TORSDOF 24
ENDMDL
