MODEL 1
REMARK VINA RESULT:      -8.5      0.000      0.000
REMARK SMILES NC(=O)c1c(-c2ccc(Cl)cc2)csc1NC(=O)[C@H]1[C@@H](C(=O)OCCOCCOCCOC(=O)c2ccc(-c3c4nc(c(-c5ccc(S(=O)(=O)[O-])cc5)c5ccc([nH]5)c(-c5ccc(S(=O)(=O)[O-])cc5)c5nc(c(-c6ccc(S(=O)(=O)[O-])cc6)c6ccc3[nH]6)C=C5)C=C4)cc2)[C@@H]2CC[C@H]1O2
REMARK SMILES IDX 27 1 26 2 25 3 24 4 23 5 21 6 22 7 20 8 19 9 98 10 95 11
REMARK SMILES IDX 97 12 99 13 96 14 17 15 16 16 18 18 15 19 4 20 5 21 13 22
REMARK SMILES IDX 14 23 2 24 1 25 3 28 6 29 7 30 12 31 8 32 11 33 9 34 10 35
REMARK SMILES IDX 28 36 29 37 30 38 31 39 32 40 33 41 34 42 35 43 36 44 94 45
REMARK SMILES IDX 37 46 93 47 38 48 39 49 40 50 87 51 41 52 92 53 86 54 88 55
REMARK SMILES IDX 42 56 91 57 85 58 84 59 43 61 73 62 54 63 72 64 55 65 58 66
REMARK SMILES IDX 71 67 89 68 56 69 57 70 70 72 90 73 59 74 44 75 45 76 53 77
REMARK SMILES IDX 46 78 52 79 47 80 48 81 49 82 50 83 51 84 74 85 75 86 83 87
REMARK SMILES IDX 76 88 82 89 77 90 78 91 79 92 80 93 81 94 60 95 61 96 69 97
REMARK SMILES IDX 62 98 68 99 63 100 64 101 65 102 66 103 67 104
REMARK H PARENT 16 17 1 26 1 27 88 60 58 71
REMARK Flexibility Score: inf
ROOT
ATOM      1  C   UNL A   1      39.157  26.861  29.172  1.00  0.00     0.188 C 
ENDROOT
BRANCH   1   2
ATOM      2  O   UNL A   1      39.351  25.630  28.495  1.00  0.00    -0.376 OA
BRANCH   2   3
ATOM      3  C   UNL A   1      39.068  25.608  27.102  1.00  0.00     0.202 C 
BRANCH   3   4
ATOM      4  C   UNL A   1      38.466  24.296  26.602  1.00  0.00     0.261 C 
BRANCH   4   5
ATOM      5  O   UNL A   1      37.031  24.386  26.429  1.00  0.00    -0.463 OA
BRANCH   5   6
ATOM      6  C   UNL A   1      36.470  23.420  25.651  1.00  0.00     0.312 C 
ATOM      7  O   UNL A   1      36.767  22.238  25.746  1.00  0.00    -0.252 OA
BRANCH   6   8
ATOM      8  C   UNL A   1      35.577  24.004  24.560  1.00  0.00     0.143 C 
ATOM      9  C   UNL A   1      34.120  24.421  24.828  1.00  0.00     0.124 C 
ATOM     10  C   UNL A   1      33.315  23.197  24.325  1.00  0.00     0.132 C 
ATOM     11  C   UNL A   1      35.322  22.865  23.556  1.00  0.00     0.133 C 
ATOM     12  C   UNL A   1      33.090  23.316  22.822  1.00  0.00     0.035 C 
ATOM     13  O   UNL A   1      34.308  22.147  24.302  1.00  0.00    -0.373 OA
ATOM     14  C   UNL A   1      34.537  23.330  22.317  1.00  0.00     0.036 C 
BRANCH   9  15
ATOM     15  C   UNL A   1      33.553  25.005  26.105  1.00  0.00     0.231 C 
ATOM     16  N   UNL A   1      33.245  26.331  26.124  1.00  0.00    -0.317 N 
ATOM     17  H   UNL A   1      33.964  26.958  26.367  1.00  0.00     0.170 HD
ATOM     18  O   UNL A   1      33.276  24.279  27.061  1.00  0.00    -0.274 OA
BRANCH  16  19
ATOM     19  C   UNL A   1      32.010  26.871  25.828  1.00  0.00     0.108 A 
ATOM     20  C   UNL A   1      31.731  28.160  25.413  1.00  0.00     0.082 A 
ATOM     21  C   UNL A   1      30.701  28.117  24.411  1.00  0.00     0.007 A 
ATOM     22  C   UNL A   1      30.070  26.891  24.360  1.00  0.00     0.076 A 
ATOM     23  S   UNL A   1      30.724  25.802  25.508  1.00  0.00    -0.125 S 
BRANCH  20  24
ATOM     24  C   UNL A   1      32.419  29.388  25.797  1.00  0.00     0.252 C 
ATOM     25  N   UNL A   1      33.519  29.690  25.051  1.00  0.00    -0.365 N 
ATOM     26  H   UNL A   1      34.039  30.503  25.246  1.00  0.00     0.159 HD
ATOM     27  H   UNL A   1      33.794  29.094  24.316  1.00  0.00     0.159 HD
ATOM     28  O   UNL A   1      32.156  30.028  26.808  1.00  0.00    -0.269 OA
ENDBRANCH  20  24
BRANCH  21  29
ATOM     29  C   UNL A   1      30.284  29.256  23.613  1.00  0.00    -0.017 A 
ATOM     30  C   UNL A   1      30.283  29.146  22.223  1.00  0.00     0.010 A 
ATOM     31  C   UNL A   1      29.687  30.365  24.232  1.00  0.00     0.010 A 
ATOM     32  C   UNL A   1      29.648  30.119  21.454  1.00  0.00     0.021 A 
ATOM     33  C   UNL A   1      29.042  31.332  23.462  1.00  0.00     0.021 A 
ATOM     34  C   UNL A   1      29.017  31.198  22.076  1.00  0.00     0.041 A 
ATOM     35  Cl  UNL A   1      28.168  32.349  21.120  1.00  0.00    -0.084 Cl
ENDBRANCH  21  29
ENDBRANCH  16  19
ENDBRANCH   9  15
ENDBRANCH   6   8
ENDBRANCH   5   6
ENDBRANCH   4   5
ENDBRANCH   3   4
ENDBRANCH   2   3
ENDBRANCH   1   2
BRANCH   1  36
ATOM     36  C   UNL A   1      38.624  28.036  28.344  1.00  0.00     0.188 C 
BRANCH  36  37
ATOM     37  O   UNL A   1      38.207  29.199  29.024  1.00  0.00    -0.376 OA
BRANCH  37  38
ATOM     38  C   UNL A   1      37.419  28.995  30.188  1.00  0.00     0.202 C 
BRANCH  38  39
ATOM     39  C   UNL A   1      36.207  29.934  30.258  1.00  0.00     0.261 C 
BRANCH  39  40
ATOM     40  O   UNL A   1      36.612  31.225  30.752  1.00  0.00    -0.460 OA
BRANCH  40  41
ATOM     41  C   UNL A   1      35.717  31.906  31.510  1.00  0.00     0.338 C 
ATOM     42  O   UNL A   1      34.507  31.972  31.347  1.00  0.00    -0.246 OA
BRANCH  41  43
ATOM     43  C   UNL A   1      36.415  32.307  32.751  1.00  0.00     0.060 A 
ATOM     44  C   UNL A   1      36.103  33.542  33.349  1.00  0.00     0.016 A 
ATOM     45  C   UNL A   1      37.331  31.442  33.346  1.00  0.00     0.016 A 
ATOM     46  C   UNL A   1      36.742  33.933  34.524  1.00  0.00     0.010 A 
ATOM     47  C   UNL A   1      37.983  31.841  34.507  1.00  0.00     0.010 A 
ATOM     48  C   UNL A   1      37.725  33.103  35.074  1.00  0.00    -0.014 A 
BRANCH  48  49
ATOM     49  C   UNL A   1      38.696  33.613  36.064  1.00  0.00     0.031 A 
ATOM     50  C   UNL A   1      38.331  33.448  37.513  1.00  0.00     0.074 A 
ATOM     51  C   UNL A   1      39.802  34.277  35.694  1.00  0.00     0.049 A 
ATOM     52  N   UNL A   1      38.818  34.040  38.568  1.00  0.00    -0.248 NA
ATOM     53  C   UNL A   1      37.234  32.504  37.803  1.00  0.00     0.031 C 
ATOM     54  C   UNL A   1      40.283  34.435  34.323  1.00  0.00     0.029 A 
ATOM     55  N   UNL A   1      40.704  34.980  36.453  1.00  0.00    -0.354 N 
ATOM     56  C   UNL A   1      38.058  33.582  39.637  1.00  0.00     0.074 A 
ATOM     57  C   UNL A   1      37.070  32.672  39.106  1.00  0.00     0.031 C 
ATOM     58  C   UNL A   1      41.378  35.216  34.334  1.00  0.00     0.029 A 
ATOM     59  C   UNL A   1      41.637  35.657  35.703  1.00  0.00     0.049 A 
ATOM     60  H   UNL A   1      40.685  34.996  37.436  1.00  0.00     0.167 HD
ATOM     61  C   UNL A   1      38.171  33.903  40.947  1.00  0.00     0.031 A 
ATOM     62  C   UNL A   1      42.555  36.567  36.083  1.00  0.00     0.031 A 
ATOM     63  C   UNL A   1      39.166  34.811  41.449  1.00  0.00     0.049 A 
ATOM     64  C   UNL A   1      42.633  36.951  37.540  1.00  0.00     0.074 A 
ATOM     65  C   UNL A   1      39.395  35.205  42.754  1.00  0.00     0.029 A 
ATOM     66  N   UNL A   1      40.104  35.463  40.660  1.00  0.00    -0.354 N 
ATOM     67  N   UNL A   1      41.903  36.528  38.546  1.00  0.00    -0.248 NA
ATOM     68  C   UNL A   1      43.656  37.937  37.912  1.00  0.00     0.031 C 
ATOM     69  C   UNL A   1      40.437  36.137  42.746  1.00  0.00     0.029 A 
ATOM     70  C   UNL A   1      40.903  36.271  41.447  1.00  0.00     0.049 A 
ATOM     71  H   UNL A   1      40.187  35.365  39.684  1.00  0.00     0.167 HD
ATOM     72  C   UNL A   1      42.403  37.169  39.676  1.00  0.00     0.074 A 
ATOM     73  C   UNL A   1      43.502  38.001  39.227  1.00  0.00     0.031 C 
ATOM     74  C   UNL A   1      41.997  37.079  40.967  1.00  0.00     0.031 A 
BRANCH  61  75
ATOM     75  C   UNL A   1      37.176  33.305  41.906  1.00  0.00    -0.014 A 
ATOM     76  C   UNL A   1      37.420  32.080  42.551  1.00  0.00     0.010 A 
ATOM     77  C   UNL A   1      35.982  33.997  42.185  1.00  0.00     0.010 A 
ATOM     78  C   UNL A   1      36.476  31.541  43.430  1.00  0.00     0.020 A 
ATOM     79  C   UNL A   1      35.050  33.478  43.087  1.00  0.00     0.020 A 
ATOM     80  C   UNL A   1      35.296  32.245  43.694  1.00  0.00     0.054 A 
BRANCH  80  81
ATOM     81  S   UNL A   1      34.107  31.540  44.869  1.00  0.00     0.124 S 
ATOM     82  O   UNL A   1      34.069  30.139  44.456  1.00  0.00    -0.237 OA
ATOM     83  O   UNL A   1      34.743  31.796  46.159  1.00  0.00    -0.237 OA
ATOM     84  O   UNL A   1      32.883  32.296  44.620  1.00  0.00    -0.744 OA
ENDBRANCH  80  81
ENDBRANCH  61  75
BRANCH  62  85
ATOM     85  C   UNL A   1      43.450  37.197  35.071  1.00  0.00    -0.014 A 
ATOM     86  C   UNL A   1      44.722  36.656  34.807  1.00  0.00     0.010 A 
ATOM     87  C   UNL A   1      43.037  38.339  34.360  1.00  0.00     0.010 A 
ATOM     88  C   UNL A   1      45.567  37.255  33.867  1.00  0.00     0.020 A 
ATOM     89  C   UNL A   1      43.867  38.923  33.397  1.00  0.00     0.020 A 
ATOM     90  C   UNL A   1      45.133  38.382  33.165  1.00  0.00     0.054 A 
BRANCH  90  91
ATOM     91  S   UNL A   1      46.231  39.111  31.917  1.00  0.00     0.124 S 
ATOM     92  O   UNL A   1      46.980  40.087  32.703  1.00  0.00    -0.237 OA
ATOM     93  O   UNL A   1      46.994  37.954  31.453  1.00  0.00    -0.237 OA
ATOM     94  O   UNL A   1      45.310  39.675  30.934  1.00  0.00    -0.744 OA
ENDBRANCH  90  91
ENDBRANCH  62  85
BRANCH  74  95
ATOM     95  C   UNL A   1      42.779  37.853  41.996  1.00  0.00    -0.014 A 
ATOM     96  C   UNL A   1      42.409  39.155  42.372  1.00  0.00     0.010 A 
ATOM     97  C   UNL A   1      43.863  37.231  42.642  1.00  0.00     0.010 A 
ATOM     98  C   UNL A   1      43.132  39.834  43.356  1.00  0.00     0.020 A 
ATOM     99  C   UNL A   1      44.568  37.894  43.648  1.00  0.00     0.020 A 
ATOM    100  C   UNL A   1      44.206  39.199  43.988  1.00  0.00     0.054 A 
BRANCH 100 101
ATOM    101  S   UNL A   1      45.097  40.085  45.295  1.00  0.00     0.124 S 
ATOM    102  O   UNL A   1      46.489  39.878  44.908  1.00  0.00    -0.237 OA
ATOM    103  O   UNL A   1      44.600  41.451  45.152  1.00  0.00    -0.237 OA
ATOM    104  O   UNL A   1      44.684  39.403  46.520  1.00  0.00    -0.744 OA
ENDBRANCH 100 101
ENDBRANCH  74  95
ENDBRANCH  48  49
ENDBRANCH  41  43
ENDBRANCH  40  41
ENDBRANCH  39  40
ENDBRANCH  38  39
ENDBRANCH  37  38
ENDBRANCH  36  37
ENDBRANCH   1  36
TORSDOF 24
ENDMDL
MODEL 2
REMARK VINA RESULT:      -8.5      9.006     19.334
REMARK SMILES NC(=O)c1c(-c2ccc(Cl)cc2)csc1NC(=O)[C@H]1[C@@H](C(=O)OCCOCCOCCOC(=O)c2ccc(-c3c4nc(c(-c5ccc(S(=O)(=O)[O-])cc5)c5ccc([nH]5)c(-c5ccc(S(=O)(=O)[O-])cc5)c5nc(c(-c6ccc(S(=O)(=O)[O-])cc6)c6ccc3[nH]6)C=C5)C=C4)cc2)[C@@H]2CC[C@H]1O2
REMARK SMILES IDX 27 1 26 2 25 3 24 4 23 5 21 6 22 7 20 8 19 9 98 10 95 11
REMARK SMILES IDX 97 12 99 13 96 14 17 15 16 16 18 18 15 19 4 20 5 21 13 22
REMARK SMILES IDX 14 23 2 24 1 25 3 28 6 29 7 30 12 31 8 32 11 33 9 34 10 35
REMARK SMILES IDX 28 36 29 37 30 38 31 39 32 40 33 41 34 42 35 43 36 44 94 45
REMARK SMILES IDX 37 46 93 47 38 48 39 49 40 50 87 51 41 52 92 53 86 54 88 55
REMARK SMILES IDX 42 56 91 57 85 58 84 59 43 61 73 62 54 63 72 64 55 65 58 66
REMARK SMILES IDX 71 67 89 68 56 69 57 70 70 72 90 73 59 74 44 75 45 76 53 77
REMARK SMILES IDX 46 78 52 79 47 80 48 81 49 82 50 83 51 84 74 85 75 86 83 87
REMARK SMILES IDX 76 88 82 89 77 90 78 91 79 92 80 93 81 94 60 95 61 96 69 97
REMARK SMILES IDX 62 98 68 99 63 100 64 101 65 102 66 103 67 104
REMARK H PARENT 16 17 1 26 1 27 88 60 58 71
REMARK Flexibility Score: inf
ROOT
ATOM      1  C   UNL A   1      49.140  40.568  31.608  1.00  0.00     0.188 C 
ENDROOT
BRANCH   1   2
ATOM      2  O   UNL A   1      49.458  41.849  32.126  1.00  0.00    -0.376 OA
BRANCH   2   3
ATOM      3  C   UNL A   1      49.096  42.108  33.476  1.00  0.00     0.202 C 
BRANCH   3   4
ATOM      4  C   UNL A   1      48.155  43.297  33.658  1.00  0.00     0.261 C 
BRANCH   4   5
ATOM      5  O   UNL A   1      47.121  43.335  32.645  1.00  0.00    -0.463 OA
BRANCH   5   6
ATOM      6  C   UNL A   1      45.841  43.352  33.107  1.00  0.00     0.312 C 
ATOM      7  O   UNL A   1      45.506  43.973  34.105  1.00  0.00    -0.252 OA
BRANCH   6   8
ATOM      8  C   UNL A   1      44.940  42.384  32.345  1.00  0.00     0.143 C 
ATOM      9  C   UNL A   1      44.489  42.650  30.898  1.00  0.00     0.124 C 
ATOM     10  C   UNL A   1      43.073  43.250  31.086  1.00  0.00     0.132 C 
ATOM     11  C   UNL A   1      43.568  42.435  33.041  1.00  0.00     0.133 C 
ATOM     12  C   UNL A   1      42.054  42.124  31.214  1.00  0.00     0.035 C 
ATOM     13  O   UNL A   1      43.085  43.676  32.467  1.00  0.00    -0.373 OA
ATOM     14  C   UNL A   1      42.573  41.410  32.467  1.00  0.00     0.036 C 
BRANCH   9  15
ATOM     15  C   UNL A   1      45.274  43.344  29.805  1.00  0.00     0.231 C 
ATOM     16  N   UNL A   1      45.655  42.610  28.724  1.00  0.00    -0.317 N 
ATOM     17  H   UNL A   1      46.510  42.126  28.784  1.00  0.00     0.170 HD
ATOM     18  O   UNL A   1      45.467  44.559  29.843  1.00  0.00    -0.274 OA
BRANCH  16  19
ATOM     19  C   UNL A   1      44.943  42.485  27.549  1.00  0.00     0.108 A 
ATOM     20  C   UNL A   1      45.254  43.021  26.312  1.00  0.00     0.082 A 
ATOM     21  C   UNL A   1      44.937  42.060  25.291  1.00  0.00     0.007 A 
ATOM     22  C   UNL A   1      44.151  41.031  25.765  1.00  0.00     0.076 A 
ATOM     23  S   UNL A   1      43.805  41.223  27.431  1.00  0.00    -0.125 S 
BRANCH  20  24
ATOM     24  C   UNL A   1      45.911  44.294  26.034  1.00  0.00     0.252 C 
ATOM     25  N   UNL A   1      47.250  44.318  26.289  1.00  0.00    -0.365 N 
ATOM     26  H   UNL A   1      47.767  45.140  26.127  1.00  0.00     0.159 HD
ATOM     27  H   UNL A   1      47.700  43.514  26.635  1.00  0.00     0.159 HD
ATOM     28  O   UNL A   1      45.310  45.324  25.756  1.00  0.00    -0.269 OA
ENDBRANCH  20  24
BRANCH  21  29
ATOM     29  C   UNL A   1      45.302  42.199  23.893  1.00  0.00    -0.017 A 
ATOM     30  C   UNL A   1      44.438  42.872  23.030  1.00  0.00     0.010 A 
ATOM     31  C   UNL A   1      46.595  41.856  23.469  1.00  0.00     0.010 A 
ATOM     32  C   UNL A   1      44.880  43.241  21.761  1.00  0.00     0.021 A 
ATOM     33  C   UNL A   1      47.040  42.237  22.202  1.00  0.00     0.021 A 
ATOM     34  C   UNL A   1      46.181  42.937  21.359  1.00  0.00     0.041 A 
ATOM     35  Cl  UNL A   1      46.739  43.470  19.822  1.00  0.00    -0.084 Cl
ENDBRANCH  21  29
ENDBRANCH  16  19
ENDBRANCH   9  15
ENDBRANCH   6   8
ENDBRANCH   5   6
ENDBRANCH   4   5
ENDBRANCH   3   4
ENDBRANCH   2   3
ENDBRANCH   1   2
BRANCH   1  36
ATOM     36  C   UNL A   1      47.834  40.440  30.816  1.00  0.00     0.188 C 
BRANCH  36  37
ATOM     37  O   UNL A   1      46.780  39.691  31.380  1.00  0.00    -0.376 OA
BRANCH  37  38
ATOM     38  C   UNL A   1      45.743  39.303  30.491  1.00  0.00     0.202 C 
BRANCH  38  39
ATOM     39  C   UNL A   1      46.271  38.846  29.124  1.00  0.00     0.261 C 
BRANCH  39  40
ATOM     40  O   UNL A   1      46.812  37.515  29.225  1.00  0.00    -0.460 OA
BRANCH  40  41
ATOM     41  C   UNL A   1      47.510  37.049  28.161  1.00  0.00     0.338 C 
ATOM     42  O   UNL A   1      48.337  37.655  27.493  1.00  0.00    -0.246 OA
BRANCH  41  43
ATOM     43  C   UNL A   1      47.330  35.581  28.131  1.00  0.00     0.060 A 
ATOM     44  C   UNL A   1      46.903  34.963  26.941  1.00  0.00     0.016 A 
ATOM     45  C   UNL A   1      47.633  34.819  29.258  1.00  0.00     0.016 A 
ATOM     46  C   UNL A   1      46.737  33.579  26.891  1.00  0.00     0.010 A 
ATOM     47  C   UNL A   1      47.449  33.442  29.213  1.00  0.00     0.010 A 
ATOM     48  C   UNL A   1      46.958  32.824  28.047  1.00  0.00    -0.014 A 
BRANCH  48  49
ATOM     49  C   UNL A   1      46.438  31.447  28.177  1.00  0.00     0.031 A 
ATOM     50  C   UNL A   1      47.326  30.341  27.680  1.00  0.00     0.074 A 
ATOM     51  C   UNL A   1      45.198  31.199  28.626  1.00  0.00     0.049 A 
ATOM     52  N   UNL A   1      47.034  29.103  27.393  1.00  0.00    -0.248 NA
ATOM     53  C   UNL A   1      48.738  30.699  27.439  1.00  0.00     0.031 C 
ATOM     54  C   UNL A   1      44.282  32.187  29.193  1.00  0.00     0.029 A 
ATOM     55  N   UNL A   1      44.481  30.028  28.635  1.00  0.00    -0.354 N 
ATOM     56  C   UNL A   1      48.207  28.549  26.893  1.00  0.00     0.074 A 
ATOM     57  C   UNL A   1      49.212  29.586  26.904  1.00  0.00     0.031 C 
ATOM     58  C   UNL A   1      43.110  31.586  29.466  1.00  0.00     0.029 A 
ATOM     59  C   UNL A   1      43.177  30.190  29.039  1.00  0.00     0.049 A 
ATOM     60  H   UNL A   1      44.864  29.159  28.377  1.00  0.00     0.167 HD
ATOM     61  C   UNL A   1      48.419  27.287  26.455  1.00  0.00     0.031 A 
ATOM     62  C   UNL A   1      42.150  29.318  29.015  1.00  0.00     0.031 A 
ATOM     63  C   UNL A   1      47.400  26.273  26.458  1.00  0.00     0.049 A 
ATOM     64  C   UNL A   1      42.393  27.930  28.474  1.00  0.00     0.074 A 
ATOM     65  C   UNL A   1      47.492  24.954  26.055  1.00  0.00     0.029 A 
ATOM     66  N   UNL A   1      46.096  26.472  26.892  1.00  0.00    -0.354 N 
ATOM     67  N   UNL A   1      43.498  27.414  27.989  1.00  0.00    -0.248 NA
ATOM     68  C   UNL A   1      41.249  27.009  28.477  1.00  0.00     0.031 C 
ATOM     69  C   UNL A   1      46.230  24.370  26.196  1.00  0.00     0.029 A 
ATOM     70  C   UNL A   1      45.369  25.304  26.751  1.00  0.00     0.049 A 
ATOM     71  H   UNL A   1      45.741  27.319  27.246  1.00  0.00     0.167 HD
ATOM     72  C   UNL A   1      43.193  26.096  27.661  1.00  0.00     0.074 A 
ATOM     73  C   UNL A   1      41.801  25.895  28.014  1.00  0.00     0.031 C 
ATOM     74  C   UNL A   1      43.985  25.137  27.122  1.00  0.00     0.031 A 
BRANCH  61  75
ATOM     75  C   UNL A   1      49.780  26.954  25.903  1.00  0.00    -0.014 A 
ATOM     76  C   UNL A   1      50.140  27.282  24.584  1.00  0.00     0.010 A 
ATOM     77  C   UNL A   1      50.727  26.323  26.732  1.00  0.00     0.010 A 
ATOM     78  C   UNL A   1      51.408  26.953  24.092  1.00  0.00     0.020 A 
ATOM     79  C   UNL A   1      52.006  26.022  26.255  1.00  0.00     0.020 A 
ATOM     80  C   UNL A   1      52.334  26.327  24.932  1.00  0.00     0.054 A 
BRANCH  80  81
ATOM     81  S   UNL A   1      53.983  25.948  24.279  1.00  0.00     0.124 S 
ATOM     82  O   UNL A   1      53.758  26.008  22.837  1.00  0.00    -0.237 OA
ATOM     83  O   UNL A   1      54.800  27.026  24.832  1.00  0.00    -0.237 OA
ATOM     84  O   UNL A   1      54.270  24.618  24.810  1.00  0.00    -0.744 OA
ENDBRANCH  80  81
ENDBRANCH  61  75
BRANCH  62  85
ATOM     85  C   UNL A   1      40.799  29.736  29.486  1.00  0.00    -0.014 A 
ATOM     86  C   UNL A   1      39.725  29.829  28.583  1.00  0.00     0.010 A 
ATOM     87  C   UNL A   1      40.576  30.042  30.842  1.00  0.00     0.010 A 
ATOM     88  C   UNL A   1      38.460  30.235  29.022  1.00  0.00     0.020 A 
ATOM     89  C   UNL A   1      39.305  30.418  31.290  1.00  0.00     0.020 A 
ATOM     90  C   UNL A   1      38.257  30.523  30.374  1.00  0.00     0.054 A 
BRANCH  90  91
ATOM     91  S   UNL A   1      36.595  31.001  30.925  1.00  0.00     0.124 S 
ATOM     92  O   UNL A   1      36.853  32.267  31.606  1.00  0.00    -0.237 OA
ATOM     93  O   UNL A   1      35.861  31.099  29.666  1.00  0.00    -0.237 OA
ATOM     94  O   UNL A   1      36.189  29.898  31.791  1.00  0.00    -0.744 OA
ENDBRANCH  90  91
ENDBRANCH  62  85
BRANCH  74  95
ATOM     95  C   UNL A   1      43.388  23.767  26.935  1.00  0.00    -0.014 A 
ATOM     96  C   UNL A   1      42.992  23.306  25.668  1.00  0.00     0.010 A 
ATOM     97  C   UNL A   1      43.286  22.907  28.044  1.00  0.00     0.010 A 
ATOM     98  C   UNL A   1      42.475  22.017  25.520  1.00  0.00     0.020 A 
ATOM     99  C   UNL A   1      42.800  21.607  27.894  1.00  0.00     0.020 A 
ATOM    100  C   UNL A   1      42.383  21.175  26.634  1.00  0.00     0.054 A 
BRANCH 100 101
ATOM    101  S   UNL A   1      41.753  19.491  26.405  1.00  0.00     0.124 S 
ATOM    102  O   UNL A   1      40.311  19.710  26.352  1.00  0.00    -0.237 OA
ATOM    103  O   UNL A   1      42.374  19.084  25.147  1.00  0.00    -0.237 OA
ATOM    104  O   UNL A   1      42.231  18.778  27.587  1.00  0.00    -0.744 OA
ENDBRANCH 100 101
ENDBRANCH  74  95
ENDBRANCH  48  49
ENDBRANCH  41  43
ENDBRANCH  40  41
ENDBRANCH  39  40
ENDBRANCH  38  39
ENDBRANCH  37  38
ENDBRANCH  36  37
ENDBRANCH   1  36
TORSDOF 24
ENDMDL
MODEL 3
REMARK VINA RESULT:      -8.3      7.004     11.382
REMARK SMILES NC(=O)c1c(-c2ccc(Cl)cc2)csc1NC(=O)[C@H]1[C@@H](C(=O)OCCOCCOCCOC(=O)c2ccc(-c3c4nc(c(-c5ccc(S(=O)(=O)[O-])cc5)c5ccc([nH]5)c(-c5ccc(S(=O)(=O)[O-])cc5)c5nc(c(-c6ccc(S(=O)(=O)[O-])cc6)c6ccc3[nH]6)C=C5)C=C4)cc2)[C@@H]2CC[C@H]1O2
REMARK SMILES IDX 27 1 26 2 25 3 24 4 23 5 21 6 22 7 20 8 19 9 98 10 95 11
REMARK SMILES IDX 97 12 99 13 96 14 17 15 16 16 18 18 15 19 4 20 5 21 13 22
REMARK SMILES IDX 14 23 2 24 1 25 3 28 6 29 7 30 12 31 8 32 11 33 9 34 10 35
REMARK SMILES IDX 28 36 29 37 30 38 31 39 32 40 33 41 34 42 35 43 36 44 94 45
REMARK SMILES IDX 37 46 93 47 38 48 39 49 40 50 87 51 41 52 92 53 86 54 88 55
REMARK SMILES IDX 42 56 91 57 85 58 84 59 43 61 73 62 54 63 72 64 55 65 58 66
REMARK SMILES IDX 71 67 89 68 56 69 57 70 70 72 90 73 59 74 44 75 45 76 53 77
REMARK SMILES IDX 46 78 52 79 47 80 48 81 49 82 50 83 51 84 74 85 75 86 83 87
REMARK SMILES IDX 76 88 82 89 77 90 78 91 79 92 80 93 81 94 60 95 61 96 69 97
REMARK SMILES IDX 62 98 68 99 63 100 64 101 65 102 66 103 67 104
REMARK H PARENT 16 17 1 26 1 27 88 60 58 71
REMARK Flexibility Score: inf
ROOT
ATOM      1  C   UNL A   1      44.149  20.929  25.287  1.00  0.00     0.188 C 
ENDROOT
BRANCH   1   2
ATOM      2  O   UNL A   1      45.324  21.707  25.447  1.00  0.00    -0.376 OA
BRANCH   2   3
ATOM      3  C   UNL A   1      45.587  22.689  24.454  1.00  0.00     0.202 C 
BRANCH   3   4
ATOM      4  C   UNL A   1      46.822  23.545  24.726  1.00  0.00     0.261 C 
BRANCH   4   5
ATOM      5  O   UNL A   1      46.489  24.785  25.396  1.00  0.00    -0.463 OA
BRANCH   5   6
ATOM      6  C   UNL A   1      46.856  25.924  24.746  1.00  0.00     0.312 C 
ATOM      7  O   UNL A   1      46.058  26.794  24.433  1.00  0.00    -0.252 OA
BRANCH   6   8
ATOM      8  C   UNL A   1      48.321  25.897  24.317  1.00  0.00     0.143 C 
ATOM      9  C   UNL A   1      49.470  26.156  25.307  1.00  0.00     0.124 C 
ATOM     10  C   UNL A   1      49.803  27.649  25.061  1.00  0.00     0.132 C 
ATOM     11  C   UNL A   1      48.520  27.108  23.390  1.00  0.00     0.133 C 
ATOM     12  C   UNL A   1      50.765  27.771  23.886  1.00  0.00     0.035 C 
ATOM     13  O   UNL A   1      48.612  28.140  24.405  1.00  0.00    -0.373 OA
ATOM     14  C   UNL A   1      49.925  27.151  22.763  1.00  0.00     0.036 C 
BRANCH   9  15
ATOM     15  C   UNL A   1      49.520  25.784  26.774  1.00  0.00     0.231 C 
ATOM     16  N   UNL A   1      49.141  26.720  27.688  1.00  0.00    -0.317 N 
ATOM     17  H   UNL A   1      49.832  27.344  28.007  1.00  0.00     0.170 HD
ATOM     18  O   UNL A   1      49.789  24.634  27.123  1.00  0.00    -0.274 OA
BRANCH  16  19
ATOM     19  C   UNL A   1      47.870  26.868  28.203  1.00  0.00     0.108 A 
ATOM     20  C   UNL A   1      46.920  27.807  27.847  1.00  0.00     0.082 A 
ATOM     21  C   UNL A   1      45.625  27.182  27.831  1.00  0.00     0.007 A 
ATOM     22  C   UNL A   1      45.630  25.951  28.453  1.00  0.00     0.076 A 
ATOM     23  S   UNL A   1      47.188  25.553  29.044  1.00  0.00    -0.125 S 
BRANCH  20  24
ATOM     24  C   UNL A   1      47.145  29.185  27.424  1.00  0.00     0.252 C 
ATOM     25  N   UNL A   1      46.843  29.445  26.120  1.00  0.00    -0.365 N 
ATOM     26  H   UNL A   1      46.967  30.352  25.757  1.00  0.00     0.159 HD
ATOM     27  H   UNL A   1      46.502  28.725  25.541  1.00  0.00     0.159 HD
ATOM     28  O   UNL A   1      47.716  30.023  28.111  1.00  0.00    -0.269 OA
ENDBRANCH  20  24
BRANCH  21  29
ATOM     29  C   UNL A   1      44.418  27.808  27.323  1.00  0.00    -0.017 A 
ATOM     30  C   UNL A   1      43.707  27.179  26.302  1.00  0.00     0.010 A 
ATOM     31  C   UNL A   1      43.861  28.907  27.995  1.00  0.00     0.010 A 
ATOM     32  C   UNL A   1      42.424  27.619  25.982  1.00  0.00     0.021 A 
ATOM     33  C   UNL A   1      42.572  29.338  27.682  1.00  0.00     0.021 A 
ATOM     34  C   UNL A   1      41.856  28.684  26.682  1.00  0.00     0.041 A 
ATOM     35  Cl  UNL A   1      40.242  29.164  26.333  1.00  0.00    -0.084 Cl
ENDBRANCH  21  29
ENDBRANCH  16  19
ENDBRANCH   9  15
ENDBRANCH   6   8
ENDBRANCH   5   6
ENDBRANCH   4   5
ENDBRANCH   3   4
ENDBRANCH   2   3
ENDBRANCH   1   2
BRANCH   1  36
ATOM     36  C   UNL A   1      42.813  21.611  25.598  1.00  0.00     0.188 C 
BRANCH  36  37
ATOM     37  O   UNL A   1      41.683  20.798  25.827  1.00  0.00    -0.376 OA
BRANCH  37  38
ATOM     38  C   UNL A   1      40.487  21.476  26.185  1.00  0.00     0.202 C 
BRANCH  38  39
ATOM     39  C   UNL A   1      40.715  22.572  27.235  1.00  0.00     0.261 C 
BRANCH  39  40
ATOM     40  O   UNL A   1      40.752  23.864  26.598  1.00  0.00    -0.460 OA
BRANCH  40  41
ATOM     41  C   UNL A   1      39.734  24.716  26.869  1.00  0.00     0.338 C 
ATOM     42  O   UNL A   1      38.587  24.658  26.449  1.00  0.00    -0.246 OA
BRANCH  41  43
ATOM     43  C   UNL A   1      40.162  25.559  28.007  1.00  0.00     0.060 A 
ATOM     44  C   UNL A   1      39.247  26.461  28.580  1.00  0.00     0.016 A 
ATOM     45  C   UNL A   1      41.444  25.416  28.535  1.00  0.00     0.016 A 
ATOM     46  C   UNL A   1      39.630  27.256  29.660  1.00  0.00     0.010 A 
ATOM     47  C   UNL A   1      41.832  26.223  29.599  1.00  0.00     0.010 A 
ATOM     48  C   UNL A   1      40.944  27.175  30.133  1.00  0.00    -0.014 A 
BRANCH  48  49
ATOM     49  C   UNL A   1      41.520  28.235  30.988  1.00  0.00     0.031 A 
ATOM     50  C   UNL A   1      40.616  29.384  31.338  1.00  0.00     0.074 A 
ATOM     51  C   UNL A   1      42.811  28.225  31.354  1.00  0.00     0.049 A 
ATOM     52  N   UNL A   1      40.913  30.566  31.802  1.00  0.00    -0.248 NA
ATOM     53  C   UNL A   1      39.175  29.175  31.093  1.00  0.00     0.031 C 
ATOM     54  C   UNL A   1      43.754  27.132  31.125  1.00  0.00     0.029 A 
ATOM     55  N   UNL A   1      43.561  29.196  31.968  1.00  0.00    -0.354 N 
ATOM     56  C   UNL A   1      39.708  31.257  31.858  1.00  0.00     0.074 A 
ATOM     57  C   UNL A   1      38.678  30.370  31.370  1.00  0.00     0.031 C 
ATOM     58  C   UNL A   1      44.968  27.507  31.566  1.00  0.00     0.029 A 
ATOM     59  C   UNL A   1      44.897  28.883  32.051  1.00  0.00     0.049 A 
ATOM     60  H   UNL A   1      43.179  30.034  32.315  1.00  0.00     0.167 HD
ATOM     61  C   UNL A   1      39.487  32.526  32.271  1.00  0.00     0.031 A 
ATOM     62  C   UNL A   1      45.942  29.647  32.428  1.00  0.00     0.031 A 
ATOM     63  C   UNL A   1      40.532  33.387  32.754  1.00  0.00     0.049 A 
ATOM     64  C   UNL A   1      45.682  31.076  32.836  1.00  0.00     0.074 A 
ATOM     65  C   UNL A   1      40.436  34.687  33.216  1.00  0.00     0.029 A 
ATOM     66  N   UNL A   1      41.870  33.027  32.839  1.00  0.00    -0.354 N 
ATOM     67  N   UNL A   1      44.546  31.731  32.874  1.00  0.00    -0.248 NA
ATOM     68  C   UNL A   1      46.848  31.868  33.251  1.00  0.00     0.031 C 
ATOM     69  C   UNL A   1      41.723  35.130  33.531  1.00  0.00     0.029 A 
ATOM     70  C   UNL A   1      42.613  34.085  33.330  1.00  0.00     0.049 A 
ATOM     71  H   UNL A   1      42.236  32.149  32.587  1.00  0.00     0.167 HD
ATOM     72  C   UNL A   1      44.853  33.003  33.351  1.00  0.00     0.074 A 
ATOM     73  C   UNL A   1      46.282  33.017  33.595  1.00  0.00     0.031 C 
ATOM     74  C   UNL A   1      44.035  34.061  33.571  1.00  0.00     0.031 A 
BRANCH  61  75
ATOM     75  C   UNL A   1      38.082  33.061  32.177  1.00  0.00    -0.014 A 
ATOM     76  C   UNL A   1      37.223  33.070  33.290  1.00  0.00     0.010 A 
ATOM     77  C   UNL A   1      37.623  33.590  30.956  1.00  0.00     0.010 A 
ATOM     78  C   UNL A   1      35.919  33.564  33.175  1.00  0.00     0.020 A 
ATOM     79  C   UNL A   1      36.332  34.113  30.844  1.00  0.00     0.020 A 
ATOM     80  C   UNL A   1      35.483  34.085  31.952  1.00  0.00     0.054 A 
BRANCH  80  81
ATOM     81  S   UNL A   1      33.801  34.754  31.843  1.00  0.00     0.124 S 
ATOM     82  O   UNL A   1      33.449  34.461  30.456  1.00  0.00    -0.237 OA
ATOM     83  O   UNL A   1      33.082  33.977  32.850  1.00  0.00    -0.237 OA
ATOM     84  O   UNL A   1      33.969  36.170  32.157  1.00  0.00    -0.744 OA
ENDBRANCH  80  81
ENDBRANCH  61  75
BRANCH  62  85
ATOM     85  C   UNL A   1      47.324  29.089  32.408  1.00  0.00    -0.014 A 
ATOM     86  C   UNL A   1      47.855  28.456  33.546  1.00  0.00     0.010 A 
ATOM     87  C   UNL A   1      48.118  29.182  31.249  1.00  0.00     0.010 A 
ATOM     88  C   UNL A   1      49.157  27.944  33.532  1.00  0.00     0.020 A 
ATOM     89  C   UNL A   1      49.409  28.644  31.222  1.00  0.00     0.020 A 
ATOM     90  C   UNL A   1      49.925  28.038  32.369  1.00  0.00     0.054 A 
BRANCH  90  91
ATOM     91  S   UNL A   1      51.593  27.324  32.363  1.00  0.00     0.124 S 
ATOM     92  O   UNL A   1      51.672  26.748  31.024  1.00  0.00    -0.237 OA
ATOM     93  O   UNL A   1      52.438  28.492  32.599  1.00  0.00    -0.237 OA
ATOM     94  O   UNL A   1      51.559  26.357  33.458  1.00  0.00    -0.744 OA
ENDBRANCH  90  91
ENDBRANCH  62  85
BRANCH  74  95
ATOM     95  C   UNL A   1      44.650  35.304  34.158  1.00  0.00    -0.014 A 
ATOM     96  C   UNL A   1      44.704  35.510  35.547  1.00  0.00     0.010 A 
ATOM     97  C   UNL A   1      45.242  36.247  33.297  1.00  0.00     0.010 A 
ATOM     98  C   UNL A   1      45.314  36.656  36.063  1.00  0.00     0.020 A 
ATOM     99  C   UNL A   1      45.881  37.377  33.812  1.00  0.00     0.020 A 
ATOM    100  C   UNL A   1      45.900  37.581  35.192  1.00  0.00     0.054 A 
BRANCH 100 101
ATOM    101  S   UNL A   1      46.726  39.036  35.892  1.00  0.00     0.124 S 
ATOM    102  O   UNL A   1      48.012  38.484  36.308  1.00  0.00    -0.237 OA
ATOM    103  O   UNL A   1      46.773  39.955  34.757  1.00  0.00    -0.237 OA
ATOM    104  O   UNL A   1      45.843  39.446  36.982  1.00  0.00    -0.744 OA
ENDBRANCH 100 101
ENDBRANCH  74  95
ENDBRANCH  48  49
ENDBRANCH  41  43
ENDBRANCH  40  41
ENDBRANCH  39  40
ENDBRANCH  38  39
ENDBRANCH  37  38
ENDBRANCH  36  37
ENDBRANCH   1  36
TORSDOF 24
ENDMDL
