MODEL 1
REMARK VINA RESULT:      -9.1      0.000      0.000
REMARK SMILES O=C(CN1C(=O)c2ccccc2[C@@H]1O)OCCOCCOCCOC(=O)c1ccc(-c2c3nc(c(-c4ccc(S(=O)(=O)[O-])cc4)c4ccc([nH]4)c(-c4ccc(S(=O)(=O)[O-])cc4)c4nc(c(-c5ccc(S(=O)(=O)[O-])cc5)c5ccc2[nH]5)C=C4)C=C3)cc1
REMARK SMILES IDX 20 1 19 2 18 3 17 4 16 5 15 6 2 7 1 8 3 9 4 10 5 11 13 12
REMARK SMILES IDX 6 13 7 14 12 15 8 16 11 17 9 18 10 19 14 20 21 22 22 23
REMARK SMILES IDX 23 24 24 25 25 26 26 27 27 28 28 29 86 30 29 31 85 32 30 33
REMARK SMILES IDX 31 34 32 35 79 36 33 37 84 38 78 39 80 40 34 41 83 42 77 43
REMARK SMILES IDX 76 44 35 46 65 47 46 48 64 49 47 50 50 51 63 52 81 53 48 54
REMARK SMILES IDX 49 55 62 57 82 58 51 59 36 60 37 61 45 62 38 63 44 64 39 65
REMARK SMILES IDX 40 66 41 67 42 68 43 69 66 70 67 71 75 72 68 73 74 74 69 75
REMARK SMILES IDX 70 76 71 77 72 78 73 79 52 80 53 81 61 82 54 83 60 84 55 85
REMARK SMILES IDX 56 86 57 87 58 88 59 89
REMARK H PARENT 14 21 80 45 50 56
REMARK Flexibility Score: inf
ROOT
ATOM      1  C   UNL A   1      42.339  19.439  26.517  1.00  0.00     0.188 C 
ENDROOT
BRANCH   1   2
ATOM      2  C   UNL A   1      43.404  18.690  25.699  1.00  0.00     0.188 C 
BRANCH   2   3
ATOM      3  O   UNL A   1      43.795  19.363  24.521  1.00  0.00    -0.376 OA
BRANCH   3   4
ATOM      4  C   UNL A   1      45.138  19.223  24.117  1.00  0.00     0.202 C 
BRANCH   4   5
ATOM      5  C   UNL A   1      46.159  20.018  24.930  1.00  0.00     0.261 C 
BRANCH   5   6
ATOM      6  O   UNL A   1      46.449  21.374  24.523  1.00  0.00    -0.462 OA
BRANCH   6   7
ATOM      7  C   UNL A   1      45.815  22.534  24.800  1.00  0.00     0.325 C 
ATOM      8  O   UNL A   1      44.653  22.679  24.415  1.00  0.00    -0.250 OA
BRANCH   7   9
ATOM      9  C   UNL A   1      46.575  23.724  25.369  1.00  0.00     0.245 C 
BRANCH   9  10
ATOM     10  N   UNL A   1      46.417  23.994  26.775  1.00  0.00    -0.298 N 
ATOM     11  C   UNL A   1      47.288  24.770  27.513  1.00  0.00     0.257 C 
ATOM     12  C   UNL A   1      45.135  23.841  27.406  1.00  0.00     0.247 C 
ATOM     13  O   UNL A   1      48.395  25.172  27.207  1.00  0.00    -0.269 OA
ATOM     14  C   UNL A   1      46.634  25.025  28.794  1.00  0.00     0.047 A 
ATOM     15  C   UNL A   1      45.367  24.444  28.747  1.00  0.00     0.014 A 
ATOM     16  C   UNL A   1      47.108  25.702  29.898  1.00  0.00     0.014 A 
ATOM     17  C   UNL A   1      44.525  24.509  29.839  1.00  0.00     0.009 A 
ATOM     18  C   UNL A   1      46.258  25.781  31.001  1.00  0.00     0.001 A 
ATOM     19  C   UNL A   1      44.982  25.185  30.973  1.00  0.00     0.001 A 
BRANCH  12  20
ATOM     20  O   UNL A   1      44.831  22.472  27.473  1.00  0.00    -0.369 OA
ATOM     21  H   UNL A   1      44.537  22.249  28.370  1.00  0.00     0.213 HD
ENDBRANCH  12  20
ENDBRANCH   9  10
ENDBRANCH   7   9
ENDBRANCH   6   7
ENDBRANCH   5   6
ENDBRANCH   4   5
ENDBRANCH   3   4
ENDBRANCH   2   3
ENDBRANCH   1   2
BRANCH   1  22
ATOM     22  O   UNL A   1      41.736  20.614  25.992  1.00  0.00    -0.376 OA
BRANCH  22  23
ATOM     23  C   UNL A   1      41.670  21.784  26.793  1.00  0.00     0.202 C 
BRANCH  23  24
ATOM     24  C   UNL A   1      41.370  23.147  26.135  1.00  0.00     0.261 C 
BRANCH  24  25
ATOM     25  O   UNL A   1      42.356  24.189  26.302  1.00  0.00    -0.460 OA
BRANCH  25  26
ATOM     26  C   UNL A   1      41.898  25.463  26.200  1.00  0.00     0.338 C 
ATOM     27  O   UNL A   1      41.401  25.977  25.211  1.00  0.00    -0.246 OA
BRANCH  26  28
ATOM     28  C   UNL A   1      41.906  26.151  27.518  1.00  0.00     0.060 A 
ATOM     29  C   UNL A   1      40.830  25.920  28.387  1.00  0.00     0.016 A 
ATOM     30  C   UNL A   1      42.892  27.076  27.867  1.00  0.00     0.016 A 
ATOM     31  C   UNL A   1      40.705  26.646  29.572  1.00  0.00     0.010 A 
ATOM     32  C   UNL A   1      42.753  27.823  29.051  1.00  0.00     0.010 A 
ATOM     33  C   UNL A   1      41.635  27.645  29.889  1.00  0.00    -0.014 A 
BRANCH  33  34
ATOM     34  C   UNL A   1      41.315  28.603  30.987  1.00  0.00     0.031 A 
ATOM     35  C   UNL A   1      42.157  28.587  32.240  1.00  0.00     0.074 A 
ATOM     36  C   UNL A   1      40.351  29.535  30.848  1.00  0.00     0.049 A 
ATOM     37  N   UNL A   1      42.092  29.361  33.295  1.00  0.00    -0.248 NA
ATOM     38  C   UNL A   1      43.212  27.564  32.312  1.00  0.00     0.031 C 
ATOM     39  C   UNL A   1      39.488  29.693  29.679  1.00  0.00     0.029 A 
ATOM     40  N   UNL A   1      39.945  30.533  31.701  1.00  0.00    -0.354 N 
ATOM     41  C   UNL A   1      43.101  28.926  34.149  1.00  0.00     0.074 A 
ATOM     42  C   UNL A   1      43.732  27.791  33.510  1.00  0.00     0.031 C 
ATOM     43  C   UNL A   1      38.651  30.724  29.890  1.00  0.00     0.029 A 
ATOM     44  C   UNL A   1      38.899  31.285  31.217  1.00  0.00     0.049 A 
ATOM     45  H   UNL A   1      40.362  30.696  32.578  1.00  0.00     0.167 HD
ATOM     46  C   UNL A   1      43.484  29.430  35.347  1.00  0.00     0.031 A 
ATOM     47  C   UNL A   1      38.209  32.298  31.781  1.00  0.00     0.031 A 
ATOM     48  C   UNL A   1      42.848  30.546  36.000  1.00  0.00     0.049 A 
ATOM     49  C   UNL A   1      38.604  32.796  33.150  1.00  0.00     0.074 A 
ATOM     50  C   UNL A   1      43.164  31.126  37.217  1.00  0.00     0.029 A 
ATOM     51  N   UNL A   1      41.765  31.250  35.495  1.00  0.00    -0.354 N 
ATOM     52  N   UNL A   1      39.577  32.386  33.931  1.00  0.00    -0.248 NA
ATOM     53  C   UNL A   1      37.819  33.907  33.704  1.00  0.00     0.031 C 
ATOM     54  C   UNL A   1      42.234  32.139  37.476  1.00  0.00     0.029 A 
ATOM     55  C   UNL A   1      41.384  32.240  36.386  1.00  0.00     0.049 A 
ATOM     56  H   UNL A   1      41.330  31.072  34.629  1.00  0.00     0.167 HD
ATOM     57  C   UNL A   1      39.531  33.204  35.057  1.00  0.00     0.074 A 
ATOM     58  C   UNL A   1      38.459  34.152  34.839  1.00  0.00     0.031 C 
ATOM     59  C   UNL A   1      40.305  33.172  36.172  1.00  0.00     0.031 A 
BRANCH  46  60
ATOM     60  C   UNL A   1      44.641  28.762  36.049  1.00  0.00    -0.014 A 
ATOM     61  C   UNL A   1      44.430  27.702  36.950  1.00  0.00     0.010 A 
ATOM     62  C   UNL A   1      45.960  29.160  35.762  1.00  0.00     0.010 A 
ATOM     63  C   UNL A   1      45.514  27.074  37.573  1.00  0.00     0.020 A 
ATOM     64  C   UNL A   1      47.047  28.515  36.359  1.00  0.00     0.020 A 
ATOM     65  C   UNL A   1      46.816  27.484  37.271  1.00  0.00     0.054 A 
BRANCH  65  66
ATOM     66  S   UNL A   1      48.202  26.623  38.063  1.00  0.00     0.124 S 
ATOM     67  O   UNL A   1      48.422  27.437  39.257  1.00  0.00    -0.237 OA
ATOM     68  O   UNL A   1      47.655  25.290  38.304  1.00  0.00    -0.237 OA
ATOM     69  O   UNL A   1      49.267  26.685  37.065  1.00  0.00    -0.744 OA
ENDBRANCH  65  66
ENDBRANCH  46  60
BRANCH  47  70
ATOM     70  C   UNL A   1      37.043  32.898  31.067  1.00  0.00    -0.014 A 
ATOM     71  C   UNL A   1      35.722  32.610  31.452  1.00  0.00     0.010 A 
ATOM     72  C   UNL A   1      37.261  33.751  29.968  1.00  0.00     0.010 A 
ATOM     73  C   UNL A   1      34.642  33.144  30.738  1.00  0.00     0.020 A 
ATOM     74  C   UNL A   1      36.186  34.314  29.275  1.00  0.00     0.020 A 
ATOM     75  C   UNL A   1      34.882  33.996  29.655  1.00  0.00     0.054 A 
BRANCH  75  76
ATOM     76  S   UNL A   1      33.468  34.714  28.772  1.00  0.00     0.124 S 
ATOM     77  O   UNL A   1      34.056  35.910  28.177  1.00  0.00    -0.237 OA
ATOM     78  O   UNL A   1      33.109  33.651  27.837  1.00  0.00    -0.237 OA
ATOM     79  O   UNL A   1      32.490  34.956  29.831  1.00  0.00    -0.744 OA
ENDBRANCH  75  76
ENDBRANCH  47  70
BRANCH  59  80
ATOM     80  C   UNL A   1      40.035  34.214  37.231  1.00  0.00    -0.014 A 
ATOM     81  C   UNL A   1      40.559  35.516  37.133  1.00  0.00     0.010 A 
ATOM     82  C   UNL A   1      39.234  33.886  38.342  1.00  0.00     0.010 A 
ATOM     83  C   UNL A   1      40.342  36.447  38.153  1.00  0.00     0.020 A 
ATOM     84  C   UNL A   1      38.984  34.826  39.346  1.00  0.00     0.020 A 
ATOM     85  C   UNL A   1      39.563  36.093  39.257  1.00  0.00     0.054 A 
BRANCH  85  86
ATOM     86  S   UNL A   1      39.303  37.317  40.571  1.00  0.00     0.124 S 
ATOM     87  O   UNL A   1      38.307  38.200  39.971  1.00  0.00    -0.237 OA
ATOM     88  O   UNL A   1      38.829  36.498  41.683  1.00  0.00    -0.237 OA
ATOM     89  O   UNL A   1      40.626  37.910  40.760  1.00  0.00    -0.744 OA
ENDBRANCH  85  86
ENDBRANCH  59  80
ENDBRANCH  33  34
ENDBRANCH  26  28
ENDBRANCH  25  26
ENDBRANCH  24  25
ENDBRANCH  23  24
ENDBRANCH  22  23
ENDBRANCH   1  22
TORSDOF 22
ENDMDL
MODEL 2
REMARK VINA RESULT:      -8.9      6.400     13.515
REMARK SMILES O=C(CN1C(=O)c2ccccc2[C@@H]1O)OCCOCCOCCOC(=O)c1ccc(-c2c3nc(c(-c4ccc(S(=O)(=O)[O-])cc4)c4ccc([nH]4)c(-c4ccc(S(=O)(=O)[O-])cc4)c4nc(c(-c5ccc(S(=O)(=O)[O-])cc5)c5ccc2[nH]5)C=C4)C=C3)cc1
REMARK SMILES IDX 20 1 19 2 18 3 17 4 16 5 15 6 2 7 1 8 3 9 4 10 5 11 13 12
REMARK SMILES IDX 6 13 7 14 12 15 8 16 11 17 9 18 10 19 14 20 21 22 22 23
REMARK SMILES IDX 23 24 24 25 25 26 26 27 27 28 28 29 86 30 29 31 85 32 30 33
REMARK SMILES IDX 31 34 32 35 79 36 33 37 84 38 78 39 80 40 34 41 83 42 77 43
REMARK SMILES IDX 76 44 35 46 65 47 46 48 64 49 47 50 50 51 63 52 81 53 48 54
REMARK SMILES IDX 49 55 62 57 82 58 51 59 36 60 37 61 45 62 38 63 44 64 39 65
REMARK SMILES IDX 40 66 41 67 42 68 43 69 66 70 67 71 75 72 68 73 74 74 69 75
REMARK SMILES IDX 70 76 71 77 72 78 73 79 52 80 53 81 61 82 54 83 60 84 55 85
REMARK SMILES IDX 56 86 57 87 58 88 59 89
REMARK H PARENT 14 21 80 45 50 56
REMARK Flexibility Score: inf
ROOT
ATOM      1  C   UNL A   1      33.396  29.849  26.332  1.00  0.00     0.188 C 
ENDROOT
BRANCH   1   2
ATOM      2  C   UNL A   1      31.996  29.961  25.707  1.00  0.00     0.188 C 
BRANCH   2   3
ATOM      3  O   UNL A   1      31.849  29.238  24.503  1.00  0.00    -0.376 OA
BRANCH   3   4
ATOM      4  C   UNL A   1      30.546  29.123  23.977  1.00  0.00     0.202 C 
BRANCH   4   5
ATOM      5  C   UNL A   1      30.299  27.911  23.082  1.00  0.00     0.261 C 
BRANCH   5   6
ATOM      6  O   UNL A   1      31.385  27.441  22.252  1.00  0.00    -0.462 OA
BRANCH   6   7
ATOM      7  C   UNL A   1      31.753  26.188  21.905  1.00  0.00     0.325 C 
ATOM      8  O   UNL A   1      32.049  25.964  20.729  1.00  0.00    -0.250 OA
BRANCH   7   9
ATOM      9  C   UNL A   1      31.590  25.028  22.877  1.00  0.00     0.245 C 
BRANCH   9  10
ATOM     10  N   UNL A   1      32.793  24.454  23.422  1.00  0.00    -0.298 N 
ATOM     11  C   UNL A   1      33.694  23.711  22.686  1.00  0.00     0.257 C 
ATOM     12  C   UNL A   1      33.355  24.966  24.641  1.00  0.00     0.247 C 
ATOM     13  O   UNL A   1      33.562  23.241  21.572  1.00  0.00    -0.269 OA
ATOM     14  C   UNL A   1      34.886  23.561  23.519  1.00  0.00     0.047 A 
ATOM     15  C   UNL A   1      34.674  24.276  24.696  1.00  0.00     0.014 A 
ATOM     16  C   UNL A   1      36.045  22.860  23.265  1.00  0.00     0.014 A 
ATOM     17  C   UNL A   1      35.634  24.294  25.688  1.00  0.00     0.009 A 
ATOM     18  C   UNL A   1      37.025  22.883  24.257  1.00  0.00     0.001 A 
ATOM     19  C   UNL A   1      36.818  23.589  25.459  1.00  0.00     0.001 A 
BRANCH  12  20
ATOM     20  O   UNL A   1      32.513  24.609  25.707  1.00  0.00    -0.369 OA
ATOM     21  H   UNL A   1      32.240  23.683  25.608  1.00  0.00     0.213 HD
ENDBRANCH  12  20
ENDBRANCH   9  10
ENDBRANCH   7   9
ENDBRANCH   6   7
ENDBRANCH   5   6
ENDBRANCH   4   5
ENDBRANCH   3   4
ENDBRANCH   2   3
ENDBRANCH   1   2
BRANCH   1  22
ATOM     22  O   UNL A   1      33.650  30.410  27.614  1.00  0.00    -0.376 OA
BRANCH  22  23
ATOM     23  C   UNL A   1      33.885  31.804  27.732  1.00  0.00     0.202 C 
BRANCH  23  24
ATOM     24  C   UNL A   1      34.791  32.335  28.863  1.00  0.00     0.261 C 
BRANCH  24  25
ATOM     25  O   UNL A   1      36.210  32.101  28.732  1.00  0.00    -0.460 OA
BRANCH  25  26
ATOM     26  C   UNL A   1      36.839  31.629  29.839  1.00  0.00     0.338 C 
ATOM     27  O   UNL A   1      36.463  31.752  30.994  1.00  0.00    -0.246 OA
BRANCH  26  28
ATOM     28  C   UNL A   1      37.992  30.762  29.482  1.00  0.00     0.060 A 
ATOM     29  C   UNL A   1      39.026  30.623  30.420  1.00  0.00     0.016 A 
ATOM     30  C   UNL A   1      38.114  30.169  28.223  1.00  0.00     0.016 A 
ATOM     31  C   UNL A   1      40.199  29.944  30.088  1.00  0.00     0.010 A 
ATOM     32  C   UNL A   1      39.307  29.505  27.884  1.00  0.00     0.010 A 
ATOM     33  C   UNL A   1      40.375  29.427  28.798  1.00  0.00    -0.014 A 
BRANCH  33  34
ATOM     34  C   UNL A   1      41.738  28.987  28.380  1.00  0.00     0.031 A 
ATOM     35  C   UNL A   1      42.857  30.000  28.349  1.00  0.00     0.074 A 
ATOM     36  C   UNL A   1      42.009  27.694  28.115  1.00  0.00     0.049 A 
ATOM     37  N   UNL A   1      44.124  29.831  28.069  1.00  0.00    -0.248 NA
ATOM     38  C   UNL A   1      42.497  31.388  28.681  1.00  0.00     0.031 C 
ATOM     39  C   UNL A   1      41.036  26.602  28.144  1.00  0.00     0.029 A 
ATOM     40  N   UNL A   1      43.191  27.080  27.776  1.00  0.00    -0.354 N 
ATOM     41  C   UNL A   1      44.714  31.085  28.199  1.00  0.00     0.074 A 
ATOM     42  C   UNL A   1      43.657  32.012  28.538  1.00  0.00     0.031 C 
ATOM     43  C   UNL A   1      41.661  25.453  27.831  1.00  0.00     0.029 A 
ATOM     44  C   UNL A   1      43.071  25.727  27.555  1.00  0.00     0.049 A 
ATOM     45  H   UNL A   1      44.046  27.563  27.697  1.00  0.00     0.167 HD
ATOM     46  C   UNL A   1      46.017  31.435  28.068  1.00  0.00     0.031 A 
ATOM     47  C   UNL A   1      43.984  24.815  27.161  1.00  0.00     0.031 A 
ATOM     48  C   UNL A   1      47.072  30.520  27.710  1.00  0.00     0.049 A 
ATOM     49  C   UNL A   1      45.416  25.242  26.948  1.00  0.00     0.074 A 
ATOM     50  C   UNL A   1      48.422  30.784  27.550  1.00  0.00     0.029 A 
ATOM     51  N   UNL A   1      46.899  29.168  27.453  1.00  0.00    -0.354 N 
ATOM     52  N   UNL A   1      45.958  26.428  27.099  1.00  0.00    -0.248 NA
ATOM     53  C   UNL A   1      46.363  24.199  26.528  1.00  0.00     0.031 C 
ATOM     54  C   UNL A   1      49.054  29.606  27.136  1.00  0.00     0.029 A 
ATOM     55  C   UNL A   1      48.111  28.591  27.110  1.00  0.00     0.049 A 
ATOM     56  H   UNL A   1      46.040  28.689  27.506  1.00  0.00     0.167 HD
ATOM     57  C   UNL A   1      47.312  26.267  26.814  1.00  0.00     0.074 A 
ATOM     58  C   UNL A   1      47.510  24.864  26.515  1.00  0.00     0.031 C 
ATOM     59  C   UNL A   1      48.301  27.197  26.798  1.00  0.00     0.031 A 
BRANCH  46  60
ATOM     60  C   UNL A   1      46.378  32.883  28.292  1.00  0.00    -0.014 A 
ATOM     61  C   UNL A   1      46.777  33.343  29.561  1.00  0.00     0.010 A 
ATOM     62  C   UNL A   1      46.374  33.782  27.211  1.00  0.00     0.010 A 
ATOM     63  C   UNL A   1      47.136  34.682  29.749  1.00  0.00     0.020 A 
ATOM     64  C   UNL A   1      46.761  35.114  27.388  1.00  0.00     0.020 A 
ATOM     65  C   UNL A   1      47.128  35.559  28.660  1.00  0.00     0.054 A 
BRANCH  65  66
ATOM     66  S   UNL A   1      47.637  37.279  28.927  1.00  0.00     0.124 S 
ATOM     67  O   UNL A   1      46.794  37.673  30.054  1.00  0.00    -0.237 OA
ATOM     68  O   UNL A   1      49.061  37.148  29.224  1.00  0.00    -0.237 OA
ATOM     69  O   UNL A   1      47.326  37.935  27.659  1.00  0.00    -0.744 OA
ENDBRANCH  65  66
ENDBRANCH  46  60
BRANCH  47  70
ATOM     70  C   UNL A   1      43.571  23.403  26.909  1.00  0.00    -0.014 A 
ATOM     71  C   UNL A   1      43.513  22.879  25.605  1.00  0.00     0.010 A 
ATOM     72  C   UNL A   1      43.205  22.578  27.990  1.00  0.00     0.010 A 
ATOM     73  C   UNL A   1      43.075  21.568  25.386  1.00  0.00     0.020 A 
ATOM     74  C   UNL A   1      42.802  21.257  27.777  1.00  0.00     0.020 A 
ATOM     75  C   UNL A   1      42.726  20.764  26.475  1.00  0.00     0.054 A 
BRANCH  75  76
ATOM     76  S   UNL A   1      42.205  19.051  26.172  1.00  0.00     0.124 S 
ATOM     77  O   UNL A   1      43.101  18.647  25.094  1.00  0.00    -0.237 OA
ATOM     78  O   UNL A   1      42.443  18.417  27.467  1.00  0.00    -0.237 OA
ATOM     79  O   UNL A   1      40.797  19.182  25.802  1.00  0.00    -0.744 OA
ENDBRANCH  75  76
ENDBRANCH  47  70
BRANCH  59  80
ATOM     80  C   UNL A   1      49.695  26.717  26.472  1.00  0.00    -0.014 A 
ATOM     81  C   UNL A   1      50.198  26.758  25.158  1.00  0.00     0.010 A 
ATOM     82  C   UNL A   1      50.522  26.227  27.500  1.00  0.00     0.010 A 
ATOM     83  C   UNL A   1      51.471  26.257  24.870  1.00  0.00     0.020 A 
ATOM     84  C   UNL A   1      51.809  25.759  27.222  1.00  0.00     0.020 A 
ATOM     85  C   UNL A   1      52.266  25.753  25.903  1.00  0.00     0.054 A 
BRANCH  85  86
ATOM     86  S   UNL A   1      53.911  25.102  25.501  1.00  0.00     0.124 S 
ATOM     87  O   UNL A   1      54.495  24.913  26.826  1.00  0.00    -0.237 OA
ATOM     88  O   UNL A   1      53.601  23.877  24.770  1.00  0.00    -0.237 OA
ATOM     89  O   UNL A   1      54.518  26.163  24.699  1.00  0.00    -0.744 OA
ENDBRANCH  85  86
ENDBRANCH  59  80
ENDBRANCH  33  34
ENDBRANCH  26  28
ENDBRANCH  25  26
ENDBRANCH  24  25
ENDBRANCH  23  24
ENDBRANCH  22  23
ENDBRANCH   1  22
TORSDOF 22
ENDMDL
MODEL 3
REMARK VINA RESULT:      -8.8      4.891      5.816
REMARK SMILES O=C(CN1C(=O)c2ccccc2[C@@H]1O)OCCOCCOCCOC(=O)c1ccc(-c2c3nc(c(-c4ccc(S(=O)(=O)[O-])cc4)c4ccc([nH]4)c(-c4ccc(S(=O)(=O)[O-])cc4)c4nc(c(-c5ccc(S(=O)(=O)[O-])cc5)c5ccc2[nH]5)C=C4)C=C3)cc1
REMARK SMILES IDX 20 1 19 2 18 3 17 4 16 5 15 6 2 7 1 8 3 9 4 10 5 11 13 12
REMARK SMILES IDX 6 13 7 14 12 15 8 16 11 17 9 18 10 19 14 20 21 22 22 23
REMARK SMILES IDX 23 24 24 25 25 26 26 27 27 28 28 29 86 30 29 31 85 32 30 33
REMARK SMILES IDX 31 34 32 35 79 36 33 37 84 38 78 39 80 40 34 41 83 42 77 43
REMARK SMILES IDX 76 44 35 46 65 47 46 48 64 49 47 50 50 51 63 52 81 53 48 54
REMARK SMILES IDX 49 55 62 57 82 58 51 59 36 60 37 61 45 62 38 63 44 64 39 65
REMARK SMILES IDX 40 66 41 67 42 68 43 69 66 70 67 71 75 72 68 73 74 74 69 75
REMARK SMILES IDX 70 76 71 77 72 78 73 79 52 80 53 81 61 82 54 83 60 84 55 85
REMARK SMILES IDX 56 86 57 87 58 88 59 89
REMARK H PARENT 14 21 80 45 50 56
REMARK Flexibility Score: inf
ROOT
ATOM      1  C   UNL A   1      42.303  18.569  26.436  1.00  0.00     0.188 C 
ENDROOT
BRANCH   1   2
ATOM      2  C   UNL A   1      43.751  18.648  25.924  1.00  0.00     0.188 C 
BRANCH   2   3
ATOM      3  O   UNL A   1      43.853  18.889  24.536  1.00  0.00    -0.376 OA
BRANCH   3   4
ATOM      4  C   UNL A   1      45.139  19.152  24.023  1.00  0.00     0.202 C 
BRANCH   4   5
ATOM      5  C   UNL A   1      45.895  20.300  24.691  1.00  0.00     0.261 C 
BRANCH   5   6
ATOM      6  O   UNL A   1      45.834  21.607  24.078  1.00  0.00    -0.462 OA
BRANCH   6   7
ATOM      7  C   UNL A   1      44.780  22.402  23.797  1.00  0.00     0.325 C 
ATOM      8  O   UNL A   1      44.156  22.209  22.751  1.00  0.00    -0.250 OA
BRANCH   7   9
ATOM      9  C   UNL A   1      44.499  23.649  24.624  1.00  0.00     0.245 C 
BRANCH   9  10
ATOM     10  N   UNL A   1      45.473  24.011  25.621  1.00  0.00    -0.298 N 
ATOM     11  C   UNL A   1      46.607  24.752  25.357  1.00  0.00     0.257 C 
ATOM     12  C   UNL A   1      45.125  24.001  27.015  1.00  0.00     0.247 C 
ATOM     13  O   UNL A   1      47.092  25.042  24.279  1.00  0.00    -0.269 OA
ATOM     14  C   UNL A   1      47.165  25.133  26.652  1.00  0.00     0.047 A 
ATOM     15  C   UNL A   1      46.306  24.658  27.641  1.00  0.00     0.014 A 
ATOM     16  C   UNL A   1      48.321  25.829  26.934  1.00  0.00     0.014 A 
ATOM     17  C   UNL A   1      46.596  24.854  28.976  1.00  0.00     0.009 A 
ATOM     18  C   UNL A   1      48.615  26.042  28.281  1.00  0.00     0.001 A 
ATOM     19  C   UNL A   1      47.764  25.554  29.291  1.00  0.00     0.001 A 
BRANCH  12  20
ATOM     20  O   UNL A   1      44.965  22.668  27.427  1.00  0.00    -0.369 OA
ATOM     21  H   UNL A   1      44.787  22.109  26.653  1.00  0.00     0.213 HD
ENDBRANCH  12  20
ENDBRANCH   9  10
ENDBRANCH   7   9
ENDBRANCH   6   7
ENDBRANCH   5   6
ENDBRANCH   4   5
ENDBRANCH   3   4
ENDBRANCH   2   3
ENDBRANCH   1   2
BRANCH   1  22
ATOM     22  O   UNL A   1      41.248  19.141  25.673  1.00  0.00    -0.376 OA
BRANCH  22  23
ATOM     23  C   UNL A   1      40.413  20.125  26.263  1.00  0.00     0.202 C 
BRANCH  23  24
ATOM     24  C   UNL A   1      41.006  21.491  26.668  1.00  0.00     0.261 C 
BRANCH  24  25
ATOM     25  O   UNL A   1      40.189  22.341  27.501  1.00  0.00    -0.460 OA
BRANCH  25  26
ATOM     26  C   UNL A   1      39.649  23.428  26.892  1.00  0.00     0.338 C 
ATOM     27  O   UNL A   1      38.580  23.473  26.305  1.00  0.00    -0.246 OA
BRANCH  26  28
ATOM     28  C   UNL A   1      40.441  24.655  27.168  1.00  0.00     0.060 A 
ATOM     29  C   UNL A   1      41.152  24.722  28.375  1.00  0.00     0.016 A 
ATOM     30  C   UNL A   1      40.421  25.760  26.314  1.00  0.00     0.016 A 
ATOM     31  C   UNL A   1      41.794  25.901  28.758  1.00  0.00     0.010 A 
ATOM     32  C   UNL A   1      41.050  26.954  26.712  1.00  0.00     0.010 A 
ATOM     33  C   UNL A   1      41.702  27.047  27.958  1.00  0.00    -0.014 A 
BRANCH  33  34
ATOM     34  C   UNL A   1      42.126  28.358  28.528  1.00  0.00     0.031 A 
ATOM     35  C   UNL A   1      43.594  28.709  28.540  1.00  0.00     0.074 A 
ATOM     36  C   UNL A   1      41.224  29.266  28.950  1.00  0.00     0.049 A 
ATOM     37  N   UNL A   1      44.183  29.810  28.937  1.00  0.00    -0.248 NA
ATOM     38  C   UNL A   1      44.521  27.684  28.034  1.00  0.00     0.031 C 
ATOM     39  C   UNL A   1      39.775  29.079  28.959  1.00  0.00     0.029 A 
ATOM     40  N   UNL A   1      41.401  30.536  29.445  1.00  0.00    -0.354 N 
ATOM     41  C   UNL A   1      45.544  29.613  28.721  1.00  0.00     0.074 A 
ATOM     42  C   UNL A   1      45.697  28.272  28.203  1.00  0.00     0.031 C 
ATOM     43  C   UNL A   1      39.194  30.192  29.441  1.00  0.00     0.029 A 
ATOM     44  C   UNL A   1      40.227  31.162  29.798  1.00  0.00     0.049 A 
ATOM     45  H   UNL A   1      42.285  30.960  29.540  1.00  0.00     0.167 HD
ATOM     46  C   UNL A   1      46.573  30.472  28.919  1.00  0.00     0.031 A 
ATOM     47  C   UNL A   1      40.008  32.370  30.358  1.00  0.00     0.031 A 
ATOM     48  C   UNL A   1      46.431  31.802  29.455  1.00  0.00     0.049 A 
ATOM     49  C   UNL A   1      41.178  33.282  30.639  1.00  0.00     0.074 A 
ATOM     50  C   UNL A   1      47.418  32.744  29.693  1.00  0.00     0.029 A 
ATOM     51  N   UNL A   1      45.230  32.380  29.839  1.00  0.00    -0.354 N 
ATOM     52  N   UNL A   1      42.455  33.087  30.406  1.00  0.00    -0.248 NA
ATOM     53  C   UNL A   1      40.872  34.587  31.242  1.00  0.00     0.031 C 
ATOM     54  C   UNL A   1      46.821  33.867  30.280  1.00  0.00     0.029 A 
ATOM     55  C   UNL A   1      45.453  33.653  30.337  1.00  0.00     0.049 A 
ATOM     56  H   UNL A   1      44.348  31.947  29.769  1.00  0.00     0.167 HD
ATOM     57  C   UNL A   1      43.099  34.252  30.814  1.00  0.00     0.074 A 
ATOM     58  C   UNL A   1      42.068  35.158  31.275  1.00  0.00     0.031 C 
ATOM     59  C   UNL A   1      44.425  34.546  30.810  1.00  0.00     0.031 A 
BRANCH  46  60
ATOM     60  C   UNL A   1      47.961  29.991  28.571  1.00  0.00    -0.014 A 
ATOM     61  C   UNL A   1      48.831  29.504  29.563  1.00  0.00     0.010 A 
ATOM     62  C   UNL A   1      48.380  29.972  27.228  1.00  0.00     0.010 A 
ATOM     63  C   UNL A   1      50.105  29.036  29.223  1.00  0.00     0.020 A 
ATOM     64  C   UNL A   1      49.641  29.477  26.880  1.00  0.00     0.020 A 
ATOM     65  C   UNL A   1      50.500  29.023  27.882  1.00  0.00     0.054 A 
BRANCH  65  66
ATOM     66  S   UNL A   1      52.142  28.372  27.468  1.00  0.00     0.124 S 
ATOM     67  O   UNL A   1      53.013  29.479  27.857  1.00  0.00    -0.237 OA
ATOM     68  O   UNL A   1      52.232  27.178  28.304  1.00  0.00    -0.237 OA
ATOM     69  O   UNL A   1      52.063  28.119  26.031  1.00  0.00    -0.744 OA
ENDBRANCH  65  66
ENDBRANCH  46  60
BRANCH  47  70
ATOM     70  C   UNL A   1      38.623  32.785  30.726  1.00  0.00    -0.014 A 
ATOM     71  C   UNL A   1      38.100  32.536  32.007  1.00  0.00     0.010 A 
ATOM     72  C   UNL A   1      37.805  33.414  29.768  1.00  0.00     0.010 A 
ATOM     73  C   UNL A   1      36.780  32.888  32.316  1.00  0.00     0.020 A 
ATOM     74  C   UNL A   1      36.499  33.799  30.084  1.00  0.00     0.020 A 
ATOM     75  C   UNL A   1      35.989  33.521  31.352  1.00  0.00     0.054 A 
BRANCH  75  76
ATOM     76  S   UNL A   1      34.297  34.011  31.788  1.00  0.00     0.124 S 
ATOM     77  O   UNL A   1      34.515  35.275  32.483  1.00  0.00    -0.237 OA
ATOM     78  O   UNL A   1      33.651  34.108  30.481  1.00  0.00    -0.237 OA
ATOM     79  O   UNL A   1      33.826  32.909  32.624  1.00  0.00    -0.744 OA
ENDBRANCH  75  76
ENDBRANCH  47  70
BRANCH  59  80
ATOM     80  C   UNL A   1      44.831  35.916  31.296  1.00  0.00    -0.014 A 
ATOM     81  C   UNL A   1      44.990  36.193  32.667  1.00  0.00     0.010 A 
ATOM     82  C   UNL A   1      45.069  36.944  30.363  1.00  0.00     0.010 A 
ATOM     83  C   UNL A   1      45.312  37.484  33.096  1.00  0.00     0.020 A 
ATOM     84  C   UNL A   1      45.427  38.227  30.788  1.00  0.00     0.020 A 
ATOM     85  C   UNL A   1      45.521  38.495  32.154  1.00  0.00     0.054 A 
BRANCH  85  86
ATOM     86  S   UNL A   1      45.930  40.163  32.739  1.00  0.00     0.124 S 
ATOM     87  O   UNL A   1      44.826  40.953  32.201  1.00  0.00    -0.237 OA
ATOM     88  O   UNL A   1      45.939  40.000  34.190  1.00  0.00    -0.237 OA
ATOM     89  O   UNL A   1      47.236  40.431  32.140  1.00  0.00    -0.744 OA
ENDBRANCH  85  86
ENDBRANCH  59  80
ENDBRANCH  33  34
ENDBRANCH  26  28
ENDBRANCH  25  26
ENDBRANCH  24  25
ENDBRANCH  23  24
ENDBRANCH  22  23
ENDBRANCH   1  22
TORSDOF 22
ENDMDL
