MODEL 1
REMARK VINA RESULT:     -10.8      0.000      0.000
REMARK SMILES CC1(C)Oc2ccc(NC(=O)[C@H]3CC=CC[C@@H]3C(=O)OCCOCCOCCOC(=O)c3ccc(-c4c5nc(c(-c6ccc(S(=O)(=O)[O-])cc6)c6ccc([nH]6)c(-c6ccc(S(=O)(=O)[O-])cc6)c6nc(c(-c7ccc(S(=O)(=O)[O-])cc7)c7ccc4[nH]7)C=C6)C=C5)cc3)cc2NC1=O
REMARK SMILES IDX 25 1 24 2 23 3 22 4 21 5 20 6 18 7 19 8 17 9 12 10 13 11
REMARK SMILES IDX 14 12 16 13 15 14 10 15 9 16 11 18 8 19 1 20 2 21 3 22 4 23
REMARK SMILES IDX 95 24 5 25 94 26 96 27 6 28 93 29 7 31 92 32 26 33 27 34
REMARK SMILES IDX 28 35 29 36 30 37 31 38 32 39 33 40 91 41 34 42 90 43 35 44
REMARK SMILES IDX 36 45 37 46 84 47 38 48 89 49 83 50 85 51 39 52 88 53 82 54
REMARK SMILES IDX 81 55 40 57 70 58 51 59 69 60 52 61 55 62 68 63 86 64 53 65
REMARK SMILES IDX 54 66 67 68 87 69 56 70 41 71 42 72 50 73 43 74 49 75 44 76
REMARK SMILES IDX 45 77 46 78 47 79 48 80 71 81 72 82 80 83 73 84 79 85 74 86
REMARK SMILES IDX 75 87 76 88 77 89 78 90 57 91 58 92 66 93 59 94 65 95 60 96
REMARK SMILES IDX 61 97 62 98 63 99 64 100
REMARK H PARENT 9 17 94 30 85 56 55 67
REMARK Flexibility Score: inf
ROOT
ATOM      1  C   UNL A   1      40.783  22.250  26.995  1.00  0.00     0.188 C 
ENDROOT
BRANCH   1   2
ATOM      2  C   UNL A   1      39.439  22.470  26.291  1.00  0.00     0.188 C 
BRANCH   2   3
ATOM      3  O   UNL A   1      38.641  21.335  25.972  1.00  0.00    -0.376 OA
BRANCH   3   4
ATOM      4  C   UNL A   1      37.512  21.475  25.120  1.00  0.00     0.202 C 
BRANCH   4   5
ATOM      5  C   UNL A   1      36.373  22.408  25.564  1.00  0.00     0.261 C 
BRANCH   5   6
ATOM      6  O   UNL A   1      36.210  23.635  24.806  1.00  0.00    -0.463 OA
BRANCH   6   7
ATOM      7  C   UNL A   1      35.413  23.560  23.706  1.00  0.00     0.310 C 
ATOM      8  O   UNL A   1      35.736  22.979  22.675  1.00  0.00    -0.252 OA
BRANCH   7   9
ATOM      9  C   UNL A   1      34.043  24.247  23.829  1.00  0.00     0.116 C 
ATOM     10  C   UNL A   1      33.026  24.163  22.653  1.00  0.00     0.097 C 
ATOM     11  C   UNL A   1      32.945  25.415  21.754  1.00  0.00     0.041 C 
ATOM     12  C   UNL A   1      33.065  26.702  22.496  1.00  0.00    -0.030 C 
ATOM     13  C   UNL A   1      34.195  25.642  24.465  1.00  0.00     0.043 C 
ATOM     14  C   UNL A   1      33.592  26.788  23.722  1.00  0.00    -0.030 C 
BRANCH  10  15
ATOM     15  C   UNL A   1      31.626  23.870  23.215  1.00  0.00     0.228 C 
ATOM     16  N   UNL A   1      31.356  22.792  24.006  1.00  0.00    -0.326 N 
ATOM     17  H   UNL A   1      30.437  22.795  24.359  1.00  0.00     0.169 HD
ATOM     18  O   UNL A   1      30.670  24.629  23.017  1.00  0.00    -0.274 OA
BRANCH  16  19
ATOM     19  C   UNL A   1      32.098  21.679  24.426  1.00  0.00     0.043 A 
ATOM     20  C   UNL A   1      34.903  16.081  25.212  1.00  0.00     0.067 C 
ATOM     21  C   UNL A   1      33.734  17.003  24.870  1.00  0.00     0.182 C 
ATOM     22  C   UNL A   1      32.412  16.330  25.278  1.00  0.00     0.067 C 
ATOM     23  O   UNL A   1      33.935  18.166  25.678  1.00  0.00    -0.476 OA
ATOM     24  C   UNL A   1      33.675  17.253  23.345  1.00  0.00     0.268 C 
ATOM     25  C   UNL A   1      33.341  19.298  25.204  1.00  0.00     0.144 A 
ATOM     26  N   UNL A   1      33.028  18.410  22.987  1.00  0.00    -0.319 N 
ATOM     27  O   UNL A   1      34.075  16.465  22.491  1.00  0.00    -0.270 OA
ATOM     28  C   UNL A   1      33.336  20.382  26.061  1.00  0.00     0.051 A 
ATOM     29  C   UNL A   1      32.819  19.428  23.918  1.00  0.00     0.086 A 
ATOM     30  H   UNL A   1      32.707  18.522  22.063  1.00  0.00     0.170 HD
ATOM     31  C   UNL A   1      32.761  21.580  25.649  1.00  0.00     0.030 A 
ATOM     32  C   UNL A   1      32.169  20.601  23.536  1.00  0.00     0.056 A 
ENDBRANCH  16  19
ENDBRANCH  10  15
ENDBRANCH   7   9
ENDBRANCH   6   7
ENDBRANCH   5   6
ENDBRANCH   4   5
ENDBRANCH   3   4
ENDBRANCH   2   3
ENDBRANCH   1   2
BRANCH   1  33
ATOM     33  O   UNL A   1      41.626  21.358  26.302  1.00  0.00    -0.376 OA
BRANCH  33  34
ATOM     34  C   UNL A   1      41.715  20.031  26.772  1.00  0.00     0.202 C 
BRANCH  34  35
ATOM     35  C   UNL A   1      42.605  19.051  25.994  1.00  0.00     0.261 C 
BRANCH  35  36
ATOM     36  O   UNL A   1      43.087  19.480  24.709  1.00  0.00    -0.460 OA
BRANCH  36  37
ATOM     37  C   UNL A   1      44.422  19.630  24.554  1.00  0.00     0.338 C 
ATOM     38  O   UNL A   1      45.195  18.813  24.074  1.00  0.00    -0.246 OA
BRANCH  37  39
ATOM     39  C   UNL A   1      44.746  21.048  24.840  1.00  0.00     0.060 A 
ATOM     40  C   UNL A   1      44.551  22.039  23.880  1.00  0.00     0.016 A 
ATOM     41  C   UNL A   1      45.293  21.382  26.084  1.00  0.00     0.016 A 
ATOM     42  C   UNL A   1      44.895  23.364  24.179  1.00  0.00     0.010 A 
ATOM     43  C   UNL A   1      45.657  22.700  26.376  1.00  0.00     0.010 A 
ATOM     44  C   UNL A   1      45.445  23.710  25.431  1.00  0.00    -0.014 A 
BRANCH  44  45
ATOM     45  C   UNL A   1      45.613  25.141  25.801  1.00  0.00     0.031 A 
ATOM     46  C   UNL A   1      44.482  25.980  26.324  1.00  0.00     0.074 A 
ATOM     47  C   UNL A   1      46.834  25.690  25.641  1.00  0.00     0.049 A 
ATOM     48  N   UNL A   1      44.530  27.189  26.823  1.00  0.00    -0.248 NA
ATOM     49  C   UNL A   1      43.130  25.404  26.272  1.00  0.00     0.031 C 
ATOM     50  C   UNL A   1      47.989  24.991  25.074  1.00  0.00     0.029 A 
ATOM     51  N   UNL A   1      47.318  26.935  25.954  1.00  0.00    -0.354 N 
ATOM     52  C   UNL A   1      43.224  27.513  27.173  1.00  0.00     0.074 A 
ATOM     53  C   UNL A   1      42.397  26.394  26.772  1.00  0.00     0.031 C 
ATOM     54  C   UNL A   1      49.060  25.795  25.134  1.00  0.00     0.029 A 
ATOM     55  C   UNL A   1      48.665  27.077  25.713  1.00  0.00     0.049 A 
ATOM     56  H   UNL A   1      46.756  27.658  26.316  1.00  0.00     0.167 HD
ATOM     57  C   UNL A   1      42.771  28.628  27.797  1.00  0.00     0.031 A 
ATOM     58  C   UNL A   1      49.504  28.107  25.948  1.00  0.00     0.031 A 
ATOM     59  C   UNL A   1      43.613  29.740  28.174  1.00  0.00     0.049 A 
ATOM     60  C   UNL A   1      48.977  29.338  26.630  1.00  0.00     0.074 A 
ATOM     61  C   UNL A   1      43.256  30.884  28.869  1.00  0.00     0.029 A 
ATOM     62  N   UNL A   1      44.965  29.859  27.886  1.00  0.00    -0.354 N 
ATOM     63  N   UNL A   1      47.764  29.576  27.068  1.00  0.00    -0.248 NA
ATOM     64  C   UNL A   1      49.929  30.431  26.870  1.00  0.00     0.031 C 
ATOM     65  C   UNL A   1      44.365  31.729  28.923  1.00  0.00     0.029 A 
ATOM     66  C   UNL A   1      45.443  31.075  28.349  1.00  0.00     0.049 A 
ATOM     67  H   UNL A   1      45.505  29.180  27.421  1.00  0.00     0.167 HD
ATOM     68  C   UNL A   1      47.810  30.837  27.652  1.00  0.00     0.074 A 
ATOM     69  C   UNL A   1      49.177  31.303  27.532  1.00  0.00     0.031 C 
ATOM     70  C   UNL A   1      46.806  31.542  28.227  1.00  0.00     0.031 A 
BRANCH  57  71
ATOM     71  C   UNL A   1      41.307  28.717  28.162  1.00  0.00    -0.014 A 
ATOM     72  C   UNL A   1      40.346  29.018  27.176  1.00  0.00     0.010 A 
ATOM     73  C   UNL A   1      40.902  28.673  29.509  1.00  0.00     0.010 A 
ATOM     74  C   UNL A   1      39.026  29.317  27.531  1.00  0.00     0.020 A 
ATOM     75  C   UNL A   1      39.576  28.940  29.866  1.00  0.00     0.020 A 
ATOM     76  C   UNL A   1      38.653  29.287  28.877  1.00  0.00     0.054 A 
BRANCH  76  77
ATOM     77  S   UNL A   1      36.952  29.734  29.324  1.00  0.00     0.124 S 
ATOM     78  O   UNL A   1      36.204  29.341  28.134  1.00  0.00    -0.237 OA
ATOM     79  O   UNL A   1      36.714  28.924  30.517  1.00  0.00    -0.237 OA
ATOM     80  O   UNL A   1      37.027  31.173  29.567  1.00  0.00    -0.744 OA
ENDBRANCH  76  77
ENDBRANCH  57  71
BRANCH  58  81
ATOM     81  C   UNL A   1      50.944  27.958  25.595  1.00  0.00    -0.014 A 
ATOM     82  C   UNL A   1      51.372  28.124  24.263  1.00  0.00     0.010 A 
ATOM     83  C   UNL A   1      51.875  27.539  26.561  1.00  0.00     0.010 A 
ATOM     84  C   UNL A   1      52.680  27.803  23.892  1.00  0.00     0.020 A 
ATOM     85  C   UNL A   1      53.196  27.253  26.201  1.00  0.00     0.020 A 
ATOM     86  C   UNL A   1      53.579  27.354  24.862  1.00  0.00     0.054 A 
BRANCH  86  87
ATOM     87  S   UNL A   1      55.247  26.869  24.339  1.00  0.00     0.124 S 
ATOM     88  O   UNL A   1      55.312  25.483  24.796  1.00  0.00    -0.237 OA
ATOM     89  O   UNL A   1      55.192  27.054  22.893  1.00  0.00    -0.237 OA
ATOM     90  O   UNL A   1      56.116  27.803  25.053  1.00  0.00    -0.744 OA
ENDBRANCH  86  87
ENDBRANCH  58  81
BRANCH  70  91
ATOM     91  C   UNL A   1      47.113  32.914  28.777  1.00  0.00    -0.014 A 
ATOM     92  C   UNL A   1      47.438  33.069  30.138  1.00  0.00     0.010 A 
ATOM     93  C   UNL A   1      46.923  34.064  27.989  1.00  0.00     0.010 A 
ATOM     94  C   UNL A   1      47.512  34.339  30.714  1.00  0.00     0.020 A 
ATOM     95  C   UNL A   1      47.032  35.340  28.552  1.00  0.00     0.020 A 
ATOM     96  C   UNL A   1      47.292  35.468  29.918  1.00  0.00     0.054 A 
BRANCH  96  97
ATOM     97  S   UNL A   1      47.319  37.105  30.700  1.00  0.00     0.124 S 
ATOM     98  O   UNL A   1      46.582  36.867  31.937  1.00  0.00    -0.237 OA
ATOM     99  O   UNL A   1      48.749  37.361  30.857  1.00  0.00    -0.237 OA
ATOM    100  O   UNL A   1      46.644  37.962  29.727  1.00  0.00    -0.744 OA
ENDBRANCH  96  97
ENDBRANCH  70  91
ENDBRANCH  44  45
ENDBRANCH  37  39
ENDBRANCH  36  37
ENDBRANCH  35  36
ENDBRANCH  34  35
ENDBRANCH  33  34
ENDBRANCH   1  33
TORSDOF 22
ENDMDL
MODEL 2
REMARK VINA RESULT:     -10.7      6.947     12.295
REMARK SMILES CC1(C)Oc2ccc(NC(=O)[C@H]3CC=CC[C@@H]3C(=O)OCCOCCOCCOC(=O)c3ccc(-c4c5nc(c(-c6ccc(S(=O)(=O)[O-])cc6)c6ccc([nH]6)c(-c6ccc(S(=O)(=O)[O-])cc6)c6nc(c(-c7ccc(S(=O)(=O)[O-])cc7)c7ccc4[nH]7)C=C6)C=C5)cc3)cc2NC1=O
REMARK SMILES IDX 25 1 24 2 23 3 22 4 21 5 20 6 18 7 19 8 17 9 12 10 13 11
REMARK SMILES IDX 14 12 16 13 15 14 10 15 9 16 11 18 8 19 1 20 2 21 3 22 4 23
REMARK SMILES IDX 95 24 5 25 94 26 96 27 6 28 93 29 7 31 92 32 26 33 27 34
REMARK SMILES IDX 28 35 29 36 30 37 31 38 32 39 33 40 91 41 34 42 90 43 35 44
REMARK SMILES IDX 36 45 37 46 84 47 38 48 89 49 83 50 85 51 39 52 88 53 82 54
REMARK SMILES IDX 81 55 40 57 70 58 51 59 69 60 52 61 55 62 68 63 86 64 53 65
REMARK SMILES IDX 54 66 67 68 87 69 56 70 41 71 42 72 50 73 43 74 49 75 44 76
REMARK SMILES IDX 45 77 46 78 47 79 48 80 71 81 72 82 80 83 73 84 79 85 74 86
REMARK SMILES IDX 75 87 76 88 77 89 78 90 57 91 58 92 66 93 59 94 65 95 60 96
REMARK SMILES IDX 61 97 62 98 63 99 64 100
REMARK H PARENT 9 17 94 30 85 56 55 67
REMARK Flexibility Score: inf
ROOT
ATOM      1  C   UNL A   1      34.863  33.270  28.066  1.00  0.00     0.188 C 
ENDROOT
BRANCH   1   2
ATOM      2  C   UNL A   1      34.481  31.866  28.547  1.00  0.00     0.188 C 
BRANCH   2   3
ATOM      3  O   UNL A   1      35.429  30.814  28.406  1.00  0.00    -0.376 OA
BRANCH   3   4
ATOM      4  C   UNL A   1      35.277  29.851  27.371  1.00  0.00     0.202 C 
BRANCH   4   5
ATOM      5  C   UNL A   1      33.865  29.329  27.061  1.00  0.00     0.261 C 
BRANCH   5   6
ATOM      6  O   UNL A   1      33.752  27.914  26.757  1.00  0.00    -0.463 OA
BRANCH   6   7
ATOM      7  C   UNL A   1      32.536  27.490  26.317  1.00  0.00     0.310 C 
ATOM      8  O   UNL A   1      31.503  28.136  26.456  1.00  0.00    -0.252 OA
BRANCH   7   9
ATOM      9  C   UNL A   1      32.524  26.127  25.606  1.00  0.00     0.116 C 
ATOM     10  C   UNL A   1      31.324  25.157  25.811  1.00  0.00     0.097 C 
ATOM     11  C   UNL A   1      31.565  24.003  26.807  1.00  0.00     0.041 C 
ATOM     12  C   UNL A   1      32.940  23.427  26.746  1.00  0.00    -0.030 C 
ATOM     13  C   UNL A   1      33.916  25.471  25.674  1.00  0.00     0.043 C 
ATOM     14  C   UNL A   1      33.976  24.076  26.205  1.00  0.00    -0.030 C 
BRANCH  10  15
ATOM     15  C   UNL A   1      30.920  24.558  24.454  1.00  0.00     0.228 C 
ATOM     16  N   UNL A   1      30.663  25.322  23.355  1.00  0.00    -0.326 N 
ATOM     17  H   UNL A   1      30.507  24.788  22.543  1.00  0.00     0.169 HD
ATOM     18  O   UNL A   1      30.851  23.336  24.273  1.00  0.00    -0.274 OA
BRANCH  16  19
ATOM     19  C   UNL A   1      30.569  26.702  23.125  1.00  0.00     0.043 A 
ATOM     20  C   UNL A   1      28.819  32.713  22.321  1.00  0.00     0.067 C 
ATOM     21  C   UNL A   1      28.675  31.200  22.162  1.00  0.00     0.182 C 
ATOM     22  C   UNL A   1      27.998  30.886  20.816  1.00  0.00     0.067 C 
ATOM     23  O   UNL A   1      30.015  30.703  22.139  1.00  0.00    -0.476 OA
ATOM     24  C   UNL A   1      27.771  30.626  23.279  1.00  0.00     0.268 C 
ATOM     25  C   UNL A   1      30.145  29.396  22.504  1.00  0.00     0.144 A 
ATOM     26  N   UNL A   1      27.973  29.293  23.540  1.00  0.00    -0.319 N 
ATOM     27  O   UNL A   1      26.875  31.250  23.842  1.00  0.00    -0.270 OA
ATOM     28  C   UNL A   1      31.387  28.828  22.290  1.00  0.00     0.051 A 
ATOM     29  C   UNL A   1      29.141  28.654  23.124  1.00  0.00     0.086 A 
ATOM     30  H   UNL A   1      27.285  28.782  24.026  1.00  0.00     0.170 HD
ATOM     31  C   UNL A   1      31.607  27.502  22.648  1.00  0.00     0.030 A 
ATOM     32  C   UNL A   1      29.336  27.302  23.406  1.00  0.00     0.056 A 
ENDBRANCH  16  19
ENDBRANCH  10  15
ENDBRANCH   7   9
ENDBRANCH   6   7
ENDBRANCH   5   6
ENDBRANCH   4   5
ENDBRANCH   3   4
ENDBRANCH   2   3
ENDBRANCH   1   2
BRANCH   1  33
ATOM     33  O   UNL A   1      33.773  34.164  28.055  1.00  0.00    -0.376 OA
BRANCH  33  34
ATOM     34  C   UNL A   1      33.876  35.343  28.822  1.00  0.00     0.202 C 
BRANCH  34  35
ATOM     35  C   UNL A   1      32.706  35.700  29.752  1.00  0.00     0.261 C 
BRANCH  35  36
ATOM     36  O   UNL A   1      33.035  36.210  31.055  1.00  0.00    -0.460 OA
BRANCH  36  37
ATOM     37  C   UNL A   1      32.889  35.379  32.112  1.00  0.00     0.338 C 
ATOM     38  O   UNL A   1      31.838  35.074  32.658  1.00  0.00    -0.246 OA
BRANCH  37  39
ATOM     39  C   UNL A   1      34.194  34.712  32.338  1.00  0.00     0.060 A 
ATOM     40  C   UNL A   1      35.393  35.369  32.073  1.00  0.00     0.016 A 
ATOM     41  C   UNL A   1      34.211  33.388  32.788  1.00  0.00     0.016 A 
ATOM     42  C   UNL A   1      36.606  34.695  32.273  1.00  0.00     0.010 A 
ATOM     43  C   UNL A   1      35.419  32.706  32.968  1.00  0.00     0.010 A 
ATOM     44  C   UNL A   1      36.632  33.361  32.728  1.00  0.00    -0.014 A 
BRANCH  44  45
ATOM     45  C   UNL A   1      37.921  32.735  33.126  1.00  0.00     0.031 A 
ATOM     46  C   UNL A   1      38.645  33.105  34.389  1.00  0.00     0.074 A 
ATOM     47  C   UNL A   1      38.449  31.809  32.299  1.00  0.00     0.049 A 
ATOM     48  N   UNL A   1      39.692  32.530  34.924  1.00  0.00    -0.248 NA
ATOM     49  C   UNL A   1      38.148  34.267  35.140  1.00  0.00     0.031 C 
ATOM     50  C   UNL A   1      37.871  31.423  31.011  1.00  0.00     0.029 A 
ATOM     51  N   UNL A   1      39.562  31.015  32.417  1.00  0.00    -0.354 N 
ATOM     52  C   UNL A   1      39.966  33.237  36.090  1.00  0.00     0.074 A 
ATOM     53  C   UNL A   1      39.009  34.323  36.151  1.00  0.00     0.031 C 
ATOM     54  C   UNL A   1      38.597  30.425  30.487  1.00  0.00     0.029 A 
ATOM     55  C   UNL A   1      39.711  30.121  31.382  1.00  0.00     0.049 A 
ATOM     56  H   UNL A   1      40.192  31.078  33.171  1.00  0.00     0.167 HD
ATOM     57  C   UNL A   1      40.909  32.980  37.029  1.00  0.00     0.031 A 
ATOM     58  C   UNL A   1      40.622  29.147  31.177  1.00  0.00     0.031 A 
ATOM     59  C   UNL A   1      41.863  31.899  36.939  1.00  0.00     0.049 A 
ATOM     60  C   UNL A   1      41.665  28.888  32.226  1.00  0.00     0.074 A 
ATOM     61  C   UNL A   1      42.814  31.519  37.873  1.00  0.00     0.029 A 
ATOM     62  N   UNL A   1      42.002  31.036  35.862  1.00  0.00    -0.354 N 
ATOM     63  N   UNL A   1      41.830  29.486  33.382  1.00  0.00    -0.248 NA
ATOM     64  C   UNL A   1      42.631  27.814  31.960  1.00  0.00     0.031 C 
ATOM     65  C   UNL A   1      43.580  30.488  37.327  1.00  0.00     0.029 A 
ATOM     66  C   UNL A   1      43.050  30.156  36.090  1.00  0.00     0.049 A 
ATOM     67  H   UNL A   1      41.440  31.046  35.055  1.00  0.00     0.167 HD
ATOM     68  C   UNL A   1      42.907  28.849  33.989  1.00  0.00     0.074 A 
ATOM     69  C   UNL A   1      43.340  27.805  33.083  1.00  0.00     0.031 C 
ATOM     70  C   UNL A   1      43.484  29.116  35.186  1.00  0.00     0.031 A 
BRANCH  57  71
ATOM     71  C   UNL A   1      40.957  33.841  38.270  1.00  0.00    -0.014 A 
ATOM     72  C   UNL A   1      40.087  33.581  39.348  1.00  0.00     0.010 A 
ATOM     73  C   UNL A   1      41.740  35.009  38.300  1.00  0.00     0.010 A 
ATOM     74  C   UNL A   1      39.966  34.491  40.405  1.00  0.00     0.020 A 
ATOM     75  C   UNL A   1      41.646  35.906  39.371  1.00  0.00     0.020 A 
ATOM     76  C   UNL A   1      40.740  35.654  40.402  1.00  0.00     0.054 A 
BRANCH  76  77
ATOM     77  S   UNL A   1      40.527  36.850  41.751  1.00  0.00     0.124 S 
ATOM     78  O   UNL A   1      41.497  37.884  41.405  1.00  0.00    -0.237 OA
ATOM     79  O   UNL A   1      39.122  37.230  41.620  1.00  0.00    -0.237 OA
ATOM     80  O   UNL A   1      40.843  36.076  42.950  1.00  0.00    -0.744 OA
ENDBRANCH  76  77
ENDBRANCH  57  71
BRANCH  58  81
ATOM     81  C   UNL A   1      40.513  28.309  29.949  1.00  0.00    -0.014 A 
ATOM     82  C   UNL A   1      39.711  27.151  29.946  1.00  0.00     0.010 A 
ATOM     83  C   UNL A   1      41.296  28.597  28.818  1.00  0.00     0.010 A 
ATOM     84  C   UNL A   1      39.750  26.262  28.869  1.00  0.00     0.020 A 
ATOM     85  C   UNL A   1      41.309  27.729  27.721  1.00  0.00     0.020 A 
ATOM     86  C   UNL A   1      40.562  26.550  27.770  1.00  0.00     0.054 A 
BRANCH  86  87
ATOM     87  S   UNL A   1      40.656  25.341  26.421  1.00  0.00     0.124 S 
ATOM     88  O   UNL A   1      41.143  26.163  25.315  1.00  0.00    -0.237 OA
ATOM     89  O   UNL A   1      41.604  24.360  26.940  1.00  0.00    -0.237 OA
ATOM     90  O   UNL A   1      39.280  24.867  26.288  1.00  0.00    -0.744 OA
ENDBRANCH  86  87
ENDBRANCH  58  81
BRANCH  70  91
ATOM     91  C   UNL A   1      44.668  28.283  35.616  1.00  0.00    -0.014 A 
ATOM     92  C   UNL A   1      45.956  28.595  35.139  1.00  0.00     0.010 A 
ATOM     93  C   UNL A   1      44.485  27.102  36.358  1.00  0.00     0.010 A 
ATOM     94  C   UNL A   1      47.023  27.718  35.345  1.00  0.00     0.020 A 
ATOM     95  C   UNL A   1      45.559  26.239  36.599  1.00  0.00     0.020 A 
ATOM     96  C   UNL A   1      46.814  26.536  36.061  1.00  0.00     0.054 A 
BRANCH  96  97
ATOM     97  S   UNL A   1      48.195  25.376  36.254  1.00  0.00     0.124 S 
ATOM     98  O   UNL A   1      47.634  24.138  35.723  1.00  0.00    -0.237 OA
ATOM     99  O   UNL A   1      49.244  25.991  35.444  1.00  0.00    -0.237 OA
ATOM    100  O   UNL A   1      48.448  25.379  37.694  1.00  0.00    -0.744 OA
ENDBRANCH  96  97
ENDBRANCH  70  91
ENDBRANCH  44  45
ENDBRANCH  37  39
ENDBRANCH  36  37
ENDBRANCH  35  36
ENDBRANCH  34  35
ENDBRANCH  33  34
ENDBRANCH   1  33
TORSDOF 22
ENDMDL
MODEL 3
REMARK VINA RESULT:     -10.5      7.189     12.585
REMARK SMILES CC1(C)Oc2ccc(NC(=O)[C@H]3CC=CC[C@@H]3C(=O)OCCOCCOCCOC(=O)c3ccc(-c4c5nc(c(-c6ccc(S(=O)(=O)[O-])cc6)c6ccc([nH]6)c(-c6ccc(S(=O)(=O)[O-])cc6)c6nc(c(-c7ccc(S(=O)(=O)[O-])cc7)c7ccc4[nH]7)C=C6)C=C5)cc3)cc2NC1=O
REMARK SMILES IDX 25 1 24 2 23 3 22 4 21 5 20 6 18 7 19 8 17 9 12 10 13 11
REMARK SMILES IDX 14 12 16 13 15 14 10 15 9 16 11 18 8 19 1 20 2 21 3 22 4 23
REMARK SMILES IDX 95 24 5 25 94 26 96 27 6 28 93 29 7 31 92 32 26 33 27 34
REMARK SMILES IDX 28 35 29 36 30 37 31 38 32 39 33 40 91 41 34 42 90 43 35 44
REMARK SMILES IDX 36 45 37 46 84 47 38 48 89 49 83 50 85 51 39 52 88 53 82 54
REMARK SMILES IDX 81 55 40 57 70 58 51 59 69 60 52 61 55 62 68 63 86 64 53 65
REMARK SMILES IDX 54 66 67 68 87 69 56 70 41 71 42 72 50 73 43 74 49 75 44 76
REMARK SMILES IDX 45 77 46 78 47 79 48 80 71 81 72 82 80 83 73 84 79 85 74 86
REMARK SMILES IDX 75 87 76 88 77 89 78 90 57 91 58 92 66 93 59 94 65 95 60 96
REMARK SMILES IDX 61 97 62 98 63 99 64 100
REMARK H PARENT 9 17 94 30 85 56 55 67
REMARK Flexibility Score: inf
ROOT
ATOM      1  C   UNL A   1      34.674  32.710  29.168  1.00  0.00     0.188 C 
ENDROOT
BRANCH   1   2
ATOM      2  C   UNL A   1      35.682  31.910  28.337  1.00  0.00     0.188 C 
BRANCH   2   3
ATOM      3  O   UNL A   1      35.202  31.123  27.252  1.00  0.00    -0.376 OA
BRANCH   3   4
ATOM      4  C   UNL A   1      34.412  29.968  27.505  1.00  0.00     0.202 C 
BRANCH   4   5
ATOM      5  C   UNL A   1      33.058  29.837  26.788  1.00  0.00     0.261 C 
BRANCH   5   6
ATOM      6  O   UNL A   1      32.840  28.614  26.039  1.00  0.00    -0.463 OA
BRANCH   6   7
ATOM      7  C   UNL A   1      32.479  28.764  24.735  1.00  0.00     0.310 C 
ATOM      8  O   UNL A   1      33.284  28.943  23.827  1.00  0.00    -0.252 OA
BRANCH   7   9
ATOM      9  C   UNL A   1      30.971  28.681  24.448  1.00  0.00     0.116 C 
ATOM     10  C   UNL A   1      30.458  27.855  23.232  1.00  0.00     0.097 C 
ATOM     11  C   UNL A   1      30.081  28.677  21.982  1.00  0.00     0.041 C 
ATOM     12  C   UNL A   1      29.414  29.975  22.289  1.00  0.00    -0.030 C 
ATOM     13  C   UNL A   1      30.312  30.062  24.626  1.00  0.00     0.043 C 
ATOM     14  C   UNL A   1      29.493  30.568  23.484  1.00  0.00    -0.030 C 
BRANCH  10  15
ATOM     15  C   UNL A   1      29.237  27.027  23.663  1.00  0.00     0.228 C 
ATOM     16  N   UNL A   1      29.331  25.733  24.082  1.00  0.00    -0.326 N 
ATOM     17  H   UNL A   1      28.476  25.371  24.409  1.00  0.00     0.169 HD
ATOM     18  O   UNL A   1      28.099  27.509  23.697  1.00  0.00    -0.274 OA
BRANCH  16  19
ATOM     19  C   UNL A   1      30.377  24.802  24.149  1.00  0.00     0.043 A 
ATOM     20  C   UNL A   1      35.399  21.265  25.601  1.00  0.00     0.067 C 
ATOM     21  C   UNL A   1      34.627  22.577  25.465  1.00  0.00     0.182 C 
ATOM     22  C   UNL A   1      35.603  23.715  25.123  1.00  0.00     0.067 C 
ATOM     23  O   UNL A   1      33.743  22.371  24.360  1.00  0.00    -0.476 OA
ATOM     24  C   UNL A   1      33.944  22.939  26.805  1.00  0.00     0.268 C 
ATOM     25  C   UNL A   1      32.638  23.169  24.358  1.00  0.00     0.144 A 
ATOM     26  N   UNL A   1      32.859  23.772  26.679  1.00  0.00    -0.319 N 
ATOM     27  O   UNL A   1      34.361  22.611  27.913  1.00  0.00    -0.270 OA
ATOM     28  C   UNL A   1      31.878  23.146  23.203  1.00  0.00     0.051 A 
ATOM     29  C   UNL A   1      32.218  23.926  25.449  1.00  0.00     0.086 A 
ATOM     30  H   UNL A   1      32.530  24.265  27.465  1.00  0.00     0.170 HD
ATOM     31  C   UNL A   1      30.726  23.922  23.125  1.00  0.00     0.030 A 
ATOM     32  C   UNL A   1      31.111  24.767  25.340  1.00  0.00     0.056 A 
ENDBRANCH  16  19
ENDBRANCH  10  15
ENDBRANCH   7   9
ENDBRANCH   6   7
ENDBRANCH   5   6
ENDBRANCH   4   5
ENDBRANCH   3   4
ENDBRANCH   2   3
ENDBRANCH   1   2
BRANCH   1  33
ATOM     33  O   UNL A   1      33.884  33.578  28.388  1.00  0.00    -0.376 OA
BRANCH  33  34
ATOM     34  C   UNL A   1      34.135  34.963  28.479  1.00  0.00     0.202 C 
BRANCH  34  35
ATOM     35  C   UNL A   1      33.150  35.822  29.285  1.00  0.00     0.261 C 
BRANCH  35  36
ATOM     36  O   UNL A   1      32.507  35.200  30.411  1.00  0.00    -0.460 OA
BRANCH  36  37
ATOM     37  C   UNL A   1      32.740  35.723  31.637  1.00  0.00     0.338 C 
ATOM     38  O   UNL A   1      32.033  36.524  32.232  1.00  0.00    -0.246 OA
BRANCH  37  39
ATOM     39  C   UNL A   1      33.869  34.971  32.234  1.00  0.00     0.060 A 
ATOM     40  C   UNL A   1      33.657  33.778  32.921  1.00  0.00     0.016 A 
ATOM     41  C   UNL A   1      35.162  35.495  32.134  1.00  0.00     0.016 A 
ATOM     42  C   UNL A   1      34.747  33.111  33.495  1.00  0.00     0.010 A 
ATOM     43  C   UNL A   1      36.249  34.842  32.724  1.00  0.00     0.010 A 
ATOM     44  C   UNL A   1      36.054  33.631  33.397  1.00  0.00    -0.014 A 
BRANCH  44  45
ATOM     45  C   UNL A   1      37.217  32.812  33.833  1.00  0.00     0.031 A 
ATOM     46  C   UNL A   1      37.757  31.674  33.016  1.00  0.00     0.074 A 
ATOM     47  C   UNL A   1      37.785  33.112  35.019  1.00  0.00     0.049 A 
ATOM     48  N   UNL A   1      38.852  30.983  33.208  1.00  0.00    -0.248 NA
ATOM     49  C   UNL A   1      36.975  31.247  31.846  1.00  0.00     0.031 C 
ATOM     50  C   UNL A   1      37.299  34.149  35.931  1.00  0.00     0.029 A 
ATOM     51  N   UNL A   1      38.892  32.604  35.651  1.00  0.00    -0.354 N 
ATOM     52  C   UNL A   1      38.910  30.057  32.172  1.00  0.00     0.074 A 
ATOM     53  C   UNL A   1      37.706  30.237  31.387  1.00  0.00     0.031 C 
ATOM     54  C   UNL A   1      38.136  34.241  36.975  1.00  0.00     0.029 A 
ATOM     55  C   UNL A   1      39.200  33.251  36.825  1.00  0.00     0.049 A 
ATOM     56  H   UNL A   1      39.415  31.848  35.297  1.00  0.00     0.167 HD
ATOM     57  C   UNL A   1      39.893  29.166  31.892  1.00  0.00     0.031 A 
ATOM     58  C   UNL A   1      40.231  33.091  37.680  1.00  0.00     0.031 A 
ATOM     59  C   UNL A   1      41.079  28.994  32.699  1.00  0.00     0.049 A 
ATOM     60  C   UNL A   1      41.302  32.089  37.356  1.00  0.00     0.074 A 
ATOM     61  C   UNL A   1      42.161  28.163  32.459  1.00  0.00     0.029 A 
ATOM     62  N   UNL A   1      41.340  29.646  33.896  1.00  0.00    -0.354 N 
ATOM     63  N   UNL A   1      41.404  31.310  36.305  1.00  0.00    -0.248 NA
ATOM     64  C   UNL A   1      42.407  31.954  38.315  1.00  0.00     0.031 C 
ATOM     65  C   UNL A   1      43.030  28.247  33.548  1.00  0.00     0.029 A 
ATOM     66  C   UNL A   1      42.542  29.202  34.426  1.00  0.00     0.049 A 
ATOM     67  H   UNL A   1      40.757  30.323  34.307  1.00  0.00     0.167 HD
ATOM     68  C   UNL A   1      42.593  30.607  36.468  1.00  0.00     0.074 A 
ATOM     69  C   UNL A   1      43.186  31.068  37.705  1.00  0.00     0.031 C 
ATOM     70  C   UNL A   1      43.133  29.660  35.662  1.00  0.00     0.031 A 
BRANCH  57  71
ATOM     71  C   UNL A   1      39.777  28.319  30.646  1.00  0.00    -0.014 A 
ATOM     72  C   UNL A   1      38.897  27.219  30.614  1.00  0.00     0.010 A 
ATOM     73  C   UNL A   1      40.664  28.507  29.569  1.00  0.00     0.010 A 
ATOM     74  C   UNL A   1      38.937  26.302  29.558  1.00  0.00     0.020 A 
ATOM     75  C   UNL A   1      40.684  27.610  28.495  1.00  0.00     0.020 A 
ATOM     76  C   UNL A   1      39.839  26.499  28.510  1.00  0.00     0.054 A 
BRANCH  76  77
ATOM     77  S   UNL A   1      39.916  25.268  27.178  1.00  0.00     0.124 S 
ATOM     78  O   UNL A   1      40.478  26.040  26.074  1.00  0.00    -0.237 OA
ATOM     79  O   UNL A   1      40.791  24.244  27.743  1.00  0.00    -0.237 OA
ATOM     80  O   UNL A   1      38.524  24.859  27.007  1.00  0.00    -0.744 OA
ENDBRANCH  76  77
ENDBRANCH  57  71
BRANCH  58  81
ATOM     81  C   UNL A   1      40.312  33.971  38.880  1.00  0.00    -0.014 A 
ATOM     82  C   UNL A   1      39.518  33.708  40.013  1.00  0.00     0.010 A 
ATOM     83  C   UNL A   1      41.097  35.138  38.856  1.00  0.00     0.010 A 
ATOM     84  C   UNL A   1      39.449  34.627  41.062  1.00  0.00     0.020 A 
ATOM     85  C   UNL A   1      41.059  36.043  39.921  1.00  0.00     0.020 A 
ATOM     86  C   UNL A   1      40.209  35.797  41.002  1.00  0.00     0.054 A 
BRANCH  86  87
ATOM     87  S   UNL A   1      40.040  37.011  42.339  1.00  0.00     0.124 S 
ATOM     88  O   UNL A   1      41.433  37.238  42.716  1.00  0.00    -0.237 OA
ATOM     89  O   UNL A   1      39.379  38.128  41.672  1.00  0.00    -0.237 OA
ATOM     90  O   UNL A   1      39.230  36.314  43.335  1.00  0.00    -0.744 OA
ENDBRANCH  86  87
ENDBRANCH  58  81
BRANCH  70  91
ATOM     91  C   UNL A   1      44.439  29.025  36.074  1.00  0.00    -0.014 A 
ATOM     92  C   UNL A   1      44.436  27.907  36.931  1.00  0.00     0.010 A 
ATOM     93  C   UNL A   1      45.668  29.627  35.747  1.00  0.00     0.010 A 
ATOM     94  C   UNL A   1      45.625  27.440  37.497  1.00  0.00     0.020 A 
ATOM     95  C   UNL A   1      46.865  29.140  36.282  1.00  0.00     0.020 A 
ATOM     96  C   UNL A   1      46.831  28.070  37.180  1.00  0.00     0.054 A 
BRANCH  96  97
ATOM     97  S   UNL A   1      48.353  27.496  37.983  1.00  0.00     0.124 S 
ATOM     98  O   UNL A   1      49.381  28.247  37.268  1.00  0.00    -0.237 OA
ATOM     99  O   UNL A   1      48.146  27.881  39.376  1.00  0.00    -0.237 OA
ATOM    100  O   UNL A   1      48.350  26.055  37.736  1.00  0.00    -0.744 OA
ENDBRANCH  96  97
ENDBRANCH  70  91
ENDBRANCH  44  45
ENDBRANCH  37  39
ENDBRANCH  36  37
ENDBRANCH  35  36
ENDBRANCH  34  35
ENDBRANCH  33  34
ENDBRANCH   1  33
TORSDOF 22
ENDMDL
