MODEL 1
REMARK VINA RESULT:      -8.9      0.000      0.000
REMARK SMILES CCOC(=O)NC(=O)COc1csc(C(=O)OCCOCCOCCOC(=O)c2ccc(-c3c4nc(c(-c5ccc(S(=O)(=O)[O-])cc5)c5ccc([nH]5)c(-c5ccc(S(=O)(=O)[O-])cc5)c5nc(c(-c6ccc(S(=O)(=O)[O-])cc6)c6ccc3[nH]6)C=C5)C=C4)cc2)c1
REMARK SMILES IDX 21 1 20 2 19 3 18 4 17 5 15 6 16 7 14 8 11 9 12 10 89 11
REMARK SMILES IDX 13 12 10 13 9 14 7 15 4 16 5 17 6 18 8 20 3 21 2 22 1 23
REMARK SMILES IDX 22 24 23 25 24 26 25 27 26 28 27 29 28 30 29 31 30 32 88 33
REMARK SMILES IDX 31 34 87 35 32 36 33 37 34 38 81 39 35 40 86 41 80 42 82 43
REMARK SMILES IDX 36 44 85 45 79 46 78 47 37 49 67 50 48 51 66 52 49 53 52 54
REMARK SMILES IDX 65 55 83 56 50 57 51 58 64 60 84 61 53 62 38 63 39 64 47 65
REMARK SMILES IDX 40 66 46 67 41 68 42 69 43 70 44 71 45 72 68 73 69 74 77 75
REMARK SMILES IDX 70 76 76 77 71 78 72 79 73 80 74 81 75 82 54 83 55 84 63 85
REMARK SMILES IDX 56 86 62 87 57 88 58 89 59 90 60 91 61 92
REMARK H PARENT 6 19 82 48 52 59
REMARK Flexibility Score: inf
ROOT
ATOM      1  C   UNL A   1      38.580  21.195  25.641  1.00  0.00     0.188 C 
ENDROOT
BRANCH   1   2
ATOM      2  O   UNL A   1      37.611  21.858  24.835  1.00  0.00    -0.376 OA
BRANCH   2   3
ATOM      3  C   UNL A   1      37.205  23.180  25.162  1.00  0.00     0.202 C 
BRANCH   3   4
ATOM      4  C   UNL A   1      35.999  23.365  26.092  1.00  0.00     0.261 C 
BRANCH   4   5
ATOM      5  O   UNL A   1      35.161  22.202  26.194  1.00  0.00    -0.459 OA
BRANCH   5   6
ATOM      6  C   UNL A   1      33.818  22.430  26.067  1.00  0.00     0.348 C 
ATOM      7  O   UNL A   1      33.030  22.484  27.006  1.00  0.00    -0.245 OA
BRANCH   6   8
ATOM      8  C   UNL A   1      33.495  22.700  24.682  1.00  0.00     0.116 A 
ATOM      9  C   UNL A   1      33.147  23.712  22.602  1.00  0.00     0.131 A 
ATOM     10  C   UNL A   1      32.605  22.465  22.391  1.00  0.00     0.112 A 
ATOM     11  C   UNL A   1      33.618  23.861  23.943  1.00  0.00     0.074 A 
ATOM     12  S   UNL A   1      32.802  21.442  23.749  1.00  0.00    -0.133 S 
BRANCH   9  13
ATOM     13  O   UNL A   1      33.296  24.715  21.702  1.00  0.00    -0.483 OA
BRANCH  13  14
ATOM     14  C   UNL A   1      32.640  25.939  21.950  1.00  0.00     0.329 C 
BRANCH  14  15
ATOM     15  C   UNL A   1      33.367  27.236  22.340  1.00  0.00     0.267 C 
ATOM     16  C   UNL A   1      32.290  27.655  24.600  1.00  0.00     0.413 C 
ATOM     17  O   UNL A   1      32.299  28.401  25.571  1.00  0.00    -0.224 OA
ATOM     18  N   UNL A   1      33.143  27.862  23.541  1.00  0.00    -0.258 N 
ATOM     19  H   UNL A   1      33.730  28.641  23.676  1.00  0.00     0.176 HD
ATOM     20  O   UNL A   1      34.151  27.770  21.547  1.00  0.00    -0.271 OA
BRANCH  16  21
ATOM     21  O   UNL A   1      31.467  26.595  24.451  1.00  0.00    -0.450 OA
BRANCH  21  22
ATOM     22  C   UNL A   1      30.635  26.280  25.576  1.00  0.00     0.231 C 
ATOM     23  C   UNL A   1      30.467  24.778  25.729  1.00  0.00     0.049 C 
ENDBRANCH  21  22
ENDBRANCH  16  21
ENDBRANCH  14  15
ENDBRANCH  13  14
ENDBRANCH   9  13
ENDBRANCH   6   8
ENDBRANCH   5   6
ENDBRANCH   4   5
ENDBRANCH   3   4
ENDBRANCH   2   3
ENDBRANCH   1   2
BRANCH   1  24
ATOM     24  C   UNL A   1      39.673  22.021  26.351  1.00  0.00     0.188 C 
BRANCH  24  25
ATOM     25  O   UNL A   1      40.745  21.238  26.845  1.00  0.00    -0.376 OA
BRANCH  25  26
ATOM     26  C   UNL A   1      42.008  21.412  26.225  1.00  0.00     0.202 C 
BRANCH  26  27
ATOM     27  C   UNL A   1      42.355  22.802  25.670  1.00  0.00     0.261 C 
BRANCH  27  28
ATOM     28  O   UNL A   1      42.501  23.858  26.631  1.00  0.00    -0.460 OA
BRANCH  28  29
ATOM     29  C   UNL A   1      42.126  25.100  26.248  1.00  0.00     0.338 C 
ATOM     30  O   UNL A   1      41.823  25.458  25.125  1.00  0.00    -0.246 OA
BRANCH  29  31
ATOM     31  C   UNL A   1      41.989  25.924  27.470  1.00  0.00     0.060 A 
ATOM     32  C   UNL A   1      40.870  25.743  28.293  1.00  0.00     0.016 A 
ATOM     33  C   UNL A   1      42.962  26.872  27.799  1.00  0.00     0.016 A 
ATOM     34  C   UNL A   1      40.709  26.535  29.433  1.00  0.00     0.010 A 
ATOM     35  C   UNL A   1      42.790  27.673  28.932  1.00  0.00     0.010 A 
ATOM     36  C   UNL A   1      41.649  27.529  29.741  1.00  0.00    -0.014 A 
BRANCH  36  37
ATOM     37  C   UNL A   1      41.365  28.524  30.805  1.00  0.00     0.031 A 
ATOM     38  C   UNL A   1      42.192  28.490  32.063  1.00  0.00     0.074 A 
ATOM     39  C   UNL A   1      40.393  29.444  30.664  1.00  0.00     0.049 A 
ATOM     40  N   UNL A   1      42.104  29.232  33.136  1.00  0.00    -0.248 NA
ATOM     41  C   UNL A   1      43.264  27.481  32.115  1.00  0.00     0.031 C 
ATOM     42  C   UNL A   1      39.544  29.607  29.486  1.00  0.00     0.029 A 
ATOM     43  N   UNL A   1      39.955  30.415  31.533  1.00  0.00    -0.354 N 
ATOM     44  C   UNL A   1      43.101  28.780  33.991  1.00  0.00     0.074 A 
ATOM     45  C   UNL A   1      43.766  27.682  33.324  1.00  0.00     0.031 C 
ATOM     46  C   UNL A   1      38.679  30.614  29.708  1.00  0.00     0.029 A 
ATOM     47  C   UNL A   1      38.893  31.145  31.054  1.00  0.00     0.049 A 
ATOM     48  H   UNL A   1      40.363  30.573  32.415  1.00  0.00     0.167 HD
ATOM     49  C   UNL A   1      43.440  29.240  35.219  1.00  0.00     0.031 A 
ATOM     50  C   UNL A   1      38.166  32.117  31.640  1.00  0.00     0.031 A 
ATOM     51  C   UNL A   1      42.766  30.316  35.894  1.00  0.00     0.049 A 
ATOM     52  C   UNL A   1      38.513  32.564  33.039  1.00  0.00     0.074 A 
ATOM     53  C   UNL A   1      43.041  30.858  37.138  1.00  0.00     0.029 A 
ATOM     54  N   UNL A   1      41.678  31.009  35.388  1.00  0.00    -0.354 N 
ATOM     55  N   UNL A   1      39.478  32.144  33.823  1.00  0.00    -0.248 NA
ATOM     56  C   UNL A   1      37.676  33.619  33.627  1.00  0.00     0.031 C 
ATOM     57  C   UNL A   1      42.086  31.845  37.405  1.00  0.00     0.029 A 
ATOM     58  C   UNL A   1      41.253  31.957  36.304  1.00  0.00     0.049 A 
ATOM     59  H   UNL A   1      41.267  30.850  34.507  1.00  0.00     0.167 HD
ATOM     60  C   UNL A   1      39.381  32.906  34.985  1.00  0.00     0.074 A 
ATOM     61  C   UNL A   1      38.271  33.817  34.796  1.00  0.00     0.031 C 
ATOM     62  C   UNL A   1      40.147  32.860  36.103  1.00  0.00     0.031 A 
BRANCH  49  63
ATOM     63  C   UNL A   1      44.573  28.548  35.927  1.00  0.00    -0.014 A 
ATOM     64  C   UNL A   1      44.329  27.609  36.946  1.00  0.00     0.010 A 
ATOM     65  C   UNL A   1      45.901  28.822  35.552  1.00  0.00     0.010 A 
ATOM     66  C   UNL A   1      45.394  26.986  37.603  1.00  0.00     0.020 A 
ATOM     67  C   UNL A   1      46.967  28.182  36.189  1.00  0.00     0.020 A 
ATOM     68  C   UNL A   1      46.707  27.282  37.224  1.00  0.00     0.054 A 
BRANCH  68  69
ATOM     69  S   UNL A   1      48.070  26.450  38.084  1.00  0.00     0.124 S 
ATOM     70  O   UNL A   1      48.709  27.565  38.782  1.00  0.00    -0.237 OA
ATOM     71  O   UNL A   1      47.375  25.492  38.938  1.00  0.00    -0.237 OA
ATOM     72  O   UNL A   1      48.856  25.861  37.002  1.00  0.00    -0.744 OA
ENDBRANCH  68  69
ENDBRANCH  49  63
BRANCH  50  73
ATOM     73  C   UNL A   1      37.019  32.731  30.916  1.00  0.00    -0.014 A 
ATOM     74  C   UNL A   1      37.233  33.706  29.925  1.00  0.00     0.010 A 
ATOM     75  C   UNL A   1      35.700  32.348  31.222  1.00  0.00     0.010 A 
ATOM     76  C   UNL A   1      36.151  34.297  29.267  1.00  0.00     0.020 A 
ATOM     77  C   UNL A   1      34.616  32.918  30.547  1.00  0.00     0.020 A 
ATOM     78  C   UNL A   1      34.848  33.899  29.581  1.00  0.00     0.054 A 
BRANCH  78  79
ATOM     79  S   UNL A   1      33.460  34.646  28.682  1.00  0.00     0.124 S 
ATOM     80  O   UNL A   1      32.559  35.018  29.769  1.00  0.00    -0.237 OA
ATOM     81  O   UNL A   1      34.099  35.758  27.981  1.00  0.00    -0.237 OA
ATOM     82  O   UNL A   1      32.988  33.565  27.820  1.00  0.00    -0.744 OA
ENDBRANCH  78  79
ENDBRANCH  50  73
BRANCH  62  83
ATOM     83  C   UNL A   1      39.843  33.846  37.200  1.00  0.00    -0.014 A 
ATOM     84  C   UNL A   1      38.954  33.530  38.242  1.00  0.00     0.010 A 
ATOM     85  C   UNL A   1      40.507  35.086  37.220  1.00  0.00     0.010 A 
ATOM     86  C   UNL A   1      38.713  34.449  39.268  1.00  0.00     0.020 A 
ATOM     87  C   UNL A   1      40.289  35.996  38.257  1.00  0.00     0.020 A 
ATOM     88  C   UNL A   1      39.382  35.677  39.269  1.00  0.00     0.054 A 
BRANCH  88  89
ATOM     89  S   UNL A   1      39.088  36.835  40.634  1.00  0.00     0.124 S 
ATOM     90  O   UNL A   1      40.446  37.223  41.002  1.00  0.00    -0.237 OA
ATOM     91  O   UNL A   1      38.285  37.881  40.003  1.00  0.00    -0.237 OA
ATOM     92  O   UNL A   1      38.379  36.029  41.626  1.00  0.00    -0.744 OA
ENDBRANCH  88  89
ENDBRANCH  62  83
ENDBRANCH  36  37
ENDBRANCH  29  31
ENDBRANCH  28  29
ENDBRANCH  27  28
ENDBRANCH  26  27
ENDBRANCH  25  26
ENDBRANCH  24  25
ENDBRANCH   1  24
TORSDOF 25
ENDMDL
MODEL 2
REMARK VINA RESULT:      -8.9      0.862      8.051
REMARK SMILES CCOC(=O)NC(=O)COc1csc(C(=O)OCCOCCOCCOC(=O)c2ccc(-c3c4nc(c(-c5ccc(S(=O)(=O)[O-])cc5)c5ccc([nH]5)c(-c5ccc(S(=O)(=O)[O-])cc5)c5nc(c(-c6ccc(S(=O)(=O)[O-])cc6)c6ccc3[nH]6)C=C5)C=C4)cc2)c1
REMARK SMILES IDX 21 1 20 2 19 3 18 4 17 5 15 6 16 7 14 8 11 9 12 10 89 11
REMARK SMILES IDX 13 12 10 13 9 14 7 15 4 16 5 17 6 18 8 20 3 21 2 22 1 23
REMARK SMILES IDX 22 24 23 25 24 26 25 27 26 28 27 29 28 30 29 31 30 32 88 33
REMARK SMILES IDX 31 34 87 35 32 36 33 37 34 38 81 39 35 40 86 41 80 42 82 43
REMARK SMILES IDX 36 44 85 45 79 46 78 47 37 49 67 50 48 51 66 52 49 53 52 54
REMARK SMILES IDX 65 55 83 56 50 57 51 58 64 60 84 61 53 62 38 63 39 64 47 65
REMARK SMILES IDX 40 66 46 67 41 68 42 69 43 70 44 71 45 72 68 73 69 74 77 75
REMARK SMILES IDX 70 76 76 77 71 78 72 79 73 80 74 81 75 82 54 83 55 84 63 85
REMARK SMILES IDX 56 86 62 87 57 88 58 89 59 90 60 91 61 92
REMARK H PARENT 6 19 82 48 52 59
REMARK Flexibility Score: inf
ROOT
ATOM      1  C   UNL A   1      39.323  21.464  26.137  1.00  0.00     0.188 C 
ENDROOT
BRANCH   1   2
ATOM      2  O   UNL A   1      38.261  21.874  25.281  1.00  0.00    -0.376 OA
BRANCH   2   3
ATOM      3  C   UNL A   1      37.438  22.972  25.653  1.00  0.00     0.202 C 
BRANCH   3   4
ATOM      4  C   UNL A   1      36.083  22.681  26.310  1.00  0.00     0.261 C 
BRANCH   4   5
ATOM      5  O   UNL A   1      35.489  21.441  25.890  1.00  0.00    -0.459 OA
BRANCH   5   6
ATOM      6  C   UNL A   1      34.127  21.455  25.759  1.00  0.00     0.348 C 
ATOM      7  O   UNL A   1      33.345  21.017  26.596  1.00  0.00    -0.245 OA
BRANCH   6   8
ATOM      8  C   UNL A   1      33.757  22.152  24.547  1.00  0.00     0.116 A 
ATOM      9  C   UNL A   1      33.451  23.752  22.867  1.00  0.00     0.131 A 
ATOM     10  C   UNL A   1      32.666  22.721  22.406  1.00  0.00     0.112 A 
ATOM     11  C   UNL A   1      34.043  23.438  24.128  1.00  0.00     0.074 A 
ATOM     12  S   UNL A   1      32.766  21.338  23.411  1.00  0.00    -0.133 S 
BRANCH   9  13
ATOM     13  O   UNL A   1      33.720  24.929  22.251  1.00  0.00    -0.483 OA
BRANCH  13  14
ATOM     14  C   UNL A   1      33.302  26.122  22.877  1.00  0.00     0.329 C 
BRANCH  14  15
ATOM     15  C   UNL A   1      33.208  27.478  22.159  1.00  0.00     0.267 C 
ATOM     16  C   UNL A   1      30.704  27.860  22.315  1.00  0.00     0.413 C 
ATOM     17  O   UNL A   1      29.812  28.658  22.055  1.00  0.00    -0.224 OA
ATOM     18  N   UNL A   1      32.015  28.142  22.013  1.00  0.00    -0.258 N 
ATOM     19  H   UNL A   1      32.125  29.027  21.593  1.00  0.00     0.176 HD
ATOM     20  O   UNL A   1      34.217  27.985  21.656  1.00  0.00    -0.271 OA
BRANCH  16  21
ATOM     21  O   UNL A   1      30.513  26.653  22.891  1.00  0.00    -0.450 OA
BRANCH  21  22
ATOM     22  C   UNL A   1      29.897  26.662  24.185  1.00  0.00     0.231 C 
ATOM     23  C   UNL A   1      30.856  27.179  25.244  1.00  0.00     0.049 C 
ENDBRANCH  21  22
ENDBRANCH  16  21
ENDBRANCH  14  15
ENDBRANCH  13  14
ENDBRANCH   9  13
ENDBRANCH   6   8
ENDBRANCH   5   6
ENDBRANCH   4   5
ENDBRANCH   3   4
ENDBRANCH   2   3
ENDBRANCH   1   2
BRANCH   1  24
ATOM     24  C   UNL A   1      40.136  22.526  26.905  1.00  0.00     0.188 C 
BRANCH  24  25
ATOM     25  O   UNL A   1      41.331  22.025  27.474  1.00  0.00    -0.376 OA
BRANCH  25  26
ATOM     26  C   UNL A   1      42.516  22.160  26.708  1.00  0.00     0.202 C 
BRANCH  26  27
ATOM     27  C   UNL A   1      42.604  23.330  25.715  1.00  0.00     0.261 C 
BRANCH  27  28
ATOM     28  O   UNL A   1      43.095  24.575  26.232  1.00  0.00    -0.460 OA
BRANCH  28  29
ATOM     29  C   UNL A   1      42.328  25.671  26.039  1.00  0.00     0.338 C 
ATOM     30  O   UNL A   1      41.717  25.967  25.029  1.00  0.00    -0.246 OA
BRANCH  29  31
ATOM     31  C   UNL A   1      42.225  26.381  27.334  1.00  0.00     0.060 A 
ATOM     32  C   UNL A   1      41.375  25.874  28.324  1.00  0.00     0.016 A 
ATOM     33  C   UNL A   1      42.966  27.544  27.566  1.00  0.00     0.016 A 
ATOM     34  C   UNL A   1      41.241  26.549  29.541  1.00  0.00     0.010 A 
ATOM     35  C   UNL A   1      42.819  28.225  28.779  1.00  0.00     0.010 A 
ATOM     36  C   UNL A   1      41.935  27.747  29.762  1.00  0.00    -0.014 A 
BRANCH  36  37
ATOM     37  C   UNL A   1      41.617  28.588  30.944  1.00  0.00     0.031 A 
ATOM     38  C   UNL A   1      40.453  29.539  30.859  1.00  0.00     0.074 A 
ATOM     39  C   UNL A   1      42.342  28.512  32.075  1.00  0.00     0.049 A 
ATOM     40  N   UNL A   1      40.011  30.392  31.747  1.00  0.00    -0.248 NA
ATOM     41  C   UNL A   1      39.686  29.526  29.603  1.00  0.00     0.031 C 
ATOM     42  C   UNL A   1      43.470  27.611  32.300  1.00  0.00     0.029 A 
ATOM     43  N   UNL A   1      42.236  29.218  33.249  1.00  0.00    -0.354 N 
ATOM     44  C   UNL A   1      38.920  31.019  31.158  1.00  0.00     0.074 A 
ATOM     45  C   UNL A   1      38.782  30.467  29.827  1.00  0.00     0.031 C 
ATOM     46  C   UNL A   1      43.959  27.824  33.536  1.00  0.00     0.029 A 
ATOM     47  C   UNL A   1      43.199  28.896  34.176  1.00  0.00     0.049 A 
ATOM     48  H   UNL A   1      41.535  29.891  33.412  1.00  0.00     0.167 HD
ATOM     49  C   UNL A   1      38.100  31.964  31.677  1.00  0.00     0.031 A 
ATOM     50  C   UNL A   1      43.449  29.419  35.394  1.00  0.00     0.031 A 
ATOM     51  C   UNL A   1      38.248  32.529  32.990  1.00  0.00     0.049 A 
ATOM     52  C   UNL A   1      42.569  30.523  35.923  1.00  0.00     0.074 A 
ATOM     53  C   UNL A   1      37.463  33.488  33.608  1.00  0.00     0.029 A 
ATOM     54  N   UNL A   1      39.253  32.198  33.885  1.00  0.00    -0.354 N 
ATOM     55  N   UNL A   1      41.523  31.085  35.364  1.00  0.00    -0.248 NA
ATOM     56  C   UNL A   1      42.900  31.059  37.252  1.00  0.00     0.031 C 
ATOM     57  C   UNL A   1      38.024  33.773  34.858  1.00  0.00     0.029 A 
ATOM     58  C   UNL A   1      39.124  32.950  35.041  1.00  0.00     0.049 A 
ATOM     59  H   UNL A   1      39.956  31.527  33.724  1.00  0.00     0.167 HD
ATOM     60  C   UNL A   1      41.054  32.018  36.285  1.00  0.00     0.074 A 
ATOM     61  C   UNL A   1      41.925  31.938  37.440  1.00  0.00     0.031 C 
ATOM     62  C   UNL A   1      39.996  32.859  36.186  1.00  0.00     0.031 A 
BRANCH  49  63
ATOM     63  C   UNL A   1      36.987  32.470  30.799  1.00  0.00    -0.014 A 
ATOM     64  C   UNL A   1      35.689  31.935  30.889  1.00  0.00     0.010 A 
ATOM     65  C   UNL A   1      37.237  33.513  29.889  1.00  0.00     0.010 A 
ATOM     66  C   UNL A   1      34.671  32.407  30.056  1.00  0.00     0.020 A 
ATOM     67  C   UNL A   1      36.215  34.005  29.072  1.00  0.00     0.020 A 
ATOM     68  C   UNL A   1      34.943  33.435  29.148  1.00  0.00     0.054 A 
BRANCH  68  69
ATOM     69  S   UNL A   1      33.600  34.038  28.088  1.00  0.00     0.124 S 
ATOM     70  O   UNL A   1      32.768  34.766  29.043  1.00  0.00    -0.237 OA
ATOM     71  O   UNL A   1      34.306  34.864  27.113  1.00  0.00    -0.237 OA
ATOM     72  O   UNL A   1      33.006  32.815  27.551  1.00  0.00    -0.744 OA
ENDBRANCH  68  69
ENDBRANCH  49  63
BRANCH  50  73
ATOM     73  C   UNL A   1      44.597  28.918  36.199  1.00  0.00    -0.014 A 
ATOM     74  C   UNL A   1      45.880  29.472  36.043  1.00  0.00     0.010 A 
ATOM     75  C   UNL A   1      44.413  27.873  37.123  1.00  0.00     0.010 A 
ATOM     76  C   UNL A   1      46.959  28.980  36.783  1.00  0.00     0.020 A 
ATOM     77  C   UNL A   1      45.485  27.396  37.883  1.00  0.00     0.020 A 
ATOM     78  C   UNL A   1      46.755  27.946  37.700  1.00  0.00     0.054 A 
BRANCH  78  79
ATOM     79  S   UNL A   1      48.161  27.353  38.683  1.00  0.00     0.124 S 
ATOM     80  O   UNL A   1      49.191  28.337  38.365  1.00  0.00    -0.237 OA
ATOM     81  O   UNL A   1      47.637  27.404  40.046  1.00  0.00    -0.237 OA
ATOM     82  O   UNL A   1      48.398  26.007  38.165  1.00  0.00    -0.744 OA
ENDBRANCH  78  79
ENDBRANCH  50  73
BRANCH  62  83
ATOM     83  C   UNL A   1      39.687  33.738  37.369  1.00  0.00    -0.014 A 
ATOM     84  C   UNL A   1      38.807  33.319  38.382  1.00  0.00     0.010 A 
ATOM     85  C   UNL A   1      40.339  34.978  37.499  1.00  0.00     0.010 A 
ATOM     86  C   UNL A   1      38.561  34.139  39.489  1.00  0.00     0.020 A 
ATOM     87  C   UNL A   1      40.116  35.788  38.616  1.00  0.00     0.020 A 
ATOM     88  C   UNL A   1      39.217  35.369  39.598  1.00  0.00     0.054 A 
BRANCH  88  89
ATOM     89  S   UNL A   1      38.918  36.394  41.064  1.00  0.00     0.124 S 
ATOM     90  O   UNL A   1      40.255  36.497  41.642  1.00  0.00    -0.237 OA
ATOM     91  O   UNL A   1      38.385  37.628  40.491  1.00  0.00    -0.237 OA
ATOM     92  O   UNL A   1      37.960  35.613  41.844  1.00  0.00    -0.744 OA
ENDBRANCH  88  89
ENDBRANCH  62  83
ENDBRANCH  36  37
ENDBRANCH  29  31
ENDBRANCH  28  29
ENDBRANCH  27  28
ENDBRANCH  26  27
ENDBRANCH  25  26
ENDBRANCH  24  25
ENDBRANCH   1  24
TORSDOF 25
ENDMDL
MODEL 3
REMARK VINA RESULT:      -8.7      5.280     11.250
REMARK SMILES CCOC(=O)NC(=O)COc1csc(C(=O)OCCOCCOCCOC(=O)c2ccc(-c3c4nc(c(-c5ccc(S(=O)(=O)[O-])cc5)c5ccc([nH]5)c(-c5ccc(S(=O)(=O)[O-])cc5)c5nc(c(-c6ccc(S(=O)(=O)[O-])cc6)c6ccc3[nH]6)C=C5)C=C4)cc2)c1
REMARK SMILES IDX 21 1 20 2 19 3 18 4 17 5 15 6 16 7 14 8 11 9 12 10 89 11
REMARK SMILES IDX 13 12 10 13 9 14 7 15 4 16 5 17 6 18 8 20 3 21 2 22 1 23
REMARK SMILES IDX 22 24 23 25 24 26 25 27 26 28 27 29 28 30 29 31 30 32 88 33
REMARK SMILES IDX 31 34 87 35 32 36 33 37 34 38 81 39 35 40 86 41 80 42 82 43
REMARK SMILES IDX 36 44 85 45 79 46 78 47 37 49 67 50 48 51 66 52 49 53 52 54
REMARK SMILES IDX 65 55 83 56 50 57 51 58 64 60 84 61 53 62 38 63 39 64 47 65
REMARK SMILES IDX 40 66 46 67 41 68 42 69 43 70 44 71 45 72 68 73 69 74 77 75
REMARK SMILES IDX 70 76 76 77 71 78 72 79 73 80 74 81 75 82 54 83 55 84 63 85
REMARK SMILES IDX 56 86 62 87 57 88 58 89 59 90 60 91 61 92
REMARK H PARENT 6 19 82 48 52 59
REMARK Flexibility Score: inf
ROOT
ATOM      1  C   UNL A   1      44.273  18.804  24.258  1.00  0.00     0.188 C 
ENDROOT
BRANCH   1   2
ATOM      2  O   UNL A   1      45.687  18.970  24.305  1.00  0.00    -0.376 OA
BRANCH   2   3
ATOM      3  C   UNL A   1      46.253  19.979  25.131  1.00  0.00     0.202 C 
BRANCH   3   4
ATOM      4  C   UNL A   1      46.144  21.441  24.678  1.00  0.00     0.261 C 
BRANCH   4   5
ATOM      5  O   UNL A   1      45.245  22.230  25.475  1.00  0.00    -0.459 OA
BRANCH   5   6
ATOM      6  C   UNL A   1      45.837  23.042  26.403  1.00  0.00     0.348 C 
ATOM      7  O   UNL A   1      46.923  23.591  26.253  1.00  0.00    -0.245 OA
BRANCH   6   8
ATOM      8  C   UNL A   1      44.946  23.236  27.526  1.00  0.00     0.116 A 
ATOM      9  C   UNL A   1      44.038  23.526  29.663  1.00  0.00     0.131 A 
ATOM     10  C   UNL A   1      42.901  23.376  28.903  1.00  0.00     0.112 A 
ATOM     11  C   UNL A   1      45.220  23.397  28.871  1.00  0.00     0.074 A 
ATOM     12  S   UNL A   1      43.258  23.233  27.235  1.00  0.00    -0.133 S 
BRANCH   9  13
ATOM     13  O   UNL A   1      44.120  23.806  30.987  1.00  0.00    -0.483 OA
BRANCH  13  14
ATOM     14  C   UNL A   1      44.276  25.152  31.377  1.00  0.00     0.329 C 
BRANCH  14  15
ATOM     15  C   UNL A   1      45.571  25.726  31.975  1.00  0.00     0.267 C 
ATOM     16  C   UNL A   1      44.914  25.766  34.427  1.00  0.00     0.413 C 
ATOM     17  O   UNL A   1      45.326  26.022  35.551  1.00  0.00    -0.224 OA
ATOM     18  N   UNL A   1      45.727  25.911  33.327  1.00  0.00    -0.258 N 
ATOM     19  H   UNL A   1      46.632  26.220  33.563  1.00  0.00     0.176 HD
ATOM     20  O   UNL A   1      46.497  26.073  31.234  1.00  0.00    -0.271 OA
BRANCH  16  21
ATOM     21  O   UNL A   1      43.663  25.345  34.142  1.00  0.00    -0.450 OA
BRANCH  21  22
ATOM     22  C   UNL A   1      43.292  24.066  34.674  1.00  0.00     0.231 C 
ATOM     23  C   UNL A   1      42.020  24.165  35.500  1.00  0.00     0.049 C 
ENDBRANCH  21  22
ENDBRANCH  16  21
ENDBRANCH  14  15
ENDBRANCH  13  14
ENDBRANCH   9  13
ENDBRANCH   6   8
ENDBRANCH   5   6
ENDBRANCH   4   5
ENDBRANCH   3   4
ENDBRANCH   2   3
ENDBRANCH   1   2
BRANCH   1  24
ATOM     24  C   UNL A   1      43.465  18.787  25.572  1.00  0.00     0.188 C 
BRANCH  24  25
ATOM     25  O   UNL A   1      42.125  19.220  25.420  1.00  0.00    -0.376 OA
BRANCH  25  26
ATOM     26  C   UNL A   1      41.729  20.362  26.161  1.00  0.00     0.202 C 
BRANCH  26  27
ATOM     27  C   UNL A   1      40.242  20.749  26.150  1.00  0.00     0.261 C 
BRANCH  27  28
ATOM     28  O   UNL A   1      39.860  21.852  26.985  1.00  0.00    -0.460 OA
BRANCH  28  29
ATOM     29  C   UNL A   1      39.097  22.817  26.424  1.00  0.00     0.338 C 
ATOM     30  O   UNL A   1      38.088  22.660  25.763  1.00  0.00    -0.246 OA
BRANCH  29  31
ATOM     31  C   UNL A   1      39.612  24.124  26.892  1.00  0.00     0.060 A 
ATOM     32  C   UNL A   1      40.189  25.001  25.965  1.00  0.00     0.016 A 
ATOM     33  C   UNL A   1      39.525  24.479  28.242  1.00  0.00     0.016 A 
ATOM     34  C   UNL A   1      40.709  26.226  26.395  1.00  0.00     0.010 A 
ATOM     35  C   UNL A   1      40.060  25.698  28.671  1.00  0.00     0.010 A 
ATOM     36  C   UNL A   1      40.679  26.566  27.755  1.00  0.00    -0.014 A 
BRANCH  36  37
ATOM     37  C   UNL A   1      41.436  27.745  28.247  1.00  0.00     0.031 A 
ATOM     38  C   UNL A   1      40.668  28.907  28.817  1.00  0.00     0.074 A 
ATOM     39  C   UNL A   1      42.780  27.787  28.195  1.00  0.00     0.049 A 
ATOM     40  N   UNL A   1      41.109  30.051  29.273  1.00  0.00    -0.248 NA
ATOM     41  C   UNL A   1      39.204  28.759  28.879  1.00  0.00     0.031 C 
ATOM     42  C   UNL A   1      43.644  26.718  27.701  1.00  0.00     0.029 A 
ATOM     43  N   UNL A   1      43.653  28.784  28.560  1.00  0.00    -0.354 N 
ATOM     44  C   UNL A   1      39.982  30.759  29.671  1.00  0.00     0.074 A 
ATOM     45  C   UNL A   1      38.834  29.927  29.379  1.00  0.00     0.031 C 
ATOM     46  C   UNL A   1      44.926  27.118  27.785  1.00  0.00     0.029 A 
ATOM     47  C   UNL A   1      44.971  28.482  28.310  1.00  0.00     0.049 A 
ATOM     48  H   UNL A   1      43.362  29.634  28.964  1.00  0.00     0.167 HD
ATOM     49  C   UNL A   1      39.906  31.988  30.236  1.00  0.00     0.031 A 
ATOM     50  C   UNL A   1      46.083  29.228  28.470  1.00  0.00     0.031 A 
ATOM     51  C   UNL A   1      41.043  32.825  30.507  1.00  0.00     0.049 A 
ATOM     52  C   UNL A   1      45.969  30.623  29.031  1.00  0.00     0.074 A 
ATOM     53  C   UNL A   1      41.067  34.084  31.082  1.00  0.00     0.029 A 
ATOM     54  N   UNL A   1      42.356  32.495  30.211  1.00  0.00    -0.354 N 
ATOM     55  N   UNL A   1      44.897  31.267  29.429  1.00  0.00    -0.248 NA
ATOM     56  C   UNL A   1      47.216  31.389  29.169  1.00  0.00     0.031 C 
ATOM     57  C   UNL A   1      42.391  34.536  31.089  1.00  0.00     0.029 A 
ATOM     58  C   UNL A   1      43.197  33.536  30.570  1.00  0.00     0.049 A 
ATOM     59  H   UNL A   1      42.648  31.647  29.805  1.00  0.00     0.167 HD
ATOM     60  C   UNL A   1      45.345  32.501  29.893  1.00  0.00     0.074 A 
ATOM     61  C   UNL A   1      46.785  32.509  29.735  1.00  0.00     0.031 C 
ATOM     62  C   UNL A   1      44.630  33.530  30.409  1.00  0.00     0.031 A 
BRANCH  49  63
ATOM     63  C   UNL A   1      38.534  32.513  30.564  1.00  0.00    -0.014 A 
ATOM     64  C   UNL A   1      37.878  32.141  31.752  1.00  0.00     0.010 A 
ATOM     65  C   UNL A   1      37.902  33.409  29.684  1.00  0.00     0.010 A 
ATOM     66  C   UNL A   1      36.598  32.627  32.034  1.00  0.00     0.020 A 
ATOM     67  C   UNL A   1      36.632  33.917  29.975  1.00  0.00     0.020 A 
ATOM     68  C   UNL A   1      35.981  33.507  31.140  1.00  0.00     0.054 A 
BRANCH  68  69
ATOM     69  S   UNL A   1      34.325  34.132  31.536  1.00  0.00     0.124 S 
ATOM     70  O   UNL A   1      33.652  34.041  30.242  1.00  0.00    -0.237 OA
ATOM     71  O   UNL A   1      33.861  33.192  32.553  1.00  0.00    -0.237 OA
ATOM     72  O   UNL A   1      34.573  35.491  32.015  1.00  0.00    -0.744 OA
ENDBRANCH  68  69
ENDBRANCH  49  63
BRANCH  50  73
ATOM     73  C   UNL A   1      47.412  28.679  28.077  1.00  0.00    -0.014 A 
ATOM     74  C   UNL A   1      48.257  28.091  29.034  1.00  0.00     0.010 A 
ATOM     75  C   UNL A   1      47.841  28.752  26.739  1.00  0.00     0.010 A 
ATOM     76  C   UNL A   1      49.513  27.601  28.664  1.00  0.00     0.020 A 
ATOM     77  C   UNL A   1      49.086  28.241  26.361  1.00  0.00     0.020 A 
ATOM     78  C   UNL A   1      49.920  27.678  27.329  1.00  0.00     0.054 A 
BRANCH  78  79
ATOM     79  S   UNL A   1      51.535  26.995  26.862  1.00  0.00     0.124 S 
ATOM     80  O   UNL A   1      51.875  27.794  25.689  1.00  0.00    -0.237 OA
ATOM     81  O   UNL A   1      52.342  27.247  28.054  1.00  0.00    -0.237 OA
ATOM     82  O   UNL A   1      51.249  25.587  26.599  1.00  0.00    -0.744 OA
ENDBRANCH  78  79
ENDBRANCH  50  73
BRANCH  62  83
ATOM     83  C   UNL A   1      45.389  34.742  30.881  1.00  0.00    -0.014 A 
ATOM     84  C   UNL A   1      45.708  34.923  32.239  1.00  0.00     0.010 A 
ATOM     85  C   UNL A   1      45.844  35.684  29.940  1.00  0.00     0.010 A 
ATOM     86  C   UNL A   1      46.443  36.040  32.649  1.00  0.00     0.020 A 
ATOM     87  C   UNL A   1      46.602  36.787  30.343  1.00  0.00     0.020 A 
ATOM     88  C   UNL A   1      46.885  36.966  31.698  1.00  0.00     0.054 A 
BRANCH  88  89
ATOM     89  S   UNL A   1      47.875  38.382  32.248  1.00  0.00     0.124 S 
ATOM     90  O   UNL A   1      47.481  39.417  31.296  1.00  0.00    -0.237 OA
ATOM     91  O   UNL A   1      47.415  38.584  33.621  1.00  0.00    -0.237 OA
ATOM     92  O   UNL A   1      49.253  37.912  32.123  1.00  0.00    -0.744 OA
ENDBRANCH  88  89
ENDBRANCH  62  83
ENDBRANCH  36  37
ENDBRANCH  29  31
ENDBRANCH  28  29
ENDBRANCH  27  28
ENDBRANCH  26  27
ENDBRANCH  25  26
ENDBRANCH  24  25
ENDBRANCH   1  24
TORSDOF 25
ENDMDL
