MODEL 1
REMARK VINA RESULT:      -7.5      0.000      0.000
REMARK SMILES O=C(OCCOCCOCCOC(=O)[C@H]1O[C@@H](Oc2c(-c3cc(O)c(O)c(O)c3)oc3cc(O)cc(O)c3c2=O)[C@H](O)[C@@H](O)[C@@H]1O)c1ccc(-c2c3nc(c(-c4ccc(S(=O)(=O)[O-])cc4)c4ccc([nH]4)c(-c4ccc(S(=O)(=O)[O-])cc4)c4nc(c(-c5ccc(S(=O)(=O)[O-])cc5)c5ccc2[nH]5)C=C4)C=C3)cc1
REMARK SMILES IDX 8 1 7 2 6 3 5 4 4 5 3 6 2 7 1 8 47 9 48 10 106 11 49 12
REMARK SMILES IDX 105 13 50 14 51 15 52 16 99 17 53 18 104 19 98 20 100 21
REMARK SMILES IDX 54 22 103 23 97 24 96 25 55 27 85 28 66 29 84 30 67 31 70 32
REMARK SMILES IDX 83 33 101 34 68 35 69 36 82 38 102 39 71 40 56 41 57 42
REMARK SMILES IDX 65 43 58 44 64 45 59 46 60 47 61 48 62 49 63 50 86 51 87 52
REMARK SMILES IDX 95 53 88 54 94 55 89 56 90 57 91 58 92 59 93 60 72 61 73 62
REMARK SMILES IDX 81 63 74 64 80 65 75 66 76 67 77 68 78 69 79 70 9 71 10 72
REMARK SMILES IDX 11 73 12 74 13 75 14 76 15 77 16 78 45 79 17 80 43 81 41 82
REMARK SMILES IDX 46 83 18 85 19 86 20 87 39 88 30 89 38 90 40 91 31 92 36 93
REMARK SMILES IDX 32 94 35 95 33 96 21 97 22 98 29 99 23 100 27 101 25 102
REMARK SMILES IDX 24 103 28 105 26 107 37 109 34 111 44 113 42 115
REMARK H PARENT 100 26 70 37 46 84 24 104 28 106 26 108 37 110 34 112 44 114
REMARK H PARENT 42 116
REMARK Flexibility Score: inf
ROOT
ATOM      1  C   UNL A   1      37.766  28.649  28.022  1.00  0.00     0.188 C 
ENDROOT
BRANCH   1   2
ATOM      2  C   UNL A   1      36.793  29.708  28.538  1.00  0.00     0.188 C 
BRANCH   2   3
ATOM      3  O   UNL A   1      36.032  30.449  27.595  1.00  0.00    -0.376 OA
BRANCH   3   4
ATOM      4  C   UNL A   1      34.651  30.736  27.863  1.00  0.00     0.202 C 
BRANCH   4   5
ATOM      5  C   UNL A   1      34.104  32.192  27.894  1.00  0.00     0.261 C 
BRANCH   5   6
ATOM      6  O   UNL A   1      34.165  32.983  29.113  1.00  0.00    -0.460 OA
BRANCH   6   7
ATOM      7  C   UNL A   1      34.966  33.996  29.536  1.00  0.00     0.338 C 
ATOM      8  O   UNL A   1      34.487  35.119  29.674  1.00  0.00    -0.246 OA
BRANCH   7   9
ATOM      9  C   UNL A   1      36.404  33.779  29.841  1.00  0.00     0.060 A 
ATOM     10  C   UNL A   1      37.282  33.257  28.910  1.00  0.00     0.016 A 
ATOM     11  C   UNL A   1      36.955  34.192  31.051  1.00  0.00     0.016 A 
ATOM     12  C   UNL A   1      38.577  32.886  29.168  1.00  0.00     0.010 A 
ATOM     13  C   UNL A   1      38.321  33.957  31.305  1.00  0.00     0.010 A 
ATOM     14  C   UNL A   1      39.121  33.248  30.377  1.00  0.00    -0.014 A 
BRANCH  14  15
ATOM     15  C   UNL A   1      40.559  32.925  30.538  1.00  0.00     0.031 A 
ATOM     16  C   UNL A   1      40.896  31.980  31.536  1.00  0.00     0.074 A 
ATOM     17  C   UNL A   1      41.547  33.558  29.862  1.00  0.00     0.049 A 
ATOM     18  N   UNL A   1      42.100  31.765  31.916  1.00  0.00    -0.248 NA
ATOM     19  C   UNL A   1      39.806  31.268  32.202  1.00  0.00     0.031 C 
ATOM     20  C   UNL A   1      40.767  35.122  29.237  1.00  0.00     0.029 A 
ATOM     21  N   UNL A   1      43.389  33.702  29.698  1.00  0.00    -0.354 N 
ATOM     22  C   UNL A   1      41.944  30.796  32.836  1.00  0.00     0.074 A 
ATOM     23  C   UNL A   1      40.524  30.588  33.075  1.00  0.00     0.031 C 
ATOM     24  C   UNL A   1      41.885  36.201  28.796  1.00  0.00     0.029 A 
ATOM     25  C   UNL A   1      43.849  35.422  28.987  1.00  0.00     0.049 A 
ATOM     26  H   UNL A   1      44.035  33.000  29.941  1.00  0.00     0.167 HD
ATOM     27  C   UNL A   1      42.967  30.098  33.318  1.00  0.00     0.031 A 
ATOM     28  C   UNL A   1      45.193  35.739  28.780  1.00  0.00     0.031 A 
ATOM     29  C   UNL A   1      44.342  30.435  33.106  1.00  0.00     0.049 A 
ATOM     30  C   UNL A   1      46.105  34.868  29.581  1.00  0.00     0.074 A 
ATOM     31  C   UNL A   1      45.418  29.818  33.691  1.00  0.00     0.029 A 
ATOM     32  N   UNL A   1      44.839  31.480  32.311  1.00  0.00    -0.354 N 
ATOM     33  N   UNL A   1      45.787  33.962  30.472  1.00  0.00    -0.248 NA
ATOM     34  C   UNL A   1      47.540  35.109  29.431  1.00  0.00     0.031 C 
ATOM     35  C   UNL A   1      46.550  30.555  33.366  1.00  0.00     0.029 A 
ATOM     36  C   UNL A   1      46.218  31.565  32.470  1.00  0.00     0.049 A 
ATOM     37  H   UNL A   1      44.297  32.061  31.732  1.00  0.00     0.167 HD
ATOM     38  C   UNL A   1      46.965  33.456  30.941  1.00  0.00     0.074 A 
ATOM     39  C   UNL A   1      48.022  34.212  30.275  1.00  0.00     0.031 C 
ATOM     40  C   UNL A   1      47.166  32.454  31.826  1.00  0.00     0.031 A 
BRANCH  27  41
ATOM     41  C   UNL A   1      42.515  29.002  34.180  1.00  0.00    -0.014 A 
ATOM     42  C   UNL A   1      42.479  29.166  35.579  1.00  0.00     0.010 A 
ATOM     43  C   UNL A   1      42.337  27.753  33.583  1.00  0.00     0.010 A 
ATOM     44  C   UNL A   1      42.269  28.060  36.381  1.00  0.00     0.020 A 
ATOM     45  C   UNL A   1      42.072  26.658  34.383  1.00  0.00     0.020 A 
ATOM     46  C   UNL A   1      42.036  26.823  35.771  1.00  0.00     0.054 A 
BRANCH  46  47
ATOM     47  S   UNL A   1      41.603  25.432  36.828  1.00  0.00     0.124 S 
ATOM     48  O   UNL A   1      41.267  24.402  35.850  1.00  0.00    -0.237 OA
ATOM     49  O   UNL A   1      42.843  25.219  37.571  1.00  0.00    -0.237 OA
ATOM     50  O   UNL A   1      40.484  25.938  37.617  1.00  0.00    -0.744 OA
ENDBRANCH  46  47
ENDBRANCH  27  41
BRANCH  28  51
ATOM     51  C   UNL A   1      45.840  36.843  27.956  1.00  0.00    -0.014 A 
ATOM     52  C   UNL A   1      45.969  36.695  26.560  1.00  0.00     0.010 A 
ATOM     53  C   UNL A   1      46.220  38.080  28.512  1.00  0.00     0.010 A 
ATOM     54  C   UNL A   1      46.266  37.799  25.741  1.00  0.00     0.020 A 
ATOM     55  C   UNL A   1      46.378  39.211  27.697  1.00  0.00     0.020 A 
ATOM     56  C   UNL A   1      46.392  39.067  26.312  1.00  0.00     0.054 A 
BRANCH  56  57
ATOM     57  S   UNL A   1      46.461  40.545  25.256  1.00  0.00     0.124 S 
ATOM     58  O   UNL A   1      45.044  40.828  25.046  1.00  0.00    -0.237 OA
ATOM     59  O   UNL A   1      47.184  41.508  26.081  1.00  0.00    -0.237 OA
ATOM     60  O   UNL A   1      47.190  40.082  24.077  1.00  0.00    -0.744 OA
ENDBRANCH  56  57
ENDBRANCH  28  51
BRANCH  40  61
ATOM     61  C   UNL A   1      48.614  32.214  32.105  1.00  0.00    -0.014 A 
ATOM     62  C   UNL A   1      49.267  32.897  33.146  1.00  0.00     0.010 A 
ATOM     63  C   UNL A   1      49.315  31.317  31.286  1.00  0.00     0.010 A 
ATOM     64  C   UNL A   1      50.631  32.723  33.325  1.00  0.00     0.020 A 
ATOM     65  C   UNL A   1      50.664  31.090  31.511  1.00  0.00     0.020 A 
ATOM     66  C   UNL A   1      51.314  31.808  32.519  1.00  0.00     0.054 A 
BRANCH  66  67
ATOM     67  S   UNL A   1      53.068  31.536  32.841  1.00  0.00     0.124 S 
ATOM     68  O   UNL A   1      53.363  30.402  31.970  1.00  0.00    -0.237 OA
ATOM     69  O   UNL A   1      53.656  32.812  32.437  1.00  0.00    -0.237 OA
ATOM     70  O   UNL A   1      53.117  31.256  34.274  1.00  0.00    -0.744 OA
ENDBRANCH  66  67
ENDBRANCH  40  61
ENDBRANCH  14  15
ENDBRANCH   7   9
ENDBRANCH   6   7
ENDBRANCH   5   6
ENDBRANCH   4   5
ENDBRANCH   3   4
ENDBRANCH   2   3
ENDBRANCH   1   2
BRANCH   1  71
ATOM     71  O   UNL A   1      39.158  28.864  28.212  1.00  0.00    -0.376 OA
BRANCH  71  72
ATOM     72  C   UNL A   1      39.772  28.191  29.303  1.00  0.00     0.202 C 
BRANCH  72  73
ATOM     73  C   UNL A   1      41.086  28.738  29.882  1.00  0.00     0.261 C 
BRANCH  73  74
ATOM     74  O   UNL A   1      41.795  29.601  29.006  1.00  0.00    -0.461 OA
BRANCH  74  75
ATOM     75  C   UNL A   1      43.171  29.601  28.883  1.00  0.00     0.338 C 
ATOM     76  O   UNL A   1      43.970  30.116  29.640  1.00  0.00    -0.249 OA
BRANCH  75  77
ATOM     77  C   UNL A   1      43.414  28.666  27.724  1.00  0.00     0.263 C 
ATOM     78  O   UNL A   1      43.877  27.496  28.442  1.00  0.00    -0.322 OA
ATOM     79  C   UNL A   1      42.556  28.171  26.575  1.00  0.00     0.186 C 
ATOM     80  C   UNL A   1      45.119  27.151  27.876  1.00  0.00     0.340 C 
ATOM     81  C   UNL A   1      43.572  27.501  25.645  1.00  0.00     0.181 C 
ATOM     82  C   UNL A   1      44.715  26.826  26.388  1.00  0.00     0.214 C 
BRANCH  79  83
ATOM     83  O   UNL A   1      41.955  29.185  25.771  1.00  0.00    -0.387 OA
ATOM     84  H   UNL A   1      41.069  28.899  25.498  1.00  0.00     0.211 HD
ENDBRANCH  79  83
BRANCH  80  85
ATOM     85  O   UNL A   1      45.818  26.124  28.642  1.00  0.00    -0.454 OA
BRANCH  85  86
ATOM     86  C   UNL A   1      45.315  25.624  29.852  1.00  0.00     0.214 A 
ATOM     87  C   UNL A   1      44.564  24.498  29.924  1.00  0.00     0.181 A 
ATOM     88  C   UNL A   1      45.956  26.033  31.162  1.00  0.00     0.239 A 
ATOM     89  O   UNL A   1      44.080  23.894  31.047  1.00  0.00    -0.452 OA
ATOM     90  C   UNL A   1      45.500  25.319  32.406  1.00  0.00     0.111 A 
ATOM     91  O   UNL A   1      46.866  26.856  31.181  1.00  0.00    -0.285 OA
ATOM     92  C   UNL A   1      44.556  24.302  32.257  1.00  0.00     0.146 A 
ATOM     93  C   UNL A   1      45.962  25.580  33.710  1.00  0.00     0.134 A 
ATOM     94  C   UNL A   1      44.052  23.589  33.349  1.00  0.00     0.094 A 
ATOM     95  C   UNL A   1      45.462  24.863  34.817  1.00  0.00     0.093 A 
ATOM     96  C   UNL A   1      44.502  23.878  34.623  1.00  0.00     0.123 A 
BRANCH  87  97
ATOM     97  C   UNL A   1      44.284  23.714  28.727  1.00  0.00     0.029 A 
ATOM     98  C   UNL A   1      42.858  23.897  27.830  1.00  0.00     0.062 A 
ATOM     99  C   UNL A   1      45.679  23.071  27.899  1.00  0.00     0.062 A 
ATOM    100  C   UNL A   1      42.678  23.474  26.139  1.00  0.00     0.162 A 
ATOM    101  C   UNL A   1      45.497  22.609  25.863  1.00  0.00     0.162 A 
ATOM    102  C   UNL A   1      43.905  22.819  25.144  1.00  0.00     0.200 A 
BRANCH 100 103
ATOM    103  O   UNL A   1      41.620  24.135  25.536  1.00  0.00    -0.504 OA
ATOM    104  H   UNL A   1      41.666  25.059  25.392  1.00  0.00     0.293 HD
ENDBRANCH 100 103
BRANCH 101 105
ATOM    105  O   UNL A   1      46.349  22.070  24.877  1.00  0.00    -0.504 OA
ATOM    106  H   UNL A   1      45.998  21.524  24.202  1.00  0.00     0.293 HD
ENDBRANCH 101 105
BRANCH 102 107
ATOM    107  O   UNL A   1      43.800  22.690  23.796  1.00  0.00    -0.502 OA
ATOM    108  H   UNL A   1      44.194  23.326  23.232  1.00  0.00     0.293 HD
ENDBRANCH 102 107
ENDBRANCH  87  97
BRANCH  93 109
ATOM    109  O   UNL A   1      46.910  26.538  33.946  1.00  0.00    -0.507 OA
ATOM    110  H   UNL A   1      47.786  26.286  34.166  1.00  0.00     0.293 HD
ENDBRANCH  93 109
BRANCH  96 111
ATOM    111  O   UNL A   1      43.973  23.159  35.651  1.00  0.00    -0.508 OA
ATOM    112  H   UNL A   1      43.688  22.277  35.509  1.00  0.00     0.293 HD
ENDBRANCH  96 111
ENDBRANCH  85  86
ENDBRANCH  80  85
BRANCH  81 113
ATOM    113  O   UNL A   1      42.941  26.566  24.731  1.00  0.00    -0.387 OA
ATOM    114  H   UNL A   1      42.542  25.838  25.234  1.00  0.00     0.211 HD
ENDBRANCH  81 113
BRANCH  82 115
ATOM    115  O   UNL A   1      45.751  26.902  25.409  1.00  0.00    -0.384 OA
ATOM    116  H   UNL A   1      46.025  26.006  25.159  1.00  0.00     0.211 HD
ENDBRANCH  82 115
ENDBRANCH  75  77
ENDBRANCH  74  75
ENDBRANCH  73  74
ENDBRANCH  72  73
ENDBRANCH  71  72
ENDBRANCH   1  71
TORSDOF 31
ENDMDL
MODEL 2
REMARK VINA RESULT:      -6.8      5.642      7.788
REMARK SMILES O=C(OCCOCCOCCOC(=O)[C@H]1O[C@@H](Oc2c(-c3cc(O)c(O)c(O)c3)oc3cc(O)cc(O)c3c2=O)[C@H](O)[C@@H](O)[C@@H]1O)c1ccc(-c2c3nc(c(-c4ccc(S(=O)(=O)[O-])cc4)c4ccc([nH]4)c(-c4ccc(S(=O)(=O)[O-])cc4)c4nc(c(-c5ccc(S(=O)(=O)[O-])cc5)c5ccc2[nH]5)C=C4)C=C3)cc1
REMARK SMILES IDX 8 1 7 2 6 3 5 4 4 5 3 6 2 7 1 8 47 9 48 10 106 11 49 12
REMARK SMILES IDX 105 13 50 14 51 15 52 16 99 17 53 18 104 19 98 20 100 21
REMARK SMILES IDX 54 22 103 23 97 24 96 25 55 27 85 28 66 29 84 30 67 31 70 32
REMARK SMILES IDX 83 33 101 34 68 35 69 36 82 38 102 39 71 40 56 41 57 42
REMARK SMILES IDX 65 43 58 44 64 45 59 46 60 47 61 48 62 49 63 50 86 51 87 52
REMARK SMILES IDX 95 53 88 54 94 55 89 56 90 57 91 58 92 59 93 60 72 61 73 62
REMARK SMILES IDX 81 63 74 64 80 65 75 66 76 67 77 68 78 69 79 70 9 71 10 72
REMARK SMILES IDX 11 73 12 74 13 75 14 76 15 77 16 78 45 79 17 80 43 81 41 82
REMARK SMILES IDX 46 83 18 85 19 86 20 87 39 88 30 89 38 90 40 91 31 92 36 93
REMARK SMILES IDX 32 94 35 95 33 96 21 97 22 98 29 99 23 100 27 101 25 102
REMARK SMILES IDX 24 103 28 105 26 107 37 109 34 111 44 113 42 115
REMARK H PARENT 100 26 70 37 46 84 24 104 28 106 26 108 37 110 34 112 44 114
REMARK H PARENT 42 116
REMARK Flexibility Score: inf
ROOT
ATOM      1  C   UNL A   1      36.614  31.166  28.566  1.00  0.00     0.188 C 
ENDROOT
BRANCH   1   2
ATOM      2  C   UNL A   1      36.669  32.664  28.266  1.00  0.00     0.188 C 
BRANCH   2   3
ATOM      3  O   UNL A   1      35.611  33.248  27.521  1.00  0.00    -0.376 OA
BRANCH   3   4
ATOM      4  C   UNL A   1      34.382  33.592  28.178  1.00  0.00     0.202 C 
BRANCH   4   5
ATOM      5  C   UNL A   1      34.360  34.276  29.575  1.00  0.00     0.261 C 
BRANCH   5   6
ATOM      6  O   UNL A   1      35.341  33.924  30.591  1.00  0.00    -0.460 OA
BRANCH   6   7
ATOM      7  C   UNL A   1      35.349  33.039  31.622  1.00  0.00     0.338 C 
ATOM      8  O   UNL A   1      34.358  32.337  31.815  1.00  0.00    -0.246 OA
BRANCH   7   9
ATOM      9  C   UNL A   1      36.526  32.894  32.516  1.00  0.00     0.060 A 
ATOM     10  C   UNL A   1      37.751  33.458  32.215  1.00  0.00     0.016 A 
ATOM     11  C   UNL A   1      36.418  32.268  33.755  1.00  0.00     0.016 A 
ATOM     12  C   UNL A   1      38.914  33.237  32.909  1.00  0.00     0.010 A 
ATOM     13  C   UNL A   1      37.562  32.141  34.569  1.00  0.00     0.010 A 
ATOM     14  C   UNL A   1      38.829  32.580  34.113  1.00  0.00    -0.014 A 
BRANCH  14  15
ATOM     15  C   UNL A   1      40.102  32.486  34.867  1.00  0.00     0.031 A 
ATOM     16  C   UNL A   1      40.743  31.224  34.889  1.00  0.00     0.074 A 
ATOM     17  C   UNL A   1      40.611  33.502  35.604  1.00  0.00     0.049 A 
ATOM     18  N   UNL A   1      41.728  30.955  35.661  1.00  0.00    -0.248 NA
ATOM     19  C   UNL A   1      40.205  30.168  34.032  1.00  0.00     0.031 C 
ATOM     20  C   UNL A   1      39.181  34.656  35.871  1.00  0.00     0.029 A 
ATOM     21  N   UNL A   1      41.975  33.961  36.773  1.00  0.00    -0.354 N 
ATOM     22  C   UNL A   1      42.018  29.685  35.327  1.00  0.00     0.074 A 
ATOM     23  C   UNL A   1      41.003  29.188  34.411  1.00  0.00     0.031 C 
ATOM     24  C   UNL A   1      39.473  35.684  37.082  1.00  0.00     0.029 A 
ATOM     25  C   UNL A   1      41.424  35.429  37.878  1.00  0.00     0.049 A 
ATOM     26  H   UNL A   1      42.853  33.516  36.821  1.00  0.00     0.167 HD
ATOM     27  C   UNL A   1      43.137  29.083  35.715  1.00  0.00     0.031 A 
ATOM     28  C   UNL A   1      42.308  35.936  38.831  1.00  0.00     0.031 A 
ATOM     29  C   UNL A   1      44.033  29.608  36.700  1.00  0.00     0.049 A 
ATOM     30  C   UNL A   1      43.384  34.959  39.175  1.00  0.00     0.074 A 
ATOM     31  C   UNL A   1      45.125  28.959  37.218  1.00  0.00     0.029 A 
ATOM     32  N   UNL A   1      43.937  30.848  37.349  1.00  0.00    -0.354 N 
ATOM     33  N   UNL A   1      43.517  33.721  38.769  1.00  0.00    -0.248 NA
ATOM     34  C   UNL A   1      44.374  35.395  40.160  1.00  0.00     0.031 C 
ATOM     35  C   UNL A   1      45.614  29.731  38.264  1.00  0.00     0.029 A 
ATOM     36  C   UNL A   1      44.918  30.934  38.331  1.00  0.00     0.049 A 
ATOM     37  H   UNL A   1      43.278  31.548  37.142  1.00  0.00     0.167 HD
ATOM     38  C   UNL A   1      44.642  33.238  39.373  1.00  0.00     0.074 A 
ATOM     39  C   UNL A   1      45.127  34.310  40.238  1.00  0.00     0.031 C 
ATOM     40  C   UNL A   1      45.234  32.032  39.225  1.00  0.00     0.031 A 
BRANCH  27  41
ATOM     41  C   UNL A   1      43.287  27.766  35.089  1.00  0.00    -0.014 A 
ATOM     42  C   UNL A   1      42.870  26.604  35.769  1.00  0.00     0.010 A 
ATOM     43  C   UNL A   1      44.041  27.699  33.916  1.00  0.00     0.010 A 
ATOM     44  C   UNL A   1      43.224  25.366  35.264  1.00  0.00     0.020 A 
ATOM     45  C   UNL A   1      44.345  26.462  33.383  1.00  0.00     0.020 A 
ATOM     46  C   UNL A   1      43.930  25.309  34.058  1.00  0.00     0.054 A 
BRANCH  46  47
ATOM     47  S   UNL A   1      44.236  23.689  33.337  1.00  0.00     0.124 S 
ATOM     48  O   UNL A   1      43.075  22.931  33.794  1.00  0.00    -0.237 OA
ATOM     49  O   UNL A   1      44.271  23.995  31.909  1.00  0.00    -0.237 OA
ATOM     50  O   UNL A   1      45.514  23.291  33.920  1.00  0.00    -0.744 OA
ENDBRANCH  46  47
ENDBRANCH  27  41
BRANCH  28  51
ATOM     51  C   UNL A   1      42.296  37.249  39.601  1.00  0.00    -0.014 A 
ATOM     52  C   UNL A   1      41.697  37.311  40.876  1.00  0.00     0.010 A 
ATOM     53  C   UNL A   1      42.967  38.400  39.146  1.00  0.00     0.010 A 
ATOM     54  C   UNL A   1      41.939  38.399  41.734  1.00  0.00     0.020 A 
ATOM     55  C   UNL A   1      43.327  39.418  40.042  1.00  0.00     0.020 A 
ATOM     56  C   UNL A   1      42.816  39.410  41.337  1.00  0.00     0.054 A 
BRANCH  56  57
ATOM     57  S   UNL A   1      43.387  40.651  42.536  1.00  0.00     0.124 S 
ATOM     58  O   UNL A   1      43.742  39.819  43.682  1.00  0.00    -0.237 OA
ATOM     59  O   UNL A   1      44.504  41.290  41.846  1.00  0.00    -0.237 OA
ATOM     60  O   UNL A   1      42.215  41.505  42.720  1.00  0.00    -0.744 OA
ENDBRANCH  56  57
ENDBRANCH  28  51
BRANCH  40  61
ATOM     61  C   UNL A   1      46.442  31.872  40.089  1.00  0.00    -0.014 A 
ATOM     62  C   UNL A   1      46.329  31.354  41.391  1.00  0.00     0.010 A 
ATOM     63  C   UNL A   1      47.685  32.282  39.585  1.00  0.00     0.010 A 
ATOM     64  C   UNL A   1      47.452  31.302  42.203  1.00  0.00     0.020 A 
ATOM     65  C   UNL A   1      48.820  32.163  40.373  1.00  0.00     0.020 A 
ATOM     66  C   UNL A   1      48.691  31.689  41.682  1.00  0.00     0.054 A 
BRANCH  66  67
ATOM     67  S   UNL A   1      50.146  31.519  42.735  1.00  0.00     0.124 S 
ATOM     68  O   UNL A   1      50.969  30.591  41.965  1.00  0.00    -0.237 OA
ATOM     69  O   UNL A   1      50.640  32.893  42.801  1.00  0.00    -0.237 OA
ATOM     70  O   UNL A   1      49.608  30.991  43.985  1.00  0.00    -0.744 OA
ENDBRANCH  66  67
ENDBRANCH  40  61
ENDBRANCH  14  15
ENDBRANCH   7   9
ENDBRANCH   6   7
ENDBRANCH   5   6
ENDBRANCH   4   5
ENDBRANCH   3   4
ENDBRANCH   2   3
ENDBRANCH   1   2
BRANCH   1  71
ATOM     71  O   UNL A   1      37.840  30.455  28.670  1.00  0.00    -0.376 OA
BRANCH  71  72
ATOM     72  C   UNL A   1      38.125  29.508  27.648  1.00  0.00     0.202 C 
BRANCH  72  73
ATOM     73  C   UNL A   1      39.588  29.189  27.305  1.00  0.00     0.261 C 
BRANCH  73  74
ATOM     74  O   UNL A   1      40.226  28.315  28.223  1.00  0.00    -0.461 OA
BRANCH  74  75
ATOM     75  C   UNL A   1      40.467  26.980  27.965  1.00  0.00     0.338 C 
ATOM     76  O   UNL A   1      39.749  26.214  27.355  1.00  0.00    -0.249 OA
BRANCH  75  77
ATOM     77  C   UNL A   1      41.884  26.786  28.448  1.00  0.00     0.263 C 
ATOM     78  O   UNL A   1      42.573  26.727  27.175  1.00  0.00    -0.322 OA
ATOM     79  C   UNL A   1      42.783  27.548  29.404  1.00  0.00     0.186 C 
ATOM     80  C   UNL A   1      43.311  25.528  27.181  1.00  0.00     0.340 C 
ATOM     81  C   UNL A   1      43.954  26.586  29.623  1.00  0.00     0.181 C 
ATOM     82  C   UNL A   1      44.294  25.762  28.391  1.00  0.00     0.214 C 
BRANCH  79  83
ATOM     83  O   UNL A   1      42.252  27.763  30.711  1.00  0.00    -0.387 OA
ATOM     84  H   UNL A   1      42.902  28.243  31.249  1.00  0.00     0.211 HD
ENDBRANCH  79  83
BRANCH  80  85
ATOM     85  O   UNL A   1      43.885  25.216  25.876  1.00  0.00    -0.454 OA
BRANCH  85  86
ATOM     86  C   UNL A   1      44.394  23.945  25.569  1.00  0.00     0.214 A 
ATOM     87  C   UNL A   1      45.719  23.663  25.590  1.00  0.00     0.181 A 
ATOM     88  C   UNL A   1      43.494  22.730  25.659  1.00  0.00     0.239 A 
ATOM     89  O   UNL A   1      46.314  22.455  25.372  1.00  0.00    -0.452 OA
ATOM     90  C   UNL A   1      44.141  21.380  25.508  1.00  0.00     0.111 A 
ATOM     91  O   UNL A   1      42.302  22.854  25.926  1.00  0.00    -0.285 OA
ATOM     92  C   UNL A   1      45.526  21.342  25.343  1.00  0.00     0.146 A 
ATOM     93  C   UNL A   1      43.465  20.145  25.538  1.00  0.00     0.134 A 
ATOM     94  C   UNL A   1      46.223  20.143  25.176  1.00  0.00     0.094 A 
ATOM     95  C   UNL A   1      44.161  18.930  25.373  1.00  0.00     0.093 A 
ATOM     96  C   UNL A   1      45.537  18.943  25.184  1.00  0.00     0.123 A 
BRANCH  87  97
ATOM     97  C   UNL A   1      46.688  24.676  25.988  1.00  0.00     0.029 A 
ATOM     98  C   UNL A   1      47.814  24.423  27.229  1.00  0.00     0.062 A 
ATOM     99  C   UNL A   1      47.081  25.869  24.776  1.00  0.00     0.062 A 
ATOM    100  C   UNL A   1      49.334  25.279  27.391  1.00  0.00     0.162 A 
ATOM    101  C   UNL A   1      48.919  26.864  24.924  1.00  0.00     0.162 A 
ATOM    102  C   UNL A   1      49.909  26.491  26.329  1.00  0.00     0.200 A 
BRANCH 100 103
ATOM    103  O   UNL A   1      50.253  24.589  28.166  1.00  0.00    -0.504 OA
ATOM    104  H   UNL A   1      50.979  24.159  27.759  1.00  0.00     0.293 HD
ENDBRANCH 100 103
BRANCH 101 105
ATOM    105  O   UNL A   1      49.576  27.872  24.188  1.00  0.00    -0.504 OA
ATOM    106  H   UNL A   1      50.327  27.660  23.672  1.00  0.00     0.293 HD
ENDBRANCH 101 105
BRANCH 102 107
ATOM    107  O   UNL A   1      51.172  26.992  26.362  1.00  0.00    -0.502 OA
ATOM    108  H   UNL A   1      51.371  27.789  25.912  1.00  0.00     0.293 HD
ENDBRANCH 102 107
ENDBRANCH  87  97
BRANCH  93 109
ATOM    109  O   UNL A   1      42.111  20.084  25.726  1.00  0.00    -0.507 OA
ATOM    110  H   UNL A   1      41.619  20.872  25.850  1.00  0.00     0.293 HD
ENDBRANCH  93 109
BRANCH  96 111
ATOM    111  O   UNL A   1      46.264  17.805  25.009  1.00  0.00    -0.508 OA
ATOM    112  H   UNL A   1      46.038  17.204  24.326  1.00  0.00     0.293 HD
ENDBRANCH  96 111
ENDBRANCH  85  86
ENDBRANCH  80  85
BRANCH  81 113
ATOM    113  O   UNL A   1      45.137  27.269  30.117  1.00  0.00    -0.387 OA
ATOM    114  H   UNL A   1      45.400  27.958  29.486  1.00  0.00     0.211 HD
ENDBRANCH  81 113
BRANCH  82 115
ATOM    115  O   UNL A   1      44.858  24.598  28.995  1.00  0.00    -0.384 OA
ATOM    116  H   UNL A   1      44.361  23.815  28.712  1.00  0.00     0.211 HD
ENDBRANCH  82 115
ENDBRANCH  75  77
ENDBRANCH  74  75
ENDBRANCH  73  74
ENDBRANCH  72  73
ENDBRANCH  71  72
ENDBRANCH   1  71
TORSDOF 31
ENDMDL
MODEL 3
REMARK VINA RESULT:      -6.6      6.711     13.253
REMARK SMILES O=C(OCCOCCOCCOC(=O)[C@H]1O[C@@H](Oc2c(-c3cc(O)c(O)c(O)c3)oc3cc(O)cc(O)c3c2=O)[C@H](O)[C@@H](O)[C@@H]1O)c1ccc(-c2c3nc(c(-c4ccc(S(=O)(=O)[O-])cc4)c4ccc([nH]4)c(-c4ccc(S(=O)(=O)[O-])cc4)c4nc(c(-c5ccc(S(=O)(=O)[O-])cc5)c5ccc2[nH]5)C=C4)C=C3)cc1
REMARK SMILES IDX 8 1 7 2 6 3 5 4 4 5 3 6 2 7 1 8 47 9 48 10 106 11 49 12
REMARK SMILES IDX 105 13 50 14 51 15 52 16 99 17 53 18 104 19 98 20 100 21
REMARK SMILES IDX 54 22 103 23 97 24 96 25 55 27 85 28 66 29 84 30 67 31 70 32
REMARK SMILES IDX 83 33 101 34 68 35 69 36 82 38 102 39 71 40 56 41 57 42
REMARK SMILES IDX 65 43 58 44 64 45 59 46 60 47 61 48 62 49 63 50 86 51 87 52
REMARK SMILES IDX 95 53 88 54 94 55 89 56 90 57 91 58 92 59 93 60 72 61 73 62
REMARK SMILES IDX 81 63 74 64 80 65 75 66 76 67 77 68 78 69 79 70 9 71 10 72
REMARK SMILES IDX 11 73 12 74 13 75 14 76 15 77 16 78 45 79 17 80 43 81 41 82
REMARK SMILES IDX 46 83 18 85 19 86 20 87 39 88 30 89 38 90 40 91 31 92 36 93
REMARK SMILES IDX 32 94 35 95 33 96 21 97 22 98 29 99 23 100 27 101 25 102
REMARK SMILES IDX 24 103 28 105 26 107 37 109 34 111 44 113 42 115
REMARK H PARENT 100 26 70 37 46 84 24 104 28 106 26 108 37 110 34 112 44 114
REMARK H PARENT 42 116
REMARK Flexibility Score: inf
ROOT
ATOM      1  C   UNL A   1      48.801  24.312  34.337  1.00  0.00     0.188 C 
ENDROOT
BRANCH   1   2
ATOM      2  C   UNL A   1      48.101  23.127  35.001  1.00  0.00     0.188 C 
BRANCH   2   3
ATOM      3  O   UNL A   1      47.881  23.164  36.403  1.00  0.00    -0.376 OA
BRANCH   3   4
ATOM      4  C   UNL A   1      48.660  24.048  37.223  1.00  0.00     0.202 C 
BRANCH   4   5
ATOM      5  C   UNL A   1      48.024  24.875  38.376  1.00  0.00     0.261 C 
BRANCH   5   6
ATOM      6  O   UNL A   1      48.246  26.310  38.471  1.00  0.00    -0.460 OA
BRANCH   6   7
ATOM      7  C   UNL A   1      47.492  27.349  38.916  1.00  0.00     0.338 C 
ATOM      8  O   UNL A   1      47.585  27.695  40.092  1.00  0.00    -0.246 OA
BRANCH   7   9
ATOM      9  C   UNL A   1      46.564  28.081  38.016  1.00  0.00     0.060 A 
ATOM     10  C   UNL A   1      45.200  27.862  38.031  1.00  0.00     0.016 A 
ATOM     11  C   UNL A   1      47.019  29.102  37.186  1.00  0.00     0.016 A 
ATOM     12  C   UNL A   1      44.307  28.382  37.129  1.00  0.00     0.010 A 
ATOM     13  C   UNL A   1      46.108  29.765  36.339  1.00  0.00     0.010 A 
ATOM     14  C   UNL A   1      44.753  29.360  36.273  1.00  0.00    -0.014 A 
BRANCH  14  15
ATOM     15  C   UNL A   1      43.708  29.965  35.412  1.00  0.00     0.031 A 
ATOM     16  C   UNL A   1      42.868  30.935  36.010  1.00  0.00     0.074 A 
ATOM     17  C   UNL A   1      43.460  29.563  34.144  1.00  0.00     0.049 A 
ATOM     18  N   UNL A   1      41.808  31.382  35.448  1.00  0.00    -0.248 NA
ATOM     19  C   UNL A   1      43.202  31.394  37.358  1.00  0.00     0.031 C 
ATOM     20  C   UNL A   1      44.250  27.888  34.014  1.00  0.00     0.029 A 
ATOM     21  N   UNL A   1      42.324  29.801  32.696  1.00  0.00    -0.354 N 
ATOM     22  C   UNL A   1      41.360  32.276  36.347  1.00  0.00     0.074 A 
ATOM     23  C   UNL A   1      42.165  32.184  37.555  1.00  0.00     0.031 C 
ATOM     24  C   UNL A   1      43.689  27.070  32.739  1.00  0.00     0.029 A 
ATOM     25  C   UNL A   1      42.324  28.228  31.600  1.00  0.00     0.049 A 
ATOM     26  H   UNL A   1      41.799  30.614  32.518  1.00  0.00     0.167 HD
ATOM     27  C   UNL A   1      40.405  33.156  36.061  1.00  0.00     0.031 A 
ATOM     28  C   UNL A   1      41.534  28.196  30.450  1.00  0.00     0.031 A 
ATOM     29  C   UNL A   1      39.595  33.111  34.883  1.00  0.00     0.049 A 
ATOM     30  C   UNL A   1      40.442  29.216  30.491  1.00  0.00     0.074 A 
ATOM     31  C   UNL A   1      38.520  33.921  34.618  1.00  0.00     0.029 A 
ATOM     32  N   UNL A   1      39.713  32.210  33.814  1.00  0.00    -0.354 N 
ATOM     33  N   UNL A   1      40.116  30.016  31.475  1.00  0.00    -0.248 NA
ATOM     34  C   UNL A   1      39.558  29.276  29.327  1.00  0.00     0.031 C 
ATOM     35  C   UNL A   1      37.906  33.438  33.469  1.00  0.00     0.029 A 
ATOM     36  C   UNL A   1      38.660  32.403  32.927  1.00  0.00     0.049 A 
ATOM     37  H   UNL A   1      40.430  31.544  33.709  1.00  0.00     0.167 HD
ATOM     38  C   UNL A   1      39.044  30.741  31.040  1.00  0.00     0.074 A 
ATOM     39  C   UNL A   1      38.726  30.232  29.708  1.00  0.00     0.031 C 
ATOM     40  C   UNL A   1      38.385  31.742  31.666  1.00  0.00     0.031 A 
BRANCH  27  41
ATOM     41  C   UNL A   1      40.214  34.116  37.153  1.00  0.00    -0.014 A 
ATOM     42  C   UNL A   1      39.296  33.844  38.187  1.00  0.00     0.010 A 
ATOM     43  C   UNL A   1      40.803  35.373  37.007  1.00  0.00     0.010 A 
ATOM     44  C   UNL A   1      38.966  34.850  39.076  1.00  0.00     0.020 A 
ATOM     45  C   UNL A   1      40.514  36.361  37.929  1.00  0.00     0.020 A 
ATOM     46  C   UNL A   1      39.604  36.089  38.955  1.00  0.00     0.054 A 
BRANCH  46  47
ATOM     47  S   UNL A   1      39.281  37.328  40.219  1.00  0.00     0.124 S 
ATOM     48  O   UNL A   1      40.627  37.798  40.534  1.00  0.00    -0.237 OA
ATOM     49  O   UNL A   1      38.431  38.277  39.503  1.00  0.00    -0.237 OA
ATOM     50  O   UNL A   1      38.616  36.573  41.276  1.00  0.00    -0.744 OA
ENDBRANCH  46  47
ENDBRANCH  27  41
BRANCH  28  51
ATOM     51  C   UNL A   1      41.565  27.267  29.245  1.00  0.00    -0.014 A 
ATOM     52  C   UNL A   1      42.788  26.997  28.597  1.00  0.00     0.010 A 
ATOM     53  C   UNL A   1      40.431  26.557  28.805  1.00  0.00     0.010 A 
ATOM     54  C   UNL A   1      42.907  25.922  27.698  1.00  0.00     0.020 A 
ATOM     55  C   UNL A   1      40.572  25.402  28.022  1.00  0.00     0.020 A 
ATOM     56  C   UNL A   1      41.812  25.084  27.477  1.00  0.00     0.054 A 
BRANCH  56  57
ATOM     57  S   UNL A   1      42.024  23.520  26.576  1.00  0.00     0.124 S 
ATOM     58  O   UNL A   1      42.136  23.981  25.196  1.00  0.00    -0.237 OA
ATOM     59  O   UNL A   1      43.242  22.964  27.159  1.00  0.00    -0.237 OA
ATOM     60  O   UNL A   1      40.803  22.780  26.894  1.00  0.00    -0.744 OA
ENDBRANCH  56  57
ENDBRANCH  28  51
BRANCH  40  61
ATOM     61  C   UNL A   1      37.237  32.265  30.866  1.00  0.00    -0.014 A 
ATOM     62  C   UNL A   1      35.954  31.705  31.000  1.00  0.00     0.010 A 
ATOM     63  C   UNL A   1      37.474  33.305  29.955  1.00  0.00     0.010 A 
ATOM     64  C   UNL A   1      34.928  32.149  30.180  1.00  0.00     0.020 A 
ATOM     65  C   UNL A   1      36.430  33.796  29.185  1.00  0.00     0.020 A 
ATOM     66  C   UNL A   1      35.170  33.203  29.293  1.00  0.00     0.054 A 
BRANCH  66  67
ATOM     67  S   UNL A   1      33.788  33.818  28.309  1.00  0.00     0.124 S 
ATOM     68  O   UNL A   1      32.948  34.443  29.326  1.00  0.00    -0.237 OA
ATOM     69  O   UNL A   1      34.452  34.738  27.387  1.00  0.00    -0.237 OA
ATOM     70  O   UNL A   1      33.237  32.613  27.695  1.00  0.00    -0.744 OA
ENDBRANCH  66  67
ENDBRANCH  40  61
ENDBRANCH  14  15
ENDBRANCH   7   9
ENDBRANCH   6   7
ENDBRANCH   5   6
ENDBRANCH   4   5
ENDBRANCH   3   4
ENDBRANCH   2   3
ENDBRANCH   1   2
BRANCH   1  71
ATOM     71  O   UNL A   1      49.312  24.142  33.023  1.00  0.00    -0.376 OA
BRANCH  71  72
ATOM     72  C   UNL A   1      50.677  24.480  32.812  1.00  0.00     0.202 C 
BRANCH  72  73
ATOM     73  C   UNL A   1      51.583  24.742  34.024  1.00  0.00     0.261 C 
BRANCH  73  74
ATOM     74  O   UNL A   1      52.274  23.595  34.495  1.00  0.00    -0.461 OA
BRANCH  74  75
ATOM     75  C   UNL A   1      52.231  23.163  35.806  1.00  0.00     0.338 C 
ATOM     76  O   UNL A   1      52.398  23.838  36.802  1.00  0.00    -0.249 OA
BRANCH  75  77
ATOM     77  C   UNL A   1      51.748  21.738  35.685  1.00  0.00     0.263 C 
ATOM     78  O   UNL A   1      50.941  21.648  36.885  1.00  0.00    -0.322 OA
ATOM     79  C   UNL A   1      51.020  20.963  34.602  1.00  0.00     0.186 C 
ATOM     80  C   UNL A   1      51.414  20.528  37.595  1.00  0.00     0.340 C 
ATOM     81  C   UNL A   1      51.150  19.510  35.068  1.00  0.00     0.181 C 
ATOM     82  C   UNL A   1      51.122  19.357  36.581  1.00  0.00     0.214 C 
BRANCH  79  83
ATOM     83  O   UNL A   1      51.634  20.979  33.314  1.00  0.00    -0.387 OA
ATOM     84  H   UNL A   1      50.952  21.080  32.632  1.00  0.00     0.211 HD
ENDBRANCH  79  83
BRANCH  80  85
ATOM     85  O   UNL A   1      50.848  20.435  38.937  1.00  0.00    -0.454 OA
BRANCH  85  86
ATOM     86  C   UNL A   1      49.899  19.460  39.281  1.00  0.00     0.214 A 
ATOM     87  C   UNL A   1      50.034  18.655  40.362  1.00  0.00     0.181 A 
ATOM     88  C   UNL A   1      48.483  19.569  38.754  1.00  0.00     0.239 A 
ATOM     89  O   UNL A   1      49.147  17.724  40.819  1.00  0.00    -0.452 OA
ATOM     90  C   UNL A   1      47.465  18.608  39.308  1.00  0.00     0.111 A 
ATOM     91  O   UNL A   1      48.175  20.461  37.968  1.00  0.00    -0.285 OA
ATOM     92  C   UNL A   1      47.888  17.721  40.298  1.00  0.00     0.146 A 
ATOM     93  C   UNL A   1      46.113  18.543  38.922  1.00  0.00     0.134 A 
ATOM     94  C   UNL A   1      47.029  16.775  40.865  1.00  0.00     0.094 A 
ATOM     95  C   UNL A   1      45.238  17.595  39.492  1.00  0.00     0.093 A 
ATOM     96  C   UNL A   1      45.711  16.712  40.455  1.00  0.00     0.123 A 
BRANCH  87  97
ATOM     97  C   UNL A   1      51.170  18.805  41.262  1.00  0.00     0.029 A 
ATOM     98  C   UNL A   1      51.038  19.538  42.784  1.00  0.00     0.062 A 
ATOM     99  C   UNL A   1      52.480  17.677  41.024  1.00  0.00     0.062 A 
ATOM    100  C   UNL A   1      52.126  19.258  44.128  1.00  0.00     0.162 A 
ATOM    101  C   UNL A   1      53.760  17.289  42.637  1.00  0.00     0.162 A 
ATOM    102  C   UNL A   1      53.477  18.209  44.109  1.00  0.00     0.200 A 
BRANCH 100 103
ATOM    103  O   UNL A   1      51.557  19.581  45.349  1.00  0.00    -0.504 OA
ATOM    104  H   UNL A   1      50.925  20.270  45.404  1.00  0.00     0.293 HD
ENDBRANCH 100 103
BRANCH 101 105
ATOM    105  O   UNL A   1      54.905  16.491  42.840  1.00  0.00    -0.504 OA
ATOM    106  H   UNL A   1      55.233  15.957  42.144  1.00  0.00     0.293 HD
ENDBRANCH 101 105
BRANCH 102 107
ATOM    107  O   UNL A   1      54.180  17.858  45.218  1.00  0.00    -0.502 OA
ATOM    108  H   UNL A   1      54.949  18.338  45.456  1.00  0.00     0.293 HD
ENDBRANCH 102 107
ENDBRANCH  87  97
BRANCH  93 109
ATOM    109  O   UNL A   1      45.603  19.395  37.980  1.00  0.00    -0.507 OA
ATOM    110  H   UNL A   1      45.835  19.289  37.079  1.00  0.00     0.293 HD
ENDBRANCH  93 109
BRANCH  96 111
ATOM    111  O   UNL A   1      44.919  15.768  41.035  1.00  0.00    -0.508 OA
ATOM    112  H   UNL A   1      44.757  14.957  40.595  1.00  0.00     0.293 HD
ENDBRANCH  96 111
ENDBRANCH  85  86
ENDBRANCH  80  85
BRANCH  81 113
ATOM    113  O   UNL A   1      50.153  18.650  34.454  1.00  0.00    -0.387 OA
ATOM    114  H   UNL A   1      50.112  18.829  33.501  1.00  0.00     0.211 HD
ENDBRANCH  81 113
BRANCH  82 115
ATOM    115  O   UNL A   1      51.883  18.161  36.742  1.00  0.00    -0.384 OA
ATOM    116  H   UNL A   1      52.359  17.968  35.920  1.00  0.00     0.211 HD
ENDBRANCH  82 115
ENDBRANCH  75  77
ENDBRANCH  74  75
ENDBRANCH  73  74
ENDBRANCH  72  73
ENDBRANCH  71  72
ENDBRANCH   1  71
TORSDOF 31
ENDMDL
