MODEL 1
REMARK VINA RESULT:      -8.4      0.000      0.000
REMARK SMILES O=C(OCCOCCOCCOC(=O)[C@@H]1CCn2c(C(=O)c3ccccc3)ccc21)c1ccc(-c2c3nc(c(-c4ccc(S(=O)(=O)[O-])cc4)c4ccc([nH]4)c(-c4ccc(S(=O)(=O)[O-])cc4)c4nc(c(-c5ccc(S(=O)(=O)[O-])cc5)c5ccc2[nH]5)C=C4)C=C3)cc1
REMARK SMILES IDX 7 1 6 2 5 3 4 4 3 5 2 6 1 7 31 8 32 9 90 10 33 11 89 12
REMARK SMILES IDX 34 13 35 14 36 15 83 16 37 17 88 18 82 19 84 20 38 21 87 22
REMARK SMILES IDX 81 23 80 24 39 26 69 27 50 28 68 29 51 30 54 31 67 32 85 33
REMARK SMILES IDX 52 34 53 35 66 37 86 38 55 39 40 40 41 41 49 42 42 43 48 44
REMARK SMILES IDX 43 45 44 46 45 47 46 48 47 49 70 50 71 51 79 52 72 53 78 54
REMARK SMILES IDX 73 55 74 56 75 57 76 58 77 59 56 60 57 61 65 62 58 63 64 64
REMARK SMILES IDX 59 65 60 66 61 67 62 68 63 69 8 70 9 71 10 72 11 73 12 74
REMARK SMILES IDX 13 75 14 76 15 77 16 78 30 79 17 80 18 81 29 82 19 83 28 84
REMARK SMILES IDX 20 85 21 86 22 87 23 88 27 89 24 90 26 91 25 92
REMARK H PARENT 84 25 54 36
REMARK Flexibility Score: inf
ROOT
ATOM      1  C   UNL A   1      33.160  35.609  29.249  1.00  0.00     0.188 C 
ENDROOT
BRANCH   1   2
ATOM      2  O   UNL A   1      33.305  34.475  30.110  1.00  0.00    -0.376 OA
BRANCH   2   3
ATOM      3  C   UNL A   1      34.213  33.486  29.602  1.00  0.00     0.202 C 
BRANCH   3   4
ATOM      4  C   UNL A   1      33.890  32.927  28.204  1.00  0.00     0.261 C 
BRANCH   4   5
ATOM      5  O   UNL A   1      34.903  32.055  27.682  1.00  0.00    -0.460 OA
BRANCH   5   6
ATOM      6  C   UNL A   1      35.105  30.740  27.945  1.00  0.00     0.338 C 
ATOM      7  O   UNL A   1      34.195  29.957  27.668  1.00  0.00    -0.246 OA
BRANCH   6   8
ATOM      8  C   UNL A   1      36.351  30.179  28.566  1.00  0.00     0.060 A 
ATOM      9  C   UNL A   1      36.436  29.500  29.785  1.00  0.00     0.016 A 
ATOM     10  C   UNL A   1      37.538  30.336  27.832  1.00  0.00     0.016 A 
ATOM     11  C   UNL A   1      37.645  29.053  30.306  1.00  0.00     0.010 A 
ATOM     12  C   UNL A   1      38.754  29.878  28.340  1.00  0.00     0.010 A 
ATOM     13  C   UNL A   1      38.815  29.258  29.593  1.00  0.00    -0.014 A 
BRANCH  13  14
ATOM     14  C   UNL A   1      40.113  29.020  30.247  1.00  0.00     0.031 A 
ATOM     15  C   UNL A   1      40.971  27.944  29.672  1.00  0.00     0.074 A 
ATOM     16  C   UNL A   1      40.537  29.782  31.269  1.00  0.00     0.049 A 
ATOM     17  N   UNL A   1      42.122  27.507  30.089  1.00  0.00    -0.248 NA
ATOM     18  C   UNL A   1      40.485  27.307  28.434  1.00  0.00     0.031 C 
ATOM     19  C   UNL A   1      39.863  30.983  31.738  1.00  0.00     0.029 A 
ATOM     20  N   UNL A   1      41.616  29.679  32.100  1.00  0.00    -0.354 N 
ATOM     21  C   UNL A   1      42.504  26.549  29.162  1.00  0.00     0.074 A 
ATOM     22  C   UNL A   1      41.443  26.431  28.190  1.00  0.00     0.031 C 
ATOM     23  C   UNL A   1      40.465  31.450  32.841  1.00  0.00     0.029 A 
ATOM     24  C   UNL A   1      41.601  30.591  33.133  1.00  0.00     0.049 A 
ATOM     25  H   UNL A   1      42.335  29.018  31.973  1.00  0.00     0.167 HD
ATOM     26  C   UNL A   1      43.656  25.847  29.128  1.00  0.00     0.031 A 
ATOM     27  C   UNL A   1      42.418  30.713  34.193  1.00  0.00     0.031 A 
ATOM     28  C   UNL A   1      44.663  25.967  30.143  1.00  0.00     0.049 A 
ATOM     29  C   UNL A   1      43.612  29.807  34.234  1.00  0.00     0.074 A 
ATOM     30  C   UNL A   1      45.847  25.272  30.272  1.00  0.00     0.029 A 
ATOM     31  N   UNL A   1      44.586  26.846  31.220  1.00  0.00    -0.354 N 
ATOM     32  N   UNL A   1      43.951  28.876  33.371  1.00  0.00    -0.248 NA
ATOM     33  C   UNL A   1      44.551  29.984  35.343  1.00  0.00     0.031 C 
ATOM     34  C   UNL A   1      46.453  25.680  31.465  1.00  0.00     0.029 A 
ATOM     35  C   UNL A   1      45.686  26.686  32.038  1.00  0.00     0.049 A 
ATOM     36  H   UNL A   1      43.855  27.486  31.375  1.00  0.00     0.167 HD
ATOM     37  C   UNL A   1      45.175  28.389  33.801  1.00  0.00     0.074 A 
ATOM     38  C   UNL A   1      45.507  29.124  35.010  1.00  0.00     0.031 C 
ATOM     39  C   UNL A   1      45.963  27.439  33.240  1.00  0.00     0.031 A 
BRANCH  26  40
ATOM     40  C   UNL A   1      43.800  24.852  28.013  1.00  0.00    -0.014 A 
ATOM     41  C   UNL A   1      43.362  23.521  28.151  1.00  0.00     0.010 A 
ATOM     42  C   UNL A   1      44.469  25.234  26.837  1.00  0.00     0.010 A 
ATOM     43  C   UNL A   1      43.645  22.577  27.159  1.00  0.00     0.020 A 
ATOM     44  C   UNL A   1      44.726  24.302  25.830  1.00  0.00     0.020 A 
ATOM     45  C   UNL A   1      44.334  22.973  26.009  1.00  0.00     0.054 A 
BRANCH  45  46
ATOM     46  S   UNL A   1      44.711  21.725  24.749  1.00  0.00     0.124 S 
ATOM     47  O   UNL A   1      43.725  20.690  25.047  1.00  0.00    -0.237 OA
ATOM     48  O   UNL A   1      44.502  22.455  23.505  1.00  0.00    -0.237 OA
ATOM     49  O   UNL A   1      46.101  21.361  25.031  1.00  0.00    -0.744 OA
ENDBRANCH  45  46
ENDBRANCH  26  40
BRANCH  27  50
ATOM     50  C   UNL A   1      42.136  31.727  35.247  1.00  0.00    -0.014 A 
ATOM     51  C   UNL A   1      41.353  31.415  36.371  1.00  0.00     0.010 A 
ATOM     52  C   UNL A   1      42.699  33.016  35.150  1.00  0.00     0.010 A 
ATOM     53  C   UNL A   1      41.127  32.372  37.369  1.00  0.00     0.020 A 
ATOM     54  C   UNL A   1      42.493  33.969  36.154  1.00  0.00     0.020 A 
ATOM     55  C   UNL A   1      41.701  33.641  37.254  1.00  0.00     0.054 A 
BRANCH  55  56
ATOM     56  S   UNL A   1      41.430  34.847  38.586  1.00  0.00     0.124 S 
ATOM     57  O   UNL A   1      42.566  35.747  38.418  1.00  0.00    -0.237 OA
ATOM     58  O   UNL A   1      40.124  35.401  38.241  1.00  0.00    -0.237 OA
ATOM     59  O   UNL A   1      41.452  34.028  39.796  1.00  0.00    -0.744 OA
ENDBRANCH  55  56
ENDBRANCH  27  50
BRANCH  39  60
ATOM     60  C   UNL A   1      47.277  27.170  33.912  1.00  0.00    -0.014 A 
ATOM     61  C   UNL A   1      47.402  26.168  34.887  1.00  0.00     0.010 A 
ATOM     62  C   UNL A   1      48.416  27.877  33.486  1.00  0.00     0.010 A 
ATOM     63  C   UNL A   1      48.651  25.887  35.440  1.00  0.00     0.020 A 
ATOM     64  C   UNL A   1      49.670  27.576  34.013  1.00  0.00     0.020 A 
ATOM     65  C   UNL A   1      49.777  26.588  34.993  1.00  0.00     0.054 A 
BRANCH  65  66
ATOM     66  S   UNL A   1      51.398  26.147  35.671  1.00  0.00     0.124 S 
ATOM     67  O   UNL A   1      51.095  24.920  36.402  1.00  0.00    -0.237 OA
ATOM     68  O   UNL A   1      52.209  25.980  34.468  1.00  0.00    -0.237 OA
ATOM     69  O   UNL A   1      51.751  27.297  36.500  1.00  0.00    -0.744 OA
ENDBRANCH  65  66
ENDBRANCH  39  60
ENDBRANCH  13  14
ENDBRANCH   6   8
ENDBRANCH   5   6
ENDBRANCH   4   5
ENDBRANCH   3   4
ENDBRANCH   2   3
ENDBRANCH   1   2
BRANCH   1  70
ATOM     70  C   UNL A   1      33.359  36.967  29.921  1.00  0.00     0.188 C 
BRANCH  70  71
ATOM     71  O   UNL A   1      32.754  37.175  31.189  1.00  0.00    -0.376 OA
BRANCH  71  72
ATOM     72  C   UNL A   1      33.614  37.474  32.282  1.00  0.00     0.202 C 
BRANCH  72  73
ATOM     73  C   UNL A   1      34.197  36.329  33.130  1.00  0.00     0.261 C 
BRANCH  73  74
ATOM     74  O   UNL A   1      35.445  35.768  32.686  1.00  0.00    -0.463 OA
BRANCH  74  75
ATOM     75  C   UNL A   1      35.605  34.428  32.901  1.00  0.00     0.315 C 
ATOM     76  O   UNL A   1      34.676  33.651  33.100  1.00  0.00    -0.251 OA
BRANCH  75  77
ATOM     77  C   UNL A   1      37.056  33.970  32.848  1.00  0.00     0.148 C 
ATOM     78  C   UNL A   1      38.071  34.808  33.642  1.00  0.00     0.043 C 
ATOM     79  C   UNL A   1      37.678  33.994  31.490  1.00  0.00     0.033 A 
ATOM     80  C   UNL A   1      39.419  34.574  32.932  1.00  0.00     0.124 C 
ATOM     81  N   UNL A   1      39.018  34.292  31.566  1.00  0.00    -0.341 N 
ATOM     82  C   UNL A   1      37.359  33.808  30.176  1.00  0.00     0.025 A 
ATOM     83  C   UNL A   1      39.617  34.294  30.342  1.00  0.00     0.090 A 
ATOM     84  C   UNL A   1      38.567  34.016  29.456  1.00  0.00     0.032 A 
BRANCH  83  85
ATOM     85  C   UNL A   1      40.994  34.560  29.923  1.00  0.00     0.209 C 
ATOM     86  O   UNL A   1      41.249  35.457  29.115  1.00  0.00    -0.287 OA
BRANCH  85  87
ATOM     87  C   UNL A   1      42.179  33.807  30.416  1.00  0.00     0.024 A 
ATOM     88  C   UNL A   1      42.513  32.608  29.762  1.00  0.00     0.012 A 
ATOM     89  C   UNL A   1      42.898  34.183  31.552  1.00  0.00     0.012 A 
ATOM     90  C   UNL A   1      43.603  31.843  30.188  1.00  0.00     0.001 A 
ATOM     91  C   UNL A   1      44.003  33.427  31.964  1.00  0.00     0.001 A 
ATOM     92  C   UNL A   1      44.361  32.267  31.276  1.00  0.00     0.000 A 
ENDBRANCH  85  87
ENDBRANCH  83  85
ENDBRANCH  75  77
ENDBRANCH  74  75
ENDBRANCH  73  74
ENDBRANCH  72  73
ENDBRANCH  71  72
ENDBRANCH  70  71
ENDBRANCH   1  70
TORSDOF 22
ENDMDL
MODEL 2
REMARK VINA RESULT:      -8.2      1.216      8.173
REMARK SMILES O=C(OCCOCCOCCOC(=O)[C@@H]1CCn2c(C(=O)c3ccccc3)ccc21)c1ccc(-c2c3nc(c(-c4ccc(S(=O)(=O)[O-])cc4)c4ccc([nH]4)c(-c4ccc(S(=O)(=O)[O-])cc4)c4nc(c(-c5ccc(S(=O)(=O)[O-])cc5)c5ccc2[nH]5)C=C4)C=C3)cc1
REMARK SMILES IDX 7 1 6 2 5 3 4 4 3 5 2 6 1 7 31 8 32 9 90 10 33 11 89 12
REMARK SMILES IDX 34 13 35 14 36 15 83 16 37 17 88 18 82 19 84 20 38 21 87 22
REMARK SMILES IDX 81 23 80 24 39 26 69 27 50 28 68 29 51 30 54 31 67 32 85 33
REMARK SMILES IDX 52 34 53 35 66 37 86 38 55 39 40 40 41 41 49 42 42 43 48 44
REMARK SMILES IDX 43 45 44 46 45 47 46 48 47 49 70 50 71 51 79 52 72 53 78 54
REMARK SMILES IDX 73 55 74 56 75 57 76 58 77 59 56 60 57 61 65 62 58 63 64 64
REMARK SMILES IDX 59 65 60 66 61 67 62 68 63 69 8 70 9 71 10 72 11 73 12 74
REMARK SMILES IDX 13 75 14 76 15 77 16 78 30 79 17 80 18 81 29 82 19 83 28 84
REMARK SMILES IDX 20 85 21 86 22 87 23 88 27 89 24 90 26 91 25 92
REMARK H PARENT 84 25 54 36
REMARK Flexibility Score: inf
ROOT
ATOM      1  C   UNL A   1      33.072  36.337  29.141  1.00  0.00     0.188 C 
ENDROOT
BRANCH   1   2
ATOM      2  O   UNL A   1      32.909  35.123  29.882  1.00  0.00    -0.376 OA
BRANCH   2   3
ATOM      3  C   UNL A   1      33.829  34.091  29.497  1.00  0.00     0.202 C 
BRANCH   3   4
ATOM      4  C   UNL A   1      33.864  33.743  27.996  1.00  0.00     0.261 C 
BRANCH   4   5
ATOM      5  O   UNL A   1      34.980  32.924  27.620  1.00  0.00    -0.460 OA
BRANCH   5   6
ATOM      6  C   UNL A   1      35.074  31.571  27.621  1.00  0.00     0.338 C 
ATOM      7  O   UNL A   1      34.108  30.931  27.202  1.00  0.00    -0.246 OA
BRANCH   6   8
ATOM      8  C   UNL A   1      36.266  30.803  28.112  1.00  0.00     0.060 A 
ATOM      9  C   UNL A   1      36.323  29.427  28.357  1.00  0.00     0.016 A 
ATOM     10  C   UNL A   1      37.441  31.542  28.322  1.00  0.00     0.016 A 
ATOM     11  C   UNL A   1      37.462  28.806  28.856  1.00  0.00     0.010 A 
ATOM     12  C   UNL A   1      38.594  30.925  28.810  1.00  0.00     0.010 A 
ATOM     13  C   UNL A   1      38.599  29.557  29.104  1.00  0.00    -0.014 A 
BRANCH  13  14
ATOM     14  C   UNL A   1      39.710  28.960  29.865  1.00  0.00     0.031 A 
ATOM     15  C   UNL A   1      39.978  29.523  31.220  1.00  0.00     0.074 A 
ATOM     16  C   UNL A   1      40.405  27.912  29.391  1.00  0.00     0.049 A 
ATOM     17  N   UNL A   1      40.920  29.213  32.061  1.00  0.00    -0.248 NA
ATOM     18  C   UNL A   1      39.028  30.538  31.709  1.00  0.00     0.031 C 
ATOM     19  C   UNL A   1      40.063  27.171  28.187  1.00  0.00     0.029 A 
ATOM     20  N   UNL A   1      41.531  27.284  29.842  1.00  0.00    -0.354 N 
ATOM     21  C   UNL A   1      40.675  29.989  33.182  1.00  0.00     0.074 A 
ATOM     22  C   UNL A   1      39.528  30.819  32.900  1.00  0.00     0.031 C 
ATOM     23  C   UNL A   1      41.010  26.261  27.919  1.00  0.00     0.029 A 
ATOM     24  C   UNL A   1      42.016  26.336  28.967  1.00  0.00     0.049 A 
ATOM     25  H   UNL A   1      41.954  27.487  30.708  1.00  0.00     0.167 HD
ATOM     26  C   UNL A   1      41.348  29.985  34.352  1.00  0.00     0.031 A 
ATOM     27  C   UNL A   1      43.147  25.611  29.013  1.00  0.00     0.031 A 
ATOM     28  C   UNL A   1      42.510  29.172  34.571  1.00  0.00     0.049 A 
ATOM     29  C   UNL A   1      43.982  25.742  30.253  1.00  0.00     0.074 A 
ATOM     30  C   UNL A   1      43.329  29.116  35.679  1.00  0.00     0.029 A 
ATOM     31  N   UNL A   1      43.023  28.277  33.637  1.00  0.00    -0.354 N 
ATOM     32  N   UNL A   1      43.763  26.506  31.299  1.00  0.00    -0.248 NA
ATOM     33  C   UNL A   1      45.175  24.899  30.349  1.00  0.00     0.031 C 
ATOM     34  C   UNL A   1      44.378  28.237  35.389  1.00  0.00     0.029 A 
ATOM     35  C   UNL A   1      44.169  27.686  34.131  1.00  0.00     0.049 A 
ATOM     36  H   UNL A   1      42.628  28.091  32.756  1.00  0.00     0.167 HD
ATOM     37  C   UNL A   1      44.762  26.198  32.208  1.00  0.00     0.074 A 
ATOM     38  C   UNL A   1      45.592  25.185  31.577  1.00  0.00     0.031 C 
ATOM     39  C   UNL A   1      44.966  26.688  33.455  1.00  0.00     0.031 A 
BRANCH  26  40
ATOM     40  C   UNL A   1      40.874  30.951  35.400  1.00  0.00    -0.014 A 
ATOM     41  C   UNL A   1      41.737  31.914  35.958  1.00  0.00     0.010 A 
ATOM     42  C   UNL A   1      39.566  30.832  35.899  1.00  0.00     0.010 A 
ATOM     43  C   UNL A   1      41.317  32.698  37.037  1.00  0.00     0.020 A 
ATOM     44  C   UNL A   1      39.132  31.634  36.956  1.00  0.00     0.020 A 
ATOM     45  C   UNL A   1      40.019  32.545  37.535  1.00  0.00     0.054 A 
BRANCH  45  46
ATOM     46  S   UNL A   1      39.507  33.554  38.951  1.00  0.00     0.124 S 
ATOM     47  O   UNL A   1      39.827  32.679  40.075  1.00  0.00    -0.237 OA
ATOM     48  O   UNL A   1      40.346  34.740  38.817  1.00  0.00    -0.237 OA
ATOM     49  O   UNL A   1      38.079  33.774  38.719  1.00  0.00    -0.744 OA
ENDBRANCH  45  46
ENDBRANCH  26  40
BRANCH  27  50
ATOM     50  C   UNL A   1      43.512  24.713  27.883  1.00  0.00    -0.014 A 
ATOM     51  C   UNL A   1      44.311  25.164  26.819  1.00  0.00     0.010 A 
ATOM     52  C   UNL A   1      43.092  23.367  27.893  1.00  0.00     0.010 A 
ATOM     53  C   UNL A   1      44.671  24.294  25.782  1.00  0.00     0.020 A 
ATOM     54  C   UNL A   1      43.468  22.489  26.870  1.00  0.00     0.020 A 
ATOM     55  C   UNL A   1      44.250  22.962  25.816  1.00  0.00     0.054 A 
BRANCH  55  56
ATOM     56  S   UNL A   1      44.772  21.845  24.482  1.00  0.00     0.124 S 
ATOM     57  O   UNL A   1      44.110  20.599  24.852  1.00  0.00    -0.237 OA
ATOM     58  O   UNL A   1      44.249  22.514  23.295  1.00  0.00    -0.237 OA
ATOM     59  O   UNL A   1      46.230  21.839  24.595  1.00  0.00    -0.744 OA
ENDBRANCH  55  56
ENDBRANCH  27  50
BRANCH  39  60
ATOM     60  C   UNL A   1      46.111  26.106  34.230  1.00  0.00    -0.014 A 
ATOM     61  C   UNL A   1      45.970  24.907  34.945  1.00  0.00     0.010 A 
ATOM     62  C   UNL A   1      47.369  26.733  34.157  1.00  0.00     0.010 A 
ATOM     63  C   UNL A   1      47.071  24.349  35.592  1.00  0.00     0.020 A 
ATOM     64  C   UNL A   1      48.478  26.161  34.776  1.00  0.00     0.020 A 
ATOM     65  C   UNL A   1      48.319  24.976  35.497  1.00  0.00     0.054 A 
BRANCH  65  66
ATOM     66  S   UNL A   1      49.748  24.185  36.280  1.00  0.00     0.124 S 
ATOM     67  O   UNL A   1      50.045  25.111  37.370  1.00  0.00    -0.237 OA
ATOM     68  O   UNL A   1      49.212  22.888  36.683  1.00  0.00    -0.237 OA
ATOM     69  O   UNL A   1      50.745  24.138  35.213  1.00  0.00    -0.744 OA
ENDBRANCH  65  66
ENDBRANCH  39  60
ENDBRANCH  13  14
ENDBRANCH   6   8
ENDBRANCH   5   6
ENDBRANCH   4   5
ENDBRANCH   3   4
ENDBRANCH   2   3
ENDBRANCH   1   2
BRANCH   1  70
ATOM     70  C   UNL A   1      33.231  37.600  29.986  1.00  0.00     0.188 C 
BRANCH  70  71
ATOM     71  O   UNL A   1      32.824  37.544  31.347  1.00  0.00    -0.376 OA
BRANCH  71  72
ATOM     72  C   UNL A   1      33.847  37.546  32.335  1.00  0.00     0.202 C 
BRANCH  72  73
ATOM     73  C   UNL A   1      34.016  36.327  33.260  1.00  0.00     0.261 C 
BRANCH  73  74
ATOM     74  O   UNL A   1      35.307  35.694  33.265  1.00  0.00    -0.463 OA
BRANCH  74  75
ATOM     75  C   UNL A   1      35.320  34.368  33.593  1.00  0.00     0.315 C 
ATOM     76  O   UNL A   1      34.307  33.697  33.770  1.00  0.00    -0.251 OA
BRANCH  75  77
ATOM     77  C   UNL A   1      36.719  33.778  33.702  1.00  0.00     0.148 C 
ATOM     78  C   UNL A   1      37.628  34.362  34.796  1.00  0.00     0.043 C 
ATOM     79  C   UNL A   1      37.580  33.966  32.496  1.00  0.00     0.033 A 
ATOM     80  C   UNL A   1      39.063  34.113  34.292  1.00  0.00     0.124 C 
ATOM     81  N   UNL A   1      38.901  34.107  32.850  1.00  0.00    -0.341 N 
ATOM     82  C   UNL A   1      37.496  34.038  31.136  1.00  0.00     0.025 A 
ATOM     83  C   UNL A   1      39.714  34.254  31.766  1.00  0.00     0.090 A 
ATOM     84  C   UNL A   1      38.827  34.239  30.680  1.00  0.00     0.032 A 
BRANCH  83  85
ATOM     85  C   UNL A   1      41.159  34.443  31.640  1.00  0.00     0.209 C 
ATOM     86  O   UNL A   1      41.774  35.172  32.423  1.00  0.00    -0.287 OA
BRANCH  85  87
ATOM     87  C   UNL A   1      42.000  33.794  30.598  1.00  0.00     0.024 A 
ATOM     88  C   UNL A   1      42.280  32.423  30.741  1.00  0.00     0.012 A 
ATOM     89  C   UNL A   1      42.600  34.503  29.556  1.00  0.00     0.012 A 
ATOM     90  C   UNL A   1      43.079  31.757  29.808  1.00  0.00     0.001 A 
ATOM     91  C   UNL A   1      43.383  33.830  28.610  1.00  0.00     0.001 A 
ATOM     92  C   UNL A   1      43.611  32.458  28.729  1.00  0.00     0.000 A 
ENDBRANCH  85  87
ENDBRANCH  83  85
ENDBRANCH  75  77
ENDBRANCH  74  75
ENDBRANCH  73  74
ENDBRANCH  72  73
ENDBRANCH  71  72
ENDBRANCH  70  71
ENDBRANCH   1  70
TORSDOF 22
ENDMDL
MODEL 3
REMARK VINA RESULT:      -7.9      4.939     11.251
REMARK SMILES O=C(OCCOCCOCCOC(=O)[C@@H]1CCn2c(C(=O)c3ccccc3)ccc21)c1ccc(-c2c3nc(c(-c4ccc(S(=O)(=O)[O-])cc4)c4ccc([nH]4)c(-c4ccc(S(=O)(=O)[O-])cc4)c4nc(c(-c5ccc(S(=O)(=O)[O-])cc5)c5ccc2[nH]5)C=C4)C=C3)cc1
REMARK SMILES IDX 7 1 6 2 5 3 4 4 3 5 2 6 1 7 31 8 32 9 90 10 33 11 89 12
REMARK SMILES IDX 34 13 35 14 36 15 83 16 37 17 88 18 82 19 84 20 38 21 87 22
REMARK SMILES IDX 81 23 80 24 39 26 69 27 50 28 68 29 51 30 54 31 67 32 85 33
REMARK SMILES IDX 52 34 53 35 66 37 86 38 55 39 40 40 41 41 49 42 42 43 48 44
REMARK SMILES IDX 43 45 44 46 45 47 46 48 47 49 70 50 71 51 79 52 72 53 78 54
REMARK SMILES IDX 73 55 74 56 75 57 76 58 77 59 56 60 57 61 65 62 58 63 64 64
REMARK SMILES IDX 59 65 60 66 61 67 62 68 63 69 8 70 9 71 10 72 11 73 12 74
REMARK SMILES IDX 13 75 14 76 15 77 16 78 30 79 17 80 18 81 29 82 19 83 28 84
REMARK SMILES IDX 20 85 21 86 22 87 23 88 27 89 24 90 26 91 25 92
REMARK H PARENT 84 25 54 36
REMARK Flexibility Score: inf
ROOT
ATOM      1  C   UNL A   1      34.358  23.888  25.214  1.00  0.00     0.188 C 
ENDROOT
BRANCH   1   2
ATOM      2  O   UNL A   1      35.675  24.117  25.727  1.00  0.00    -0.376 OA
BRANCH   2   3
ATOM      3  C   UNL A   1      36.702  23.450  24.979  1.00  0.00     0.202 C 
BRANCH   3   4
ATOM      4  C   UNL A   1      37.252  22.150  25.598  1.00  0.00     0.261 C 
BRANCH   4   5
ATOM      5  O   UNL A   1      38.679  22.034  25.525  1.00  0.00    -0.460 OA
BRANCH   5   6
ATOM      6  C   UNL A   1      39.594  22.208  26.510  1.00  0.00     0.338 C 
ATOM      7  O   UNL A   1      40.057  21.198  27.044  1.00  0.00    -0.246 OA
BRANCH   6   8
ATOM      8  C   UNL A   1      40.066  23.544  27.005  1.00  0.00     0.060 A 
ATOM      9  C   UNL A   1      39.760  24.789  26.449  1.00  0.00     0.016 A 
ATOM     10  C   UNL A   1      40.875  23.533  28.153  1.00  0.00     0.016 A 
ATOM     11  C   UNL A   1      40.280  25.977  26.949  1.00  0.00     0.010 A 
ATOM     12  C   UNL A   1      41.392  24.722  28.671  1.00  0.00     0.010 A 
ATOM     13  C   UNL A   1      41.117  25.947  28.053  1.00  0.00    -0.014 A 
BRANCH  13  14
ATOM     14  C   UNL A   1      41.868  27.157  28.426  1.00  0.00     0.031 A 
ATOM     15  C   UNL A   1      41.087  28.278  29.024  1.00  0.00     0.074 A 
ATOM     16  C   UNL A   1      43.204  27.224  28.300  1.00  0.00     0.049 A 
ATOM     17  N   UNL A   1      41.497  29.458  29.386  1.00  0.00    -0.248 NA
ATOM     18  C   UNL A   1      39.660  28.017  29.290  1.00  0.00     0.031 C 
ATOM     19  C   UNL A   1      44.056  26.102  27.939  1.00  0.00     0.029 A 
ATOM     20  N   UNL A   1      44.086  28.255  28.455  1.00  0.00    -0.354 N 
ATOM     21  C   UNL A   1      40.383  30.078  29.930  1.00  0.00     0.074 A 
ATOM     22  C   UNL A   1      39.269  29.168  29.807  1.00  0.00     0.031 C 
ATOM     23  C   UNL A   1      45.322  26.514  27.783  1.00  0.00     0.029 A 
ATOM     24  C   UNL A   1      45.372  27.937  28.075  1.00  0.00     0.049 A 
ATOM     25  H   UNL A   1      43.829  29.139  28.805  1.00  0.00     0.167 HD
ATOM     26  C   UNL A   1      40.314  31.300  30.498  1.00  0.00     0.031 A 
ATOM     27  C   UNL A   1      46.464  28.714  27.977  1.00  0.00     0.031 A 
ATOM     28  C   UNL A   1      41.440  32.188  30.559  1.00  0.00     0.049 A 
ATOM     29  C   UNL A   1      46.332  30.129  28.457  1.00  0.00     0.074 A 
ATOM     30  C   UNL A   1      41.499  33.477  31.045  1.00  0.00     0.029 A 
ATOM     31  N   UNL A   1      42.713  31.866  30.096  1.00  0.00    -0.354 N 
ATOM     32  N   UNL A   1      45.264  30.724  28.939  1.00  0.00    -0.248 NA
ATOM     33  C   UNL A   1      47.535  30.962  28.429  1.00  0.00     0.031 C 
ATOM     34  C   UNL A   1      42.791  33.961  30.812  1.00  0.00     0.029 A 
ATOM     35  C   UNL A   1      43.559  32.946  30.254  1.00  0.00     0.049 A 
ATOM     36  H   UNL A   1      42.973  30.998  29.714  1.00  0.00     0.167 HD
ATOM     37  C   UNL A   1      45.677  31.988  29.325  1.00  0.00     0.074 A 
ATOM     38  C   UNL A   1      47.092  32.073  29.006  1.00  0.00     0.031 C 
ATOM     39  C   UNL A   1      44.961  32.981  29.909  1.00  0.00     0.031 A 
BRANCH  26  40
ATOM     40  C   UNL A   1      38.964  31.734  30.992  1.00  0.00    -0.014 A 
ATOM     41  C   UNL A   1      38.149  32.602  30.242  1.00  0.00     0.010 A 
ATOM     42  C   UNL A   1      38.543  31.335  32.273  1.00  0.00     0.010 A 
ATOM     43  C   UNL A   1      36.967  33.111  30.788  1.00  0.00     0.020 A 
ATOM     44  C   UNL A   1      37.349  31.816  32.811  1.00  0.00     0.020 A 
ATOM     45  C   UNL A   1      36.580  32.721  32.075  1.00  0.00     0.054 A 
BRANCH  45  46
ATOM     46  S   UNL A   1      35.057  33.416  32.771  1.00  0.00     0.124 S 
ATOM     47  O   UNL A   1      35.139  32.983  34.163  1.00  0.00    -0.237 OA
ATOM     48  O   UNL A   1      35.227  34.846  32.545  1.00  0.00    -0.237 OA
ATOM     49  O   UNL A   1      33.998  32.783  31.983  1.00  0.00    -0.744 OA
ENDBRANCH  45  46
ENDBRANCH  26  40
BRANCH  27  50
ATOM     50  C   UNL A   1      47.736  28.160  27.436  1.00  0.00    -0.014 A 
ATOM     51  C   UNL A   1      48.666  27.517  28.270  1.00  0.00     0.010 A 
ATOM     52  C   UNL A   1      48.004  28.234  26.054  1.00  0.00     0.010 A 
ATOM     53  C   UNL A   1      49.842  26.972  27.738  1.00  0.00     0.020 A 
ATOM     54  C   UNL A   1      49.166  27.673  25.515  1.00  0.00     0.020 A 
ATOM     55  C   UNL A   1      50.082  27.051  26.363  1.00  0.00     0.054 A 
BRANCH  55  56
ATOM     56  S   UNL A   1      51.592  26.294  25.695  1.00  0.00     0.124 S 
ATOM     57  O   UNL A   1      51.328  26.305  24.260  1.00  0.00    -0.237 OA
ATOM     58  O   UNL A   1      52.630  27.211  26.156  1.00  0.00    -0.237 OA
ATOM     59  O   UNL A   1      51.615  24.972  26.318  1.00  0.00    -0.744 OA
ENDBRANCH  55  56
ENDBRANCH  27  50
BRANCH  39  60
ATOM     60  C   UNL A   1      45.710  34.229  30.270  1.00  0.00    -0.014 A 
ATOM     61  C   UNL A   1      46.439  34.319  31.466  1.00  0.00     0.010 A 
ATOM     62  C   UNL A   1      45.752  35.289  29.346  1.00  0.00     0.010 A 
ATOM     63  C   UNL A   1      47.189  35.462  31.740  1.00  0.00     0.020 A 
ATOM     64  C   UNL A   1      46.526  36.418  29.602  1.00  0.00     0.020 A 
ATOM     65  C   UNL A   1      47.233  36.499  30.803  1.00  0.00     0.054 A 
BRANCH  65  66
ATOM     66  S   UNL A   1      48.280  37.937  31.150  1.00  0.00     0.124 S 
ATOM     67  O   UNL A   1      49.226  37.897  30.039  1.00  0.00    -0.237 OA
ATOM     68  O   UNL A   1      47.322  39.040  31.123  1.00  0.00    -0.237 OA
ATOM     69  O   UNL A   1      48.847  37.643  32.464  1.00  0.00    -0.744 OA
ENDBRANCH  65  66
ENDBRANCH  39  60
ENDBRANCH  13  14
ENDBRANCH   6   8
ENDBRANCH   5   6
ENDBRANCH   4   5
ENDBRANCH   3   4
ENDBRANCH   2   3
ENDBRANCH   1   2
BRANCH   1  70
ATOM     70  C   UNL A   1      33.421  23.117  26.142  1.00  0.00     0.188 C 
BRANCH  70  71
ATOM     71  O   UNL A   1      32.398  22.329  25.548  1.00  0.00    -0.376 OA
BRANCH  71  72
ATOM     72  C   UNL A   1      31.343  23.019  24.889  1.00  0.00     0.202 C 
BRANCH  72  73
ATOM     73  C   UNL A   1      31.349  23.134  23.354  1.00  0.00     0.261 C 
BRANCH  73  74
ATOM     74  O   UNL A   1      31.101  24.439  22.803  1.00  0.00    -0.463 OA
BRANCH  74  75
ATOM     75  C   UNL A   1      32.208  25.163  22.463  1.00  0.00     0.315 C 
ATOM     76  O   UNL A   1      33.226  24.672  21.984  1.00  0.00    -0.251 OA
BRANCH  75  77
ATOM     77  C   UNL A   1      32.062  26.657  22.714  1.00  0.00     0.148 C 
ATOM     78  C   UNL A   1      33.301  27.525  22.440  1.00  0.00     0.043 C 
ATOM     79  C   UNL A   1      31.765  27.037  24.128  1.00  0.00     0.033 A 
ATOM     80  C   UNL A   1      33.125  28.763  23.342  1.00  0.00     0.124 C 
ATOM     81  N   UNL A   1      32.336  28.246  24.445  1.00  0.00    -0.341 N 
ATOM     82  C   UNL A   1      31.099  26.581  25.228  1.00  0.00     0.025 A 
ATOM     83  C   UNL A   1      32.059  28.629  25.723  1.00  0.00     0.090 A 
ATOM     84  C   UNL A   1      31.300  27.566  26.232  1.00  0.00     0.032 A 
BRANCH  83  85
ATOM     85  C   UNL A   1      32.446  29.806  26.502  1.00  0.00     0.209 C 
ATOM     86  O   UNL A   1      31.624  30.687  26.770  1.00  0.00    -0.287 OA
BRANCH  85  87
ATOM     87  C   UNL A   1      33.815  30.044  27.033  1.00  0.00     0.024 A 
ATOM     88  C   UNL A   1      34.148  31.353  27.426  1.00  0.00     0.012 A 
ATOM     89  C   UNL A   1      34.802  29.057  27.059  1.00  0.00     0.012 A 
ATOM     90  C   UNL A   1      35.423  31.648  27.916  1.00  0.00     0.001 A 
ATOM     91  C   UNL A   1      36.072  29.350  27.570  1.00  0.00     0.001 A 
ATOM     92  C   UNL A   1      36.378  30.639  28.009  1.00  0.00     0.000 A 
ENDBRANCH  85  87
ENDBRANCH  83  85
ENDBRANCH  75  77
ENDBRANCH  74  75
ENDBRANCH  73  74
ENDBRANCH  72  73
ENDBRANCH  71  72
ENDBRANCH  70  71
ENDBRANCH   1  70
TORSDOF 22
ENDMDL
