MODEL 1
REMARK VINA RESULT:      -9.7      0.000      0.000
REMARK SMILES C[C@@H](C(=O)OCCOCCOCCOC(=O)c1ccc(-c2c3nc(c(-c4ccc(S(=O)(=O)[O-])cc4)c4ccc([nH]4)c(-c4ccc(S(=O)(=O)[O-])cc4)c4nc(c(-c5ccc(S(=O)(=O)[O-])cc5)c5ccc2[nH]5)C=C4)C=C3)cc1)c1ccc(-c2ccn(C(F)F)c(=O)c2)cc1
REMARK SMILES IDX 9 1 8 2 7 3 6 4 5 5 3 6 4 7 2 8 1 9 77 10 78 11 92 12 79 13
REMARK SMILES IDX 91 14 80 15 81 16 82 17 90 18 83 19 88 20 84 21 89 22 85 23
REMARK SMILES IDX 86 24 87 25 10 26 11 27 12 28 13 29 14 30 15 31 16 32 17 33
REMARK SMILES IDX 18 34 76 35 19 36 75 37 20 38 21 39 22 40 69 41 23 42 74 43
REMARK SMILES IDX 68 44 70 45 24 46 73 47 67 48 66 49 25 51 55 52 36 53 54 54
REMARK SMILES IDX 37 55 40 56 53 57 71 58 38 59 39 60 52 62 72 63 41 64 26 65
REMARK SMILES IDX 27 66 35 67 28 68 34 69 29 70 30 71 31 72 32 73 33 74 56 75
REMARK SMILES IDX 57 76 65 77 58 78 64 79 59 80 60 81 61 82 62 83 63 84 42 85
REMARK SMILES IDX 43 86 51 87 44 88 50 89 45 90 46 91 47 92 48 93 49 94
REMARK H PARENT 70 50 40 61
REMARK Flexibility Score: inf
ROOT
ATOM      1  C   UNL A   1      43.582  19.409  25.585  1.00  0.00     0.188 C 
ENDROOT
BRANCH   1   2
ATOM      2  O   UNL A   1      42.191  19.587  25.397  1.00  0.00    -0.376 OA
BRANCH   2   3
ATOM      3  C   UNL A   1      41.474  20.087  26.515  1.00  0.00     0.202 C 
BRANCH   3   4
ATOM      4  C   UNL A   1      39.946  20.288  26.435  1.00  0.00     0.261 C 
BRANCH   4   5
ATOM      5  O   UNL A   1      39.453  21.241  25.473  1.00  0.00    -0.463 OA
BRANCH   5   6
ATOM      6  C   UNL A   1      38.477  22.110  25.839  1.00  0.00     0.313 C 
ATOM      7  O   UNL A   1      38.708  23.224  26.296  1.00  0.00    -0.252 OA
BRANCH   6   8
ATOM      8  C   UNL A   1      37.048  21.565  25.603  1.00  0.00     0.126 C 
ATOM      9  C   UNL A   1      36.969  20.256  24.788  1.00  0.00     0.025 C 
BRANCH   8  10
ATOM     10  C   UNL A   1      36.012  22.597  25.130  1.00  0.00    -0.034 A 
ATOM     11  C   UNL A   1      35.034  23.065  26.030  1.00  0.00     0.005 A 
ATOM     12  C   UNL A   1      36.024  23.165  23.847  1.00  0.00     0.005 A 
ATOM     13  C   UNL A   1      34.119  24.065  25.668  1.00  0.00     0.009 A 
ATOM     14  C   UNL A   1      35.110  24.166  23.484  1.00  0.00     0.009 A 
ATOM     15  C   UNL A   1      34.161  24.637  24.395  1.00  0.00    -0.018 A 
BRANCH  15  16
ATOM     16  C   UNL A   1      33.269  25.759  24.040  1.00  0.00    -0.011 A 
ATOM     17  C   UNL A   1      33.441  26.578  22.859  1.00  0.00     0.027 A 
ATOM     18  C   UNL A   1      32.254  26.038  24.875  1.00  0.00     0.080 A 
ATOM     19  C   UNL A   1      32.641  27.626  22.629  1.00  0.00     0.095 A 
ATOM     20  C   UNL A   1      31.303  27.154  24.590  1.00  0.00     0.255 A 
ATOM     21  N   UNL A   1      31.600  27.932  23.483  1.00  0.00    -0.258 N 
ATOM     22  O   UNL A   1      30.333  27.295  25.327  1.00  0.00    -0.269 OA
BRANCH  21  23
ATOM     23  C   UNL A   1      30.707  29.018  23.160  1.00  0.00     0.451 C 
ATOM     24  F   UNL A   1      30.694  29.927  24.168  1.00  0.00    -0.185 F 
ATOM     25  F   UNL A   1      31.086  29.668  22.035  1.00  0.00    -0.185 F 
ENDBRANCH  21  23
ENDBRANCH  15  16
ENDBRANCH   8  10
ENDBRANCH   6   8
ENDBRANCH   5   6
ENDBRANCH   4   5
ENDBRANCH   3   4
ENDBRANCH   2   3
ENDBRANCH   1   2
BRANCH   1  26
ATOM     26  C   UNL A   1      44.392  20.579  25.007  1.00  0.00     0.188 C 
BRANCH  26  27
ATOM     27  O   UNL A   1      45.029  21.503  25.872  1.00  0.00    -0.376 OA
BRANCH  27  28
ATOM     28  C   UNL A   1      44.307  22.648  26.301  1.00  0.00     0.202 C 
BRANCH  28  29
ATOM     29  C   UNL A   1      43.002  23.107  25.613  1.00  0.00     0.261 C 
BRANCH  29  30
ATOM     30  O   UNL A   1      42.071  23.885  26.383  1.00  0.00    -0.460 OA
BRANCH  30  31
ATOM     31  C   UNL A   1      41.982  25.198  26.058  1.00  0.00     0.338 C 
ATOM     32  O   UNL A   1      41.796  25.670  24.944  1.00  0.00    -0.246 OA
BRANCH  31  33
ATOM     33  C   UNL A   1      41.936  25.997  27.303  1.00  0.00     0.060 A 
ATOM     34  C   UNL A   1      40.979  25.685  28.279  1.00  0.00     0.016 A 
ATOM     35  C   UNL A   1      42.819  27.058  27.506  1.00  0.00     0.016 A 
ATOM     36  C   UNL A   1      40.899  26.433  29.454  1.00  0.00     0.010 A 
ATOM     37  C   UNL A   1      42.711  27.831  28.669  1.00  0.00     0.010 A 
ATOM     38  C   UNL A   1      41.735  27.539  29.640  1.00  0.00    -0.014 A 
BRANCH  38  39
ATOM     39  C   UNL A   1      41.462  28.507  30.736  1.00  0.00     0.031 A 
ATOM     40  C   UNL A   1      42.360  28.478  31.944  1.00  0.00     0.074 A 
ATOM     41  C   UNL A   1      40.458  29.402  30.658  1.00  0.00     0.049 A 
ATOM     42  N   UNL A   1      42.323  29.215  33.023  1.00  0.00    -0.248 NA
ATOM     43  C   UNL A   1      43.447  27.484  31.931  1.00  0.00     0.031 C 
ATOM     44  C   UNL A   1      39.578  29.570  29.505  1.00  0.00     0.029 A 
ATOM     45  N   UNL A   1      40.028  30.359  31.548  1.00  0.00    -0.354 N 
ATOM     46  C   UNL A   1      43.344  28.739  33.839  1.00  0.00     0.074 A 
ATOM     47  C   UNL A   1      43.993  27.663  33.123  1.00  0.00     0.031 C 
ATOM     48  C   UNL A   1      38.739  30.594  29.739  1.00  0.00     0.029 A 
ATOM     49  C   UNL A   1      38.973  31.119  31.085  1.00  0.00     0.049 A 
ATOM     50  H   UNL A   1      40.433  30.489  32.436  1.00  0.00     0.167 HD
ATOM     51  C   UNL A   1      43.696  29.147  35.081  1.00  0.00     0.031 A 
ATOM     52  C   UNL A   1      38.279  32.118  31.677  1.00  0.00     0.031 A 
ATOM     53  C   UNL A   1      43.032  30.207  35.792  1.00  0.00     0.049 A 
ATOM     54  C   UNL A   1      38.691  32.547  33.071  1.00  0.00     0.074 A 
ATOM     55  C   UNL A   1      43.309  30.699  37.055  1.00  0.00     0.029 A 
ATOM     56  N   UNL A   1      41.950  30.927  35.308  1.00  0.00    -0.354 N 
ATOM     57  N   UNL A   1      39.713  32.139  33.793  1.00  0.00    -0.248 NA
ATOM     58  C   UNL A   1      37.873  33.576  33.728  1.00  0.00     0.031 C 
ATOM     59  C   UNL A   1      42.355  31.675  37.359  1.00  0.00     0.029 A 
ATOM     60  C   UNL A   1      41.532  31.846  36.255  1.00  0.00     0.049 A 
ATOM     61  H   UNL A   1      41.540  30.804  34.422  1.00  0.00     0.167 HD
ATOM     62  C   UNL A   1      39.656  32.863  34.984  1.00  0.00     0.074 A 
ATOM     63  C   UNL A   1      38.542  33.779  34.856  1.00  0.00     0.031 C 
ATOM     64  C   UNL A   1      40.436  32.770  36.091  1.00  0.00     0.031 A 
BRANCH  51  65
ATOM     65  C   UNL A   1      44.803  28.396  35.778  1.00  0.00    -0.014 A 
ATOM     66  C   UNL A   1      46.150  28.778  35.655  1.00  0.00     0.010 A 
ATOM     67  C   UNL A   1      44.478  27.298  36.600  1.00  0.00     0.010 A 
ATOM     68  C   UNL A   1      47.154  28.054  36.305  1.00  0.00     0.020 A 
ATOM     69  C   UNL A   1      45.476  26.591  37.277  1.00  0.00     0.020 A 
ATOM     70  C   UNL A   1      46.810  26.963  37.110  1.00  0.00     0.054 A 
BRANCH  70  71
ATOM     71  S   UNL A   1      48.133  26.053  37.956  1.00  0.00     0.124 S 
ATOM     72  O   UNL A   1      49.112  27.108  38.203  1.00  0.00    -0.237 OA
ATOM     73  O   UNL A   1      47.455  25.534  39.140  1.00  0.00    -0.237 OA
ATOM     74  O   UNL A   1      48.538  25.044  36.980  1.00  0.00    -0.744 OA
ENDBRANCH  70  71
ENDBRANCH  51  65
BRANCH  52  75
ATOM     75  C   UNL A   1      37.139  32.789  30.964  1.00  0.00    -0.014 A 
ATOM     76  C   UNL A   1      37.365  33.685  29.902  1.00  0.00     0.010 A 
ATOM     77  C   UNL A   1      35.803  32.539  31.333  1.00  0.00     0.010 A 
ATOM     78  C   UNL A   1      36.305  34.299  29.224  1.00  0.00     0.020 A 
ATOM     79  C   UNL A   1      34.734  33.116  30.633  1.00  0.00     0.020 A 
ATOM     80  C   UNL A   1      34.992  33.996  29.582  1.00  0.00     0.054 A 
BRANCH  80  81
ATOM     81  S   UNL A   1      33.634  34.751  28.645  1.00  0.00     0.124 S 
ATOM     82  O   UNL A   1      32.590  34.877  29.657  1.00  0.00    -0.237 OA
ATOM     83  O   UNL A   1      34.229  36.003  28.186  1.00  0.00    -0.237 OA
ATOM     84  O   UNL A   1      33.363  33.776  27.590  1.00  0.00    -0.744 OA
ENDBRANCH  80  81
ENDBRANCH  52  75
BRANCH  64  85
ATOM     85  C   UNL A   1      40.146  33.708  37.242  1.00  0.00    -0.014 A 
ATOM     86  C   UNL A   1      40.973  34.813  37.513  1.00  0.00     0.010 A 
ATOM     87  C   UNL A   1      38.985  33.521  38.015  1.00  0.00     0.010 A 
ATOM     88  C   UNL A   1      40.664  35.691  38.558  1.00  0.00     0.020 A 
ATOM     89  C   UNL A   1      38.654  34.415  39.038  1.00  0.00     0.020 A 
ATOM     90  C   UNL A   1      39.506  35.487  39.314  1.00  0.00     0.054 A 
BRANCH  90  91
ATOM     91  S   UNL A   1      39.106  36.664  40.635  1.00  0.00     0.124 S 
ATOM     92  O   UNL A   1      38.377  37.700  39.908  1.00  0.00    -0.237 OA
ATOM     93  O   UNL A   1      38.304  35.857  41.550  1.00  0.00    -0.237 OA
ATOM     94  O   UNL A   1      40.413  37.067  41.149  1.00  0.00    -0.744 OA
ENDBRANCH  90  91
ENDBRANCH  64  85
ENDBRANCH  38  39
ENDBRANCH  31  33
ENDBRANCH  30  31
ENDBRANCH  29  30
ENDBRANCH  28  29
ENDBRANCH  27  28
ENDBRANCH  26  27
ENDBRANCH   1  26
TORSDOF 23
ENDMDL
MODEL 2
REMARK VINA RESULT:      -8.8      4.614      7.096
REMARK SMILES C[C@@H](C(=O)OCCOCCOCCOC(=O)c1ccc(-c2c3nc(c(-c4ccc(S(=O)(=O)[O-])cc4)c4ccc([nH]4)c(-c4ccc(S(=O)(=O)[O-])cc4)c4nc(c(-c5ccc(S(=O)(=O)[O-])cc5)c5ccc2[nH]5)C=C4)C=C3)cc1)c1ccc(-c2ccn(C(F)F)c(=O)c2)cc1
REMARK SMILES IDX 9 1 8 2 7 3 6 4 5 5 3 6 4 7 2 8 1 9 77 10 78 11 92 12 79 13
REMARK SMILES IDX 91 14 80 15 81 16 82 17 90 18 83 19 88 20 84 21 89 22 85 23
REMARK SMILES IDX 86 24 87 25 10 26 11 27 12 28 13 29 14 30 15 31 16 32 17 33
REMARK SMILES IDX 18 34 76 35 19 36 75 37 20 38 21 39 22 40 69 41 23 42 74 43
REMARK SMILES IDX 68 44 70 45 24 46 73 47 67 48 66 49 25 51 55 52 36 53 54 54
REMARK SMILES IDX 37 55 40 56 53 57 71 58 38 59 39 60 52 62 72 63 41 64 26 65
REMARK SMILES IDX 27 66 35 67 28 68 34 69 29 70 30 71 31 72 32 73 33 74 56 75
REMARK SMILES IDX 57 76 65 77 58 78 64 79 59 80 60 81 61 82 62 83 63 84 42 85
REMARK SMILES IDX 43 86 51 87 44 88 50 89 45 90 46 91 47 92 48 93 49 94
REMARK H PARENT 70 50 40 61
REMARK Flexibility Score: inf
ROOT
ATOM      1  C   UNL A   1      45.315  18.827  25.128  1.00  0.00     0.188 C 
ENDROOT
BRANCH   1   2
ATOM      2  O   UNL A   1      43.996  18.478  25.504  1.00  0.00    -0.376 OA
BRANCH   2   3
ATOM      3  C   UNL A   1      43.127  19.562  25.791  1.00  0.00     0.202 C 
BRANCH   3   4
ATOM      4  C   UNL A   1      42.084  19.447  26.923  1.00  0.00     0.261 C 
BRANCH   4   5
ATOM      5  O   UNL A   1      41.276  20.608  27.199  1.00  0.00    -0.463 OA
BRANCH   5   6
ATOM      6  C   UNL A   1      41.882  21.807  27.395  1.00  0.00     0.313 C 
ATOM      7  O   UNL A   1      42.682  22.012  28.301  1.00  0.00    -0.252 OA
BRANCH   6   8
ATOM      8  C   UNL A   1      41.481  22.877  26.352  1.00  0.00     0.126 C 
ATOM      9  C   UNL A   1      42.549  23.185  25.280  1.00  0.00     0.025 C 
BRANCH   8  10
ATOM     10  C   UNL A   1      40.857  24.160  26.924  1.00  0.00    -0.034 A 
ATOM     11  C   UNL A   1      39.601  24.100  27.561  1.00  0.00     0.005 A 
ATOM     12  C   UNL A   1      41.506  25.404  26.907  1.00  0.00     0.005 A 
ATOM     13  C   UNL A   1      39.029  25.229  28.168  1.00  0.00     0.009 A 
ATOM     14  C   UNL A   1      40.935  26.534  27.513  1.00  0.00     0.009 A 
ATOM     15  C   UNL A   1      39.701  26.453  28.164  1.00  0.00    -0.018 A 
BRANCH  15  16
ATOM     16  C   UNL A   1      39.153  27.619  28.886  1.00  0.00    -0.011 A 
ATOM     17  C   UNL A   1      38.915  28.906  28.267  1.00  0.00     0.027 A 
ATOM     18  C   UNL A   1      38.878  27.471  30.193  1.00  0.00     0.080 A 
ATOM     19  C   UNL A   1      38.484  29.945  28.992  1.00  0.00     0.095 A 
ATOM     20  C   UNL A   1      38.320  28.599  30.997  1.00  0.00     0.255 A 
ATOM     21  N   UNL A   1      38.207  29.812  30.339  1.00  0.00    -0.258 N 
ATOM     22  O   UNL A   1      37.986  28.377  32.156  1.00  0.00    -0.269 OA
BRANCH  21  23
ATOM     23  C   UNL A   1      37.664  30.931  31.070  1.00  0.00     0.451 C 
ATOM     24  F   UNL A   1      37.732  32.057  30.317  1.00  0.00    -0.185 F 
ATOM     25  F   UNL A   1      36.364  30.740  31.395  1.00  0.00    -0.185 F 
ENDBRANCH  21  23
ENDBRANCH  15  16
ENDBRANCH   8  10
ENDBRANCH   6   8
ENDBRANCH   5   6
ENDBRANCH   4   5
ENDBRANCH   3   4
ENDBRANCH   2   3
ENDBRANCH   1   2
BRANCH   1  26
ATOM     26  C   UNL A   1      45.384  20.237  24.525  1.00  0.00     0.188 C 
BRANCH  26  27
ATOM     27  O   UNL A   1      46.380  21.150  24.952  1.00  0.00    -0.376 OA
BRANCH  27  28
ATOM     28  C   UNL A   1      45.983  22.443  25.384  1.00  0.00     0.202 C 
BRANCH  28  29
ATOM     29  C   UNL A   1      46.255  23.713  24.545  1.00  0.00     0.261 C 
BRANCH  29  30
ATOM     30  O   UNL A   1      45.424  24.862  24.773  1.00  0.00    -0.460 OA
BRANCH  30  31
ATOM     31  C   UNL A   1      46.073  26.027  25.014  1.00  0.00     0.338 C 
ATOM     32  O   UNL A   1      46.589  26.767  24.187  1.00  0.00    -0.246 OA
BRANCH  31  33
ATOM     33  C   UNL A   1      45.889  26.392  26.437  1.00  0.00     0.060 A 
ATOM     34  C   UNL A   1      46.533  27.532  26.938  1.00  0.00     0.016 A 
ATOM     35  C   UNL A   1      45.100  25.609  27.280  1.00  0.00     0.016 A 
ATOM     36  C   UNL A   1      46.394  27.888  28.280  1.00  0.00     0.010 A 
ATOM     37  C   UNL A   1      44.993  25.947  28.635  1.00  0.00     0.010 A 
ATOM     38  C   UNL A   1      45.658  27.076  29.149  1.00  0.00    -0.014 A 
BRANCH  38  39
ATOM     39  C   UNL A   1      45.748  27.281  30.620  1.00  0.00     0.031 A 
ATOM     40  C   UNL A   1      46.866  26.597  31.362  1.00  0.00     0.074 A 
ATOM     41  C   UNL A   1      44.876  28.067  31.282  1.00  0.00     0.049 A 
ATOM     42  N   UNL A   1      47.151  26.620  32.637  1.00  0.00    -0.248 NA
ATOM     43  C   UNL A   1      47.786  25.779  30.553  1.00  0.00     0.031 C 
ATOM     44  C   UNL A   1      43.806  28.837  30.655  1.00  0.00     0.029 A 
ATOM     45  N   UNL A   1      44.770  28.375  32.619  1.00  0.00    -0.354 N 
ATOM     46  C   UNL A   1      48.248  25.778  32.792  1.00  0.00     0.074 A 
ATOM     47  C   UNL A   1      48.587  25.276  31.479  1.00  0.00     0.031 C 
ATOM     48  C   UNL A   1      43.176  29.559  31.597  1.00  0.00     0.029 A 
ATOM     49  C   UNL A   1      43.751  29.259  32.909  1.00  0.00     0.049 A 
ATOM     50  H   UNL A   1      45.365  27.997  33.306  1.00  0.00     0.167 HD
ATOM     51  C   UNL A   1      48.901  25.438  33.928  1.00  0.00     0.031 A 
ATOM     52  C   UNL A   1      43.332  29.765  34.092  1.00  0.00     0.031 A 
ATOM     53  C   UNL A   1      48.544  25.929  35.232  1.00  0.00     0.049 A 
ATOM     54  C   UNL A   1      44.078  29.359  35.348  1.00  0.00     0.074 A 
ATOM     55  C   UNL A   1      49.140  25.647  36.449  1.00  0.00     0.029 A 
ATOM     56  N   UNL A   1      47.489  26.792  35.492  1.00  0.00    -0.354 N 
ATOM     57  N   UNL A   1      45.165  28.626  35.462  1.00  0.00    -0.248 NA
ATOM     58  C   UNL A   1      43.557  29.853  36.629  1.00  0.00     0.031 C 
ATOM     59  C   UNL A   1      48.407  26.291  37.450  1.00  0.00     0.029 A 
ATOM     60  C   UNL A   1      47.402  27.037  36.851  1.00  0.00     0.049 A 
ATOM     61  H   UNL A   1      46.892  27.175  34.810  1.00  0.00     0.167 HD
ATOM     62  C   UNL A   1      45.452  28.576  36.826  1.00  0.00     0.074 A 
ATOM     63  C   UNL A   1      44.466  29.407  37.486  1.00  0.00     0.031 C 
ATOM     64  C   UNL A   1      46.427  27.894  37.481  1.00  0.00     0.031 A 
BRANCH  51  65
ATOM     65  C   UNL A   1      50.020  24.433  33.820  1.00  0.00    -0.014 A 
ATOM     66  C   UNL A   1      49.797  23.054  33.985  1.00  0.00     0.010 A 
ATOM     67  C   UNL A   1      51.321  24.881  33.515  1.00  0.00     0.010 A 
ATOM     68  C   UNL A   1      50.858  22.149  33.889  1.00  0.00     0.020 A 
ATOM     69  C   UNL A   1      52.378  23.976  33.388  1.00  0.00     0.020 A 
ATOM     70  C   UNL A   1      52.143  22.616  33.593  1.00  0.00     0.054 A 
BRANCH  70  71
ATOM     71  S   UNL A   1      53.497  21.416  33.458  1.00  0.00     0.124 S 
ATOM     72  O   UNL A   1      54.670  22.261  33.673  1.00  0.00    -0.237 OA
ATOM     73  O   UNL A   1      53.195  20.474  34.532  1.00  0.00    -0.237 OA
ATOM     74  O   UNL A   1      53.355  20.883  32.106  1.00  0.00    -0.744 OA
ENDBRANCH  70  71
ENDBRANCH  51  65
BRANCH  52  75
ATOM     75  C   UNL A   1      42.167  30.712  34.153  1.00  0.00    -0.014 A 
ATOM     76  C   UNL A   1      42.340  32.064  34.505  1.00  0.00     0.010 A 
ATOM     77  C   UNL A   1      40.861  30.277  33.855  1.00  0.00     0.010 A 
ATOM     78  C   UNL A   1      41.259  32.953  34.547  1.00  0.00     0.020 A 
ATOM     79  C   UNL A   1      39.779  31.170  33.853  1.00  0.00     0.020 A 
ATOM     80  C   UNL A   1      39.985  32.505  34.202  1.00  0.00     0.054 A 
BRANCH  80  81
ATOM     81  S   UNL A   1      38.612  33.690  34.197  1.00  0.00     0.124 S 
ATOM     82  O   UNL A   1      39.209  34.860  34.835  1.00  0.00    -0.237 OA
ATOM     83  O   UNL A   1      38.318  33.823  32.773  1.00  0.00    -0.237 OA
ATOM     84  O   UNL A   1      37.576  33.018  34.979  1.00  0.00    -0.744 OA
ENDBRANCH  80  81
ENDBRANCH  52  75
BRANCH  64  85
ATOM     85  C   UNL A   1      46.508  28.044  38.984  1.00  0.00    -0.014 A 
ATOM     86  C   UNL A   1      47.314  29.030  39.580  1.00  0.00     0.010 A 
ATOM     87  C   UNL A   1      45.706  27.231  39.808  1.00  0.00     0.010 A 
ATOM     88  C   UNL A   1      47.344  29.177  40.971  1.00  0.00     0.020 A 
ATOM     89  C   UNL A   1      45.707  27.398  41.196  1.00  0.00     0.020 A 
ATOM     90  C   UNL A   1      46.539  28.360  41.770  1.00  0.00     0.054 A 
BRANCH  90  91
ATOM     91  S   UNL A   1      46.564  28.601  43.568  1.00  0.00     0.124 S 
ATOM     92  O   UNL A   1      46.609  30.057  43.680  1.00  0.00    -0.237 OA
ATOM     93  O   UNL A   1      45.313  27.977  43.991  1.00  0.00    -0.237 OA
ATOM     94  O   UNL A   1      47.776  27.906  43.995  1.00  0.00    -0.744 OA
ENDBRANCH  90  91
ENDBRANCH  64  85
ENDBRANCH  38  39
ENDBRANCH  31  33
ENDBRANCH  30  31
ENDBRANCH  29  30
ENDBRANCH  28  29
ENDBRANCH  27  28
ENDBRANCH  26  27
ENDBRANCH   1  26
TORSDOF 23
ENDMDL
MODEL 3
REMARK VINA RESULT:      -8.7      2.721      4.065
REMARK SMILES C[C@@H](C(=O)OCCOCCOCCOC(=O)c1ccc(-c2c3nc(c(-c4ccc(S(=O)(=O)[O-])cc4)c4ccc([nH]4)c(-c4ccc(S(=O)(=O)[O-])cc4)c4nc(c(-c5ccc(S(=O)(=O)[O-])cc5)c5ccc2[nH]5)C=C4)C=C3)cc1)c1ccc(-c2ccn(C(F)F)c(=O)c2)cc1
REMARK SMILES IDX 9 1 8 2 7 3 6 4 5 5 3 6 4 7 2 8 1 9 77 10 78 11 92 12 79 13
REMARK SMILES IDX 91 14 80 15 81 16 82 17 90 18 83 19 88 20 84 21 89 22 85 23
REMARK SMILES IDX 86 24 87 25 10 26 11 27 12 28 13 29 14 30 15 31 16 32 17 33
REMARK SMILES IDX 18 34 76 35 19 36 75 37 20 38 21 39 22 40 69 41 23 42 74 43
REMARK SMILES IDX 68 44 70 45 24 46 73 47 67 48 66 49 25 51 55 52 36 53 54 54
REMARK SMILES IDX 37 55 40 56 53 57 71 58 38 59 39 60 52 62 72 63 41 64 26 65
REMARK SMILES IDX 27 66 35 67 28 68 34 69 29 70 30 71 31 72 32 73 33 74 56 75
REMARK SMILES IDX 57 76 65 77 58 78 64 79 59 80 60 81 61 82 62 83 63 84 42 85
REMARK SMILES IDX 43 86 51 87 44 88 50 89 45 90 46 91 47 92 48 93 49 94
REMARK H PARENT 70 50 40 61
REMARK Flexibility Score: inf
ROOT
ATOM      1  C   UNL A   1      45.272  25.743  25.056  1.00  0.00     0.188 C 
ENDROOT
BRANCH   1   2
ATOM      2  O   UNL A   1      43.981  26.307  24.928  1.00  0.00    -0.376 OA
BRANCH   2   3
ATOM      3  C   UNL A   1      43.719  27.444  25.734  1.00  0.00     0.202 C 
BRANCH   3   4
ATOM      4  C   UNL A   1      42.471  27.488  26.641  1.00  0.00     0.261 C 
BRANCH   4   5
ATOM      5  O   UNL A   1      41.506  26.427  26.491  1.00  0.00    -0.463 OA
BRANCH   5   6
ATOM      6  C   UNL A   1      41.250  25.610  27.544  1.00  0.00     0.313 C 
ATOM      7  O   UNL A   1      41.032  26.026  28.677  1.00  0.00    -0.252 OA
BRANCH   6   8
ATOM      8  C   UNL A   1      41.240  24.109  27.170  1.00  0.00     0.126 C 
ATOM      9  C   UNL A   1      42.393  23.651  26.251  1.00  0.00     0.025 C 
BRANCH   8  10
ATOM     10  C   UNL A   1      39.884  23.548  26.712  1.00  0.00    -0.034 A 
ATOM     11  C   UNL A   1      38.748  24.381  26.716  1.00  0.00     0.005 A 
ATOM     12  C   UNL A   1      39.720  22.246  26.216  1.00  0.00     0.005 A 
ATOM     13  C   UNL A   1      37.508  23.937  26.231  1.00  0.00     0.009 A 
ATOM     14  C   UNL A   1      38.481  21.800  25.730  1.00  0.00     0.009 A 
ATOM     15  C   UNL A   1      37.369  22.646  25.717  1.00  0.00    -0.018 A 
BRANCH  15  16
ATOM     16  C   UNL A   1      36.096  22.205  25.114  1.00  0.00    -0.011 A 
ATOM     17  C   UNL A   1      35.248  23.064  24.313  1.00  0.00     0.027 A 
ATOM     18  C   UNL A   1      35.702  20.940  25.339  1.00  0.00     0.080 A 
ATOM     19  C   UNL A   1      34.070  22.627  23.852  1.00  0.00     0.095 A 
ATOM     20  C   UNL A   1      34.428  20.413  24.763  1.00  0.00     0.255 A 
ATOM     21  N   UNL A   1      33.646  21.333  24.085  1.00  0.00    -0.258 N 
ATOM     22  O   UNL A   1      34.173  19.223  24.909  1.00  0.00    -0.269 OA
BRANCH  21  23
ATOM     23  C   UNL A   1      32.410  20.871  23.502  1.00  0.00     0.451 C 
ATOM     24  F   UNL A   1      31.972  21.758  22.574  1.00  0.00    -0.185 F 
ATOM     25  F   UNL A   1      32.558  19.677  22.882  1.00  0.00    -0.185 F 
ENDBRANCH  21  23
ENDBRANCH  15  16
ENDBRANCH   8  10
ENDBRANCH   6   8
ENDBRANCH   5   6
ENDBRANCH   4   5
ENDBRANCH   3   4
ENDBRANCH   2   3
ENDBRANCH   1   2
BRANCH   1  26
ATOM     26  C   UNL A   1      46.335  26.810  25.356  1.00  0.00     0.188 C 
BRANCH  26  27
ATOM     27  O   UNL A   1      47.713  26.495  25.256  1.00  0.00    -0.376 OA
BRANCH  27  28
ATOM     28  C   UNL A   1      48.390  26.012  26.407  1.00  0.00     0.202 C 
BRANCH  28  29
ATOM     29  C   UNL A   1      47.948  24.730  27.147  1.00  0.00     0.261 C 
BRANCH  29  30
ATOM     30  O   UNL A   1      47.259  24.878  28.399  1.00  0.00    -0.460 OA
BRANCH  30  31
ATOM     31  C   UNL A   1      45.953  24.513  28.407  1.00  0.00     0.338 C 
ATOM     32  O   UNL A   1      45.485  23.446  28.032  1.00  0.00    -0.246 OA
BRANCH  31  33
ATOM     33  C   UNL A   1      45.176  25.536  29.141  1.00  0.00     0.060 A 
ATOM     34  C   UNL A   1      45.418  26.893  28.882  1.00  0.00     0.016 A 
ATOM     35  C   UNL A   1      44.225  25.166  30.093  1.00  0.00     0.016 A 
ATOM     36  C   UNL A   1      44.714  27.879  29.574  1.00  0.00     0.010 A 
ATOM     37  C   UNL A   1      43.548  26.159  30.813  1.00  0.00     0.010 A 
ATOM     38  C   UNL A   1      43.805  27.522  30.575  1.00  0.00    -0.014 A 
BRANCH  38  39
ATOM     39  C   UNL A   1      43.278  28.553  31.509  1.00  0.00     0.031 A 
ATOM     40  C   UNL A   1      44.068  28.845  32.757  1.00  0.00     0.074 A 
ATOM     41  C   UNL A   1      42.141  29.228  31.253  1.00  0.00     0.049 A 
ATOM     42  N   UNL A   1      43.816  29.693  33.720  1.00  0.00    -0.248 NA
ATOM     43  C   UNL A   1      45.312  28.077  32.942  1.00  0.00     0.031 C 
ATOM     44  C   UNL A   1      41.340  29.083  30.041  1.00  0.00     0.029 A 
ATOM     45  N   UNL A   1      41.479  30.193  31.977  1.00  0.00    -0.354 N 
ATOM     46  C   UNL A   1      44.837  29.521  34.649  1.00  0.00     0.074 A 
ATOM     47  C   UNL A   1      45.721  28.504  34.126  1.00  0.00     0.031 C 
ATOM     48  C   UNL A   1      40.317  29.954  30.084  1.00  0.00     0.029 A 
ATOM     49  C   UNL A   1      40.346  30.679  31.355  1.00  0.00     0.049 A 
ATOM     50  H   UNL A   1      41.783  30.508  32.858  1.00  0.00     0.167 HD
ATOM     51  C   UNL A   1      45.012  30.141  35.840  1.00  0.00     0.031 A 
ATOM     52  C   UNL A   1      39.442  31.599  31.764  1.00  0.00     0.031 A 
ATOM     53  C   UNL A   1      44.116  31.141  36.359  1.00  0.00     0.049 A 
ATOM     54  C   UNL A   1      39.660  32.269  33.106  1.00  0.00     0.074 A 
ATOM     55  C   UNL A   1      44.200  31.831  37.555  1.00  0.00     0.029 A 
ATOM     56  N   UNL A   1      42.965  31.580  35.721  1.00  0.00    -0.354 N 
ATOM     57  N   UNL A   1      40.677  32.153  33.932  1.00  0.00    -0.248 NA
ATOM     58  C   UNL A   1      38.622  33.202  33.568  1.00  0.00     0.031 C 
ATOM     59  C   UNL A   1      43.068  32.643  37.668  1.00  0.00     0.029 A 
ATOM     60  C   UNL A   1      42.318  32.517  36.507  1.00  0.00     0.049 A 
ATOM     61  H   UNL A   1      42.656  31.272  34.839  1.00  0.00     0.167 HD
ATOM     62  C   UNL A   1      40.398  32.998  35.006  1.00  0.00     0.074 A 
ATOM     63  C   UNL A   1      39.153  33.668  34.691  1.00  0.00     0.031 C 
ATOM     64  C   UNL A   1      41.092  33.193  36.156  1.00  0.00     0.031 A 
BRANCH  51  65
ATOM     65  C   UNL A   1      46.175  29.704  36.694  1.00  0.00    -0.014 A 
ATOM     66  C   UNL A   1      47.465  30.234  36.517  1.00  0.00     0.010 A 
ATOM     67  C   UNL A   1      45.961  28.759  37.717  1.00  0.00     0.010 A 
ATOM     68  C   UNL A   1      48.526  29.799  37.319  1.00  0.00     0.020 A 
ATOM     69  C   UNL A   1      47.011  28.345  38.540  1.00  0.00     0.020 A 
ATOM     70  C   UNL A   1      48.291  28.855  38.324  1.00  0.00     0.054 A 
BRANCH  70  71
ATOM     71  S   UNL A   1      49.683  28.322  39.360  1.00  0.00     0.124 S 
ATOM     72  O   UNL A   1      50.809  28.452  38.438  1.00  0.00    -0.237 OA
ATOM     73  O   UNL A   1      49.652  29.287  40.455  1.00  0.00    -0.237 OA
ATOM     74  O   UNL A   1      49.336  26.952  39.729  1.00  0.00    -0.744 OA
ENDBRANCH  70  71
ENDBRANCH  51  65
BRANCH  52  75
ATOM     75  C   UNL A   1      38.261  31.950  30.903  1.00  0.00    -0.014 A 
ATOM     76  C   UNL A   1      37.094  31.164  30.904  1.00  0.00     0.010 A 
ATOM     77  C   UNL A   1      38.282  33.084  30.068  1.00  0.00     0.010 A 
ATOM     78  C   UNL A   1      35.985  31.497  30.116  1.00  0.00     0.020 A 
ATOM     79  C   UNL A   1      37.162  33.450  29.308  1.00  0.00     0.020 A 
ATOM     80  C   UNL A   1      36.019  32.651  29.335  1.00  0.00     0.054 A 
BRANCH  80  81
ATOM     81  S   UNL A   1      34.546  33.100  28.376  1.00  0.00     0.124 S 
ATOM     82  O   UNL A   1      35.055  34.151  27.499  1.00  0.00    -0.237 OA
ATOM     83  O   UNL A   1      34.201  31.840  27.724  1.00  0.00    -0.237 OA
ATOM     84  O   UNL A   1      33.598  33.547  29.394  1.00  0.00    -0.744 OA
ENDBRANCH  80  81
ENDBRANCH  52  75
BRANCH  64  85
ATOM     85  C   UNL A   1      40.551  34.198  37.148  1.00  0.00    -0.014 A 
ATOM     86  C   UNL A   1      39.646  33.819  38.156  1.00  0.00     0.010 A 
ATOM     87  C   UNL A   1      41.015  35.527  37.115  1.00  0.00     0.010 A 
ATOM     88  C   UNL A   1      39.188  34.757  39.088  1.00  0.00     0.020 A 
ATOM     89  C   UNL A   1      40.586  36.459  38.066  1.00  0.00     0.020 A 
ATOM     90  C   UNL A   1      39.662  36.071  39.037  1.00  0.00     0.054 A 
BRANCH  90  91
ATOM     91  S   UNL A   1      39.085  37.256  40.284  1.00  0.00     0.124 S 
ATOM     92  O   UNL A   1      38.519  38.318  39.456  1.00  0.00    -0.237 OA
ATOM     93  O   UNL A   1      38.118  36.471  41.047  1.00  0.00    -0.237 OA
ATOM     94  O   UNL A   1      40.300  37.616  41.011  1.00  0.00    -0.744 OA
ENDBRANCH  90  91
ENDBRANCH  64  85
ENDBRANCH  38  39
ENDBRANCH  31  33
ENDBRANCH  30  31
ENDBRANCH  29  30
ENDBRANCH  28  29
ENDBRANCH  27  28
ENDBRANCH  26  27
ENDBRANCH   1  26
TORSDOF 23
ENDMDL
