MODEL 1
REMARK VINA RESULT:     -10.2      0.000      0.000
REMARK SMILES Cc1ccc(C(=O)N[C@@H]2C=C[C@H](C(=O)OCCOCCOCCOC(=O)c3ccc(-c4c5nc(c(-c6ccc(S(=O)(=O)[O-])cc6)c6ccc([nH]6)c(-c6ccc(S(=O)(=O)[O-])cc6)c6nc(c(-c7ccc(S(=O)(=O)[O-])cc7)c7ccc4[nH]7)C=C6)C=C5)cc3)C2)c(F)c1
REMARK SMILES IDX 20 1 19 2 18 3 17 4 16 5 15 6 13 7 14 8 12 9 9 10 10 11
REMARK SMILES IDX 87 12 11 13 8 14 6 15 7 16 5 18 1 19 2 20 3 21 90 22 4 23
REMARK SMILES IDX 88 24 89 25 21 26 22 27 23 28 24 29 25 30 26 31 27 32 28 33
REMARK SMILES IDX 86 34 29 35 85 36 30 37 31 38 32 39 79 40 33 41 84 42 78 43
REMARK SMILES IDX 80 44 34 45 83 46 77 47 76 48 35 50 65 51 46 52 64 53 47 54
REMARK SMILES IDX 50 55 63 56 81 57 48 58 49 59 62 61 82 62 51 63 36 64 37 65
REMARK SMILES IDX 45 66 38 67 44 68 39 69 40 70 41 71 42 72 43 73 66 74 67 75
REMARK SMILES IDX 75 76 68 77 74 78 69 79 70 80 71 81 72 82 73 83 52 84 53 85
REMARK SMILES IDX 61 86 54 87 60 88 55 89 56 90 57 91 58 92 59 93
REMARK H PARENT 8 17 80 49 50 60
REMARK Flexibility Score: inf
ROOT
ATOM      1  C   UNL A   1      43.592  21.183  25.521  1.00  0.00     0.188 C 
ENDROOT
BRANCH   1   2
ATOM      2  C   UNL A   1      42.461  20.399  26.200  1.00  0.00     0.188 C 
BRANCH   2   3
ATOM      3  O   UNL A   1      41.385  21.125  26.792  1.00  0.00    -0.376 OA
BRANCH   3   4
ATOM      4  C   UNL A   1      40.137  21.139  26.122  1.00  0.00     0.202 C 
BRANCH   4   5
ATOM      5  C   UNL A   1      39.262  22.368  26.360  1.00  0.00     0.261 C 
BRANCH   5   6
ATOM      6  O   UNL A   1      37.968  22.316  25.736  1.00  0.00    -0.463 OA
BRANCH   6   7
ATOM      7  C   UNL A   1      37.317  23.520  25.681  1.00  0.00     0.312 C 
ATOM      8  O   UNL A   1      37.409  24.400  26.525  1.00  0.00    -0.252 OA
BRANCH   7   9
ATOM      9  C   UNL A   1      36.309  23.528  24.532  1.00  0.00     0.124 C 
ATOM     10  C   UNL A   1      33.842  23.424  24.718  1.00  0.00     0.106 C 
ATOM     11  C   UNL A   1      34.438  22.100  24.394  1.00  0.00    -0.006 C 
ATOM     12  C   UNL A   1      35.055  24.368  24.798  1.00  0.00     0.048 C 
ATOM     13  C   UNL A   1      35.766  22.156  24.277  1.00  0.00    -0.014 C 
BRANCH  10  14
ATOM     14  N   UNL A   1      33.085  23.299  25.941  1.00  0.00    -0.346 N 
ATOM     15  C   UNL A   1      32.105  24.121  26.432  1.00  0.00     0.254 C 
ATOM     16  O   UNL A   1      31.464  23.809  27.428  1.00  0.00    -0.269 OA
ATOM     17  H   UNL A   1      33.303  22.517  26.497  1.00  0.00     0.164 HD
BRANCH  15  18
ATOM     18  C   UNL A   1      31.876  25.435  25.813  1.00  0.00     0.075 A 
ATOM     19  C   UNL A   1      30.693  29.170  24.033  1.00  0.00     0.044 C 
ATOM     20  C   UNL A   1      31.159  27.879  24.635  1.00  0.00    -0.048 A 
ATOM     21  C   UNL A   1      32.090  27.839  25.683  1.00  0.00     0.004 A 
ATOM     22  C   UNL A   1      30.659  26.678  24.136  1.00  0.00     0.043 A 
ATOM     23  C   UNL A   1      32.467  26.617  26.258  1.00  0.00     0.017 A 
ATOM     24  C   UNL A   1      30.987  25.475  24.751  1.00  0.00     0.136 A 
ATOM     25  F   UNL A   1      30.342  24.364  24.368  1.00  0.00    -0.206 F 
ENDBRANCH  15  18
ENDBRANCH  10  14
ENDBRANCH   7   9
ENDBRANCH   6   7
ENDBRANCH   5   6
ENDBRANCH   4   5
ENDBRANCH   3   4
ENDBRANCH   2   3
ENDBRANCH   1   2
BRANCH   1  26
ATOM     26  O   UNL A   1      43.176  22.474  25.076  1.00  0.00    -0.376 OA
BRANCH  26  27
ATOM     27  C   UNL A   1      44.227  23.260  24.509  1.00  0.00     0.202 C 
BRANCH  27  28
ATOM     28  C   UNL A   1      44.273  24.637  25.172  1.00  0.00     0.261 C 
BRANCH  28  29
ATOM     29  O   UNL A   1      43.251  24.809  26.170  1.00  0.00    -0.460 OA
BRANCH  29  30
ATOM     30  C   UNL A   1      42.338  25.781  25.928  1.00  0.00     0.338 C 
ATOM     31  O   UNL A   1      41.707  25.932  24.893  1.00  0.00    -0.246 OA
BRANCH  30  32
ATOM     32  C   UNL A   1      42.118  26.566  27.165  1.00  0.00     0.060 A 
ATOM     33  C   UNL A   1      41.036  26.220  27.980  1.00  0.00     0.016 A 
ATOM     34  C   UNL A   1      42.983  27.594  27.554  1.00  0.00     0.016 A 
ATOM     35  C   UNL A   1      40.883  26.823  29.230  1.00  0.00     0.010 A 
ATOM     36  C   UNL A   1      42.768  28.264  28.765  1.00  0.00     0.010 A 
ATOM     37  C   UNL A   1      41.724  27.877  29.621  1.00  0.00    -0.014 A 
BRANCH  37  38
ATOM     38  C   UNL A   1      41.421  28.652  30.857  1.00  0.00     0.031 A 
ATOM     39  C   UNL A   1      40.305  29.666  30.827  1.00  0.00     0.074 A 
ATOM     40  C   UNL A   1      42.122  28.467  31.995  1.00  0.00     0.049 A 
ATOM     41  N   UNL A   1      39.856  30.430  31.790  1.00  0.00    -0.248 NA
ATOM     42  C   UNL A   1      39.579  29.822  29.554  1.00  0.00     0.031 C 
ATOM     43  C   UNL A   1      43.160  27.459  32.201  1.00  0.00     0.029 A 
ATOM     44  N   UNL A   1      42.064  29.135  33.197  1.00  0.00    -0.354 N 
ATOM     45  C   UNL A   1      38.772  31.113  31.254  1.00  0.00     0.074 A 
ATOM     46  C   UNL A   1      38.623  30.676  29.886  1.00  0.00     0.031 C 
ATOM     47  C   UNL A   1      43.669  27.598  33.440  1.00  0.00     0.029 A 
ATOM     48  C   UNL A   1      43.007  28.715  34.109  1.00  0.00     0.049 A 
ATOM     49  H   UNL A   1      41.411  29.846  33.387  1.00  0.00     0.167 HD
ATOM     50  C   UNL A   1      37.984  32.050  31.830  1.00  0.00     0.031 A 
ATOM     51  C   UNL A   1      43.314  29.195  35.333  1.00  0.00     0.031 A 
ATOM     52  C   UNL A   1      38.212  32.606  33.132  1.00  0.00     0.049 A 
ATOM     53  C   UNL A   1      42.539  30.371  35.879  1.00  0.00     0.074 A 
ATOM     54  C   UNL A   1      37.533  33.635  33.758  1.00  0.00     0.029 A 
ATOM     55  N   UNL A   1      39.229  32.214  33.987  1.00  0.00    -0.354 N 
ATOM     56  N   UNL A   1      41.496  30.983  35.368  1.00  0.00    -0.248 NA
ATOM     57  C   UNL A   1      42.989  30.929  37.164  1.00  0.00     0.031 C 
ATOM     58  C   UNL A   1      38.182  33.912  34.966  1.00  0.00     0.029 A 
ATOM     59  C   UNL A   1      39.227  33.013  35.117  1.00  0.00     0.049 A 
ATOM     60  H   UNL A   1      39.860  31.477  33.816  1.00  0.00     0.167 HD
ATOM     61  C   UNL A   1      41.158  31.981  36.277  1.00  0.00     0.074 A 
ATOM     62  C   UNL A   1      42.093  31.884  37.377  1.00  0.00     0.031 C 
ATOM     63  C   UNL A   1      40.163  32.901  36.205  1.00  0.00     0.031 A 
BRANCH  50  64
ATOM     64  C   UNL A   1      36.863  32.597  30.996  1.00  0.00    -0.014 A 
ATOM     65  C   UNL A   1      35.560  32.081  31.112  1.00  0.00     0.010 A 
ATOM     66  C   UNL A   1      37.119  33.631  30.079  1.00  0.00     0.010 A 
ATOM     67  C   UNL A   1      34.535  32.575  30.301  1.00  0.00     0.020 A 
ATOM     68  C   UNL A   1      36.094  34.135  29.276  1.00  0.00     0.020 A 
ATOM     69  C   UNL A   1      34.811  33.593  29.383  1.00  0.00     0.054 A 
BRANCH  69  70
ATOM     70  S   UNL A   1      33.464  34.216  28.340  1.00  0.00     0.124 S 
ATOM     71  O   UNL A   1      33.042  33.006  27.638  1.00  0.00    -0.237 OA
ATOM     72  O   UNL A   1      32.514  34.737  29.318  1.00  0.00    -0.237 OA
ATOM     73  O   UNL A   1      34.110  35.226  27.505  1.00  0.00    -0.744 OA
ENDBRANCH  69  70
ENDBRANCH  50  64
BRANCH  51  74
ATOM     74  C   UNL A   1      44.451  28.626  36.112  1.00  0.00    -0.014 A 
ATOM     75  C   UNL A   1      44.239  27.620  37.074  1.00  0.00     0.010 A 
ATOM     76  C   UNL A   1      45.750  29.141  35.945  1.00  0.00     0.010 A 
ATOM     77  C   UNL A   1      45.295  27.170  37.875  1.00  0.00     0.020 A 
ATOM     78  C   UNL A   1      46.813  28.674  36.725  1.00  0.00     0.020 A 
ATOM     79  C   UNL A   1      46.574  27.705  37.701  1.00  0.00     0.054 A 
BRANCH  79  80
ATOM     80  S   UNL A   1      47.932  27.109  38.748  1.00  0.00     0.124 S 
ATOM     81  O   UNL A   1      47.338  27.173  40.081  1.00  0.00    -0.237 OA
ATOM     82  O   UNL A   1      48.170  25.764  38.229  1.00  0.00    -0.237 OA
ATOM     83  O   UNL A   1      49.006  28.067  38.494  1.00  0.00    -0.744 OA
ENDBRANCH  79  80
ENDBRANCH  51  74
BRANCH  63  84
ATOM     84  C   UNL A   1      40.013  33.867  37.348  1.00  0.00    -0.014 A 
ATOM     85  C   UNL A   1      40.589  35.148  37.295  1.00  0.00     0.010 A 
ATOM     86  C   UNL A   1      39.207  33.520  38.448  1.00  0.00     0.010 A 
ATOM     87  C   UNL A   1      40.373  36.062  38.331  1.00  0.00     0.020 A 
ATOM     88  C   UNL A   1      38.969  34.439  39.472  1.00  0.00     0.020 A 
ATOM     89  C   UNL A   1      39.561  35.703  39.412  1.00  0.00     0.054 A 
BRANCH  89  90
ATOM     90  S   UNL A   1      39.232  36.928  40.708  1.00  0.00     0.124 S 
ATOM     91  O   UNL A   1      40.574  37.422  41.008  1.00  0.00    -0.237 OA
ATOM     92  O   UNL A   1      38.348  37.879  40.039  1.00  0.00    -0.237 OA
ATOM     93  O   UNL A   1      38.604  36.148  41.772  1.00  0.00    -0.744 OA
ENDBRANCH  89  90
ENDBRANCH  63  84
ENDBRANCH  37  38
ENDBRANCH  30  32
ENDBRANCH  29  30
ENDBRANCH  28  29
ENDBRANCH  27  28
ENDBRANCH  26  27
ENDBRANCH   1  26
TORSDOF 22
ENDMDL
MODEL 2
REMARK VINA RESULT:      -9.5      5.856     12.065
REMARK SMILES Cc1ccc(C(=O)N[C@@H]2C=C[C@H](C(=O)OCCOCCOCCOC(=O)c3ccc(-c4c5nc(c(-c6ccc(S(=O)(=O)[O-])cc6)c6ccc([nH]6)c(-c6ccc(S(=O)(=O)[O-])cc6)c6nc(c(-c7ccc(S(=O)(=O)[O-])cc7)c7ccc4[nH]7)C=C6)C=C5)cc3)C2)c(F)c1
REMARK SMILES IDX 20 1 19 2 18 3 17 4 16 5 15 6 13 7 14 8 12 9 9 10 10 11
REMARK SMILES IDX 87 12 11 13 8 14 6 15 7 16 5 18 1 19 2 20 3 21 90 22 4 23
REMARK SMILES IDX 88 24 89 25 21 26 22 27 23 28 24 29 25 30 26 31 27 32 28 33
REMARK SMILES IDX 86 34 29 35 85 36 30 37 31 38 32 39 79 40 33 41 84 42 78 43
REMARK SMILES IDX 80 44 34 45 83 46 77 47 76 48 35 50 65 51 46 52 64 53 47 54
REMARK SMILES IDX 50 55 63 56 81 57 48 58 49 59 62 61 82 62 51 63 36 64 37 65
REMARK SMILES IDX 45 66 38 67 44 68 39 69 40 70 41 71 42 72 43 73 66 74 67 75
REMARK SMILES IDX 75 76 68 77 74 78 69 79 70 80 71 81 72 82 73 83 52 84 53 85
REMARK SMILES IDX 61 86 54 87 60 88 55 89 56 90 57 91 58 92 59 93
REMARK H PARENT 8 17 80 49 50 60
REMARK Flexibility Score: inf
ROOT
ATOM      1  C   UNL A   1      34.844  33.536  29.245  1.00  0.00     0.188 C 
ENDROOT
BRANCH   1   2
ATOM      2  C   UNL A   1      34.745  32.617  28.021  1.00  0.00     0.188 C 
BRANCH   2   3
ATOM      3  O   UNL A   1      33.491  32.007  27.724  1.00  0.00    -0.376 OA
BRANCH   3   4
ATOM      4  C   UNL A   1      33.477  30.629  27.397  1.00  0.00     0.202 C 
BRANCH   4   5
ATOM      5  C   UNL A   1      32.220  30.118  26.696  1.00  0.00     0.261 C 
BRANCH   5   6
ATOM      6  O   UNL A   1      31.955  28.717  26.877  1.00  0.00    -0.463 OA
BRANCH   6   7
ATOM      7  C   UNL A   1      32.022  27.974  25.727  1.00  0.00     0.312 C 
ATOM      8  O   UNL A   1      32.331  28.418  24.630  1.00  0.00    -0.252 OA
BRANCH   7   9
ATOM      9  C   UNL A   1      31.466  26.572  25.966  1.00  0.00     0.124 C 
ATOM     10  C   UNL A   1      31.769  24.586  24.518  1.00  0.00     0.106 C 
ATOM     11  C   UNL A   1      30.451  25.242  24.303  1.00  0.00    -0.006 C 
ATOM     12  C   UNL A   1      32.435  25.438  25.613  1.00  0.00     0.048 C 
ATOM     13  C   UNL A   1      30.278  26.303  25.093  1.00  0.00    -0.014 C 
BRANCH  10  14
ATOM     14  N   UNL A   1      32.475  24.550  23.260  1.00  0.00    -0.346 N 
ATOM     15  C   UNL A   1      33.049  23.478  22.627  1.00  0.00     0.254 C 
ATOM     16  O   UNL A   1      33.503  23.587  21.495  1.00  0.00    -0.269 OA
ATOM     17  H   UNL A   1      32.553  25.412  22.792  1.00  0.00     0.164 HD
BRANCH  15  18
ATOM     18  C   UNL A   1      33.204  22.205  23.345  1.00  0.00     0.075 A 
ATOM     19  C   UNL A   1      33.621  18.244  24.976  1.00  0.00     0.044 C 
ATOM     20  C   UNL A   1      33.467  19.643  24.461  1.00  0.00    -0.048 A 
ATOM     21  C   UNL A   1      34.354  20.670  24.815  1.00  0.00     0.004 A 
ATOM     22  C   UNL A   1      32.405  19.939  23.609  1.00  0.00     0.043 A 
ATOM     23  C   UNL A   1      34.212  21.956  24.277  1.00  0.00     0.017 A 
ATOM     24  C   UNL A   1      32.305  21.199  23.028  1.00  0.00     0.136 A 
ATOM     25  F   UNL A   1      31.387  21.391  22.071  1.00  0.00    -0.206 F 
ENDBRANCH  15  18
ENDBRANCH  10  14
ENDBRANCH   7   9
ENDBRANCH   6   7
ENDBRANCH   5   6
ENDBRANCH   4   5
ENDBRANCH   3   4
ENDBRANCH   2   3
ENDBRANCH   1   2
BRANCH   1  26
ATOM     26  O   UNL A   1      35.770  33.056  30.220  1.00  0.00    -0.376 OA
BRANCH  26  27
ATOM     27  C   UNL A   1      35.238  32.050  31.084  1.00  0.00     0.202 C 
BRANCH  27  28
ATOM     28  C   UNL A   1      35.918  30.708  30.816  1.00  0.00     0.261 C 
BRANCH  28  29
ATOM     29  O   UNL A   1      36.569  30.170  31.981  1.00  0.00    -0.460 OA
BRANCH  29  30
ATOM     30  C   UNL A   1      37.615  30.884  32.463  1.00  0.00     0.338 C 
ATOM     31  O   UNL A   1      37.604  31.594  33.456  1.00  0.00    -0.246 OA
BRANCH  30  32
ATOM     32  C   UNL A   1      38.828  30.572  31.671  1.00  0.00     0.060 A 
ATOM     33  C   UNL A   1      39.929  30.032  32.340  1.00  0.00     0.016 A 
ATOM     34  C   UNL A   1      38.876  30.755  30.285  1.00  0.00     0.016 A 
ATOM     35  C   UNL A   1      41.031  29.574  31.615  1.00  0.00     0.010 A 
ATOM     36  C   UNL A   1      40.023  30.383  29.573  1.00  0.00     0.010 A 
ATOM     37  C   UNL A   1      41.108  29.777  30.228  1.00  0.00    -0.014 A 
BRANCH  37  38
ATOM     38  C   UNL A   1      42.372  29.480  29.500  1.00  0.00     0.031 A 
ATOM     39  C   UNL A   1      42.598  28.086  28.968  1.00  0.00     0.074 A 
ATOM     40  C   UNL A   1      43.316  30.425  29.308  1.00  0.00     0.049 A 
ATOM     41  N   UNL A   1      43.610  27.615  28.286  1.00  0.00    -0.248 NA
ATOM     42  C   UNL A   1      41.531  27.099  29.211  1.00  0.00     0.031 C 
ATOM     43  C   UNL A   1      43.196  31.834  29.680  1.00  0.00     0.029 A 
ATOM     44  N   UNL A   1      44.571  30.333  28.754  1.00  0.00    -0.354 N 
ATOM     45  C   UNL A   1      43.278  26.301  27.978  1.00  0.00     0.074 A 
ATOM     46  C   UNL A   1      41.973  26.046  28.541  1.00  0.00     0.031 C 
ATOM     47  C   UNL A   1      44.345  32.467  29.379  1.00  0.00     0.029 A 
ATOM     48  C   UNL A   1      45.289  31.507  28.810  1.00  0.00     0.049 A 
ATOM     49  H   UNL A   1      44.925  29.506  28.355  1.00  0.00     0.167 HD
ATOM     50  C   UNL A   1      44.003  25.370  27.317  1.00  0.00     0.031 A 
ATOM     51  C   UNL A   1      46.567  31.769  28.464  1.00  0.00     0.031 A 
ATOM     52  C   UNL A   1      45.358  25.559  26.887  1.00  0.00     0.049 A 
ATOM     53  C   UNL A   1      47.420  30.657  27.899  1.00  0.00     0.074 A 
ATOM     54  C   UNL A   1      46.211  24.639  26.305  1.00  0.00     0.029 A 
ATOM     55  N   UNL A   1      46.075  26.735  27.041  1.00  0.00    -0.354 N 
ATOM     56  N   UNL A   1      47.077  29.429  27.588  1.00  0.00    -0.248 NA
ATOM     57  C   UNL A   1      48.836  30.964  27.648  1.00  0.00     0.031 C 
ATOM     58  C   UNL A   1      47.467  25.239  26.169  1.00  0.00     0.029 A 
ATOM     59  C   UNL A   1      47.376  26.551  26.609  1.00  0.00     0.049 A 
ATOM     60  H   UNL A   1      45.713  27.575  27.404  1.00  0.00     0.167 HD
ATOM     61  C   UNL A   1      48.228  28.827  27.089  1.00  0.00     0.074 A 
ATOM     62  C   UNL A   1      49.274  29.827  27.122  1.00  0.00     0.031 C 
ATOM     63  C   UNL A   1      48.405  27.557  26.646  1.00  0.00     0.031 A 
BRANCH  50  64
ATOM     64  C   UNL A   1      43.361  24.029  27.117  1.00  0.00    -0.014 A 
ATOM     65  C   UNL A   1      43.354  23.073  28.148  1.00  0.00     0.010 A 
ATOM     66  C   UNL A   1      42.768  23.719  25.881  1.00  0.00     0.010 A 
ATOM     67  C   UNL A   1      42.786  21.814  27.934  1.00  0.00     0.020 A 
ATOM     68  C   UNL A   1      42.189  22.467  25.669  1.00  0.00     0.020 A 
ATOM     69  C   UNL A   1      42.214  21.517  26.692  1.00  0.00     0.054 A 
BRANCH  69  70
ATOM     70  S   UNL A   1      41.485  19.876  26.439  1.00  0.00     0.124 S 
ATOM     71  O   UNL A   1      40.094  20.208  26.137  1.00  0.00    -0.237 OA
ATOM     72  O   UNL A   1      42.261  19.348  25.320  1.00  0.00    -0.237 OA
ATOM     73  O   UNL A   1      41.699  19.200  27.716  1.00  0.00    -0.744 OA
ENDBRANCH  69  70
ENDBRANCH  50  64
BRANCH  51  74
ATOM     74  C   UNL A   1      47.162  33.116  28.701  1.00  0.00    -0.014 A 
ATOM     75  C   UNL A   1      47.284  34.049  27.654  1.00  0.00     0.010 A 
ATOM     76  C   UNL A   1      47.676  33.448  29.969  1.00  0.00     0.010 A 
ATOM     77  C   UNL A   1      47.941  35.267  27.862  1.00  0.00     0.020 A 
ATOM     78  C   UNL A   1      48.308  34.676  30.187  1.00  0.00     0.020 A 
ATOM     79  C   UNL A   1      48.456  35.571  29.126  1.00  0.00     0.054 A 
BRANCH  79  80
ATOM     80  S   UNL A   1      49.303  37.156  29.377  1.00  0.00     0.124 S 
ATOM     81  O   UNL A   1      50.707  36.757  29.352  1.00  0.00    -0.237 OA
ATOM     82  O   UNL A   1      48.852  37.946  28.234  1.00  0.00    -0.237 OA
ATOM     83  O   UNL A   1      48.804  37.609  30.674  1.00  0.00    -0.744 OA
ENDBRANCH  79  80
ENDBRANCH  51  74
BRANCH  63  84
ATOM     84  C   UNL A   1      49.769  27.171  26.143  1.00  0.00    -0.014 A 
ATOM     85  C   UNL A   1      50.763  26.710  27.023  1.00  0.00     0.010 A 
ATOM     86  C   UNL A   1      50.027  27.182  24.760  1.00  0.00     0.010 A 
ATOM     87  C   UNL A   1      51.998  26.279  26.529  1.00  0.00     0.020 A 
ATOM     88  C   UNL A   1      51.250  26.730  24.261  1.00  0.00     0.020 A 
ATOM     89  C   UNL A   1      52.233  26.289  25.150  1.00  0.00     0.054 A 
BRANCH  89  90
ATOM     90  S   UNL A   1      53.813  25.655  24.524  1.00  0.00     0.124 S 
ATOM     91  O   UNL A   1      54.765  26.214  25.481  1.00  0.00    -0.237 OA
ATOM     92  O   UNL A   1      53.632  24.208  24.592  1.00  0.00    -0.237 OA
ATOM     93  O   UNL A   1      53.895  26.203  23.172  1.00  0.00    -0.744 OA
ENDBRANCH  89  90
ENDBRANCH  63  84
ENDBRANCH  37  38
ENDBRANCH  30  32
ENDBRANCH  29  30
ENDBRANCH  28  29
ENDBRANCH  27  28
ENDBRANCH  26  27
ENDBRANCH   1  26
TORSDOF 22
ENDMDL
MODEL 3
REMARK VINA RESULT:      -9.1      1.774      2.433
REMARK SMILES Cc1ccc(C(=O)N[C@@H]2C=C[C@H](C(=O)OCCOCCOCCOC(=O)c3ccc(-c4c5nc(c(-c6ccc(S(=O)(=O)[O-])cc6)c6ccc([nH]6)c(-c6ccc(S(=O)(=O)[O-])cc6)c6nc(c(-c7ccc(S(=O)(=O)[O-])cc7)c7ccc4[nH]7)C=C6)C=C5)cc3)C2)c(F)c1
REMARK SMILES IDX 20 1 19 2 18 3 17 4 16 5 15 6 13 7 14 8 12 9 9 10 10 11
REMARK SMILES IDX 87 12 11 13 8 14 6 15 7 16 5 18 1 19 2 20 3 21 90 22 4 23
REMARK SMILES IDX 88 24 89 25 21 26 22 27 23 28 24 29 25 30 26 31 27 32 28 33
REMARK SMILES IDX 86 34 29 35 85 36 30 37 31 38 32 39 79 40 33 41 84 42 78 43
REMARK SMILES IDX 80 44 34 45 83 46 77 47 76 48 35 50 65 51 46 52 64 53 47 54
REMARK SMILES IDX 50 55 63 56 81 57 48 58 49 59 62 61 82 62 51 63 36 64 37 65
REMARK SMILES IDX 45 66 38 67 44 68 39 69 40 70 41 71 42 72 43 73 66 74 67 75
REMARK SMILES IDX 75 76 68 77 74 78 69 79 70 80 71 81 72 82 73 83 52 84 53 85
REMARK SMILES IDX 61 86 54 87 60 88 55 89 56 90 57 91 58 92 59 93
REMARK H PARENT 8 17 80 49 50 60
REMARK Flexibility Score: inf
ROOT
ATOM      1  C   UNL A   1      43.466  23.068  25.882  1.00  0.00     0.188 C 
ENDROOT
BRANCH   1   2
ATOM      2  C   UNL A   1      42.127  22.325  25.972  1.00  0.00     0.188 C 
BRANCH   2   3
ATOM      3  O   UNL A   1      41.777  21.693  27.202  1.00  0.00    -0.376 OA
BRANCH   3   4
ATOM      4  C   UNL A   1      41.018  20.498  27.148  1.00  0.00     0.202 C 
BRANCH   4   5
ATOM      5  C   UNL A   1      39.995  20.403  26.018  1.00  0.00     0.261 C 
BRANCH   5   6
ATOM      6  O   UNL A   1      39.064  21.496  25.955  1.00  0.00    -0.463 OA
BRANCH   6   7
ATOM      7  C   UNL A   1      37.941  21.242  25.212  1.00  0.00     0.312 C 
ATOM      8  O   UNL A   1      37.696  20.176  24.664  1.00  0.00    -0.252 OA
BRANCH   7   9
ATOM      9  C   UNL A   1      37.143  22.527  24.996  1.00  0.00     0.124 C 
ATOM     10  C   UNL A   1      34.682  22.784  25.095  1.00  0.00     0.106 C 
ATOM     11  C   UNL A   1      35.180  22.672  23.698  1.00  0.00    -0.006 C 
ATOM     12  C   UNL A   1      35.958  22.704  25.952  1.00  0.00     0.048 C 
ATOM     13  C   UNL A   1      36.507  22.550  23.640  1.00  0.00    -0.014 C 
BRANCH  10  14
ATOM     14  N   UNL A   1      33.725  21.729  25.327  1.00  0.00    -0.346 N 
ATOM     15  C   UNL A   1      32.364  21.754  25.172  1.00  0.00     0.254 C 
ATOM     16  O   UNL A   1      31.699  20.732  25.288  1.00  0.00    -0.269 OA
ATOM     17  H   UNL A   1      34.102  20.875  25.639  1.00  0.00     0.164 HD
BRANCH  15  18
ATOM     18  C   UNL A   1      31.679  23.036  24.951  1.00  0.00     0.075 A 
ATOM     19  C   UNL A   1      29.333  26.518  24.005  1.00  0.00     0.044 C 
ATOM     20  C   UNL A   1      30.192  25.340  24.355  1.00  0.00    -0.048 A 
ATOM     21  C   UNL A   1      30.555  25.049  25.677  1.00  0.00     0.004 A 
ATOM     22  C   UNL A   1      30.651  24.510  23.334  1.00  0.00     0.043 A 
ATOM     23  C   UNL A   1      31.317  23.911  25.975  1.00  0.00     0.017 A 
ATOM     24  C   UNL A   1      31.351  23.348  23.641  1.00  0.00     0.136 A 
ATOM     25  F   UNL A   1      31.611  22.479  22.654  1.00  0.00    -0.206 F 
ENDBRANCH  15  18
ENDBRANCH  10  14
ENDBRANCH   7   9
ENDBRANCH   6   7
ENDBRANCH   5   6
ENDBRANCH   4   5
ENDBRANCH   3   4
ENDBRANCH   2   3
ENDBRANCH   1   2
BRANCH   1  26
ATOM     26  O   UNL A   1      43.489  24.037  24.834  1.00  0.00    -0.376 OA
BRANCH  26  27
ATOM     27  C   UNL A   1      43.838  25.354  25.266  1.00  0.00     0.202 C 
BRANCH  27  28
ATOM     28  C   UNL A   1      43.078  25.711  26.543  1.00  0.00     0.261 C 
BRANCH  28  29
ATOM     29  O   UNL A   1      42.472  27.015  26.483  1.00  0.00    -0.460 OA
BRANCH  29  30
ATOM     30  C   UNL A   1      41.194  27.100  26.929  1.00  0.00     0.338 C 
ATOM     31  O   UNL A   1      40.213  26.611  26.392  1.00  0.00    -0.246 OA
BRANCH  30  32
ATOM     32  C   UNL A   1      41.180  27.770  28.250  1.00  0.00     0.060 A 
ATOM     33  C   UNL A   1      40.332  27.260  29.237  1.00  0.00     0.016 A 
ATOM     34  C   UNL A   1      42.018  28.851  28.542  1.00  0.00     0.016 A 
ATOM     35  C   UNL A   1      40.401  27.756  30.541  1.00  0.00     0.010 A 
ATOM     36  C   UNL A   1      42.013  29.409  29.827  1.00  0.00     0.010 A 
ATOM     37  C   UNL A   1      41.213  28.859  30.842  1.00  0.00    -0.014 A 
BRANCH  37  38
ATOM     38  C   UNL A   1      41.119  29.511  32.178  1.00  0.00     0.031 A 
ATOM     39  C   UNL A   1      40.035  30.533  32.417  1.00  0.00     0.074 A 
ATOM     40  C   UNL A   1      41.979  29.210  33.173  1.00  0.00     0.049 A 
ATOM     41  N   UNL A   1      39.754  31.201  33.506  1.00  0.00    -0.248 NA
ATOM     42  C   UNL A   1      39.128  30.818  31.291  1.00  0.00     0.031 C 
ATOM     43  C   UNL A   1      43.014  28.179  33.120  1.00  0.00     0.029 A 
ATOM     44  N   UNL A   1      42.119  29.757  34.428  1.00  0.00    -0.354 N 
ATOM     45  C   UNL A   1      38.616  31.942  33.210  1.00  0.00     0.074 A 
ATOM     46  C   UNL A   1      38.252  31.642  31.845  1.00  0.00     0.031 C 
ATOM     47  C   UNL A   1      43.707  28.192  34.274  1.00  0.00     0.029 A 
ATOM     48  C   UNL A   1      43.179  29.243  35.141  1.00  0.00     0.049 A 
ATOM     49  H   UNL A   1      41.519  30.451  34.783  1.00  0.00     0.167 HD
ATOM     50  C   UNL A   1      37.946  32.824  33.987  1.00  0.00     0.031 A 
ATOM     51  C   UNL A   1      43.679  29.598  36.344  1.00  0.00     0.031 A 
ATOM     52  C   UNL A   1      38.381  33.247  35.286  1.00  0.00     0.049 A 
ATOM     53  C   UNL A   1      43.022  30.720  37.112  1.00  0.00     0.074 A 
ATOM     54  C   UNL A   1      37.828  34.215  36.105  1.00  0.00     0.029 A 
ATOM     55  N   UNL A   1      39.507  32.765  35.934  1.00  0.00    -0.354 N 
ATOM     56  N   UNL A   1      41.928  31.387  36.828  1.00  0.00    -0.248 NA
ATOM     57  C   UNL A   1      43.674  31.145  38.361  1.00  0.00     0.031 C 
ATOM     58  C   UNL A   1      38.659  34.366  37.220  1.00  0.00     0.029 A 
ATOM     59  C   UNL A   1      39.693  33.449  37.122  1.00  0.00     0.049 A 
ATOM     60  H   UNL A   1      40.087  32.044  35.599  1.00  0.00     0.167 HD
ATOM     61  C   UNL A   1      41.754  32.294  37.869  1.00  0.00     0.074 A 
ATOM     62  C   UNL A   1      42.843  32.081  38.799  1.00  0.00     0.031 C 
ATOM     63  C   UNL A   1      40.781  33.224  38.038  1.00  0.00     0.031 A 
BRANCH  50  64
ATOM     64  C   UNL A   1      36.725  33.459  33.391  1.00  0.00    -0.014 A 
ATOM     65  C   UNL A   1      36.824  34.633  32.623  1.00  0.00     0.010 A 
ATOM     66  C   UNL A   1      35.462  32.880  33.610  1.00  0.00     0.010 A 
ATOM     67  C   UNL A   1      35.673  35.234  32.107  1.00  0.00     0.020 A 
ATOM     68  C   UNL A   1      34.312  33.471  33.084  1.00  0.00     0.020 A 
ATOM     69  C   UNL A   1      34.424  34.652  32.348  1.00  0.00     0.054 A 
BRANCH  69  70
ATOM     70  S   UNL A   1      32.944  35.452  31.668  1.00  0.00     0.124 S 
ATOM     71  O   UNL A   1      33.264  36.868  31.834  1.00  0.00    -0.237 OA
ATOM     72  O   UNL A   1      32.922  34.970  30.290  1.00  0.00    -0.237 OA
ATOM     73  O   UNL A   1      31.862  34.956  32.515  1.00  0.00    -0.744 OA
ENDBRANCH  69  70
ENDBRANCH  50  64
BRANCH  51  74
ATOM     74  C   UNL A   1      44.908  28.946  36.882  1.00  0.00    -0.014 A 
ATOM     75  C   UNL A   1      46.188  29.438  36.562  1.00  0.00     0.010 A 
ATOM     76  C   UNL A   1      44.806  27.781  37.665  1.00  0.00     0.010 A 
ATOM     77  C   UNL A   1      47.336  28.757  36.983  1.00  0.00     0.020 A 
ATOM     78  C   UNL A   1      45.950  27.113  38.111  1.00  0.00     0.020 A 
ATOM     79  C   UNL A   1      47.210  27.594  37.749  1.00  0.00     0.054 A 
BRANCH  79  80
ATOM     80  S   UNL A   1      48.710  26.724  38.287  1.00  0.00     0.124 S 
ATOM     81  O   UNL A   1      49.107  27.500  39.459  1.00  0.00    -0.237 OA
ATOM     82  O   UNL A   1      48.217  25.376  38.561  1.00  0.00    -0.237 OA
ATOM     83  O   UNL A   1      49.600  26.832  37.134  1.00  0.00    -0.744 OA
ENDBRANCH  79  80
ENDBRANCH  51  74
BRANCH  63  84
ATOM     84  C   UNL A   1      40.828  34.073  39.279  1.00  0.00    -0.014 A 
ATOM     85  C   UNL A   1      41.506  35.305  39.289  1.00  0.00     0.010 A 
ATOM     86  C   UNL A   1      40.105  33.678  40.419  1.00  0.00     0.010 A 
ATOM     87  C   UNL A   1      41.472  36.119  40.424  1.00  0.00     0.020 A 
ATOM     88  C   UNL A   1      40.048  34.500  41.546  1.00  0.00     0.020 A 
ATOM     89  C   UNL A   1      40.740  35.713  41.545  1.00  0.00     0.054 A 
BRANCH  89  90
ATOM     90  S   UNL A   1      40.647  36.818  42.981  1.00  0.00     0.124 S 
ATOM     91  O   UNL A   1      39.338  36.485  43.537  1.00  0.00    -0.237 OA
ATOM     92  O   UNL A   1      41.795  36.404  43.784  1.00  0.00    -0.237 OA
ATOM     93  O   UNL A   1      40.754  38.154  42.398  1.00  0.00    -0.744 OA
ENDBRANCH  89  90
ENDBRANCH  63  84
ENDBRANCH  37  38
ENDBRANCH  30  32
ENDBRANCH  29  30
ENDBRANCH  28  29
ENDBRANCH  27  28
ENDBRANCH  26  27
ENDBRANCH   1  26
TORSDOF 22
ENDMDL
