MODEL 1
REMARK VINA RESULT:      -8.2      0.000      0.000
REMARK SMILES CCc1ccc(N2C(=O)/C(=C/c3cc(Cl)c(OCC(=O)OCCOCCOCCOC(=O)c4ccc(-c5c6nc(c(-c7ccc(S(=O)(=O)[O-])cc7)c7ccc([nH]7)c(-c7ccc(S(=O)(=O)[O-])cc7)c7nc(c(-c8ccc(S(=O)(=O)[O-])cc8)c8ccc5[nH]8)C=C7)C=C6)cc4)c(Cl)c3)C(=O)NC2=S)cc1
REMARK SMILES IDX 25 1 24 2 23 3 22 4 21 5 19 6 20 7 18 8 17 9 16 10 12 11
REMARK SMILES IDX 13 12 95 13 14 14 93 15 15 16 94 17 11 18 7 19 8 20 99 21
REMARK SMILES IDX 9 22 10 23 98 24 100 25 96 26 97 28 6 29 3 30 4 31 102 32
REMARK SMILES IDX 5 33 101 34 2 35 1 36 26 37 27 38 28 39 29 40 30 41 31 42
REMARK SMILES IDX 32 43 33 44 34 45 92 46 35 47 91 48 36 49 37 50 38 51 85 52
REMARK SMILES IDX 39 53 90 54 84 55 86 56 40 57 89 58 83 59 82 60 41 62 71 63
REMARK SMILES IDX 52 64 70 65 53 66 56 67 69 68 87 69 54 70 55 71 68 73 88 74
REMARK SMILES IDX 57 75 42 76 43 77 51 78 44 79 50 80 45 81 46 82 47 83 48 84
REMARK SMILES IDX 49 85 72 86 73 87 81 88 74 89 80 90 75 91 76 92 77 93 78 94
REMARK SMILES IDX 79 95 58 96 59 97 67 98 60 99 66 100 61 101 62 102 63 103
REMARK SMILES IDX 64 104 65 105
REMARK H PARENT 98 27 86 61 56 72
REMARK Flexibility Score: inf
ROOT
ATOM      1  C   UNL A   1      37.476  33.923  35.059  1.00  0.00     0.188 C 
ENDROOT
BRANCH   1   2
ATOM      2  O   UNL A   1      37.091  34.885  34.080  1.00  0.00    -0.376 OA
BRANCH   2   3
ATOM      3  C   UNL A   1      36.024  34.523  33.209  1.00  0.00     0.202 C 
BRANCH   3   4
ATOM      4  C   UNL A   1      36.424  34.394  31.735  1.00  0.00     0.261 C 
BRANCH   4   5
ATOM      5  O   UNL A   1      37.834  34.660  31.528  1.00  0.00    -0.461 OA
BRANCH   5   6
ATOM      6  C   UNL A   1      38.385  34.196  30.377  1.00  0.00     0.344 C 
ATOM      7  O   UNL A   1      39.299  34.756  29.782  1.00  0.00    -0.248 OA
BRANCH   6   8
ATOM      8  C   UNL A   1      37.811  32.841  29.896  1.00  0.00     0.352 C 
BRANCH   8   9
ATOM      9  O   UNL A   1      37.097  32.737  28.675  1.00  0.00    -0.479 OA
BRANCH   9  10
ATOM     10  C   UNL A   1      36.412  31.632  28.222  1.00  0.00     0.157 A 
ATOM     11  C   UNL A   1      34.545  29.502  27.621  1.00  0.00    -0.021 A 
ATOM     12  C   UNL A   1      34.118  30.825  27.740  1.00  0.00     0.032 A 
ATOM     13  C   UNL A   1      35.921  29.276  27.671  1.00  0.00     0.032 A 
ATOM     14  C   UNL A   1      35.031  31.861  28.029  1.00  0.00     0.085 A 
ATOM     15  C   UNL A   1      36.848  30.327  27.941  1.00  0.00     0.085 A 
ATOM     16  Cl  UNL A   1      34.372  33.468  28.118  1.00  0.00    -0.080 Cl
ATOM     17  Cl  UNL A   1      38.510  29.865  27.788  1.00  0.00    -0.080 Cl
BRANCH  11  18
ATOM     18  C   UNL A   1      33.555  28.456  27.280  1.00  0.00     0.028 C 
ATOM     19  N   UNL A   1      32.568  26.440  24.622  1.00  0.00    -0.253 N 
ATOM     20  C   UNL A   1      32.296  26.893  25.940  1.00  0.00     0.270 C 
ATOM     21  C   UNL A   1      33.084  27.252  23.586  1.00  0.00     0.187 C 
ATOM     22  O   UNL A   1      31.817  26.242  26.861  1.00  0.00    -0.268 OA
ATOM     23  C   UNL A   1      32.808  28.263  26.170  1.00  0.00     0.106 C 
ATOM     24  N   UNL A   1      33.177  28.587  23.872  1.00  0.00    -0.298 N 
ATOM     25  S   UNL A   1      33.468  26.837  22.000  1.00  0.00    -0.040 S 
ATOM     26  C   UNL A   1      32.603  29.108  24.993  1.00  0.00     0.263 C 
ATOM     27  H   UNL A   1      33.668  29.181  23.259  1.00  0.00     0.172 HD
ATOM     28  O   UNL A   1      31.730  29.951  24.920  1.00  0.00    -0.269 OA
BRANCH  19  29
ATOM     29  C   UNL A   1      32.383  25.048  24.414  1.00  0.00     0.052 A 
ATOM     30  C   UNL A   1      32.102  22.354  23.713  1.00  0.00    -0.048 A 
ATOM     31  C   UNL A   1      33.234  22.791  24.419  1.00  0.00     0.006 A 
ATOM     32  C   UNL A   1      31.086  23.273  23.423  1.00  0.00     0.006 A 
ATOM     33  C   UNL A   1      33.382  24.135  24.757  1.00  0.00     0.027 A 
ATOM     34  C   UNL A   1      31.232  24.612  23.757  1.00  0.00     0.027 A 
BRANCH  30  35
ATOM     35  C   UNL A   1      32.014  20.912  23.283  1.00  0.00     0.032 C 
ATOM     36  C   UNL A   1      32.886  19.961  24.097  1.00  0.00     0.009 C 
ENDBRANCH  30  35
ENDBRANCH  19  29
ENDBRANCH  11  18
ENDBRANCH   9  10
ENDBRANCH   8   9
ENDBRANCH   6   8
ENDBRANCH   5   6
ENDBRANCH   4   5
ENDBRANCH   3   4
ENDBRANCH   2   3
ENDBRANCH   1   2
BRANCH   1  37
ATOM     37  C   UNL A   1      38.982  33.695  35.221  1.00  0.00     0.188 C 
BRANCH  37  38
ATOM     38  O   UNL A   1      39.248  32.560  36.037  1.00  0.00    -0.376 OA
BRANCH  38  39
ATOM     39  C   UNL A   1      38.160  31.665  36.179  1.00  0.00     0.202 C 
BRANCH  39  40
ATOM     40  C   UNL A   1      38.272  30.499  35.179  1.00  0.00     0.261 C 
BRANCH  40  41
ATOM     41  O   UNL A   1      38.759  30.756  33.839  1.00  0.00    -0.460 OA
BRANCH  41  42
ATOM     42  C   UNL A   1      39.415  29.754  33.235  1.00  0.00     0.338 C 
ATOM     43  O   UNL A   1      39.058  28.582  33.234  1.00  0.00    -0.246 OA
BRANCH  42  44
ATOM     44  C   UNL A   1      40.629  30.134  32.504  1.00  0.00     0.060 A 
ATOM     45  C   UNL A   1      41.765  30.360  33.280  1.00  0.00     0.016 A 
ATOM     46  C   UNL A   1      40.574  30.586  31.184  1.00  0.00     0.016 A 
ATOM     47  C   UNL A   1      42.811  31.123  32.777  1.00  0.00     0.010 A 
ATOM     48  C   UNL A   1      41.648  31.316  30.661  1.00  0.00     0.010 A 
ATOM     49  C   UNL A   1      42.765  31.606  31.461  1.00  0.00    -0.014 A 
BRANCH  49  50
ATOM     50  C   UNL A   1      43.947  32.313  30.912  1.00  0.00     0.031 A 
ATOM     51  C   UNL A   1      44.124  33.799  31.041  1.00  0.00     0.074 A 
ATOM     52  C   UNL A   1      44.892  31.567  30.312  1.00  0.00     0.049 A 
ATOM     53  N   UNL A   1      45.070  34.556  30.542  1.00  0.00    -0.248 NA
ATOM     54  C   UNL A   1      43.124  34.530  31.835  1.00  0.00     0.031 C 
ATOM     55  C   UNL A   1      44.853  30.106  30.186  1.00  0.00     0.029 A 
ATOM     56  N   UNL A   1      46.071  31.921  29.713  1.00  0.00    -0.354 N 
ATOM     57  C   UNL A   1      44.770  35.855  30.933  1.00  0.00     0.074 A 
ATOM     58  C   UNL A   1      43.554  35.782  31.721  1.00  0.00     0.031 C 
ATOM     59  C   UNL A   1      45.976  29.688  29.588  1.00  0.00     0.029 A 
ATOM     60  C   UNL A   1      46.766  30.851  29.206  1.00  0.00     0.049 A 
ATOM     61  H   UNL A   1      46.388  32.851  29.651  1.00  0.00     0.167 HD
ATOM     62  C   UNL A   1      45.439  37.000  30.645  1.00  0.00     0.031 A 
ATOM     63  C   UNL A   1      47.893  30.804  28.474  1.00  0.00     0.031 A 
ATOM     64  C   UNL A   1      46.639  37.058  29.844  1.00  0.00     0.049 A 
ATOM     65  C   UNL A   1      48.568  32.087  28.102  1.00  0.00     0.074 A 
ATOM     66  C   UNL A   1      47.378  38.169  29.474  1.00  0.00     0.029 A 
ATOM     67  N   UNL A   1      47.275  35.956  29.285  1.00  0.00    -0.354 N 
ATOM     68  N   UNL A   1      48.239  33.313  28.433  1.00  0.00    -0.248 NA
ATOM     69  C   UNL A   1      49.753  31.982  27.245  1.00  0.00     0.031 C 
ATOM     70  C   UNL A   1      48.431  37.745  28.653  1.00  0.00     0.029 A 
ATOM     71  C   UNL A   1      48.381  36.364  28.554  1.00  0.00     0.049 A 
ATOM     72  H   UNL A   1      46.982  35.023  29.392  1.00  0.00     0.167 HD
ATOM     73  C   UNL A   1      49.184  34.131  27.827  1.00  0.00     0.074 A 
ATOM     74  C   UNL A   1      50.106  33.256  27.129  1.00  0.00     0.031 C 
ATOM     75  C   UNL A   1      49.276  35.483  27.846  1.00  0.00     0.031 A 
BRANCH  62  76
ATOM     76  C   UNL A   1      44.849  38.297  31.138  1.00  0.00    -0.014 A 
ATOM     77  C   UNL A   1      45.287  38.903  32.328  1.00  0.00     0.010 A 
ATOM     78  C   UNL A   1      43.854  38.938  30.374  1.00  0.00     0.010 A 
ATOM     79  C   UNL A   1      44.710  40.101  32.768  1.00  0.00     0.020 A 
ATOM     80  C   UNL A   1      43.291  40.145  30.797  1.00  0.00     0.020 A 
ATOM     81  C   UNL A   1      43.708  40.709  32.004  1.00  0.00     0.054 A 
BRANCH  81  82
ATOM     82  S   UNL A   1      42.965  42.256  32.598  1.00  0.00     0.124 S 
ATOM     83  O   UNL A   1      43.218  43.159  31.478  1.00  0.00    -0.237 OA
ATOM     84  O   UNL A   1      41.567  41.887  32.803  1.00  0.00    -0.237 OA
ATOM     85  O   UNL A   1      43.712  42.553  33.817  1.00  0.00    -0.744 OA
ENDBRANCH  81  82
ENDBRANCH  62  76
BRANCH  63  86
ATOM     86  C   UNL A   1      48.404  29.486  28.015  1.00  0.00    -0.014 A 
ATOM     87  C   UNL A   1      47.933  28.914  26.824  1.00  0.00     0.010 A 
ATOM     88  C   UNL A   1      49.425  28.838  28.737  1.00  0.00     0.010 A 
ATOM     89  C   UNL A   1      48.480  27.716  26.355  1.00  0.00     0.020 A 
ATOM     90  C   UNL A   1      49.994  27.658  28.257  1.00  0.00     0.020 A 
ATOM     91  C   UNL A   1      49.513  27.100  27.072  1.00  0.00     0.054 A 
BRANCH  91  92
ATOM     92  S   UNL A   1      50.272  25.596  26.399  1.00  0.00     0.124 S 
ATOM     93  O   UNL A   1      51.215  25.237  27.453  1.00  0.00    -0.237 OA
ATOM     94  O   UNL A   1      49.127  24.703  26.241  1.00  0.00    -0.237 OA
ATOM     95  O   UNL A   1      50.873  26.051  25.147  1.00  0.00    -0.744 OA
ENDBRANCH  91  92
ENDBRANCH  63  86
BRANCH  75  96
ATOM     96  C   UNL A   1      50.432  36.090  27.099  1.00  0.00    -0.014 A 
ATOM     97  C   UNL A   1      51.640  36.394  27.753  1.00  0.00     0.010 A 
ATOM     98  C   UNL A   1      50.308  36.356  25.725  1.00  0.00     0.010 A 
ATOM     99  C   UNL A   1      52.689  36.994  27.052  1.00  0.00     0.020 A 
ATOM    100  C   UNL A   1      51.365  36.933  25.016  1.00  0.00     0.020 A 
ATOM    101  C   UNL A   1      52.543  37.266  25.689  1.00  0.00     0.054 A 
BRANCH 101 102
ATOM    102  S   UNL A   1      53.923  38.029  24.793  1.00  0.00     0.124 S 
ATOM    103  O   UNL A   1      53.787  39.433  25.167  1.00  0.00    -0.237 OA
ATOM    104  O   UNL A   1      55.087  37.342  25.347  1.00  0.00    -0.237 OA
ATOM    105  O   UNL A   1      53.636  37.725  23.393  1.00  0.00    -0.744 OA
ENDBRANCH 101 102
ENDBRANCH  75  96
ENDBRANCH  49  50
ENDBRANCH  42  44
ENDBRANCH  41  42
ENDBRANCH  40  41
ENDBRANCH  39  40
ENDBRANCH  38  39
ENDBRANCH  37  38
ENDBRANCH   1  37
TORSDOF 25
ENDMDL
MODEL 2
REMARK VINA RESULT:      -8.1      8.038     11.779
REMARK SMILES CCc1ccc(N2C(=O)/C(=C/c3cc(Cl)c(OCC(=O)OCCOCCOCCOC(=O)c4ccc(-c5c6nc(c(-c7ccc(S(=O)(=O)[O-])cc7)c7ccc([nH]7)c(-c7ccc(S(=O)(=O)[O-])cc7)c7nc(c(-c8ccc(S(=O)(=O)[O-])cc8)c8ccc5[nH]8)C=C7)C=C6)cc4)c(Cl)c3)C(=O)NC2=S)cc1
REMARK SMILES IDX 25 1 24 2 23 3 22 4 21 5 19 6 20 7 18 8 17 9 16 10 12 11
REMARK SMILES IDX 13 12 95 13 14 14 93 15 15 16 94 17 11 18 7 19 8 20 99 21
REMARK SMILES IDX 9 22 10 23 98 24 100 25 96 26 97 28 6 29 3 30 4 31 102 32
REMARK SMILES IDX 5 33 101 34 2 35 1 36 26 37 27 38 28 39 29 40 30 41 31 42
REMARK SMILES IDX 32 43 33 44 34 45 92 46 35 47 91 48 36 49 37 50 38 51 85 52
REMARK SMILES IDX 39 53 90 54 84 55 86 56 40 57 89 58 83 59 82 60 41 62 71 63
REMARK SMILES IDX 52 64 70 65 53 66 56 67 69 68 87 69 54 70 55 71 68 73 88 74
REMARK SMILES IDX 57 75 42 76 43 77 51 78 44 79 50 80 45 81 46 82 47 83 48 84
REMARK SMILES IDX 49 85 72 86 73 87 81 88 74 89 80 90 75 91 76 92 77 93 78 94
REMARK SMILES IDX 79 95 58 96 59 97 67 98 60 99 66 100 61 101 62 102 63 103
REMARK SMILES IDX 64 104 65 105
REMARK H PARENT 98 27 86 61 56 72
REMARK Flexibility Score: inf
ROOT
ATOM      1  C   UNL A   1      38.640  34.583  35.336  1.00  0.00     0.188 C 
ENDROOT
BRANCH   1   2
ATOM      2  O   UNL A   1      39.492  34.310  34.226  1.00  0.00    -0.376 OA
BRANCH   2   3
ATOM      3  C   UNL A   1      39.472  32.983  33.711  1.00  0.00     0.202 C 
BRANCH   3   4
ATOM      4  C   UNL A   1      38.791  32.841  32.345  1.00  0.00     0.261 C 
BRANCH   4   5
ATOM      5  O   UNL A   1      38.616  34.122  31.689  1.00  0.00    -0.461 OA
BRANCH   5   6
ATOM      6  C   UNL A   1      38.483  34.107  30.338  1.00  0.00     0.344 C 
ATOM      7  O   UNL A   1      38.804  35.041  29.609  1.00  0.00    -0.248 OA
BRANCH   6   8
ATOM      8  C   UNL A   1      37.952  32.772  29.763  1.00  0.00     0.352 C 
BRANCH   8   9
ATOM      9  O   UNL A   1      36.959  32.751  28.750  1.00  0.00    -0.479 OA
BRANCH   9  10
ATOM     10  C   UNL A   1      36.299  31.639  28.277  1.00  0.00     0.157 A 
ATOM     11  C   UNL A   1      34.469  29.494  27.616  1.00  0.00    -0.021 A 
ATOM     12  C   UNL A   1      34.032  30.816  27.706  1.00  0.00     0.032 A 
ATOM     13  C   UNL A   1      35.843  29.276  27.727  1.00  0.00     0.032 A 
ATOM     14  C   UNL A   1      34.927  31.859  28.024  1.00  0.00     0.085 A 
ATOM     15  C   UNL A   1      36.753  30.333  28.027  1.00  0.00     0.085 A 
ATOM     16  Cl  UNL A   1      34.258  33.463  28.071  1.00  0.00    -0.080 Cl
ATOM     17  Cl  UNL A   1      38.422  29.878  27.950  1.00  0.00    -0.080 Cl
BRANCH  11  18
ATOM     18  C   UNL A   1      33.500  28.440  27.243  1.00  0.00     0.028 C 
ATOM     19  N   UNL A   1      32.532  26.510  24.514  1.00  0.00    -0.253 N 
ATOM     20  C   UNL A   1      32.263  26.904  25.852  1.00  0.00     0.270 C 
ATOM     21  C   UNL A   1      33.020  27.374  23.507  1.00  0.00     0.187 C 
ATOM     22  O   UNL A   1      31.808  26.206  26.751  1.00  0.00    -0.268 OA
ATOM     23  C   UNL A   1      32.747  28.274  26.133  1.00  0.00     0.106 C 
ATOM     24  N   UNL A   1      33.087  28.698  23.846  1.00  0.00    -0.298 N 
ATOM     25  S   UNL A   1      33.398  27.030  21.903  1.00  0.00    -0.040 S 
ATOM     26  C   UNL A   1      32.512  29.161  24.991  1.00  0.00     0.263 C 
ATOM     27  H   UNL A   1      33.558  29.327  23.252  1.00  0.00     0.172 HD
ATOM     28  O   UNL A   1      31.620  29.986  24.960  1.00  0.00    -0.269 OA
BRANCH  19  29
ATOM     29  C   UNL A   1      32.376  25.123  24.253  1.00  0.00     0.052 A 
ATOM     30  C   UNL A   1      32.114  22.459  23.441  1.00  0.00    -0.048 A 
ATOM     31  C   UNL A   1      33.306  22.909  24.031  1.00  0.00     0.006 A 
ATOM     32  C   UNL A   1      31.037  23.345  23.327  1.00  0.00     0.006 A 
ATOM     33  C   UNL A   1      33.444  24.240  24.423  1.00  0.00     0.027 A 
ATOM     34  C   UNL A   1      31.171  24.671  23.715  1.00  0.00     0.027 A 
BRANCH  30  35
ATOM     35  C   UNL A   1      32.029  21.038  22.945  1.00  0.00     0.032 C 
ATOM     36  C   UNL A   1      32.500  19.993  23.952  1.00  0.00     0.009 C 
ENDBRANCH  30  35
ENDBRANCH  19  29
ENDBRANCH  11  18
ENDBRANCH   9  10
ENDBRANCH   8   9
ENDBRANCH   6   8
ENDBRANCH   5   6
ENDBRANCH   4   5
ENDBRANCH   3   4
ENDBRANCH   2   3
ENDBRANCH   1   2
BRANCH   1  37
ATOM     37  C   UNL A   1      39.298  34.538  36.718  1.00  0.00     0.188 C 
BRANCH  37  38
ATOM     38  O   UNL A   1      38.338  34.305  37.741  1.00  0.00    -0.376 OA
BRANCH  38  39
ATOM     39  C   UNL A   1      38.577  33.152  38.526  1.00  0.00     0.202 C 
BRANCH  39  40
ATOM     40  C   UNL A   1      39.434  33.494  39.760  1.00  0.00     0.261 C 
BRANCH  40  41
ATOM     41  O   UNL A   1      38.783  33.756  41.027  1.00  0.00    -0.460 OA
BRANCH  41  42
ATOM     42  C   UNL A   1      38.420  35.025  41.265  1.00  0.00     0.338 C 
ATOM     43  O   UNL A   1      37.339  35.372  41.727  1.00  0.00    -0.246 OA
BRANCH  42  44
ATOM     44  C   UNL A   1      39.431  36.045  40.969  1.00  0.00     0.060 A 
ATOM     45  C   UNL A   1      40.350  36.309  41.986  1.00  0.00     0.016 A 
ATOM     46  C   UNL A   1      39.279  36.940  39.908  1.00  0.00     0.016 A 
ATOM     47  C   UNL A   1      41.046  37.510  42.001  1.00  0.00     0.010 A 
ATOM     48  C   UNL A   1      40.015  38.130  39.899  1.00  0.00     0.010 A 
ATOM     49  C   UNL A   1      40.889  38.432  40.955  1.00  0.00    -0.014 A 
BRANCH  49  50
ATOM     50  C   UNL A   1      41.735  39.649  40.935  1.00  0.00     0.031 A 
ATOM     51  C   UNL A   1      41.204  41.002  41.312  1.00  0.00     0.074 A 
ATOM     52  C   UNL A   1      43.029  39.499  40.594  1.00  0.00     0.049 A 
ATOM     53  N   UNL A   1      41.812  42.161  41.266  1.00  0.00    -0.248 NA
ATOM     54  C   UNL A   1      39.822  41.066  41.813  1.00  0.00     0.031 C 
ATOM     55  C   UNL A   1      43.668  38.220  40.269  1.00  0.00     0.029 A 
ATOM     56  N   UNL A   1      44.040  40.415  40.479  1.00  0.00    -0.354 N 
ATOM     57  C   UNL A   1      40.885  43.100  41.702  1.00  0.00     0.074 A 
ATOM     58  C   UNL A   1      39.672  42.371  42.019  1.00  0.00     0.031 C 
ATOM     59  C   UNL A   1      44.970  38.428  40.033  1.00  0.00     0.029 A 
ATOM     60  C   UNL A   1      45.236  39.858  40.098  1.00  0.00     0.049 A 
ATOM     61  H   UNL A   1      43.921  41.377  40.652  1.00  0.00     0.167 HD
ATOM     62  C   UNL A   1      41.031  44.445  41.811  1.00  0.00     0.031 A 
ATOM     63  C   UNL A   1      46.412  40.433  39.788  1.00  0.00     0.031 A 
ATOM     64  C   UNL A   1      42.242  45.158  41.476  1.00  0.00     0.049 A 
ATOM     65  C   UNL A   1      46.523  41.926  39.839  1.00  0.00     0.074 A 
ATOM     66  C   UNL A   1      42.484  46.521  41.528  1.00  0.00     0.029 A 
ATOM     67  N   UNL A   1      43.413  44.566  41.022  1.00  0.00    -0.354 N 
ATOM     68  N   UNL A   1      45.619  42.803  40.200  1.00  0.00    -0.248 NA
ATOM     69  C   UNL A   1      47.806  42.503  39.425  1.00  0.00     0.031 C 
ATOM     70  C   UNL A   1      43.783  46.756  41.060  1.00  0.00     0.029 A 
ATOM     71  C   UNL A   1      44.371  45.536  40.767  1.00  0.00     0.049 A 
ATOM     72  H   UNL A   1      43.544  43.598  40.899  1.00  0.00     0.167 HD
ATOM     73  C   UNL A   1      46.226  44.045  40.062  1.00  0.00     0.074 A 
ATOM     74  C   UNL A   1      47.580  43.798  39.605  1.00  0.00     0.031 C 
ATOM     75  C   UNL A   1      45.707  45.276  40.291  1.00  0.00     0.031 A 
BRANCH  62  76
ATOM     76  C   UNL A   1      39.830  45.245  42.245  1.00  0.00    -0.014 A 
ATOM     77  C   UNL A   1      38.911  45.763  41.316  1.00  0.00     0.010 A 
ATOM     78  C   UNL A   1      39.602  45.457  43.619  1.00  0.00     0.010 A 
ATOM     79  C   UNL A   1      37.812  46.515  41.750  1.00  0.00     0.020 A 
ATOM     80  C   UNL A   1      38.494  46.189  44.058  1.00  0.00     0.020 A 
ATOM     81  C   UNL A   1      37.617  46.733  43.118  1.00  0.00     0.054 A 
BRANCH  81  82
ATOM     82  S   UNL A   1      36.192  47.719  43.659  1.00  0.00     0.124 S 
ATOM     83  O   UNL A   1      36.008  47.254  45.031  1.00  0.00    -0.237 OA
ATOM     84  O   UNL A   1      36.676  49.090  43.521  1.00  0.00    -0.237 OA
ATOM     85  O   UNL A   1      35.134  47.340  42.726  1.00  0.00    -0.744 OA
ENDBRANCH  81  82
ENDBRANCH  62  76
BRANCH  63  86
ATOM     86  C   UNL A   1      47.545  39.576  39.357  1.00  0.00    -0.014 A 
ATOM     87  C   UNL A   1      48.467  39.087  40.295  1.00  0.00     0.010 A 
ATOM     88  C   UNL A   1      47.658  39.182  38.009  1.00  0.00     0.010 A 
ATOM     89  C   UNL A   1      49.481  38.211  39.895  1.00  0.00     0.020 A 
ATOM     90  C   UNL A   1      48.650  38.285  37.611  1.00  0.00     0.020 A 
ATOM     91  C   UNL A   1      49.560  37.811  38.556  1.00  0.00     0.054 A 
BRANCH  91  92
ATOM     92  S   UNL A   1      50.825  36.603  38.075  1.00  0.00     0.124 S 
ATOM     93  O   UNL A   1      50.999  35.842  39.308  1.00  0.00    -0.237 OA
ATOM     94  O   UNL A   1      50.183  35.889  36.974  1.00  0.00    -0.237 OA
ATOM     95  O   UNL A   1      51.960  37.437  37.686  1.00  0.00    -0.744 OA
ENDBRANCH  91  92
ENDBRANCH  63  86
BRANCH  75  96
ATOM     96  C   UNL A   1      46.624  46.447  40.064  1.00  0.00    -0.014 A 
ATOM     97  C   UNL A   1      46.672  47.101  38.820  1.00  0.00     0.010 A 
ATOM     98  C   UNL A   1      47.446  46.898  41.111  1.00  0.00     0.010 A 
ATOM     99  C   UNL A   1      47.559  48.161  38.615  1.00  0.00     0.020 A 
ATOM    100  C   UNL A   1      48.316  47.974  40.917  1.00  0.00     0.020 A 
ATOM    101  C   UNL A   1      48.380  48.587  39.664  1.00  0.00     0.054 A 
BRANCH 101 102
ATOM    102  S   UNL A   1      49.512  49.977  39.383  1.00  0.00     0.124 S 
ATOM    103  O   UNL A   1      50.646  49.318  38.742  1.00  0.00    -0.237 OA
ATOM    104  O   UNL A   1      48.730  50.861  38.522  1.00  0.00    -0.237 OA
ATOM    105  O   UNL A   1      49.766  50.491  40.727  1.00  0.00    -0.744 OA
ENDBRANCH 101 102
ENDBRANCH  75  96
ENDBRANCH  49  50
ENDBRANCH  42  44
ENDBRANCH  41  42
ENDBRANCH  40  41
ENDBRANCH  39  40
ENDBRANCH  38  39
ENDBRANCH  37  38
ENDBRANCH   1  37
TORSDOF 25
ENDMDL
MODEL 3
REMARK VINA RESULT:      -7.7      6.666     13.282
REMARK SMILES CCc1ccc(N2C(=O)/C(=C/c3cc(Cl)c(OCC(=O)OCCOCCOCCOC(=O)c4ccc(-c5c6nc(c(-c7ccc(S(=O)(=O)[O-])cc7)c7ccc([nH]7)c(-c7ccc(S(=O)(=O)[O-])cc7)c7nc(c(-c8ccc(S(=O)(=O)[O-])cc8)c8ccc5[nH]8)C=C7)C=C6)cc4)c(Cl)c3)C(=O)NC2=S)cc1
REMARK SMILES IDX 25 1 24 2 23 3 22 4 21 5 19 6 20 7 18 8 17 9 16 10 12 11
REMARK SMILES IDX 13 12 95 13 14 14 93 15 15 16 94 17 11 18 7 19 8 20 99 21
REMARK SMILES IDX 9 22 10 23 98 24 100 25 96 26 97 28 6 29 3 30 4 31 102 32
REMARK SMILES IDX 5 33 101 34 2 35 1 36 26 37 27 38 28 39 29 40 30 41 31 42
REMARK SMILES IDX 32 43 33 44 34 45 92 46 35 47 91 48 36 49 37 50 38 51 85 52
REMARK SMILES IDX 39 53 90 54 84 55 86 56 40 57 89 58 83 59 82 60 41 62 71 63
REMARK SMILES IDX 52 64 70 65 53 66 56 67 69 68 87 69 54 70 55 71 68 73 88 74
REMARK SMILES IDX 57 75 42 76 43 77 51 78 44 79 50 80 45 81 46 82 47 83 48 84
REMARK SMILES IDX 49 85 72 86 73 87 81 88 74 89 80 90 75 91 76 92 77 93 78 94
REMARK SMILES IDX 79 95 58 96 59 97 67 98 60 99 66 100 61 101 62 102 63 103
REMARK SMILES IDX 64 104 65 105
REMARK H PARENT 98 27 86 61 56 72
REMARK Flexibility Score: inf
ROOT
ATOM      1  C   UNL A   1      35.327  32.084  28.195  1.00  0.00     0.188 C 
ENDROOT
BRANCH   1   2
ATOM      2  O   UNL A   1      34.369  32.695  29.056  1.00  0.00    -0.376 OA
BRANCH   2   3
ATOM      3  C   UNL A   1      34.793  32.988  30.384  1.00  0.00     0.202 C 
BRANCH   3   4
ATOM      4  C   UNL A   1      35.768  34.166  30.495  1.00  0.00     0.261 C 
BRANCH   4   5
ATOM      5  O   UNL A   1      37.030  33.774  31.092  1.00  0.00    -0.461 OA
BRANCH   5   6
ATOM      6  C   UNL A   1      38.070  33.560  30.246  1.00  0.00     0.344 C 
ATOM      7  O   UNL A   1      38.399  34.339  29.357  1.00  0.00    -0.248 OA
BRANCH   6   8
ATOM      8  C   UNL A   1      38.873  32.269  30.535  1.00  0.00     0.352 C 
BRANCH   8   9
ATOM      9  O   UNL A   1      40.255  32.179  30.228  1.00  0.00    -0.479 OA
BRANCH   9  10
ATOM     10  C   UNL A   1      41.211  31.508  30.957  1.00  0.00     0.157 A 
ATOM     11  C   UNL A   1      42.784  29.727  32.612  1.00  0.00    -0.021 A 
ATOM     12  C   UNL A   1      41.851  29.231  31.700  1.00  0.00     0.032 A 
ATOM     13  C   UNL A   1      43.016  31.103  32.592  1.00  0.00     0.032 A 
ATOM     14  C   UNL A   1      41.090  30.102  30.892  1.00  0.00     0.085 A 
ATOM     15  C   UNL A   1      42.261  31.983  31.759  1.00  0.00     0.085 A 
ATOM     16  Cl  UNL A   1      39.988  29.352  29.775  1.00  0.00    -0.080 Cl
ATOM     17  Cl  UNL A   1      42.824  33.620  31.761  1.00  0.00    -0.080 Cl
BRANCH  11  18
ATOM     18  C   UNL A   1      43.585  28.773  33.411  1.00  0.00     0.028 C 
ATOM     19  N   UNL A   1      43.205  25.985  35.457  1.00  0.00    -0.253 N 
ATOM     20  C   UNL A   1      44.083  26.975  34.941  1.00  0.00     0.270 C 
ATOM     21  C   UNL A   1      41.860  26.219  35.824  1.00  0.00     0.187 C 
ATOM     22  O   UNL A   1      45.263  26.833  34.643  1.00  0.00    -0.268 OA
ATOM     23  C   UNL A   1      43.373  28.236  34.633  1.00  0.00     0.106 C 
ATOM     24  N   UNL A   1      41.460  27.527  35.801  1.00  0.00    -0.298 N 
ATOM     25  S   UNL A   1      40.717  25.136  36.422  1.00  0.00    -0.040 S 
ATOM     26  C   UNL A   1      42.364  28.536  35.651  1.00  0.00     0.263 C 
ATOM     27  H   UNL A   1      40.504  27.744  35.893  1.00  0.00     0.172 HD
ATOM     28  O   UNL A   1      42.516  29.379  36.513  1.00  0.00    -0.269 OA
BRANCH  19  29
ATOM     29  C   UNL A   1      43.737  24.669  35.494  1.00  0.00     0.052 A 
ATOM     30  C   UNL A   1      45.001  22.176  35.373  1.00  0.00    -0.048 A 
ATOM     31  C   UNL A   1      45.195  23.019  36.479  1.00  0.00     0.006 A 
ATOM     32  C   UNL A   1      44.116  22.573  34.364  1.00  0.00     0.006 A 
ATOM     33  C   UNL A   1      44.577  24.267  36.535  1.00  0.00     0.027 A 
ATOM     34  C   UNL A   1      43.500  23.815  34.416  1.00  0.00     0.027 A 
BRANCH  30  35
ATOM     35  C   UNL A   1      45.755  20.872  35.299  1.00  0.00     0.032 C 
ATOM     36  C   UNL A   1      47.189  21.006  34.796  1.00  0.00     0.009 C 
ENDBRANCH  30  35
ENDBRANCH  19  29
ENDBRANCH  11  18
ENDBRANCH   9  10
ENDBRANCH   8   9
ENDBRANCH   6   8
ENDBRANCH   5   6
ENDBRANCH   4   5
ENDBRANCH   3   4
ENDBRANCH   2   3
ENDBRANCH   1   2
BRANCH   1  37
ATOM     37  C   UNL A   1      34.909  30.755  27.559  1.00  0.00     0.188 C 
BRANCH  37  38
ATOM     38  O   UNL A   1      35.437  29.648  28.279  1.00  0.00    -0.376 OA
BRANCH  38  39
ATOM     39  C   UNL A   1      36.564  29.948  29.082  1.00  0.00     0.202 C 
BRANCH  39  40
ATOM     40  C   UNL A   1      36.497  29.200  30.426  1.00  0.00     0.261 C 
BRANCH  40  41
ATOM     41  O   UNL A   1      36.370  29.957  31.655  1.00  0.00    -0.460 OA
BRANCH  41  42
ATOM     42  C   UNL A   1      37.166  29.591  32.671  1.00  0.00     0.338 C 
ATOM     43  O   UNL A   1      37.408  28.432  32.991  1.00  0.00    -0.246 OA
BRANCH  42  44
ATOM     44  C   UNL A   1      37.803  30.685  33.411  1.00  0.00     0.060 A 
ATOM     45  C   UNL A   1      39.036  30.393  33.994  1.00  0.00     0.016 A 
ATOM     46  C   UNL A   1      37.083  31.812  33.812  1.00  0.00     0.016 A 
ATOM     47  C   UNL A   1      39.509  31.166  35.046  1.00  0.00     0.010 A 
ATOM     48  C   UNL A   1      37.582  32.618  34.841  1.00  0.00     0.010 A 
ATOM     49  C   UNL A   1      38.789  32.289  35.478  1.00  0.00    -0.014 A 
BRANCH  49  50
ATOM     50  C   UNL A   1      39.377  33.165  36.520  1.00  0.00     0.031 A 
ATOM     51  C   UNL A   1      38.931  33.116  37.954  1.00  0.00     0.074 A 
ATOM     52  C   UNL A   1      40.364  33.999  36.144  1.00  0.00     0.049 A 
ATOM     53  N   UNL A   1      39.306  33.876  38.953  1.00  0.00    -0.248 NA
ATOM     54  C   UNL A   1      37.952  32.081  38.320  1.00  0.00     0.031 C 
ATOM     55  C   UNL A   1      40.920  34.085  34.790  1.00  0.00     0.029 A 
ATOM     56  N   UNL A   1      41.087  34.915  36.860  1.00  0.00    -0.354 N 
ATOM     57  C   UNL A   1      38.592  33.437  40.060  1.00  0.00     0.074 A 
ATOM     58  C   UNL A   1      37.766  32.333  39.611  1.00  0.00     0.031 C 
ATOM     59  C   UNL A   1      41.922  34.972  34.783  1.00  0.00     0.029 A 
ATOM     60  C   UNL A   1      42.018  35.582  36.102  1.00  0.00     0.049 A 
ATOM     61  H   UNL A   1      40.952  35.080  37.821  1.00  0.00     0.167 HD
ATOM     62  C   UNL A   1      38.614  33.923  41.327  1.00  0.00     0.031 A 
ATOM     63  C   UNL A   1      42.833  36.606  36.415  1.00  0.00     0.031 A 
ATOM     64  C   UNL A   1      39.431  35.035  41.755  1.00  0.00     0.049 A 
ATOM     65  C   UNL A   1      42.780  37.176  37.798  1.00  0.00     0.074 A 
ATOM     66  C   UNL A   1      39.507  35.619  43.009  1.00  0.00     0.029 A 
ATOM     67  N   UNL A   1      40.310  35.734  40.939  1.00  0.00    -0.354 N 
ATOM     68  N   UNL A   1      42.057  36.784  38.819  1.00  0.00    -0.248 NA
ATOM     69  C   UNL A   1      43.639  38.334  38.065  1.00  0.00     0.031 C 
ATOM     70  C   UNL A   1      40.396  36.699  42.938  1.00  0.00     0.029 A 
ATOM     71  C   UNL A   1      40.914  36.757  41.655  1.00  0.00     0.049 A 
ATOM     72  H   UNL A   1      40.480  35.533  39.990  1.00  0.00     0.167 HD
ATOM     73  C   UNL A   1      42.378  37.648  39.859  1.00  0.00     0.074 A 
ATOM     74  C   UNL A   1      43.375  38.567  39.344  1.00  0.00     0.031 C 
ATOM     75  C   UNL A   1      41.888  37.678  41.122  1.00  0.00     0.031 A 
BRANCH  62  76
ATOM     76  C   UNL A   1      37.675  33.303  42.330  1.00  0.00    -0.014 A 
ATOM     77  C   UNL A   1      38.074  32.239  43.158  1.00  0.00     0.010 A 
ATOM     78  C   UNL A   1      36.372  33.819  42.467  1.00  0.00     0.010 A 
ATOM     79  C   UNL A   1      37.174  31.674  44.070  1.00  0.00     0.020 A 
ATOM     80  C   UNL A   1      35.477  33.273  43.392  1.00  0.00     0.020 A 
ATOM     81  C   UNL A   1      35.877  32.188  44.174  1.00  0.00     0.054 A 
BRANCH  81  82
ATOM     82  S   UNL A   1      34.723  31.435  45.355  1.00  0.00     0.124 S 
ATOM     83  O   UNL A   1      34.230  32.603  46.080  1.00  0.00    -0.237 OA
ATOM     84  O   UNL A   1      33.750  30.779  44.485  1.00  0.00    -0.237 OA
ATOM     85  O   UNL A   1      35.566  30.530  46.133  1.00  0.00    -0.744 OA
ENDBRANCH  81  82
ENDBRANCH  62  76
BRANCH  63  86
ATOM     86  C   UNL A   1      43.721  37.170  35.366  1.00  0.00    -0.014 A 
ATOM     87  C   UNL A   1      45.053  36.743  35.253  1.00  0.00     0.010 A 
ATOM     88  C   UNL A   1      43.208  38.085  34.426  1.00  0.00     0.010 A 
ATOM     89  C   UNL A   1      45.857  37.215  34.212  1.00  0.00     0.020 A 
ATOM     90  C   UNL A   1      43.998  38.535  33.368  1.00  0.00     0.020 A 
ATOM     91  C   UNL A   1      45.321  38.102  33.271  1.00  0.00     0.054 A 
BRANCH  91  92
ATOM     92  S   UNL A   1      46.353  38.630  31.876  1.00  0.00     0.124 S 
ATOM     93  O   UNL A   1      45.457  38.420  30.743  1.00  0.00    -0.237 OA
ATOM     94  O   UNL A   1      46.645  40.023  32.205  1.00  0.00    -0.237 OA
ATOM     95  O   UNL A   1      47.502  37.730  31.944  1.00  0.00    -0.744 OA
ENDBRANCH  91  92
ENDBRANCH  63  86
BRANCH  75  96
ATOM     96  C   UNL A   1      42.446  38.734  42.036  1.00  0.00    -0.014 A 
ATOM     97  C   UNL A   1      43.594  38.489  42.812  1.00  0.00     0.010 A 
ATOM     98  C   UNL A   1      41.816  39.987  42.117  1.00  0.00     0.010 A 
ATOM     99  C   UNL A   1      44.076  39.468  43.685  1.00  0.00     0.020 A 
ATOM    100  C   UNL A   1      42.309  40.977  42.971  1.00  0.00     0.020 A 
ATOM    101  C   UNL A   1      43.426  40.704  43.764  1.00  0.00     0.054 A 
BRANCH 101 102
ATOM    102  S   UNL A   1      44.078  41.967  44.891  1.00  0.00     0.124 S 
ATOM    103  O   UNL A   1      45.017  41.196  45.699  1.00  0.00    -0.237 OA
ATOM    104  O   UNL A   1      44.681  42.935  43.978  1.00  0.00    -0.237 OA
ATOM    105  O   UNL A   1      42.891  42.444  45.598  1.00  0.00    -0.744 OA
ENDBRANCH 101 102
ENDBRANCH  75  96
ENDBRANCH  49  50
ENDBRANCH  42  44
ENDBRANCH  41  42
ENDBRANCH  40  41
ENDBRANCH  39  40
ENDBRANCH  38  39
ENDBRANCH  37  38
ENDBRANCH   1  37
TORSDOF 25
ENDMDL
