MODEL 1
REMARK VINA RESULT:      -9.6      0.000      0.000
REMARK SMILES Cc1cc(C(=O)OCCOCCOCCOC(=O)c2ccc(-c3c4nc(c(-c5ccc(S(=O)(=O)[O-])cc5)c5ccc([nH]5)c(-c5ccc(S(=O)(=O)[O-])cc5)c5nc(c(-c6ccc(S(=O)(=O)[O-])cc6)c6ccc3[nH]6)C=C5)C=C4)cc2)nc(N2CCN(c3ccccc3Cl)CC2)n1
REMARK SMILES IDX 12 1 11 2 10 3 9 4 8 5 7 6 5 7 6 8 4 9 1 10 2 11 3 12 94 13
REMARK SMILES IDX 80 14 79 15 81 16 82 17 93 18 83 19 92 20 84 21 85 22 86 23
REMARK SMILES IDX 90 24 87 25 89 26 91 27 88 28 13 29 14 30 15 31 16 32 17 33
REMARK SMILES IDX 18 34 19 35 20 36 78 37 21 38 77 39 22 40 23 41 24 42 71 43
REMARK SMILES IDX 25 44 76 45 70 46 72 47 26 48 75 49 69 50 68 51 27 53 57 54
REMARK SMILES IDX 38 55 56 56 39 57 42 58 55 59 73 60 40 61 41 62 54 64 74 65
REMARK SMILES IDX 43 66 28 67 29 68 37 69 30 70 36 71 31 72 32 73 33 74 34 75
REMARK SMILES IDX 35 76 58 77 59 78 67 79 60 80 66 81 61 82 62 83 63 84 64 85
REMARK SMILES IDX 65 86 44 87 45 88 53 89 46 90 52 91 47 92 48 93 49 94 50 95
REMARK SMILES IDX 51 96
REMARK H PARENT 72 52 42 63
REMARK Flexibility Score: inf
ROOT
ATOM      1  C   UNL A   1      32.074  31.108  26.312  1.00  0.00     0.188 C 
ENDROOT
BRANCH   1   2
ATOM      2  C   UNL A   1      31.059  30.390  25.400  1.00  0.00     0.188 C 
BRANCH   2   3
ATOM      3  O   UNL A   1      30.391  31.106  24.380  1.00  0.00    -0.376 OA
BRANCH   3   4
ATOM      4  C   UNL A   1      29.106  30.702  23.934  1.00  0.00     0.202 C 
BRANCH   4   5
ATOM      5  C   UNL A   1      28.823  30.263  22.492  1.00  0.00     0.261 C 
BRANCH   5   6
ATOM      6  O   UNL A   1      29.706  29.255  21.988  1.00  0.00    -0.459 OA
BRANCH   6   7
ATOM      7  C   UNL A   1      29.759  28.126  22.752  1.00  0.00     0.357 C 
ATOM      8  O   UNL A   1      28.816  27.484  23.161  1.00  0.00    -0.244 OA
BRANCH   7   9
ATOM      9  C   UNL A   1      31.177  27.724  22.928  1.00  0.00     0.154 A 
ATOM     10  C   UNL A   1      34.650  29.033  23.042  1.00  0.00     0.067 C 
ATOM     11  C   UNL A   1      33.447  28.141  23.087  1.00  0.00     0.044 A 
ATOM     12  C   UNL A   1      32.192  28.642  22.834  1.00  0.00     0.059 A 
ATOM     13  N   UNL A   1      33.656  26.850  23.433  1.00  0.00    -0.218 NA
ATOM     14  C   UNL A   1      32.599  26.021  23.461  1.00  0.00     0.226 A 
ATOM     15  N   UNL A   1      31.358  26.417  23.193  1.00  0.00    -0.206 NA
BRANCH  14  16
ATOM     16  N   UNL A   1      32.756  24.694  23.765  1.00  0.00    -0.337 N 
ATOM     17  C   UNL A   1      33.577  23.865  22.880  1.00  0.00     0.141 C 
ATOM     18  C   UNL A   1      31.559  24.044  24.313  1.00  0.00     0.141 C 
ATOM     19  C   UNL A   1      33.958  22.542  23.599  1.00  0.00     0.138 C 
ATOM     20  C   UNL A   1      31.926  22.709  24.997  1.00  0.00     0.138 C 
ATOM     21  N   UNL A   1      32.735  21.888  24.081  1.00  0.00    -0.367 N 
BRANCH  21  22
ATOM     22  C   UNL A   1      32.658  20.511  24.233  1.00  0.00     0.056 A 
ATOM     23  C   UNL A   1      32.964  19.896  25.456  1.00  0.00     0.027 A 
ATOM     24  C   UNL A   1      32.259  19.674  23.165  1.00  0.00     0.064 A 
ATOM     25  C   UNL A   1      32.885  18.507  25.610  1.00  0.00     0.002 A 
ATOM     26  C   UNL A   1      32.186  18.285  23.316  1.00  0.00     0.023 A 
ATOM     27  Cl  UNL A   1      31.902  20.322  21.593  1.00  0.00    -0.082 Cl
ATOM     28  C   UNL A   1      32.501  17.702  24.540  1.00  0.00     0.002 A 
ENDBRANCH  21  22
ENDBRANCH  14  16
ENDBRANCH   7   9
ENDBRANCH   6   7
ENDBRANCH   5   6
ENDBRANCH   4   5
ENDBRANCH   3   4
ENDBRANCH   2   3
ENDBRANCH   1   2
BRANCH   1  29
ATOM     29  O   UNL A   1      32.965  30.368  27.120  1.00  0.00    -0.376 OA
BRANCH  29  30
ATOM     30  C   UNL A   1      34.307  30.791  27.297  1.00  0.00     0.202 C 
BRANCH  30  31
ATOM     31  C   UNL A   1      35.192  30.430  28.500  1.00  0.00     0.261 C 
BRANCH  31  32
ATOM     32  O   UNL A   1      36.276  29.533  28.260  1.00  0.00    -0.460 OA
BRANCH  32  33
ATOM     33  C   UNL A   1      37.055  29.286  29.344  1.00  0.00     0.338 C 
ATOM     34  O   UNL A   1      36.689  29.136  30.497  1.00  0.00    -0.246 OA
BRANCH  33  35
ATOM     35  C   UNL A   1      38.436  29.041  28.901  1.00  0.00     0.060 A 
ATOM     36  C   UNL A   1      39.365  28.609  29.853  1.00  0.00     0.016 A 
ATOM     37  C   UNL A   1      38.826  29.292  27.584  1.00  0.00     0.016 A 
ATOM     38  C   UNL A   1      40.697  28.437  29.491  1.00  0.00     0.010 A 
ATOM     39  C   UNL A   1      40.169  29.128  27.226  1.00  0.00     0.010 A 
ATOM     40  C   UNL A   1      41.113  28.715  28.182  1.00  0.00    -0.014 A 
BRANCH  40  41
ATOM     41  C   UNL A   1      42.561  28.727  27.870  1.00  0.00     0.031 A 
ATOM     42  C   UNL A   1      43.187  27.481  27.310  1.00  0.00     0.074 A 
ATOM     43  C   UNL A   1      43.299  29.839  28.037  1.00  0.00     0.049 A 
ATOM     44  N   UNL A   1      44.435  27.251  26.996  1.00  0.00    -0.248 NA
ATOM     45  C   UNL A   1      42.282  26.344  27.071  1.00  0.00     0.031 C 
ATOM     46  C   UNL A   1      42.799  31.130  28.511  1.00  0.00     0.029 A 
ATOM     47  N   UNL A   1      44.638  30.057  27.822  1.00  0.00    -0.354 N 
ATOM     48  C   UNL A   1      44.468  25.945  26.524  1.00  0.00     0.074 A 
ATOM     49  C   UNL A   1      43.120  25.426  26.612  1.00  0.00     0.031 C 
ATOM     50  C   UNL A   1      43.820  32.004  28.553  1.00  0.00     0.029 A 
ATOM     51  C   UNL A   1      45.053  31.326  28.151  1.00  0.00     0.049 A 
ATOM     52  H   UNL A   1      45.245  29.369  27.465  1.00  0.00     0.167 HD
ATOM     53  C   UNL A   1      45.525  25.239  26.061  1.00  0.00     0.031 A 
ATOM     54  C   UNL A   1      46.287  31.866  28.157  1.00  0.00     0.031 A 
ATOM     55  C   UNL A   1      46.870  25.743  25.999  1.00  0.00     0.049 A 
ATOM     56  C   UNL A   1      47.467  31.024  27.733  1.00  0.00     0.074 A 
ATOM     57  C   UNL A   1      48.012  25.094  25.561  1.00  0.00     0.029 A 
ATOM     58  N   UNL A   1      47.258  27.014  26.393  1.00  0.00    -0.354 N 
ATOM     59  N   UNL A   1      47.485  29.790  27.288  1.00  0.00    -0.248 NA
ATOM     60  C   UNL A   1      48.796  31.650  27.819  1.00  0.00     0.031 C 
ATOM     61  C   UNL A   1      49.100  25.955  25.743  1.00  0.00     0.029 A 
ATOM     62  C   UNL A   1      48.626  27.161  26.234  1.00  0.00     0.049 A 
ATOM     63  H   UNL A   1      46.651  27.709  26.736  1.00  0.00     0.167 HD
ATOM     64  C   UNL A   1      48.820  29.503  27.015  1.00  0.00     0.074 A 
ATOM     65  C   UNL A   1      49.578  30.696  27.331  1.00  0.00     0.031 C 
ATOM     66  C   UNL A   1      49.368  28.355  26.545  1.00  0.00     0.031 A 
BRANCH  53  67
ATOM     67  C   UNL A   1      45.273  23.821  25.626  1.00  0.00    -0.014 A 
ATOM     68  C   UNL A   1      45.483  22.743  26.503  1.00  0.00     0.010 A 
ATOM     69  C   UNL A   1      44.780  23.570  24.333  1.00  0.00     0.010 A 
ATOM     70  C   UNL A   1      45.234  21.434  26.083  1.00  0.00     0.020 A 
ATOM     71  C   UNL A   1      44.505  22.265  23.917  1.00  0.00     0.020 A 
ATOM     72  C   UNL A   1      44.747  21.204  24.792  1.00  0.00     0.054 A 
BRANCH  72  73
ATOM     73  S   UNL A   1      44.401  19.497  24.284  1.00  0.00     0.124 S 
ATOM     74  O   UNL A   1      43.074  19.276  24.854  1.00  0.00    -0.237 OA
ATOM     75  O   UNL A   1      44.452  19.580  22.826  1.00  0.00    -0.237 OA
ATOM     76  O   UNL A   1      45.479  18.726  24.899  1.00  0.00    -0.744 OA
ENDBRANCH  72  73
ENDBRANCH  53  67
BRANCH  54  77
ATOM     77  C   UNL A   1      46.495  33.265  28.626  1.00  0.00    -0.014 A 
ATOM     78  C   UNL A   1      47.376  33.546  29.685  1.00  0.00     0.010 A 
ATOM     79  C   UNL A   1      45.774  34.322  28.039  1.00  0.00     0.010 A 
ATOM     80  C   UNL A   1      47.511  34.853  30.167  1.00  0.00     0.020 A 
ATOM     81  C   UNL A   1      45.928  35.633  28.498  1.00  0.00     0.020 A 
ATOM     82  C   UNL A   1      46.783  35.887  29.571  1.00  0.00     0.054 A 
BRANCH  82  83
ATOM     83  S   UNL A   1      46.990  37.579  30.197  1.00  0.00     0.124 S 
ATOM     84  O   UNL A   1      46.829  37.390  31.636  1.00  0.00    -0.237 OA
ATOM     85  O   UNL A   1      48.338  37.918  29.751  1.00  0.00    -0.237 OA
ATOM     86  O   UNL A   1      45.917  38.320  29.539  1.00  0.00    -0.744 OA
ENDBRANCH  82  83
ENDBRANCH  54  77
BRANCH  66  87
ATOM     87  C   UNL A   1      50.855  28.338  26.299  1.00  0.00    -0.014 A 
ATOM     88  C   UNL A   1      51.400  28.747  25.069  1.00  0.00     0.010 A 
ATOM     89  C   UNL A   1      51.724  27.969  27.342  1.00  0.00     0.010 A 
ATOM     90  C   UNL A   1      52.785  28.758  24.878  1.00  0.00     0.020 A 
ATOM     91  C   UNL A   1      53.110  28.004  27.165  1.00  0.00     0.020 A 
ATOM     92  C   UNL A   1      53.631  28.386  25.928  1.00  0.00     0.054 A 
BRANCH  92  93
ATOM     93  S   UNL A   1      55.426  28.453  25.671  1.00  0.00     0.124 S 
ATOM     94  O   UNL A   1      55.920  28.666  27.030  1.00  0.00    -0.237 OA
ATOM     95  O   UNL A   1      55.718  27.144  25.095  1.00  0.00    -0.237 OA
ATOM     96  O   UNL A   1      55.603  29.582  24.761  1.00  0.00    -0.744 OA
ENDBRANCH  92  93
ENDBRANCH  66  87
ENDBRANCH  40  41
ENDBRANCH  33  35
ENDBRANCH  32  33
ENDBRANCH  31  32
ENDBRANCH  30  31
ENDBRANCH  29  30
ENDBRANCH   1  29
TORSDOF 22
ENDMDL
MODEL 2
REMARK VINA RESULT:      -9.4      6.741     11.996
REMARK SMILES Cc1cc(C(=O)OCCOCCOCCOC(=O)c2ccc(-c3c4nc(c(-c5ccc(S(=O)(=O)[O-])cc5)c5ccc([nH]5)c(-c5ccc(S(=O)(=O)[O-])cc5)c5nc(c(-c6ccc(S(=O)(=O)[O-])cc6)c6ccc3[nH]6)C=C5)C=C4)cc2)nc(N2CCN(c3ccccc3Cl)CC2)n1
REMARK SMILES IDX 12 1 11 2 10 3 9 4 8 5 7 6 5 7 6 8 4 9 1 10 2 11 3 12 94 13
REMARK SMILES IDX 80 14 79 15 81 16 82 17 93 18 83 19 92 20 84 21 85 22 86 23
REMARK SMILES IDX 90 24 87 25 89 26 91 27 88 28 13 29 14 30 15 31 16 32 17 33
REMARK SMILES IDX 18 34 19 35 20 36 78 37 21 38 77 39 22 40 23 41 24 42 71 43
REMARK SMILES IDX 25 44 76 45 70 46 72 47 26 48 75 49 69 50 68 51 27 53 57 54
REMARK SMILES IDX 38 55 56 56 39 57 42 58 55 59 73 60 40 61 41 62 54 64 74 65
REMARK SMILES IDX 43 66 28 67 29 68 37 69 30 70 36 71 31 72 32 73 33 74 34 75
REMARK SMILES IDX 35 76 58 77 59 78 67 79 60 80 66 81 61 82 62 83 63 84 64 85
REMARK SMILES IDX 65 86 44 87 45 88 53 89 46 90 52 91 47 92 48 93 49 94 50 95
REMARK SMILES IDX 51 96
REMARK H PARENT 72 52 42 63
REMARK Flexibility Score: inf
ROOT
ATOM      1  C   UNL A   1      46.810  25.209  27.319  1.00  0.00     0.188 C 
ENDROOT
BRANCH   1   2
ATOM      2  C   UNL A   1      45.472  24.586  26.870  1.00  0.00     0.188 C 
BRANCH   2   3
ATOM      3  O   UNL A   1      44.285  24.861  27.588  1.00  0.00    -0.376 OA
BRANCH   3   4
ATOM      4  C   UNL A   1      43.879  26.198  27.832  1.00  0.00     0.202 C 
BRANCH   4   5
ATOM      5  C   UNL A   1      42.421  26.660  27.729  1.00  0.00     0.261 C 
BRANCH   5   6
ATOM      6  O   UNL A   1      42.183  28.001  28.168  1.00  0.00    -0.459 OA
BRANCH   6   7
ATOM      7  C   UNL A   1      40.989  28.520  27.759  1.00  0.00     0.357 C 
ATOM      8  O   UNL A   1      40.611  28.650  26.616  1.00  0.00    -0.244 OA
BRANCH   7   9
ATOM      9  C   UNL A   1      40.152  28.812  28.950  1.00  0.00     0.154 A 
ATOM     10  C   UNL A   1      39.621  27.900  32.511  1.00  0.00     0.067 C 
ATOM     11  C   UNL A   1      39.528  28.546  31.162  1.00  0.00     0.044 A 
ATOM     12  C   UNL A   1      40.324  28.123  30.124  1.00  0.00     0.059 A 
ATOM     13  N   UNL A   1      38.667  29.583  31.039  1.00  0.00    -0.218 NA
ATOM     14  C   UNL A   1      38.545  30.168  29.836  1.00  0.00     0.226 A 
ATOM     15  N   UNL A   1      39.251  29.795  28.772  1.00  0.00    -0.206 NA
BRANCH  14  16
ATOM     16  N   UNL A   1      37.659  31.195  29.642  1.00  0.00    -0.337 N 
ATOM     17  C   UNL A   1      38.126  32.569  29.838  1.00  0.00     0.141 C 
ATOM     18  C   UNL A   1      36.290  30.919  30.096  1.00  0.00     0.141 C 
ATOM     19  C   UNL A   1      37.126  33.564  29.188  1.00  0.00     0.138 C 
ATOM     20  C   UNL A   1      35.296  31.929  29.482  1.00  0.00     0.138 C 
ATOM     21  N   UNL A   1      35.779  33.301  29.709  1.00  0.00    -0.367 N 
BRANCH  21  22
ATOM     22  C   UNL A   1      34.822  34.303  29.789  1.00  0.00     0.056 A 
ATOM     23  C   UNL A   1      34.460  35.053  28.660  1.00  0.00     0.027 A 
ATOM     24  C   UNL A   1      34.167  34.600  31.006  1.00  0.00     0.064 A 
ATOM     25  C   UNL A   1      33.492  36.062  28.740  1.00  0.00     0.002 A 
ATOM     26  C   UNL A   1      33.205  35.612  31.088  1.00  0.00     0.023 A 
ATOM     27  Cl  UNL A   1      34.570  33.766  32.476  1.00  0.00    -0.082 Cl
ATOM     28  C   UNL A   1      32.870  36.344  29.953  1.00  0.00     0.002 A 
ENDBRANCH  21  22
ENDBRANCH  14  16
ENDBRANCH   7   9
ENDBRANCH   6   7
ENDBRANCH   5   6
ENDBRANCH   4   5
ENDBRANCH   3   4
ENDBRANCH   2   3
ENDBRANCH   1   2
BRANCH   1  29
ATOM     29  O   UNL A   1      48.006  24.459  27.267  1.00  0.00    -0.376 OA
BRANCH  29  30
ATOM     30  C   UNL A   1      49.265  25.107  27.186  1.00  0.00     0.202 C 
BRANCH  30  31
ATOM     31  C   UNL A   1      49.946  25.543  25.880  1.00  0.00     0.261 C 
BRANCH  31  32
ATOM     32  O   UNL A   1      50.726  26.738  25.924  1.00  0.00    -0.460 OA
BRANCH  32  33
ATOM     33  C   UNL A   1      50.195  27.785  25.243  1.00  0.00     0.338 C 
ATOM     34  O   UNL A   1      50.390  28.084  24.078  1.00  0.00    -0.246 OA
BRANCH  33  35
ATOM     35  C   UNL A   1      49.176  28.437  26.080  1.00  0.00     0.060 A 
ATOM     36  C   UNL A   1      49.598  29.080  27.248  1.00  0.00     0.016 A 
ATOM     37  C   UNL A   1      47.820  28.366  25.754  1.00  0.00     0.016 A 
ATOM     38  C   UNL A   1      48.659  29.646  28.105  1.00  0.00     0.010 A 
ATOM     39  C   UNL A   1      46.878  28.926  26.623  1.00  0.00     0.010 A 
ATOM     40  C   UNL A   1      47.292  29.555  27.810  1.00  0.00    -0.014 A 
BRANCH  40  41
ATOM     41  C   UNL A   1      46.302  29.975  28.828  1.00  0.00     0.031 A 
ATOM     42  C   UNL A   1      45.967  29.023  29.941  1.00  0.00     0.074 A 
ATOM     43  C   UNL A   1      45.743  31.198  28.793  1.00  0.00     0.049 A 
ATOM     44  N   UNL A   1      45.111  29.161  30.919  1.00  0.00    -0.248 NA
ATOM     45  C   UNL A   1      46.699  27.744  29.953  1.00  0.00     0.031 C 
ATOM     46  C   UNL A   1      46.032  32.237  27.805  1.00  0.00     0.029 A 
ATOM     47  N   UNL A   1      44.811  31.773  29.622  1.00  0.00    -0.354 N 
ATOM     48  C   UNL A   1      45.197  27.990  31.662  1.00  0.00     0.074 A 
ATOM     49  C   UNL A   1      46.174  27.145  31.011  1.00  0.00     0.031 C 
ATOM     50  C   UNL A   1      45.288  33.322  28.083  1.00  0.00     0.029 A 
ATOM     51  C   UNL A   1      44.440  33.042  29.242  1.00  0.00     0.049 A 
ATOM     52  H   UNL A   1      44.442  31.319  30.414  1.00  0.00     0.167 HD
ATOM     53  C   UNL A   1      44.523  27.648  32.784  1.00  0.00     0.031 A 
ATOM     54  C   UNL A   1      43.504  33.866  29.752  1.00  0.00     0.031 A 
ATOM     55  C   UNL A   1      43.532  28.475  33.417  1.00  0.00     0.049 A 
ATOM     56  C   UNL A   1      42.691  33.417  30.943  1.00  0.00     0.074 A 
ATOM     57  C   UNL A   1      42.781  28.205  34.549  1.00  0.00     0.029 A 
ATOM     58  N   UNL A   1      43.145  29.729  32.970  1.00  0.00    -0.354 N 
ATOM     59  N   UNL A   1      42.783  32.308  31.637  1.00  0.00    -0.248 NA
ATOM     60  C   UNL A   1      41.642  34.335  31.416  1.00  0.00     0.031 C 
ATOM     61  C   UNL A   1      41.901  29.272  34.754  1.00  0.00     0.029 A 
ATOM     62  C   UNL A   1      42.148  30.234  33.787  1.00  0.00     0.049 A 
ATOM     63  H   UNL A   1      43.523  30.192  32.187  1.00  0.00     0.167 HD
ATOM     64  C   UNL A   1      41.826  32.407  32.643  1.00  0.00     0.074 A 
ATOM     65  C   UNL A   1      41.175  33.690  32.477  1.00  0.00     0.031 C 
ATOM     66  C   UNL A   1      41.513  31.517  33.617  1.00  0.00     0.031 A 
BRANCH  53  67
ATOM     67  C   UNL A   1      44.806  26.293  33.374  1.00  0.00    -0.014 A 
ATOM     68  C   UNL A   1      46.046  26.003  33.967  1.00  0.00     0.010 A 
ATOM     69  C   UNL A   1      43.799  25.311  33.368  1.00  0.00     0.010 A 
ATOM     70  C   UNL A   1      46.287  24.742  34.517  1.00  0.00     0.020 A 
ATOM     71  C   UNL A   1      44.026  24.057  33.940  1.00  0.00     0.020 A 
ATOM     72  C   UNL A   1      45.275  23.776  34.499  1.00  0.00     0.054 A 
BRANCH  72  73
ATOM     73  S   UNL A   1      45.603  22.157  35.250  1.00  0.00     0.124 S 
ATOM     74  O   UNL A   1      44.621  21.310  34.577  1.00  0.00    -0.237 OA
ATOM     75  O   UNL A   1      46.996  21.912  34.888  1.00  0.00    -0.237 OA
ATOM     76  O   UNL A   1      45.361  22.379  36.674  1.00  0.00    -0.744 OA
ENDBRANCH  72  73
ENDBRANCH  53  67
BRANCH  54  77
ATOM     77  C   UNL A   1      43.235  35.185  29.115  1.00  0.00    -0.014 A 
ATOM     78  C   UNL A   1      43.688  36.377  29.708  1.00  0.00     0.010 A 
ATOM     79  C   UNL A   1      42.482  35.257  27.928  1.00  0.00     0.010 A 
ATOM     80  C   UNL A   1      43.369  37.616  29.141  1.00  0.00     0.020 A 
ATOM     81  C   UNL A   1      42.186  36.492  27.343  1.00  0.00     0.020 A 
ATOM     82  C   UNL A   1      42.618  37.665  27.963  1.00  0.00     0.054 A 
BRANCH  82  83
ATOM     83  S   UNL A   1      42.235  39.282  27.233  1.00  0.00     0.124 S 
ATOM     84  O   UNL A   1      43.490  39.618  26.568  1.00  0.00    -0.237 OA
ATOM     85  O   UNL A   1      41.114  38.972  26.349  1.00  0.00    -0.237 OA
ATOM     86  O   UNL A   1      41.898  40.108  28.389  1.00  0.00    -0.744 OA
ENDBRANCH  82  83
ENDBRANCH  54  77
BRANCH  66  87
ATOM     87  C   UNL A   1      40.451  31.908  34.610  1.00  0.00    -0.014 A 
ATOM     88  C   UNL A   1      39.091  31.636  34.376  1.00  0.00     0.010 A 
ATOM     89  C   UNL A   1      40.829  32.498  35.831  1.00  0.00     0.010 A 
ATOM     90  C   UNL A   1      38.127  31.974  35.331  1.00  0.00     0.020 A 
ATOM     91  C   UNL A   1      39.872  32.813  36.799  1.00  0.00     0.020 A 
ATOM     92  C   UNL A   1      38.525  32.561  36.538  1.00  0.00     0.054 A 
BRANCH  92  93
ATOM     93  S   UNL A   1      37.262  32.948  37.781  1.00  0.00     0.124 S 
ATOM     94  O   UNL A   1      36.974  31.631  38.343  1.00  0.00    -0.237 OA
ATOM     95  O   UNL A   1      37.959  33.873  38.672  1.00  0.00    -0.237 OA
ATOM     96  O   UNL A   1      36.179  33.542  37.000  1.00  0.00    -0.744 OA
ENDBRANCH  92  93
ENDBRANCH  66  87
ENDBRANCH  40  41
ENDBRANCH  33  35
ENDBRANCH  32  33
ENDBRANCH  31  32
ENDBRANCH  30  31
ENDBRANCH  29  30
ENDBRANCH   1  29
TORSDOF 22
ENDMDL
MODEL 3
REMARK VINA RESULT:      -9.4      5.925      8.809
REMARK SMILES Cc1cc(C(=O)OCCOCCOCCOC(=O)c2ccc(-c3c4nc(c(-c5ccc(S(=O)(=O)[O-])cc5)c5ccc([nH]5)c(-c5ccc(S(=O)(=O)[O-])cc5)c5nc(c(-c6ccc(S(=O)(=O)[O-])cc6)c6ccc3[nH]6)C=C5)C=C4)cc2)nc(N2CCN(c3ccccc3Cl)CC2)n1
REMARK SMILES IDX 12 1 11 2 10 3 9 4 8 5 7 6 5 7 6 8 4 9 1 10 2 11 3 12 94 13
REMARK SMILES IDX 80 14 79 15 81 16 82 17 93 18 83 19 92 20 84 21 85 22 86 23
REMARK SMILES IDX 90 24 87 25 89 26 91 27 88 28 13 29 14 30 15 31 16 32 17 33
REMARK SMILES IDX 18 34 19 35 20 36 78 37 21 38 77 39 22 40 23 41 24 42 71 43
REMARK SMILES IDX 25 44 76 45 70 46 72 47 26 48 75 49 69 50 68 51 27 53 57 54
REMARK SMILES IDX 38 55 56 56 39 57 42 58 55 59 73 60 40 61 41 62 54 64 74 65
REMARK SMILES IDX 43 66 28 67 29 68 37 69 30 70 36 71 31 72 32 73 33 74 34 75
REMARK SMILES IDX 35 76 58 77 59 78 67 79 60 80 66 81 61 82 62 83 63 84 64 85
REMARK SMILES IDX 65 86 44 87 45 88 53 89 46 90 52 91 47 92 48 93 49 94 50 95
REMARK SMILES IDX 51 96
REMARK H PARENT 72 52 42 63
REMARK Flexibility Score: inf
ROOT
ATOM      1  C   UNL A   1      40.198  35.308  35.490  1.00  0.00     0.188 C 
ENDROOT
BRANCH   1   2
ATOM      2  C   UNL A   1      39.338  34.898  34.277  1.00  0.00     0.188 C 
BRANCH   2   3
ATOM      3  O   UNL A   1      37.927  34.927  34.366  1.00  0.00    -0.376 OA
BRANCH   3   4
ATOM      4  C   UNL A   1      37.135  34.016  33.621  1.00  0.00     0.202 C 
BRANCH   4   5
ATOM      5  C   UNL A   1      37.325  32.496  33.689  1.00  0.00     0.261 C 
BRANCH   5   6
ATOM      6  O   UNL A   1      37.354  31.837  32.419  1.00  0.00    -0.459 OA
BRANCH   6   7
ATOM      7  C   UNL A   1      38.168  30.743  32.376  1.00  0.00     0.357 C 
ATOM      8  O   UNL A   1      38.877  30.333  33.270  1.00  0.00    -0.244 OA
BRANCH   7   9
ATOM      9  C   UNL A   1      37.976  30.044  31.081  1.00  0.00     0.154 A 
ATOM     10  C   UNL A   1      35.710  29.777  28.150  1.00  0.00     0.067 C 
ATOM     11  C   UNL A   1      36.852  29.608  29.106  1.00  0.00     0.044 A 
ATOM     12  C   UNL A   1      36.864  30.271  30.310  1.00  0.00     0.059 A 
ATOM     13  N   UNL A   1      37.875  28.819  28.703  1.00  0.00    -0.218 NA
ATOM     14  C   UNL A   1      38.902  28.630  29.548  1.00  0.00     0.226 A 
ATOM     15  N   UNL A   1      38.973  29.206  30.745  1.00  0.00    -0.206 NA
BRANCH  14  16
ATOM     16  N   UNL A   1      39.947  27.810  29.210  1.00  0.00    -0.337 N 
ATOM     17  C   UNL A   1      41.255  28.413  28.950  1.00  0.00     0.141 C 
ATOM     18  C   UNL A   1      39.585  26.681  28.343  1.00  0.00     0.141 C 
ATOM     19  C   UNL A   1      42.358  27.319  28.993  1.00  0.00     0.138 C 
ATOM     20  C   UNL A   1      40.694  25.607  28.352  1.00  0.00     0.138 C 
ATOM     21  N   UNL A   1      41.995  26.236  28.070  1.00  0.00    -0.367 N 
BRANCH  21  22
ATOM     22  C   UNL A   1      42.960  25.446  27.462  1.00  0.00     0.056 A 
ATOM     23  C   UNL A   1      43.600  24.412  28.161  1.00  0.00     0.027 A 
ATOM     24  C   UNL A   1      43.329  25.643  26.111  1.00  0.00     0.064 A 
ATOM     25  C   UNL A   1      44.572  23.613  27.547  1.00  0.00     0.002 A 
ATOM     26  C   UNL A   1      44.304  24.850  25.499  1.00  0.00     0.023 A 
ATOM     27  Cl  UNL A   1      42.635  26.923  25.163  1.00  0.00    -0.082 Cl
ATOM     28  C   UNL A   1      44.926  23.835  26.219  1.00  0.00     0.002 A 
ENDBRANCH  21  22
ENDBRANCH  14  16
ENDBRANCH   7   9
ENDBRANCH   6   7
ENDBRANCH   5   6
ENDBRANCH   4   5
ENDBRANCH   3   4
ENDBRANCH   2   3
ENDBRANCH   1   2
BRANCH   1  29
ATOM     29  O   UNL A   1      39.810  36.386  36.316  1.00  0.00    -0.376 OA
BRANCH  29  30
ATOM     30  C   UNL A   1      39.633  36.204  37.711  1.00  0.00     0.202 C 
BRANCH  30  31
ATOM     31  C   UNL A   1      39.792  34.866  38.450  1.00  0.00     0.261 C 
BRANCH  31  32
ATOM     32  O   UNL A   1      41.120  34.368  38.610  1.00  0.00    -0.460 OA
BRANCH  32  33
ATOM     33  C   UNL A   1      41.199  33.034  38.844  1.00  0.00     0.338 C 
ATOM     34  O   UNL A   1      40.786  32.429  39.819  1.00  0.00    -0.246 OA
BRANCH  33  35
ATOM     35  C   UNL A   1      41.712  32.362  37.641  1.00  0.00     0.060 A 
ATOM     36  C   UNL A   1      43.097  32.331  37.446  1.00  0.00     0.016 A 
ATOM     37  C   UNL A   1      40.844  31.825  36.688  1.00  0.00     0.016 A 
ATOM     38  C   UNL A   1      43.620  31.771  36.284  1.00  0.00     0.010 A 
ATOM     39  C   UNL A   1      41.373  31.272  35.517  1.00  0.00     0.010 A 
ATOM     40  C   UNL A   1      42.762  31.257  35.303  1.00  0.00    -0.014 A 
BRANCH  40  41
ATOM     41  C   UNL A   1      43.321  30.857  33.991  1.00  0.00     0.031 A 
ATOM     42  C   UNL A   1      43.818  29.449  33.819  1.00  0.00     0.074 A 
ATOM     43  C   UNL A   1      43.347  31.714  32.954  1.00  0.00     0.049 A 
ATOM     44  N   UNL A   1      44.375  28.888  32.778  1.00  0.00    -0.248 NA
ATOM     45  C   UNL A   1      43.662  28.553  34.978  1.00  0.00     0.031 C 
ATOM     46  C   UNL A   1      42.838  33.085  32.972  1.00  0.00     0.029 A 
ATOM     47  N   UNL A   1      43.824  31.550  31.677  1.00  0.00    -0.354 N 
ATOM     48  C   UNL A   1      44.638  27.577  33.153  1.00  0.00     0.074 A 
ATOM     49  C   UNL A   1      44.198  27.430  34.524  1.00  0.00     0.031 C 
ATOM     50  C   UNL A   1      43.034  33.638  31.762  1.00  0.00     0.029 A 
ATOM     51  C   UNL A   1      43.719  32.678  30.897  1.00  0.00     0.049 A 
ATOM     52  H   UNL A   1      44.206  30.703  31.350  1.00  0.00     0.167 HD
ATOM     53  C   UNL A   1      45.197  26.584  32.424  1.00  0.00     0.031 A 
ATOM     54  C   UNL A   1      44.153  32.915  29.644  1.00  0.00     0.031 A 
ATOM     55  C   UNL A   1      45.659  26.736  31.071  1.00  0.00     0.049 A 
ATOM     56  C   UNL A   1      44.868  31.821  28.888  1.00  0.00     0.074 A 
ATOM     57  C   UNL A   1      46.257  25.789  30.256  1.00  0.00     0.029 A 
ATOM     58  N   UNL A   1      45.585  27.908  30.336  1.00  0.00    -0.354 N 
ATOM     59  N   UNL A   1      45.110  30.585  29.254  1.00  0.00    -0.248 NA
ATOM     60  C   UNL A   1      45.373  32.159  27.547  1.00  0.00     0.031 C 
ATOM     61  C   UNL A   1      46.594  26.406  29.047  1.00  0.00     0.029 A 
ATOM     62  C   UNL A   1      46.150  27.718  29.085  1.00  0.00     0.049 A 
ATOM     63  H   UNL A   1      45.190  28.751  30.655  1.00  0.00     0.167 HD
ATOM     64  C   UNL A   1      45.769  29.991  28.180  1.00  0.00     0.074 A 
ATOM     65  C   UNL A   1      45.875  30.999  27.145  1.00  0.00     0.031 C 
ATOM     66  C   UNL A   1      46.243  28.726  28.061  1.00  0.00     0.031 A 
BRANCH  53  67
ATOM     67  C   UNL A   1      45.381  25.252  33.097  1.00  0.00    -0.014 A 
ATOM     68  C   UNL A   1      46.499  24.995  33.908  1.00  0.00     0.010 A 
ATOM     69  C   UNL A   1      44.399  24.256  32.945  1.00  0.00     0.010 A 
ATOM     70  C   UNL A   1      46.648  23.754  34.533  1.00  0.00     0.020 A 
ATOM     71  C   UNL A   1      44.530  23.023  33.588  1.00  0.00     0.020 A 
ATOM     72  C   UNL A   1      45.663  22.776  34.367  1.00  0.00     0.054 A 
BRANCH  72  73
ATOM     73  S   UNL A   1      45.864  21.184  35.216  1.00  0.00     0.124 S 
ATOM     74  O   UNL A   1      46.987  20.597  34.489  1.00  0.00    -0.237 OA
ATOM     75  O   UNL A   1      46.147  21.588  36.590  1.00  0.00    -0.237 OA
ATOM     76  O   UNL A   1      44.579  20.520  35.016  1.00  0.00    -0.744 OA
ENDBRANCH  72  73
ENDBRANCH  53  67
BRANCH  54  77
ATOM     77  C   UNL A   1      43.978  34.260  29.029  1.00  0.00    -0.014 A 
ATOM     78  C   UNL A   1      44.987  35.235  29.127  1.00  0.00     0.010 A 
ATOM     79  C   UNL A   1      42.775  34.587  28.375  1.00  0.00     0.010 A 
ATOM     80  C   UNL A   1      44.785  36.519  28.609  1.00  0.00     0.020 A 
ATOM     81  C   UNL A   1      42.581  35.859  27.830  1.00  0.00     0.020 A 
ATOM     82  C   UNL A   1      43.581  36.823  27.965  1.00  0.00     0.054 A 
BRANCH  82  83
ATOM     83  S   UNL A   1      43.349  38.488  27.280  1.00  0.00     0.124 S 
ATOM     84  O   UNL A   1      42.134  38.321  26.488  1.00  0.00    -0.237 OA
ATOM     85  O   UNL A   1      43.214  39.308  28.481  1.00  0.00    -0.237 OA
ATOM     86  O   UNL A   1      44.571  38.715  26.512  1.00  0.00    -0.744 OA
ENDBRANCH  82  83
ENDBRANCH  54  77
BRANCH  66  87
ATOM     87  C   UNL A   1      46.883  28.337  26.754  1.00  0.00    -0.014 A 
ATOM     88  C   UNL A   1      46.109  28.014  25.625  1.00  0.00     0.010 A 
ATOM     89  C   UNL A   1      48.286  28.361  26.637  1.00  0.00     0.010 A 
ATOM     90  C   UNL A   1      46.727  27.693  24.413  1.00  0.00     0.020 A 
ATOM     91  C   UNL A   1      48.906  28.068  25.420  1.00  0.00     0.020 A 
ATOM     92  C   UNL A   1      48.123  27.722  24.318  1.00  0.00     0.054 A 
BRANCH  92  93
ATOM     93  S   UNL A   1      48.900  27.348  22.722  1.00  0.00     0.124 S 
ATOM     94  O   UNL A   1      50.320  27.375  23.061  1.00  0.00    -0.237 OA
ATOM     95  O   UNL A   1      48.356  26.030  22.400  1.00  0.00    -0.237 OA
ATOM     96  O   UNL A   1      48.446  28.431  21.853  1.00  0.00    -0.744 OA
ENDBRANCH  92  93
ENDBRANCH  66  87
ENDBRANCH  40  41
ENDBRANCH  33  35
ENDBRANCH  32  33
ENDBRANCH  31  32
ENDBRANCH  30  31
ENDBRANCH  29  30
ENDBRANCH   1  29
TORSDOF 22
ENDMDL
