MODEL 1
REMARK VINA RESULT:     -11.5      0.000      0.000
REMARK SMILES Cc1ccc(-c2c(C)sc(NC(=O)[C@H]3CC=CC[C@H]3C(=O)OCCOCCOCCOC(=O)c3ccc(-c4c5nc(c(-c6ccc(S(=O)(=O)[O-])cc6)c6ccc([nH]6)c(-c6ccc(S(=O)(=O)[O-])cc6)c6nc(c(-c7ccc(S(=O)(=O)[O-])cc7)c7ccc4[nH]7)C=C6)C=C5)cc3)c2C(N)=O)cc1
REMARK SMILES IDX 26 1 25 2 24 3 23 4 22 5 20 6 21 7 19 8 14 9 15 10 16 11
REMARK SMILES IDX 18 12 17 13 12 14 11 15 13 17 10 18 6 19 7 20 94 21 8 22
REMARK SMILES IDX 9 23 5 24 1 25 2 26 3 27 99 28 4 29 98 30 95 31 96 32 97 33
REMARK SMILES IDX 27 36 28 37 29 38 30 39 31 40 32 41 33 42 34 43 35 44 93 45
REMARK SMILES IDX 36 46 92 47 37 48 38 49 39 50 86 51 40 52 91 53 85 54 87 55
REMARK SMILES IDX 41 56 90 57 84 58 83 59 42 61 72 62 53 63 71 64 54 65 57 66
REMARK SMILES IDX 70 67 88 68 55 69 56 70 69 72 89 73 58 74 43 75 44 76 52 77
REMARK SMILES IDX 45 78 51 79 46 80 47 81 48 82 49 83 50 84 73 85 74 86 82 87
REMARK SMILES IDX 75 88 81 89 76 90 77 91 78 92 79 93 80 94 59 95 60 96 68 97
REMARK SMILES IDX 61 98 67 99 62 100 63 101 64 102 65 103 66 104
REMARK H PARENT 11 16 96 34 96 35 87 60 57 71
REMARK Flexibility Score: inf
ROOT
ATOM      1  C   UNL A   1      36.626  29.733  30.774  1.00  0.00     0.188 C 
ENDROOT
BRANCH   1   2
ATOM      2  O   UNL A   1      37.899  29.593  30.175  1.00  0.00    -0.376 OA
BRANCH   2   3
ATOM      3  C   UNL A   1      38.028  30.400  29.015  1.00  0.00     0.202 C 
BRANCH   3   4
ATOM      4  C   UNL A   1      37.411  29.901  27.665  1.00  0.00     0.261 C 
BRANCH   4   5
ATOM      5  O   UNL A   1      35.848  29.373  27.324  1.00  0.00    -0.463 OA
BRANCH   5   6
ATOM      6  C   UNL A   1      34.500  29.891  27.348  1.00  0.00     0.310 C 
ATOM      7  O   UNL A   1      34.333  30.909  28.033  1.00  0.00    -0.252 OA
BRANCH   6   8
ATOM      8  C   UNL A   1      33.139  29.531  26.500  1.00  0.00     0.116 C 
ATOM      9  C   UNL A   1      32.491  28.345  25.645  1.00  0.00     0.097 C 
ATOM     10  C   UNL A   1      31.823  28.964  24.394  1.00  0.00     0.041 C 
ATOM     11  C   UNL A   1      31.058  30.230  24.670  1.00  0.00    -0.030 C 
ATOM     12  C   UNL A   1      31.941  30.396  27.009  1.00  0.00     0.043 C 
ATOM     13  C   UNL A   1      31.066  30.844  25.864  1.00  0.00    -0.030 C 
BRANCH   9  14
ATOM     14  C   UNL A   1      31.625  27.120  26.219  1.00  0.00     0.229 C 
ATOM     15  N   UNL A   1      31.232  25.952  25.613  1.00  0.00    -0.317 N 
ATOM     16  H   UNL A   1      30.266  25.863  25.450  1.00  0.00     0.170 HD
ATOM     17  O   UNL A   1      31.172  27.224  27.376  1.00  0.00    -0.274 OA
BRANCH  15  18
ATOM     18  C   UNL A   1      32.016  24.879  25.199  1.00  0.00     0.109 A 
ATOM     19  C   UNL A   1      32.882  22.824  24.552  1.00  0.00     0.010 A 
ATOM     20  C   UNL A   1      33.242  23.670  23.516  1.00  0.00     0.012 A 
ATOM     21  C   UNL A   1      32.237  23.567  25.652  1.00  0.00     0.082 A 
ATOM     22  C   UNL A   1      33.687  23.421  22.118  1.00  0.00     0.057 C 
ATOM     23  S   UNL A   1      33.296  25.242  24.138  1.00  0.00    -0.122 S 
BRANCH  19  24
ATOM     24  C   UNL A   1      33.260  21.416  24.458  1.00  0.00    -0.016 A 
ATOM     25  C   UNL A   1      34.068  17.185  24.347  1.00  0.00     0.044 C 
ATOM     26  C   UNL A   1      33.784  18.656  24.391  1.00  0.00    -0.051 A 
ATOM     27  C   UNL A   1      34.741  19.554  24.888  1.00  0.00     0.004 A 
ATOM     28  C   UNL A   1      32.570  19.150  23.911  1.00  0.00     0.004 A 
ATOM     29  C   UNL A   1      34.478  20.930  24.932  1.00  0.00     0.009 A 
ATOM     30  C   UNL A   1      32.319  20.518  23.930  1.00  0.00     0.009 A 
ENDBRANCH  19  24
BRANCH  21  31
ATOM     31  C   UNL A   1      31.905  22.913  26.931  1.00  0.00     0.252 C 
ATOM     32  N   UNL A   1      30.606  22.562  27.194  1.00  0.00    -0.365 N 
ATOM     33  O   UNL A   1      32.708  22.712  27.819  1.00  0.00    -0.269 OA
ATOM     34  H   UNL A   1      29.910  22.703  26.512  1.00  0.00     0.159 HD
ATOM     35  H   UNL A   1      30.368  22.171  28.066  1.00  0.00     0.159 HD
ENDBRANCH  21  31
ENDBRANCH  15  18
ENDBRANCH   9  14
ENDBRANCH   6   8
ENDBRANCH   5   6
ENDBRANCH   4   5
ENDBRANCH   3   4
ENDBRANCH   2   3
ENDBRANCH   1   2
BRANCH   1  36
ATOM     36  C   UNL A   1      36.483  31.028  31.583  1.00  0.00     0.188 C 
BRANCH  36  37
ATOM     37  O   UNL A   1      35.313  31.784  31.305  1.00  0.00    -0.376 OA
BRANCH  37  38
ATOM     38  C   UNL A   1      34.945  32.855  32.150  1.00  0.00     0.202 C 
BRANCH  38  39
ATOM     39  C   UNL A   1      35.661  32.635  33.478  1.00  0.00     0.261 C 
BRANCH  39  40
ATOM     40  O   UNL A   1      36.557  33.728  33.820  1.00  0.00    -0.460 OA
BRANCH  40  41
ATOM     41  C   UNL A   1      37.845  33.392  34.095  1.00  0.00     0.338 C 
ATOM     42  O   UNL A   1      38.196  32.659  35.005  1.00  0.00    -0.246 OA
BRANCH  41  43
ATOM     43  C   UNL A   1      38.754  34.104  33.157  1.00  0.00     0.060 A 
ATOM     44  C   UNL A   1      38.223  34.425  31.950  1.00  0.00     0.016 A 
ATOM     45  C   UNL A   1      40.144  34.210  33.295  1.00  0.00     0.016 A 
ATOM     46  C   UNL A   1      39.110  34.710  30.896  1.00  0.00     0.010 A 
ATOM     47  C   UNL A   1      41.007  34.467  32.176  1.00  0.00     0.010 A 
ATOM     48  C   UNL A   1      40.532  34.708  30.876  1.00  0.00    -0.014 A 
BRANCH  48  49
ATOM     49  C   UNL A   1      41.608  34.716  29.607  1.00  0.00     0.031 A 
ATOM     50  C   UNL A   1      42.309  33.413  29.426  1.00  0.00     0.074 A 
ATOM     51  C   UNL A   1      42.025  35.651  28.610  1.00  0.00     0.049 A 
ATOM     52  N   UNL A   1      43.480  33.277  28.891  1.00  0.00    -0.248 NA
ATOM     53  C   UNL A   1      41.762  32.157  29.930  1.00  0.00     0.031 C 
ATOM     54  C   UNL A   1      42.430  35.363  27.218  1.00  0.00     0.029 A 
ATOM     55  N   UNL A   1      42.058  37.073  28.505  1.00  0.00    -0.354 N 
ATOM     56  C   UNL A   1      43.634  31.934  28.660  1.00  0.00     0.074 A 
ATOM     57  C   UNL A   1      42.651  31.278  29.477  1.00  0.00     0.031 C 
ATOM     58  C   UNL A   1      42.788  36.495  26.558  1.00  0.00     0.029 A 
ATOM     59  C   UNL A   1      42.781  37.623  27.474  1.00  0.00     0.049 A 
ATOM     60  H   UNL A   1      41.579  37.643  29.150  1.00  0.00     0.167 HD
ATOM     61  C   UNL A   1      44.333  31.463  27.594  1.00  0.00     0.031 A 
ATOM     62  C   UNL A   1      43.616  38.715  27.606  1.00  0.00     0.031 A 
ATOM     63  C   UNL A   1      44.772  32.535  26.713  1.00  0.00     0.049 A 
ATOM     64  C   UNL A   1      44.974  38.234  27.179  1.00  0.00     0.074 A 
ATOM     65  C   UNL A   1      44.246  33.015  25.523  1.00  0.00     0.029 A 
ATOM     66  N   UNL A   1      45.685  33.490  27.147  1.00  0.00    -0.354 N 
ATOM     67  N   UNL A   1      45.258  36.964  27.165  1.00  0.00    -0.248 NA
ATOM     68  C   UNL A   1      46.089  39.057  26.730  1.00  0.00     0.031 C 
ATOM     69  C   UNL A   1      44.888  34.235  25.211  1.00  0.00     0.029 A 
ATOM     70  C   UNL A   1      45.809  34.498  26.209  1.00  0.00     0.049 A 
ATOM     71  H   UNL A   1      46.174  33.452  28.001  1.00  0.00     0.167 HD
ATOM     72  C   UNL A   1      46.464  36.767  26.584  1.00  0.00     0.074 A 
ATOM     73  C   UNL A   1      46.984  38.109  26.384  1.00  0.00     0.031 C 
ATOM     74  C   UNL A   1      46.869  35.500  26.302  1.00  0.00     0.031 A 
BRANCH  61  75
ATOM     75  C   UNL A   1      44.163  30.018  27.179  1.00  0.00    -0.014 A 
ATOM     76  C   UNL A   1      42.990  29.609  26.523  1.00  0.00     0.010 A 
ATOM     77  C   UNL A   1      45.104  29.010  27.485  1.00  0.00     0.010 A 
ATOM     78  C   UNL A   1      42.709  28.258  26.290  1.00  0.00     0.020 A 
ATOM     79  C   UNL A   1      44.813  27.650  27.305  1.00  0.00     0.020 A 
ATOM     80  C   UNL A   1      43.611  27.283  26.707  1.00  0.00     0.054 A 
BRANCH  80  81
ATOM     81  S   UNL A   1      43.183  25.542  26.455  1.00  0.00     0.124 S 
ATOM     82  O   UNL A   1      44.297  24.843  27.092  1.00  0.00    -0.237 OA
ATOM     83  O   UNL A   1      41.900  25.440  27.143  1.00  0.00    -0.237 OA
ATOM     84  O   UNL A   1      43.128  25.404  25.001  1.00  0.00    -0.744 OA
ENDBRANCH  80  81
ENDBRANCH  61  75
BRANCH  62  85
ATOM     85  C   UNL A   1      43.404  39.780  28.690  1.00  0.00    -0.014 A 
ATOM     86  C   UNL A   1      43.444  39.421  30.055  1.00  0.00     0.010 A 
ATOM     87  C   UNL A   1      43.454  41.164  28.420  1.00  0.00     0.010 A 
ATOM     88  C   UNL A   1      43.793  40.353  31.060  1.00  0.00     0.020 A 
ATOM     89  C   UNL A   1      43.901  42.085  29.401  1.00  0.00     0.020 A 
ATOM     90  C   UNL A   1      44.148  41.652  30.702  1.00  0.00     0.054 A 
BRANCH  90  91
ATOM     91  S   UNL A   1      45.225  42.674  31.787  1.00  0.00     0.124 S 
ATOM     92  O   UNL A   1      46.313  41.763  32.122  1.00  0.00    -0.237 OA
ATOM     93  O   UNL A   1      45.613  43.803  30.944  1.00  0.00    -0.237 OA
ATOM     94  O   UNL A   1      44.327  43.024  32.887  1.00  0.00    -0.744 OA
ENDBRANCH  90  91
ENDBRANCH  62  85
BRANCH  74  95
ATOM     95  C   UNL A   1      48.252  35.062  25.935  1.00  0.00    -0.014 A 
ATOM     96  C   UNL A   1      48.796  33.817  26.254  1.00  0.00     0.010 A 
ATOM     97  C   UNL A   1      49.024  35.917  25.109  1.00  0.00     0.010 A 
ATOM     98  C   UNL A   1      50.070  33.459  25.808  1.00  0.00     0.020 A 
ATOM     99  C   UNL A   1      50.268  35.552  24.613  1.00  0.00     0.020 A 
ATOM    100  C   UNL A   1      50.793  34.327  24.988  1.00  0.00     0.054 A 
BRANCH 100 101
ATOM    101  S   UNL A   1      52.409  33.814  24.385  1.00  0.00     0.124 S 
ATOM    102  O   UNL A   1      52.110  32.505  23.811  1.00  0.00    -0.237 OA
ATOM    103  O   UNL A   1      52.734  34.864  23.423  1.00  0.00    -0.237 OA
ATOM    104  O   UNL A   1      53.240  33.798  25.586  1.00  0.00    -0.744 OA
ENDBRANCH 100 101
ENDBRANCH  74  95
ENDBRANCH  48  49
ENDBRANCH  41  43
ENDBRANCH  40  41
ENDBRANCH  39  40
ENDBRANCH  38  39
ENDBRANCH  37  38
ENDBRANCH  36  37
ENDBRANCH   1  36
TORSDOF 24
ENDMDL
MODEL 2
REMARK VINA RESULT:     -10.8      7.872     13.372
REMARK SMILES Cc1ccc(-c2c(C)sc(NC(=O)[C@H]3CC=CC[C@H]3C(=O)OCCOCCOCCOC(=O)c3ccc(-c4c5nc(c(-c6ccc(S(=O)(=O)[O-])cc6)c6ccc([nH]6)c(-c6ccc(S(=O)(=O)[O-])cc6)c6nc(c(-c7ccc(S(=O)(=O)[O-])cc7)c7ccc4[nH]7)C=C6)C=C5)cc3)c2C(N)=O)cc1
REMARK SMILES IDX 26 1 25 2 24 3 23 4 22 5 20 6 21 7 19 8 14 9 15 10 16 11
REMARK SMILES IDX 18 12 17 13 12 14 11 15 13 17 10 18 6 19 7 20 94 21 8 22
REMARK SMILES IDX 9 23 5 24 1 25 2 26 3 27 99 28 4 29 98 30 95 31 96 32 97 33
REMARK SMILES IDX 27 36 28 37 29 38 30 39 31 40 32 41 33 42 34 43 35 44 93 45
REMARK SMILES IDX 36 46 92 47 37 48 38 49 39 50 86 51 40 52 91 53 85 54 87 55
REMARK SMILES IDX 41 56 90 57 84 58 83 59 42 61 72 62 53 63 71 64 54 65 57 66
REMARK SMILES IDX 70 67 88 68 55 69 56 70 69 72 89 73 58 74 43 75 44 76 52 77
REMARK SMILES IDX 45 78 51 79 46 80 47 81 48 82 49 83 50 84 73 85 74 86 82 87
REMARK SMILES IDX 75 88 81 89 76 90 77 91 78 92 79 93 80 94 59 95 60 96 68 97
REMARK SMILES IDX 61 98 67 99 62 100 63 101 64 102 65 103 66 104
REMARK H PARENT 11 16 96 34 96 35 87 60 57 71
REMARK Flexibility Score: inf
ROOT
ATOM      1  C   UNL A   1      40.365  23.817  27.271  1.00  0.00     0.188 C 
ENDROOT
BRANCH   1   2
ATOM      2  O   UNL A   1      41.063  22.634  27.603  1.00  0.00    -0.376 OA
BRANCH   2   3
ATOM      3  C   UNL A   1      40.348  21.472  27.209  1.00  0.00     0.202 C 
BRANCH   3   4
ATOM      4  C   UNL A   1      39.376  21.553  25.985  1.00  0.00     0.261 C 
BRANCH   4   5
ATOM      5  O   UNL A   1      37.824  22.202  25.882  1.00  0.00    -0.463 OA
BRANCH   5   6
ATOM      6  C   UNL A   1      36.723  22.234  24.947  1.00  0.00     0.310 C 
ATOM      7  O   UNL A   1      37.040  22.292  23.753  1.00  0.00    -0.252 OA
BRANCH   6   8
ATOM      8  C   UNL A   1      35.101  22.017  25.109  1.00  0.00     0.116 C 
ATOM      9  C   UNL A   1      34.012  21.598  26.202  1.00  0.00     0.097 C 
ATOM     10  C   UNL A   1      32.992  20.651  25.525  1.00  0.00     0.041 C 
ATOM     11  C   UNL A   1      32.581  21.080  24.142  1.00  0.00    -0.030 C 
ATOM     12  C   UNL A   1      34.335  22.866  24.044  1.00  0.00     0.043 C 
ATOM     13  C   UNL A   1      33.147  22.113  23.499  1.00  0.00    -0.030 C 
BRANCH   9  14
ATOM     14  C   UNL A   1      33.288  22.576  27.249  1.00  0.00     0.229 C 
ATOM     15  N   UNL A   1      33.042  23.925  27.178  1.00  0.00    -0.317 N 
ATOM     16  H   UNL A   1      33.542  24.482  27.817  1.00  0.00     0.170 HD
ATOM     17  O   UNL A   1      32.920  22.090  28.337  1.00  0.00    -0.274 OA
BRANCH  15  18
ATOM     18  C   UNL A   1      32.181  24.609  26.325  1.00  0.00     0.109 A 
ATOM     19  C   UNL A   1      31.172  26.016  24.777  1.00  0.00     0.010 A 
ATOM     20  C   UNL A   1      30.825  24.748  24.340  1.00  0.00     0.012 A 
ATOM     21  C   UNL A   1      31.899  25.961  26.060  1.00  0.00     0.082 A 
ATOM     22  C   UNL A   1      30.315  24.233  23.041  1.00  0.00     0.057 C 
ATOM     23  S   UNL A   1      30.887  23.714  25.677  1.00  0.00    -0.122 S 
BRANCH  19  24
ATOM     24  C   UNL A   1      30.708  27.165  24.004  1.00  0.00    -0.016 A 
ATOM     25  C   UNL A   1      29.131  30.332  21.544  1.00  0.00     0.044 C 
ATOM     26  C   UNL A   1      29.679  29.226  22.395  1.00  0.00    -0.051 A 
ATOM     27  C   UNL A   1      31.065  29.059  22.544  1.00  0.00     0.004 A 
ATOM     28  C   UNL A   1      28.812  28.366  23.071  1.00  0.00     0.004 A 
ATOM     29  C   UNL A   1      31.580  28.026  23.337  1.00  0.00     0.009 A 
ATOM     30  C   UNL A   1      29.323  27.357  23.880  1.00  0.00     0.009 A 
ENDBRANCH  19  24
BRANCH  21  31
ATOM     31  C   UNL A   1      32.239  27.187  26.805  1.00  0.00     0.252 C 
ATOM     32  N   UNL A   1      33.461  27.779  26.613  1.00  0.00    -0.365 N 
ATOM     33  O   UNL A   1      31.522  27.692  27.644  1.00  0.00    -0.269 OA
ATOM     34  H   UNL A   1      34.085  27.414  25.946  1.00  0.00     0.159 HD
ATOM     35  H   UNL A   1      33.714  28.569  27.143  1.00  0.00     0.159 HD
ENDBRANCH  21  31
ENDBRANCH  15  18
ENDBRANCH   9  14
ENDBRANCH   6   8
ENDBRANCH   5   6
ENDBRANCH   4   5
ENDBRANCH   3   4
ENDBRANCH   2   3
ENDBRANCH   1   2
BRANCH   1  36
ATOM     36  C   UNL A   1      41.171  24.753  26.360  1.00  0.00     0.188 C 
BRANCH  36  37
ATOM     37  O   UNL A   1      42.559  24.462  26.274  1.00  0.00    -0.376 OA
BRANCH  37  38
ATOM     38  C   UNL A   1      43.188  24.377  25.012  1.00  0.00     0.202 C 
BRANCH  38  39
ATOM     39  C   UNL A   1      43.900  23.030  24.964  1.00  0.00     0.261 C 
BRANCH  39  40
ATOM     40  O   UNL A   1      44.190  22.502  26.288  1.00  0.00    -0.460 OA
BRANCH  40  41
ATOM     41  C   UNL A   1      45.250  23.050  26.940  1.00  0.00     0.338 C 
ATOM     42  O   UNL A   1      46.411  22.973  26.573  1.00  0.00    -0.246 OA
BRANCH  41  43
ATOM     43  C   UNL A   1      44.779  23.697  28.195  1.00  0.00     0.060 A 
ATOM     44  C   UNL A   1      45.398  24.860  28.526  1.00  0.00     0.016 A 
ATOM     45  C   UNL A   1      43.988  23.088  29.177  1.00  0.00     0.016 A 
ATOM     46  C   UNL A   1      45.308  25.295  29.861  1.00  0.00     0.010 A 
ATOM     47  C   UNL A   1      43.963  23.553  30.536  1.00  0.00     0.010 A 
ATOM     48  C   UNL A   1      44.660  24.692  30.974  1.00  0.00    -0.014 A 
BRANCH  48  49
ATOM     49  C   UNL A   1      44.793  24.983  32.607  1.00  0.00     0.031 A 
ATOM     50  C   UNL A   1      44.375  26.361  32.992  1.00  0.00     0.074 A 
ATOM     51  C   UNL A   1      45.185  24.238  33.762  1.00  0.00     0.049 A 
ATOM     52  N   UNL A   1      44.813  26.999  34.029  1.00  0.00    -0.248 NA
ATOM     53  C   UNL A   1      43.480  27.163  32.164  1.00  0.00     0.031 C 
ATOM     54  C   UNL A   1      44.645  24.352  35.133  1.00  0.00     0.029 A 
ATOM     55  N   UNL A   1      46.026  23.111  34.004  1.00  0.00    -0.354 N 
ATOM     56  C   UNL A   1      43.990  28.086  34.177  1.00  0.00     0.074 A 
ATOM     57  C   UNL A   1      43.319  28.247  32.918  1.00  0.00     0.031 C 
ATOM     58  C   UNL A   1      45.270  23.502  35.988  1.00  0.00     0.029 A 
ATOM     59  C   UNL A   1      46.367  22.835  35.306  1.00  0.00     0.049 A 
ATOM     60  H   UNL A   1      46.352  22.550  33.263  1.00  0.00     0.167 HD
ATOM     61  C   UNL A   1      43.679  28.591  35.399  1.00  0.00     0.031 A 
ATOM     62  C   UNL A   1      47.636  22.480  35.719  1.00  0.00     0.031 A 
ATOM     63  C   UNL A   1      44.221  27.779  36.479  1.00  0.00     0.049 A 
ATOM     64  C   UNL A   1      48.036  23.522  36.724  1.00  0.00     0.074 A 
ATOM     65  C   UNL A   1      43.633  26.812  37.280  1.00  0.00     0.029 A 
ATOM     66  N   UNL A   1      45.594  27.651  36.659  1.00  0.00    -0.354 N 
ATOM     67  N   UNL A   1      47.440  24.679  36.759  1.00  0.00    -0.248 NA
ATOM     68  C   UNL A   1      49.061  23.395  37.751  1.00  0.00     0.031 C 
ATOM     69  C   UNL A   1      44.654  26.138  37.988  1.00  0.00     0.029 A 
ATOM     70  C   UNL A   1      45.866  26.697  37.622  1.00  0.00     0.049 A 
ATOM     71  H   UNL A   1      46.275  28.167  36.170  1.00  0.00     0.167 HD
ATOM     72  C   UNL A   1      47.844  25.374  37.847  1.00  0.00     0.074 A 
ATOM     73  C   UNL A   1      48.911  24.562  38.409  1.00  0.00     0.031 C 
ATOM     74  C   UNL A   1      47.209  26.531  38.173  1.00  0.00     0.031 A 
BRANCH  61  75
ATOM     75  C   UNL A   1      42.500  29.530  35.532  1.00  0.00    -0.014 A 
ATOM     76  C   UNL A   1      42.612  30.691  36.316  1.00  0.00     0.010 A 
ATOM     77  C   UNL A   1      41.234  29.268  34.963  1.00  0.00     0.010 A 
ATOM     78  C   UNL A   1      41.500  31.485  36.618  1.00  0.00     0.020 A 
ATOM     79  C   UNL A   1      40.102  30.024  35.299  1.00  0.00     0.020 A 
ATOM     80  C   UNL A   1      40.245  31.132  36.129  1.00  0.00     0.054 A 
BRANCH  80  81
ATOM     81  S   UNL A   1      38.816  32.141  36.600  1.00  0.00     0.124 S 
ATOM     82  O   UNL A   1      37.907  31.155  37.182  1.00  0.00    -0.237 OA
ATOM     83  O   UNL A   1      39.407  33.085  37.543  1.00  0.00    -0.237 OA
ATOM     84  O   UNL A   1      38.365  32.715  35.335  1.00  0.00    -0.744 OA
ENDBRANCH  80  81
ENDBRANCH  61  75
BRANCH  62  85
ATOM     85  C   UNL A   1      48.636  21.788  34.782  1.00  0.00    -0.014 A 
ATOM     86  C   UNL A   1      49.566  22.554  34.046  1.00  0.00     0.010 A 
ATOM     87  C   UNL A   1      48.883  20.399  34.823  1.00  0.00     0.010 A 
ATOM     88  C   UNL A   1      50.802  22.015  33.619  1.00  0.00     0.020 A 
ATOM     89  C   UNL A   1      50.156  19.873  34.490  1.00  0.00     0.020 A 
ATOM     90  C   UNL A   1      51.140  20.708  33.965  1.00  0.00     0.054 A 
BRANCH  90  91
ATOM     91  S   UNL A   1      52.898  20.177  34.060  1.00  0.00     0.124 S 
ATOM     92  O   UNL A   1      53.360  20.322  32.685  1.00  0.00    -0.237 OA
ATOM     93  O   UNL A   1      53.502  21.112  35.007  1.00  0.00    -0.237 OA
ATOM     94  O   UNL A   1      52.789  18.804  34.554  1.00  0.00    -0.744 OA
ENDBRANCH  90  91
ENDBRANCH  62  85
BRANCH  74  95
ATOM     95  C   UNL A   1      47.677  27.568  39.145  1.00  0.00    -0.014 A 
ATOM     96  C   UNL A   1      49.017  27.897  39.362  1.00  0.00     0.010 A 
ATOM     97  C   UNL A   1      46.699  28.351  39.806  1.00  0.00     0.010 A 
ATOM     98  C   UNL A   1      49.365  28.931  40.234  1.00  0.00     0.020 A 
ATOM     99  C   UNL A   1      47.029  29.417  40.632  1.00  0.00     0.020 A 
ATOM    100  C   UNL A   1      48.369  29.685  40.857  1.00  0.00     0.054 A 
BRANCH 100 101
ATOM    101  S   UNL A   1      48.851  31.045  41.933  1.00  0.00     0.124 S 
ATOM    102  O   UNL A   1      49.895  31.693  41.144  1.00  0.00    -0.237 OA
ATOM    103  O   UNL A   1      47.605  31.797  42.066  1.00  0.00    -0.237 OA
ATOM    104  O   UNL A   1      49.306  30.382  43.152  1.00  0.00    -0.744 OA
ENDBRANCH 100 101
ENDBRANCH  74  95
ENDBRANCH  48  49
ENDBRANCH  41  43
ENDBRANCH  40  41
ENDBRANCH  39  40
ENDBRANCH  38  39
ENDBRANCH  37  38
ENDBRANCH  36  37
ENDBRANCH   1  36
TORSDOF 24
ENDMDL
MODEL 3
REMARK VINA RESULT:     -10.3      6.153     11.678
REMARK SMILES Cc1ccc(-c2c(C)sc(NC(=O)[C@H]3CC=CC[C@H]3C(=O)OCCOCCOCCOC(=O)c3ccc(-c4c5nc(c(-c6ccc(S(=O)(=O)[O-])cc6)c6ccc([nH]6)c(-c6ccc(S(=O)(=O)[O-])cc6)c6nc(c(-c7ccc(S(=O)(=O)[O-])cc7)c7ccc4[nH]7)C=C6)C=C5)cc3)c2C(N)=O)cc1
REMARK SMILES IDX 26 1 25 2 24 3 23 4 22 5 20 6 21 7 19 8 14 9 15 10 16 11
REMARK SMILES IDX 18 12 17 13 12 14 11 15 13 17 10 18 6 19 7 20 94 21 8 22
REMARK SMILES IDX 9 23 5 24 1 25 2 26 3 27 99 28 4 29 98 30 95 31 96 32 97 33
REMARK SMILES IDX 27 36 28 37 29 38 30 39 31 40 32 41 33 42 34 43 35 44 93 45
REMARK SMILES IDX 36 46 92 47 37 48 38 49 39 50 86 51 40 52 91 53 85 54 87 55
REMARK SMILES IDX 41 56 90 57 84 58 83 59 42 61 72 62 53 63 71 64 54 65 57 66
REMARK SMILES IDX 70 67 88 68 55 69 56 70 69 72 89 73 58 74 43 75 44 76 52 77
REMARK SMILES IDX 45 78 51 79 46 80 47 81 48 82 49 83 50 84 73 85 74 86 82 87
REMARK SMILES IDX 75 88 81 89 76 90 77 91 78 92 79 93 80 94 59 95 60 96 68 97
REMARK SMILES IDX 61 98 67 99 62 100 63 101 64 102 65 103 66 104
REMARK H PARENT 11 16 96 34 96 35 87 60 57 71
REMARK Flexibility Score: inf
ROOT
ATOM      1  C   UNL A   1      40.950  25.730  27.383  1.00  0.00     0.188 C 
ENDROOT
BRANCH   1   2
ATOM      2  O   UNL A   1      41.306  24.376  27.581  1.00  0.00    -0.376 OA
BRANCH   2   3
ATOM      3  C   UNL A   1      40.164  23.535  27.649  1.00  0.00     0.202 C 
BRANCH   3   4
ATOM      4  C   UNL A   1      39.345  23.253  26.345  1.00  0.00     0.261 C 
BRANCH   4   5
ATOM      5  O   UNL A   1      37.724  23.564  26.002  1.00  0.00    -0.463 OA
BRANCH   5   6
ATOM      6  C   UNL A   1      36.714  23.133  25.064  1.00  0.00     0.310 C 
ATOM      7  O   UNL A   1      37.073  23.077  23.882  1.00  0.00    -0.252 OA
BRANCH   6   8
ATOM      8  C   UNL A   1      35.206  22.504  25.244  1.00  0.00     0.116 C 
ATOM      9  C   UNL A   1      34.258  21.860  26.360  1.00  0.00     0.097 C 
ATOM     10  C   UNL A   1      33.528  20.650  25.730  1.00  0.00     0.041 C 
ATOM     11  C   UNL A   1      33.027  20.895  24.332  1.00  0.00    -0.030 C 
ATOM     12  C   UNL A   1      34.249  23.075  24.148  1.00  0.00     0.043 C 
ATOM     13  C   UNL A   1      33.305  22.013  23.642  1.00  0.00    -0.030 C 
BRANCH   9  14
ATOM     14  C   UNL A   1      33.296  22.657  27.368  1.00  0.00     0.229 C 
ATOM     15  N   UNL A   1      32.878  23.964  27.347  1.00  0.00    -0.317 N 
ATOM     16  H   UNL A   1      33.223  24.533  28.072  1.00  0.00     0.170 HD
ATOM     17  O   UNL A   1      32.879  22.048  28.374  1.00  0.00    -0.274 OA
BRANCH  15  18
ATOM     18  C   UNL A   1      32.033  24.594  26.438  1.00  0.00     0.109 A 
ATOM     19  C   UNL A   1      31.047  25.910  24.797  1.00  0.00     0.010 A 
ATOM     20  C   UNL A   1      30.734  24.617  24.410  1.00  0.00     0.012 A 
ATOM     21  C   UNL A   1      31.737  25.927  26.101  1.00  0.00     0.082 A 
ATOM     22  C   UNL A   1      30.270  24.034  23.122  1.00  0.00     0.057 C 
ATOM     23  S   UNL A   1      30.772  23.648  25.796  1.00  0.00    -0.122 S 
BRANCH  19  24
ATOM     24  C   UNL A   1      30.589  27.014  23.957  1.00  0.00    -0.016 A 
ATOM     25  C   UNL A   1      29.460  30.480  21.661  1.00  0.00     0.044 C 
ATOM     26  C   UNL A   1      29.854  29.278  22.465  1.00  0.00    -0.051 A 
ATOM     27  C   UNL A   1      28.876  28.467  23.063  1.00  0.00     0.004 A 
ATOM     28  C   UNL A   1      31.201  28.938  22.603  1.00  0.00     0.004 A 
ATOM     29  C   UNL A   1      29.241  27.344  23.816  1.00  0.00     0.009 A 
ATOM     30  C   UNL A   1      31.561  27.807  23.329  1.00  0.00     0.009 A 
ENDBRANCH  19  24
BRANCH  21  31
ATOM     31  C   UNL A   1      32.035  27.192  26.798  1.00  0.00     0.252 C 
ATOM     32  N   UNL A   1      31.043  27.827  27.500  1.00  0.00    -0.365 N 
ATOM     33  O   UNL A   1      33.106  27.760  26.745  1.00  0.00    -0.269 OA
ATOM     34  H   UNL A   1      30.153  27.414  27.577  1.00  0.00     0.159 HD
ATOM     35  H   UNL A   1      31.221  28.696  27.927  1.00  0.00     0.159 HD
ENDBRANCH  21  31
ENDBRANCH  15  18
ENDBRANCH   9  14
ENDBRANCH   6   8
ENDBRANCH   5   6
ENDBRANCH   4   5
ENDBRANCH   3   4
ENDBRANCH   2   3
ENDBRANCH   1   2
BRANCH   1  36
ATOM     36  C   UNL A   1      41.819  26.432  26.333  1.00  0.00     0.188 C 
BRANCH  36  37
ATOM     37  O   UNL A   1      43.204  26.116  26.389  1.00  0.00    -0.376 OA
BRANCH  37  38
ATOM     38  C   UNL A   1      44.100  26.694  25.463  1.00  0.00     0.202 C 
BRANCH  38  39
ATOM     39  C   UNL A   1      45.303  25.761  25.373  1.00  0.00     0.261 C 
BRANCH  39  40
ATOM     40  O   UNL A   1      44.983  24.396  25.759  1.00  0.00    -0.460 OA
BRANCH  40  41
ATOM     41  C   UNL A   1      45.932  23.728  26.466  1.00  0.00     0.338 C 
ATOM     42  O   UNL A   1      46.741  22.950  25.987  1.00  0.00    -0.246 OA
BRANCH  41  43
ATOM     43  C   UNL A   1      45.788  24.046  27.912  1.00  0.00     0.060 A 
ATOM     44  C   UNL A   1      44.712  23.497  28.533  1.00  0.00     0.016 A 
ATOM     45  C   UNL A   1      46.475  25.058  28.595  1.00  0.00     0.016 A 
ATOM     46  C   UNL A   1      44.290  24.070  29.746  1.00  0.00     0.010 A 
ATOM     47  C   UNL A   1      45.977  25.633  29.813  1.00  0.00     0.010 A 
ATOM     48  C   UNL A   1      44.814  25.183  30.460  1.00  0.00    -0.014 A 
BRANCH  48  49
ATOM     49  C   UNL A   1      44.173  26.088  31.700  1.00  0.00     0.031 A 
ATOM     50  C   UNL A   1      43.453  27.304  31.227  1.00  0.00     0.074 A 
ATOM     51  C   UNL A   1      44.106  25.990  33.124  1.00  0.00     0.049 A 
ATOM     52  N   UNL A   1      43.301  28.385  31.921  1.00  0.00    -0.248 NA
ATOM     53  C   UNL A   1      42.922  27.417  29.872  1.00  0.00     0.031 C 
ATOM     54  C   UNL A   1      43.006  26.431  34.007  1.00  0.00     0.029 A 
ATOM     55  N   UNL A   1      44.891  25.359  34.135  1.00  0.00    -0.354 N 
ATOM     56  C   UNL A   1      42.365  29.133  31.254  1.00  0.00     0.074 A 
ATOM     57  C   UNL A   1      42.306  28.594  29.924  1.00  0.00     0.031 C 
ATOM     58  C   UNL A   1      43.292  26.202  35.314  1.00  0.00     0.029 A 
ATOM     59  C   UNL A   1      44.653  25.709  35.442  1.00  0.00     0.049 A 
ATOM     60  H   UNL A   1      45.580  24.695  33.904  1.00  0.00     0.167 HD
ATOM     61  C   UNL A   1      41.483  29.931  31.908  1.00  0.00     0.031 A 
ATOM     62  C   UNL A   1      45.642  25.950  36.375  1.00  0.00     0.031 A 
ATOM     63  C   UNL A   1      41.591  29.794  33.353  1.00  0.00     0.049 A 
ATOM     64  C   UNL A   1      45.418  27.360  36.841  1.00  0.00     0.074 A 
ATOM     65  C   UNL A   1      40.839  29.064  34.262  1.00  0.00     0.029 A 
ATOM     66  N   UNL A   1      42.746  30.179  34.025  1.00  0.00    -0.354 N 
ATOM     67  N   UNL A   1      44.725  28.197  36.125  1.00  0.00    -0.248 NA
ATOM     68  C   UNL A   1      45.890  27.952  38.086  1.00  0.00     0.031 C 
ATOM     69  C   UNL A   1      41.520  29.058  35.501  1.00  0.00     0.029 A 
ATOM     70  C   UNL A   1      42.685  29.790  35.350  1.00  0.00     0.049 A 
ATOM     71  H   UNL A   1      43.500  30.660  33.614  1.00  0.00     0.167 HD
ATOM     72  C   UNL A   1      44.512  29.336  36.824  1.00  0.00     0.074 A 
ATOM     73  C   UNL A   1      45.315  29.171  38.024  1.00  0.00     0.031 C 
ATOM     74  C   UNL A   1      43.654  30.270  36.332  1.00  0.00     0.031 A 
BRANCH  61  75
ATOM     75  C   UNL A   1      40.257  30.432  31.177  1.00  0.00    -0.014 A 
ATOM     76  C   UNL A   1      40.104  31.806  30.921  1.00  0.00     0.010 A 
ATOM     77  C   UNL A   1      39.189  29.592  30.791  1.00  0.00     0.010 A 
ATOM     78  C   UNL A   1      38.909  32.333  30.419  1.00  0.00     0.020 A 
ATOM     79  C   UNL A   1      37.968  30.110  30.337  1.00  0.00     0.020 A 
ATOM     80  C   UNL A   1      37.837  31.484  30.155  1.00  0.00     0.054 A 
BRANCH  80  81
ATOM     81  S   UNL A   1      36.281  32.208  29.576  1.00  0.00     0.124 S 
ATOM     82  O   UNL A   1      35.865  33.025  30.714  1.00  0.00    -0.237 OA
ATOM     83  O   UNL A   1      36.710  32.949  28.394  1.00  0.00    -0.237 OA
ATOM     84  O   UNL A   1      35.433  31.047  29.315  1.00  0.00    -0.744 OA
ENDBRANCH  80  81
ENDBRANCH  61  75
BRANCH  62  85
ATOM     85  C   UNL A   1      47.034  25.309  36.274  1.00  0.00    -0.014 A 
ATOM     86  C   UNL A   1      47.262  24.022  36.806  1.00  0.00     0.010 A 
ATOM     87  C   UNL A   1      48.042  25.807  35.422  1.00  0.00     0.010 A 
ATOM     88  C   UNL A   1      48.282  23.179  36.305  1.00  0.00     0.020 A 
ATOM     89  C   UNL A   1      49.002  24.940  34.842  1.00  0.00     0.020 A 
ATOM     90  C   UNL A   1      49.060  23.604  35.230  1.00  0.00     0.054 A 
BRANCH  90  91
ATOM     91  S   UNL A   1      49.885  22.392  34.120  1.00  0.00     0.124 S 
ATOM     92  O   UNL A   1      48.896  21.328  34.002  1.00  0.00    -0.237 OA
ATOM     93  O   UNL A   1      50.124  23.142  32.888  1.00  0.00    -0.237 OA
ATOM     94  O   UNL A   1      51.099  22.054  34.865  1.00  0.00    -0.744 OA
ENDBRANCH  90  91
ENDBRANCH  62  85
BRANCH  74  95
ATOM     95  C   UNL A   1      43.506  31.685  36.796  1.00  0.00    -0.014 A 
ATOM     96  C   UNL A   1      44.575  32.532  37.096  1.00  0.00     0.010 A 
ATOM     97  C   UNL A   1      42.205  32.243  36.827  1.00  0.00     0.010 A 
ATOM     98  C   UNL A   1      44.351  33.864  37.451  1.00  0.00     0.020 A 
ATOM     99  C   UNL A   1      41.972  33.579  37.124  1.00  0.00     0.020 A 
ATOM    100  C   UNL A   1      43.053  34.377  37.458  1.00  0.00     0.054 A 
BRANCH 100 101
ATOM    101  S   UNL A   1      42.803  36.111  37.869  1.00  0.00     0.124 S 
ATOM    102  O   UNL A   1      41.352  36.237  37.757  1.00  0.00    -0.237 OA
ATOM    103  O   UNL A   1      43.339  36.193  39.226  1.00  0.00    -0.237 OA
ATOM    104  O   UNL A   1      43.575  36.825  36.855  1.00  0.00    -0.744 OA
ENDBRANCH 100 101
ENDBRANCH  74  95
ENDBRANCH  48  49
ENDBRANCH  41  43
ENDBRANCH  40  41
ENDBRANCH  39  40
ENDBRANCH  38  39
ENDBRANCH  37  38
ENDBRANCH  36  37
ENDBRANCH   1  36
TORSDOF 24
ENDMDL
