MODEL 1
REMARK VINA RESULT:     -10.5      0.000      0.000
REMARK SMILES O=C(Cc1c(C(=O)c2cc3c(cn2)CCCC3)[nH]c2cc(Cl)ccc12)OCCOCCOCCOC(=O)c1ccc(-c2c3nc(c(-c4ccc(S(=O)(=O)[O-])cc4)c4ccc([nH]4)c(-c4ccc(S(=O)(=O)[O-])cc4)c4nc(c(-c5ccc(S(=O)(=O)[O-])cc5)c5ccc2[nH]5)C=C4)C=C3)cc1
REMARK SMILES IDX 30 1 29 2 28 3 27 4 26 5 2 6 1 7 3 8 4 9 5 10 25 11 18 12
REMARK SMILES IDX 19 13 24 14 20 16 23 17 21 18 22 19 6 20 7 21 8 22 9 23
REMARK SMILES IDX 13 24 10 25 12 26 11 27 17 28 14 29 16 30 15 31 31 32 32 33
REMARK SMILES IDX 33 34 34 35 35 36 36 37 37 38 38 39 39 40 97 41 40 42 96 43
REMARK SMILES IDX 41 44 42 45 43 46 90 47 44 48 95 49 89 50 91 51 45 52 94 53
REMARK SMILES IDX 88 54 87 55 46 57 76 58 57 59 75 60 58 61 61 62 74 63 92 64
REMARK SMILES IDX 59 65 60 66 73 68 93 69 62 70 47 71 48 72 56 73 49 74 55 75
REMARK SMILES IDX 50 76 51 77 52 78 53 79 54 80 77 81 78 82 86 83 79 84 85 85
REMARK SMILES IDX 80 86 81 87 82 88 83 89 84 90 63 91 64 92 72 93 65 94 71 95
REMARK SMILES IDX 66 96 67 97 68 98 69 99 70 100
REMARK H PARENT 18 15 91 56 61 67
REMARK Flexibility Score: inf
ROOT
ATOM      1  C   UNL A   1      33.308  26.043  26.437  1.00  0.00     0.188 C 
ENDROOT
BRANCH   1   2
ATOM      2  O   UNL A   1      32.568  24.877  26.112  1.00  0.00    -0.376 OA
BRANCH   2   3
ATOM      3  C   UNL A   1      32.447  23.809  27.046  1.00  0.00     0.202 C 
BRANCH   3   4
ATOM      4  C   UNL A   1      31.861  22.455  26.610  1.00  0.00     0.261 C 
BRANCH   4   5
ATOM      5  O   UNL A   1      31.555  22.239  25.230  1.00  0.00    -0.463 OA
BRANCH   5   6
ATOM      6  C   UNL A   1      32.109  21.248  24.494  1.00  0.00     0.310 C 
ATOM      7  O   UNL A   1      32.080  20.095  24.921  1.00  0.00    -0.252 OA
BRANCH   6   8
ATOM      8  C   UNL A   1      32.889  21.635  23.258  1.00  0.00     0.161 C 
BRANCH   8   9
ATOM      9  C   UNL A   1      33.973  22.590  23.563  1.00  0.00     0.000 A 
ATOM     10  C   UNL A   1      33.996  23.906  23.144  1.00  0.00     0.093 A 
ATOM     11  C   UNL A   1      35.208  22.325  24.229  1.00  0.00     0.004 A 
ATOM     12  N   UNL A   1      35.001  24.508  23.877  1.00  0.00    -0.351 N 
ATOM     13  C   UNL A   1      35.788  23.559  24.493  1.00  0.00     0.048 A 
ATOM     14  C   UNL A   1      35.893  21.164  24.642  1.00  0.00     0.012 A 
ATOM     15  H   UNL A   1      35.135  25.480  23.950  1.00  0.00     0.167 HD
ATOM     16  C   UNL A   1      36.966  23.690  25.246  1.00  0.00     0.047 A 
ATOM     17  C   UNL A   1      37.077  21.265  25.375  1.00  0.00     0.021 A 
ATOM     18  C   UNL A   1      37.585  22.516  25.691  1.00  0.00     0.043 A 
ATOM     19  Cl  UNL A   1      39.021  22.616  26.638  1.00  0.00    -0.084 Cl
BRANCH  10  20
ATOM     20  C   UNL A   1      33.116  24.515  22.144  1.00  0.00     0.227 C 
ATOM     21  O   UNL A   1      33.041  24.155  20.970  1.00  0.00    -0.285 OA
BRANCH  20  22
ATOM     22  C   UNL A   1      32.345  25.692  22.545  1.00  0.00     0.113 A 
ATOM     23  C   UNL A   1      31.093  25.466  23.084  1.00  0.00     0.036 A 
ATOM     24  N   UNL A   1      32.847  26.897  22.183  1.00  0.00    -0.252 NA
ATOM     25  C   UNL A   1      30.234  26.545  23.160  1.00  0.00    -0.041 A 
ATOM     26  C   UNL A   1      32.028  27.944  22.380  1.00  0.00     0.115 A 
ATOM     27  C   UNL A   1      30.713  27.820  22.815  1.00  0.00    -0.026 A 
ATOM     28  C   UNL A   1      28.791  26.286  23.489  1.00  0.00     0.036 C 
ATOM     29  C   UNL A   1      29.850  29.039  22.969  1.00  0.00     0.037 C 
ATOM     30  C   UNL A   1      28.060  27.561  23.863  1.00  0.00     0.005 C 
ATOM     31  C   UNL A   1      28.367  28.693  22.897  1.00  0.00     0.005 C 
ENDBRANCH  20  22
ENDBRANCH  10  20
ENDBRANCH   8   9
ENDBRANCH   6   8
ENDBRANCH   5   6
ENDBRANCH   4   5
ENDBRANCH   3   4
ENDBRANCH   2   3
ENDBRANCH   1   2
BRANCH   1  32
ATOM     32  C   UNL A   1      32.847  27.349  25.809  1.00  0.00     0.188 C 
BRANCH  32  33
ATOM     33  O   UNL A   1      31.652  27.811  26.408  1.00  0.00    -0.376 OA
BRANCH  33  34
ATOM     34  C   UNL A   1      31.801  28.973  27.213  1.00  0.00     0.202 C 
BRANCH  34  35
ATOM     35  C   UNL A   1      32.591  30.213  26.718  1.00  0.00     0.261 C 
BRANCH  35  36
ATOM     36  O   UNL A   1      34.004  30.324  26.954  1.00  0.00    -0.460 OA
BRANCH  36  37
ATOM     37  C   UNL A   1      34.464  31.258  27.815  1.00  0.00     0.338 C 
ATOM     38  O   UNL A   1      33.911  32.309  28.101  1.00  0.00    -0.246 OA
BRANCH  37  39
ATOM     39  C   UNL A   1      35.720  30.756  28.437  1.00  0.00     0.060 A 
ATOM     40  C   UNL A   1      35.678  29.771  29.429  1.00  0.00     0.016 A 
ATOM     41  C   UNL A   1      36.960  31.259  28.020  1.00  0.00     0.016 A 
ATOM     42  C   UNL A   1      36.871  29.308  30.009  1.00  0.00     0.010 A 
ATOM     43  C   UNL A   1      38.145  30.828  28.632  1.00  0.00     0.010 A 
ATOM     44  C   UNL A   1      38.117  29.837  29.625  1.00  0.00    -0.014 A 
BRANCH  44  45
ATOM     45  C   UNL A   1      39.385  29.218  30.103  1.00  0.00     0.031 A 
ATOM     46  C   UNL A   1      40.021  28.034  29.430  1.00  0.00     0.074 A 
ATOM     47  C   UNL A   1      39.965  29.745  31.202  1.00  0.00     0.049 A 
ATOM     48  N   UNL A   1      41.168  27.464  29.705  1.00  0.00    -0.248 NA
ATOM     49  C   UNL A   1      39.295  27.406  28.315  1.00  0.00     0.031 C 
ATOM     50  C   UNL A   1      39.433  30.883  31.953  1.00  0.00     0.029 A 
ATOM     51  N   UNL A   1      41.117  29.411  31.874  1.00  0.00    -0.354 N 
ATOM     52  C   UNL A   1      41.316  26.427  28.790  1.00  0.00     0.074 A 
ATOM     53  C   UNL A   1      40.125  26.424  27.969  1.00  0.00     0.031 C 
ATOM     54  C   UNL A   1      40.264  31.166  32.965  1.00  0.00     0.029 A 
ATOM     55  C   UNL A   1      41.375  30.215  32.961  1.00  0.00     0.049 A 
ATOM     56  H   UNL A   1      41.702  28.666  31.603  1.00  0.00     0.167 HD
ATOM     57  C   UNL A   1      42.360  25.576  28.652  1.00  0.00     0.031 A 
ATOM     58  C   UNL A   1      42.384  30.207  33.857  1.00  0.00     0.031 A 
ATOM     59  C   UNL A   1      43.545  25.598  29.485  1.00  0.00     0.049 A 
ATOM     60  C   UNL A   1      43.509  29.225  33.705  1.00  0.00     0.074 A 
ATOM     61  C   UNL A   1      44.696  24.839  29.337  1.00  0.00     0.029 A 
ATOM     62  N   UNL A   1      43.737  26.386  30.608  1.00  0.00    -0.354 N 
ATOM     63  N   UNL A   1      43.679  28.322  32.773  1.00  0.00    -0.248 NA
ATOM     64  C   UNL A   1      44.585  29.266  34.707  1.00  0.00     0.031 C 
ATOM     65  C   UNL A   1      45.527  25.078  30.428  1.00  0.00     0.029 A 
ATOM     66  C   UNL A   1      44.958  26.081  31.194  1.00  0.00     0.049 A 
ATOM     67  H   UNL A   1      43.103  27.061  30.940  1.00  0.00     0.167 HD
ATOM     68  C   UNL A   1      44.887  27.699  33.060  1.00  0.00     0.074 A 
ATOM     69  C   UNL A   1      45.414  28.332  34.249  1.00  0.00     0.031 C 
ATOM     70  C   UNL A   1      45.495  26.695  32.384  1.00  0.00     0.031 A 
BRANCH  57  71
ATOM     71  C   UNL A   1      42.379  24.558  27.530  1.00  0.00    -0.014 A 
ATOM     72  C   UNL A   1      42.297  23.184  27.842  1.00  0.00     0.010 A 
ATOM     73  C   UNL A   1      42.856  24.942  26.265  1.00  0.00     0.010 A 
ATOM     74  C   UNL A   1      42.833  22.224  26.974  1.00  0.00     0.020 A 
ATOM     75  C   UNL A   1      43.368  23.983  25.385  1.00  0.00     0.020 A 
ATOM     76  C   UNL A   1      43.419  22.641  25.777  1.00  0.00     0.054 A 
BRANCH  76  77
ATOM     77  S   UNL A   1      44.339  21.465  24.733  1.00  0.00     0.124 S 
ATOM     78  O   UNL A   1      43.501  20.274  24.792  1.00  0.00    -0.237 OA
ATOM     79  O   UNL A   1      44.397  22.127  23.431  1.00  0.00    -0.237 OA
ATOM     80  O   UNL A   1      45.620  21.367  25.430  1.00  0.00    -0.744 OA
ENDBRANCH  76  77
ENDBRANCH  57  71
BRANCH  58  81
ATOM     81  C   UNL A   1      42.374  31.234  34.937  1.00  0.00    -0.014 A 
ATOM     82  C   UNL A   1      41.598  31.034  36.095  1.00  0.00     0.010 A 
ATOM     83  C   UNL A   1      42.996  32.478  34.735  1.00  0.00     0.010 A 
ATOM     84  C   UNL A   1      41.362  32.089  36.979  1.00  0.00     0.020 A 
ATOM     85  C   UNL A   1      42.788  33.527  35.636  1.00  0.00     0.020 A 
ATOM     86  C   UNL A   1      41.936  33.336  36.727  1.00  0.00     0.054 A 
BRANCH  86  87
ATOM     87  S   UNL A   1      41.490  34.728  37.804  1.00  0.00     0.124 S 
ATOM     88  O   UNL A   1      41.682  35.869  36.911  1.00  0.00    -0.237 OA
ATOM     89  O   UNL A   1      40.106  34.428  38.154  1.00  0.00    -0.237 OA
ATOM     90  O   UNL A   1      42.446  34.631  38.904  1.00  0.00    -0.744 OA
ENDBRANCH  86  87
ENDBRANCH  58  81
BRANCH  70  91
ATOM     91  C   UNL A   1      46.816  26.161  32.885  1.00  0.00    -0.014 A 
ATOM     92  C   UNL A   1      48.014  26.572  32.266  1.00  0.00     0.010 A 
ATOM     93  C   UNL A   1      46.855  25.100  33.807  1.00  0.00     0.010 A 
ATOM     94  C   UNL A   1      49.209  25.884  32.499  1.00  0.00     0.020 A 
ATOM     95  C   UNL A   1      48.057  24.432  34.069  1.00  0.00     0.020 A 
ATOM     96  C   UNL A   1      49.216  24.804  33.384  1.00  0.00     0.054 A 
BRANCH  96  97
ATOM     97  S   UNL A   1      50.751  23.857  33.591  1.00  0.00     0.124 S 
ATOM     98  O   UNL A   1      50.979  23.338  32.246  1.00  0.00    -0.237 OA
ATOM     99  O   UNL A   1      51.697  24.875  34.044  1.00  0.00    -0.237 OA
ATOM    100  O   UNL A   1      50.404  22.852  34.594  1.00  0.00    -0.744 OA
ENDBRANCH  96  97
ENDBRANCH  70  91
ENDBRANCH  44  45
ENDBRANCH  37  39
ENDBRANCH  36  37
ENDBRANCH  35  36
ENDBRANCH  34  35
ENDBRANCH  33  34
ENDBRANCH  32  33
ENDBRANCH   1  32
TORSDOF 23
ENDMDL
MODEL 2
REMARK VINA RESULT:     -10.3      4.527      8.136
REMARK SMILES O=C(Cc1c(C(=O)c2cc3c(cn2)CCCC3)[nH]c2cc(Cl)ccc12)OCCOCCOCCOC(=O)c1ccc(-c2c3nc(c(-c4ccc(S(=O)(=O)[O-])cc4)c4ccc([nH]4)c(-c4ccc(S(=O)(=O)[O-])cc4)c4nc(c(-c5ccc(S(=O)(=O)[O-])cc5)c5ccc2[nH]5)C=C4)C=C3)cc1
REMARK SMILES IDX 30 1 29 2 28 3 27 4 26 5 2 6 1 7 3 8 4 9 5 10 25 11 18 12
REMARK SMILES IDX 19 13 24 14 20 16 23 17 21 18 22 19 6 20 7 21 8 22 9 23
REMARK SMILES IDX 13 24 10 25 12 26 11 27 17 28 14 29 16 30 15 31 31 32 32 33
REMARK SMILES IDX 33 34 34 35 35 36 36 37 37 38 38 39 39 40 97 41 40 42 96 43
REMARK SMILES IDX 41 44 42 45 43 46 90 47 44 48 95 49 89 50 91 51 45 52 94 53
REMARK SMILES IDX 88 54 87 55 46 57 76 58 57 59 75 60 58 61 61 62 74 63 92 64
REMARK SMILES IDX 59 65 60 66 73 68 93 69 62 70 47 71 48 72 56 73 49 74 55 75
REMARK SMILES IDX 50 76 51 77 52 78 53 79 54 80 77 81 78 82 86 83 79 84 85 85
REMARK SMILES IDX 80 86 81 87 82 88 83 89 84 90 63 91 64 92 72 93 65 94 71 95
REMARK SMILES IDX 66 96 67 97 68 98 69 99 70 100
REMARK H PARENT 18 15 91 56 61 67
REMARK Flexibility Score: inf
ROOT
ATOM      1  C   UNL A   1      31.682  27.528  26.439  1.00  0.00     0.188 C 
ENDROOT
BRANCH   1   2
ATOM      2  O   UNL A   1      31.431  26.202  26.880  1.00  0.00    -0.376 OA
BRANCH   2   3
ATOM      3  C   UNL A   1      32.170  25.108  26.349  1.00  0.00     0.202 C 
BRANCH   3   4
ATOM      4  C   UNL A   1      31.637  23.671  26.483  1.00  0.00     0.261 C 
BRANCH   4   5
ATOM      5  O   UNL A   1      31.187  22.982  25.314  1.00  0.00    -0.463 OA
BRANCH   5   6
ATOM      6  C   UNL A   1      31.805  21.886  24.814  1.00  0.00     0.310 C 
ATOM      7  O   UNL A   1      31.861  20.865  25.498  1.00  0.00    -0.252 OA
BRANCH   6   8
ATOM      8  C   UNL A   1      32.544  22.026  23.503  1.00  0.00     0.161 C 
BRANCH   8   9
ATOM      9  C   UNL A   1      33.796  22.795  23.652  1.00  0.00     0.000 A 
ATOM     10  C   UNL A   1      34.012  24.048  23.112  1.00  0.00     0.093 A 
ATOM     11  C   UNL A   1      35.014  22.369  24.262  1.00  0.00     0.004 A 
ATOM     12  N   UNL A   1      35.157  24.519  23.724  1.00  0.00    -0.351 N 
ATOM     13  C   UNL A   1      35.816  23.497  24.376  1.00  0.00     0.048 A 
ATOM     14  C   UNL A   1      35.520  21.142  24.738  1.00  0.00     0.012 A 
ATOM     15  H   UNL A   1      35.462  25.454  23.699  1.00  0.00     0.167 HD
ATOM     16  C   UNL A   1      37.052  23.478  25.039  1.00  0.00     0.047 A 
ATOM     17  C   UNL A   1      36.756  21.090  25.385  1.00  0.00     0.021 A 
ATOM     18  C   UNL A   1      37.494  22.253  25.552  1.00  0.00     0.043 A 
ATOM     19  Cl  UNL A   1      38.994  22.172  26.396  1.00  0.00    -0.084 Cl
BRANCH  10  20
ATOM     20  C   UNL A   1      33.175  24.721  22.115  1.00  0.00     0.227 C 
ATOM     21  O   UNL A   1      33.188  24.471  20.912  1.00  0.00    -0.285 OA
BRANCH  20  22
ATOM     22  C   UNL A   1      32.336  25.830  22.571  1.00  0.00     0.113 A 
ATOM     23  C   UNL A   1      31.096  25.506  23.086  1.00  0.00     0.036 A 
ATOM     24  N   UNL A   1      32.773  27.078  22.278  1.00  0.00    -0.252 NA
ATOM     25  C   UNL A   1      30.178  26.530  23.210  1.00  0.00    -0.041 A 
ATOM     26  C   UNL A   1      31.895  28.066  22.522  1.00  0.00     0.115 A 
ATOM     27  C   UNL A   1      30.586  27.847  22.938  1.00  0.00    -0.026 A 
ATOM     28  C   UNL A   1      28.750  26.175  23.512  1.00  0.00     0.036 C 
ATOM     29  C   UNL A   1      29.656  29.007  23.148  1.00  0.00     0.037 C 
ATOM     30  C   UNL A   1      27.946  27.385  23.945  1.00  0.00     0.005 C 
ATOM     31  C   UNL A   1      28.195  28.583  23.044  1.00  0.00     0.005 C 
ENDBRANCH  20  22
ENDBRANCH  10  20
ENDBRANCH   8   9
ENDBRANCH   6   8
ENDBRANCH   5   6
ENDBRANCH   4   5
ENDBRANCH   3   4
ENDBRANCH   2   3
ENDBRANCH   1   2
BRANCH   1  32
ATOM     32  C   UNL A   1      32.304  28.483  27.446  1.00  0.00     0.188 C 
BRANCH  32  33
ATOM     33  O   UNL A   1      33.693  28.633  27.218  1.00  0.00    -0.376 OA
BRANCH  33  34
ATOM     34  C   UNL A   1      34.109  29.964  26.940  1.00  0.00     0.202 C 
BRANCH  34  35
ATOM     35  C   UNL A   1      34.501  30.948  28.073  1.00  0.00     0.261 C 
BRANCH  35  36
ATOM     36  O   UNL A   1      35.857  31.402  28.212  1.00  0.00    -0.460 OA
BRANCH  36  37
ATOM     37  C   UNL A   1      36.507  31.214  29.382  1.00  0.00     0.338 C 
ATOM     38  O   UNL A   1      36.055  31.420  30.498  1.00  0.00    -0.246 OA
BRANCH  37  39
ATOM     39  C   UNL A   1      37.842  30.622  29.096  1.00  0.00     0.060 A 
ATOM     40  C   UNL A   1      38.076  29.939  27.898  1.00  0.00     0.016 A 
ATOM     41  C   UNL A   1      38.884  30.759  30.023  1.00  0.00     0.016 A 
ATOM     42  C   UNL A   1      39.340  29.384  27.642  1.00  0.00     0.010 A 
ATOM     43  C   UNL A   1      40.131  30.164  29.786  1.00  0.00     0.010 A 
ATOM     44  C   UNL A   1      40.380  29.481  28.586  1.00  0.00    -0.014 A 
BRANCH  44  45
ATOM     45  C   UNL A   1      41.764  29.056  28.237  1.00  0.00     0.031 A 
ATOM     46  C   UNL A   1      42.924  30.012  28.188  1.00  0.00     0.074 A 
ATOM     47  C   UNL A   1      41.965  27.756  27.938  1.00  0.00     0.049 A 
ATOM     48  N   UNL A   1      44.189  29.742  27.982  1.00  0.00    -0.248 NA
ATOM     49  C   UNL A   1      42.645  31.441  28.393  1.00  0.00     0.031 C 
ATOM     50  C   UNL A   1      40.915  26.736  27.933  1.00  0.00     0.029 A 
ATOM     51  N   UNL A   1      43.102  27.065  27.589  1.00  0.00    -0.354 N 
ATOM     52  C   UNL A   1      44.863  30.956  28.052  1.00  0.00     0.074 A 
ATOM     53  C   UNL A   1      43.861  31.973  28.289  1.00  0.00     0.031 C 
ATOM     54  C   UNL A   1      41.457  25.551  27.621  1.00  0.00     0.029 A 
ATOM     55  C   UNL A   1      42.888  25.723  27.372  1.00  0.00     0.049 A 
ATOM     56  H   UNL A   1      43.986  27.491  27.503  1.00  0.00     0.167 HD
ATOM     57  C   UNL A   1      46.193  31.183  27.941  1.00  0.00     0.031 A 
ATOM     58  C   UNL A   1      43.732  24.731  27.019  1.00  0.00     0.031 A 
ATOM     59  C   UNL A   1      47.180  30.149  27.706  1.00  0.00     0.049 A 
ATOM     60  C   UNL A   1      45.197  25.018  26.862  1.00  0.00     0.074 A 
ATOM     61  C   UNL A   1      48.559  30.285  27.692  1.00  0.00     0.029 A 
ATOM     62  N   UNL A   1      46.913  28.817  27.433  1.00  0.00    -0.354 N 
ATOM     63  N   UNL A   1      45.826  26.153  27.035  1.00  0.00    -0.248 NA
ATOM     64  C   UNL A   1      46.071  23.898  26.482  1.00  0.00     0.031 C 
ATOM     65  C   UNL A   1      49.118  29.073  27.296  1.00  0.00     0.029 A 
ATOM     66  C   UNL A   1      48.100  28.141  27.186  1.00  0.00     0.049 A 
ATOM     67  H   UNL A   1      46.018  28.411  27.417  1.00  0.00     0.167 HD
ATOM     68  C   UNL A   1      47.169  25.885  26.805  1.00  0.00     0.074 A 
ATOM     69  C   UNL A   1      47.269  24.476  26.489  1.00  0.00     0.031 C 
ATOM     70  C   UNL A   1      48.218  26.740  26.860  1.00  0.00     0.031 A 
BRANCH  57  71
ATOM     71  C   UNL A   1      46.753  32.578  28.136  1.00  0.00    -0.014 A 
ATOM     72  C   UNL A   1      47.056  33.365  27.003  1.00  0.00     0.010 A 
ATOM     73  C   UNL A   1      47.319  32.921  29.376  1.00  0.00     0.010 A 
ATOM     74  C   UNL A   1      48.028  34.370  27.075  1.00  0.00     0.020 A 
ATOM     75  C   UNL A   1      48.272  33.942  29.455  1.00  0.00     0.020 A 
ATOM     76  C   UNL A   1      48.671  34.609  28.291  1.00  0.00     0.054 A 
BRANCH  76  77
ATOM     77  S   UNL A   1      50.103  35.732  28.382  1.00  0.00     0.124 S 
ATOM     78  O   UNL A   1      50.156  36.277  27.031  1.00  0.00    -0.237 OA
ATOM     79  O   UNL A   1      49.735  36.684  29.427  1.00  0.00    -0.237 OA
ATOM     80  O   UNL A   1      51.191  34.821  28.734  1.00  0.00    -0.744 OA
ENDBRANCH  76  77
ENDBRANCH  57  71
BRANCH  58  81
ATOM     81  C   UNL A   1      43.176  23.357  26.864  1.00  0.00    -0.014 A 
ATOM     82  C   UNL A   1      43.005  22.533  27.993  1.00  0.00     0.010 A 
ATOM     83  C   UNL A   1      42.981  22.814  25.583  1.00  0.00     0.010 A 
ATOM     84  C   UNL A   1      42.750  21.168  27.841  1.00  0.00     0.020 A 
ATOM     85  C   UNL A   1      42.692  21.454  25.428  1.00  0.00     0.020 A 
ATOM     86  C   UNL A   1      42.623  20.634  26.557  1.00  0.00     0.054 A 
BRANCH  86  87
ATOM     87  S   UNL A   1      42.444  18.836  26.381  1.00  0.00     0.124 S 
ATOM     88  O   UNL A   1      43.616  18.497  25.576  1.00  0.00    -0.237 OA
ATOM     89  O   UNL A   1      42.478  18.377  27.766  1.00  0.00    -0.237 OA
ATOM     90  O   UNL A   1      41.159  18.682  25.706  1.00  0.00    -0.744 OA
ENDBRANCH  86  87
ENDBRANCH  58  81
BRANCH  70  91
ATOM     91  C   UNL A   1      49.607  26.228  26.564  1.00  0.00    -0.014 A 
ATOM     92  C   UNL A   1      50.461  25.872  27.628  1.00  0.00     0.010 A 
ATOM     93  C   UNL A   1      50.135  26.305  25.263  1.00  0.00     0.010 A 
ATOM     94  C   UNL A   1      51.829  25.683  27.411  1.00  0.00     0.020 A 
ATOM     95  C   UNL A   1      51.499  26.082  25.037  1.00  0.00     0.020 A 
ATOM     96  C   UNL A   1      52.342  25.810  26.118  1.00  0.00     0.054 A 
BRANCH  96  97
ATOM     97  S   UNL A   1      54.135  25.667  25.873  1.00  0.00     0.124 S 
ATOM     98  O   UNL A   1      54.221  24.760  24.733  1.00  0.00    -0.237 OA
ATOM     99  O   UNL A   1      54.534  27.049  25.612  1.00  0.00    -0.237 OA
ATOM    100  O   UNL A   1      54.613  25.119  27.141  1.00  0.00    -0.744 OA
ENDBRANCH  96  97
ENDBRANCH  70  91
ENDBRANCH  44  45
ENDBRANCH  37  39
ENDBRANCH  36  37
ENDBRANCH  35  36
ENDBRANCH  34  35
ENDBRANCH  33  34
ENDBRANCH  32  33
ENDBRANCH   1  32
TORSDOF 23
ENDMDL
MODEL 3
REMARK VINA RESULT:     -10.2      1.949      7.843
REMARK SMILES O=C(Cc1c(C(=O)c2cc3c(cn2)CCCC3)[nH]c2cc(Cl)ccc12)OCCOCCOCCOC(=O)c1ccc(-c2c3nc(c(-c4ccc(S(=O)(=O)[O-])cc4)c4ccc([nH]4)c(-c4ccc(S(=O)(=O)[O-])cc4)c4nc(c(-c5ccc(S(=O)(=O)[O-])cc5)c5ccc2[nH]5)C=C4)C=C3)cc1
REMARK SMILES IDX 30 1 29 2 28 3 27 4 26 5 2 6 1 7 3 8 4 9 5 10 25 11 18 12
REMARK SMILES IDX 19 13 24 14 20 16 23 17 21 18 22 19 6 20 7 21 8 22 9 23
REMARK SMILES IDX 13 24 10 25 12 26 11 27 17 28 14 29 16 30 15 31 31 32 32 33
REMARK SMILES IDX 33 34 34 35 35 36 36 37 37 38 38 39 39 40 97 41 40 42 96 43
REMARK SMILES IDX 41 44 42 45 43 46 90 47 44 48 95 49 89 50 91 51 45 52 94 53
REMARK SMILES IDX 88 54 87 55 46 57 76 58 57 59 75 60 58 61 61 62 74 63 92 64
REMARK SMILES IDX 59 65 60 66 73 68 93 69 62 70 47 71 48 72 56 73 49 74 55 75
REMARK SMILES IDX 50 76 51 77 52 78 53 79 54 80 77 81 78 82 86 83 79 84 85 85
REMARK SMILES IDX 80 86 81 87 82 88 83 89 84 90 63 91 64 92 72 93 65 94 71 95
REMARK SMILES IDX 66 96 67 97 68 98 69 99 70 100
REMARK H PARENT 18 15 91 56 61 67
REMARK Flexibility Score: inf
ROOT
ATOM      1  C   UNL A   1      30.670  24.632  26.121  1.00  0.00     0.188 C 
ENDROOT
BRANCH   1   2
ATOM      2  O   UNL A   1      31.330  24.107  27.262  1.00  0.00    -0.376 OA
BRANCH   2   3
ATOM      3  C   UNL A   1      32.656  23.598  27.164  1.00  0.00     0.202 C 
BRANCH   3   4
ATOM      4  C   UNL A   1      32.899  22.129  26.779  1.00  0.00     0.261 C 
BRANCH   4   5
ATOM      5  O   UNL A   1      32.112  21.540  25.741  1.00  0.00    -0.463 OA
BRANCH   5   6
ATOM      6  C   UNL A   1      32.618  20.688  24.819  1.00  0.00     0.310 C 
ATOM      7  O   UNL A   1      32.778  19.506  25.119  1.00  0.00    -0.252 OA
BRANCH   6   8
ATOM      8  C   UNL A   1      33.119  21.270  23.517  1.00  0.00     0.161 C 
BRANCH   8   9
ATOM      9  C   UNL A   1      34.291  22.146  23.717  1.00  0.00     0.000 A 
ATOM     10  C   UNL A   1      34.398  23.433  23.227  1.00  0.00     0.093 A 
ATOM     11  C   UNL A   1      35.535  21.812  24.334  1.00  0.00     0.004 A 
ATOM     12  N   UNL A   1      35.485  23.985  23.876  1.00  0.00    -0.351 N 
ATOM     13  C   UNL A   1      36.226  23.005  24.503  1.00  0.00     0.048 A 
ATOM     14  C   UNL A   1      36.146  20.620  24.775  1.00  0.00     0.012 A 
ATOM     15  H   UNL A   1      35.701  24.945  23.890  1.00  0.00     0.167 HD
ATOM     16  C   UNL A   1      37.448  23.075  25.188  1.00  0.00     0.047 A 
ATOM     17  C   UNL A   1      37.372  20.659  25.442  1.00  0.00     0.021 A 
ATOM     18  C   UNL A   1      37.995  21.878  25.665  1.00  0.00     0.043 A 
ATOM     19  Cl  UNL A   1      39.483  21.905  26.533  1.00  0.00    -0.084 Cl
BRANCH  10  20
ATOM     20  C   UNL A   1      33.517  24.062  22.240  1.00  0.00     0.227 C 
ATOM     21  O   UNL A   1      33.181  23.546  21.176  1.00  0.00    -0.285 OA
BRANCH  20  22
ATOM     22  C   UNL A   1      33.084  25.437  22.495  1.00  0.00     0.113 A 
ATOM     23  C   UNL A   1      31.761  25.621  22.848  1.00  0.00     0.036 A 
ATOM     24  N   UNL A   1      33.966  26.416  22.185  1.00  0.00    -0.252 NA
ATOM     25  C   UNL A   1      31.261  26.906  22.771  1.00  0.00    -0.041 A 
ATOM     26  C   UNL A   1      33.478  27.667  22.234  1.00  0.00     0.115 A 
ATOM     27  C   UNL A   1      32.140  27.961  22.471  1.00  0.00    -0.026 A 
ATOM     28  C   UNL A   1      29.776  27.101  22.888  1.00  0.00     0.036 C 
ATOM     29  C   UNL A   1      31.668  29.386  22.468  1.00  0.00     0.037 C 
ATOM     30  C   UNL A   1      29.414  28.556  23.120  1.00  0.00     0.005 C 
ATOM     31  C   UNL A   1      30.172  29.483  22.185  1.00  0.00     0.005 C 
ENDBRANCH  20  22
ENDBRANCH  10  20
ENDBRANCH   8   9
ENDBRANCH   6   8
ENDBRANCH   5   6
ENDBRANCH   4   5
ENDBRANCH   3   4
ENDBRANCH   2   3
ENDBRANCH   1   2
BRANCH   1  32
ATOM     32  C   UNL A   1      30.237  26.089  26.184  1.00  0.00     0.188 C 
BRANCH  32  33
ATOM     33  O   UNL A   1      31.158  26.864  26.927  1.00  0.00    -0.376 OA
BRANCH  33  34
ATOM     34  C   UNL A   1      31.915  27.788  26.156  1.00  0.00     0.202 C 
BRANCH  34  35
ATOM     35  C   UNL A   1      31.779  29.320  26.355  1.00  0.00     0.261 C 
BRANCH  35  36
ATOM     36  O   UNL A   1      32.861  30.202  26.013  1.00  0.00    -0.460 OA
BRANCH  36  37
ATOM     37  C   UNL A   1      33.177  31.222  26.841  1.00  0.00     0.338 C 
ATOM     38  O   UNL A   1      32.494  32.212  27.058  1.00  0.00    -0.246 OA
BRANCH  37  39
ATOM     39  C   UNL A   1      34.460  30.902  27.525  1.00  0.00     0.060 A 
ATOM     40  C   UNL A   1      35.343  31.922  27.894  1.00  0.00     0.016 A 
ATOM     41  C   UNL A   1      34.785  29.571  27.819  1.00  0.00     0.016 A 
ATOM     42  C   UNL A   1      36.550  31.605  28.538  1.00  0.00     0.010 A 
ATOM     43  C   UNL A   1      36.012  29.255  28.420  1.00  0.00     0.010 A 
ATOM     44  C   UNL A   1      36.904  30.268  28.800  1.00  0.00    -0.014 A 
BRANCH  44  45
ATOM     45  C   UNL A   1      38.090  29.947  29.642  1.00  0.00     0.031 A 
ATOM     46  C   UNL A   1      38.312  30.548  31.003  1.00  0.00     0.074 A 
ATOM     47  C   UNL A   1      39.005  29.092  29.139  1.00  0.00     0.049 A 
ATOM     48  N   UNL A   1      39.262  30.277  31.863  1.00  0.00    -0.248 NA
ATOM     49  C   UNL A   1      37.364  31.572  31.464  1.00  0.00     0.031 C 
ATOM     50  C   UNL A   1      38.909  28.460  27.822  1.00  0.00     0.029 A 
ATOM     51  N   UNL A   1      40.179  28.602  29.659  1.00  0.00    -0.354 N 
ATOM     52  C   UNL A   1      39.020  31.076  32.974  1.00  0.00     0.074 A 
ATOM     53  C   UNL A   1      37.848  31.868  32.668  1.00  0.00     0.031 C 
ATOM     54  C   UNL A   1      39.963  27.651  27.647  1.00  0.00     0.029 A 
ATOM     55  C   UNL A   1      40.831  27.726  28.822  1.00  0.00     0.049 A 
ATOM     56  H   UNL A   1      40.521  28.855  30.548  1.00  0.00     0.167 HD
ATOM     57  C   UNL A   1      39.711  31.124  34.138  1.00  0.00     0.031 A 
ATOM     58  C   UNL A   1      41.989  27.047  28.967  1.00  0.00     0.031 A 
ATOM     59  C   UNL A   1      40.881  30.320  34.425  1.00  0.00     0.049 A 
ATOM     60  C   UNL A   1      42.757  27.150  30.253  1.00  0.00     0.074 A 
ATOM     61  C   UNL A   1      41.571  30.230  35.623  1.00  0.00     0.029 A 
ATOM     62  N   UNL A   1      41.540  29.493  33.529  1.00  0.00    -0.354 N 
ATOM     63  N   UNL A   1      42.454  27.832  31.329  1.00  0.00    -0.248 NA
ATOM     64  C   UNL A   1      44.008  26.385  30.358  1.00  0.00     0.031 C 
ATOM     65  C   UNL A   1      42.707  29.450  35.421  1.00  0.00     0.029 A 
ATOM     66  C   UNL A   1      42.663  28.945  34.133  1.00  0.00     0.049 A 
ATOM     67  H   UNL A   1      41.255  29.321  32.603  1.00  0.00     0.167 HD
ATOM     68  C   UNL A   1      43.463  27.566  32.246  1.00  0.00     0.074 A 
ATOM     69  C   UNL A   1      44.384  26.652  31.606  1.00  0.00     0.031 C 
ATOM     70  C   UNL A   1      43.597  28.040  33.508  1.00  0.00     0.031 A 
BRANCH  57  71
ATOM     71  C   UNL A   1      39.237  32.003  35.277  1.00  0.00    -0.014 A 
ATOM     72  C   UNL A   1      39.951  33.183  35.582  1.00  0.00     0.010 A 
ATOM     73  C   UNL A   1      38.365  31.467  36.240  1.00  0.00     0.010 A 
ATOM     74  C   UNL A   1      39.918  33.720  36.875  1.00  0.00     0.020 A 
ATOM     75  C   UNL A   1      38.312  32.017  37.525  1.00  0.00     0.020 A 
ATOM     76  C   UNL A   1      39.143  33.093  37.853  1.00  0.00     0.054 A 
BRANCH  76  77
ATOM     77  S   UNL A   1      39.254  33.605  39.598  1.00  0.00     0.124 S 
ATOM     78  O   UNL A   1      39.893  32.452  40.219  1.00  0.00    -0.237 OA
ATOM     79  O   UNL A   1      40.062  34.822  39.554  1.00  0.00    -0.237 OA
ATOM     80  O   UNL A   1      37.850  33.811  39.951  1.00  0.00    -0.744 OA
ENDBRANCH  76  77
ENDBRANCH  57  71
BRANCH  58  81
ATOM     81  C   UNL A   1      42.428  26.159  27.855  1.00  0.00    -0.014 A 
ATOM     82  C   UNL A   1      42.266  24.764  27.959  1.00  0.00     0.010 A 
ATOM     83  C   UNL A   1      43.156  26.685  26.775  1.00  0.00     0.010 A 
ATOM     84  C   UNL A   1      42.910  23.908  27.063  1.00  0.00     0.020 A 
ATOM     85  C   UNL A   1      43.775  25.831  25.856  1.00  0.00     0.020 A 
ATOM     86  C   UNL A   1      43.684  24.449  26.034  1.00  0.00     0.054 A 
BRANCH  86  87
ATOM     87  S   UNL A   1      44.633  23.318  24.978  1.00  0.00     0.124 S 
ATOM     88  O   UNL A   1      43.608  22.846  24.050  1.00  0.00    -0.237 OA
ATOM     89  O   UNL A   1      45.646  24.196  24.403  1.00  0.00    -0.237 OA
ATOM     90  O   UNL A   1      45.136  22.315  25.913  1.00  0.00    -0.744 OA
ENDBRANCH  86  87
ENDBRANCH  58  81
BRANCH  70  91
ATOM     91  C   UNL A   1      44.789  27.619  34.333  1.00  0.00    -0.014 A 
ATOM     92  C   UNL A   1      44.684  26.504  35.190  1.00  0.00     0.010 A 
ATOM     93  C   UNL A   1      45.923  28.445  34.426  1.00  0.00     0.010 A 
ATOM     94  C   UNL A   1      45.649  26.269  36.174  1.00  0.00     0.020 A 
ATOM     95  C   UNL A   1      46.908  28.191  35.388  1.00  0.00     0.020 A 
ATOM     96  C   UNL A   1      46.745  27.128  36.279  1.00  0.00     0.054 A 
BRANCH  96  97
ATOM     97  S   UNL A   1      47.930  26.870  37.630  1.00  0.00     0.124 S 
ATOM     98  O   UNL A   1      49.208  26.871  36.926  1.00  0.00    -0.237 OA
ATOM     99  O   UNL A   1      47.684  28.022  38.495  1.00  0.00    -0.237 OA
ATOM    100  O   UNL A   1      47.533  25.582  38.195  1.00  0.00    -0.744 OA
ENDBRANCH  96  97
ENDBRANCH  70  91
ENDBRANCH  44  45
ENDBRANCH  37  39
ENDBRANCH  36  37
ENDBRANCH  35  36
ENDBRANCH  34  35
ENDBRANCH  33  34
ENDBRANCH  32  33
ENDBRANCH   1  32
TORSDOF 23
ENDMDL
