MODEL 1
REMARK VINA RESULT:     -10.2      0.000      0.000
REMARK SMILES O=C(Cc1cccn1-c1ccccc1F)OCCOCCOCCOC(=O)c1ccc(-c2c3nc(c(-c4ccc(S(=O)(=O)[O-])cc4)c4ccc([nH]4)c(-c4ccc(S(=O)(=O)[O-])cc4)c4nc(c(-c5ccc(S(=O)(=O)[O-])cc5)c5ccc2[nH]5)C=C4)C=C3)cc1
REMARK SMILES IDX 21 1 20 2 19 3 18 4 17 5 16 6 2 7 1 8 3 9 4 10 5 11 8 12
REMARK SMILES IDX 6 13 7 14 9 15 10 16 14 17 11 18 13 19 15 20 12 21 22 22
REMARK SMILES IDX 23 23 24 24 25 25 26 26 27 27 28 28 29 29 87 30 30 31 86 32
REMARK SMILES IDX 31 33 32 34 33 35 80 36 34 37 85 38 79 39 81 40 35 41 84 42
REMARK SMILES IDX 78 43 77 44 36 46 66 47 47 48 65 49 48 50 51 51 64 52 82 53
REMARK SMILES IDX 49 54 50 55 63 57 83 58 52 59 37 60 38 61 46 62 39 63 45 64
REMARK SMILES IDX 40 65 41 66 42 67 43 68 44 69 67 70 68 71 76 72 69 73 75 74
REMARK SMILES IDX 70 75 71 76 72 77 73 78 74 79 53 80 54 81 62 82 55 83 61 84
REMARK SMILES IDX 56 85 57 86 58 87 59 88 60 89
REMARK H PARENT 81 45 51 56
REMARK Flexibility Score: inf
ROOT
ATOM      1  C   UNL A   1      33.731  28.532  26.499  1.00  0.00     0.188 C 
ENDROOT
BRANCH   1   2
ATOM      2  C   UNL A   1      32.919  27.413  25.815  1.00  0.00     0.188 C 
BRANCH   2   3
ATOM      3  O   UNL A   1      32.116  26.609  26.658  1.00  0.00    -0.376 OA
BRANCH   3   4
ATOM      4  C   UNL A   1      31.159  25.737  26.078  1.00  0.00     0.202 C 
BRANCH   4   5
ATOM      5  C   UNL A   1      31.223  24.262  26.475  1.00  0.00     0.261 C 
BRANCH   5   6
ATOM      6  O   UNL A   1      32.536  23.670  26.471  1.00  0.00    -0.463 OA
BRANCH   6   7
ATOM      7  C   UNL A   1      32.769  22.473  27.058  1.00  0.00     0.311 C 
ATOM      8  O   UNL A   1      32.722  22.349  28.278  1.00  0.00    -0.252 OA
BRANCH   7   9
ATOM      9  C   UNL A   1      33.289  21.389  26.148  1.00  0.00     0.177 C 
BRANCH   9  10
ATOM     10  C   UNL A   1      33.431  21.821  24.722  1.00  0.00     0.034 A 
ATOM     11  C   UNL A   1      32.451  21.943  23.748  1.00  0.00     0.024 A 
ATOM     12  N   UNL A   1      34.609  22.359  24.204  1.00  0.00    -0.318 N 
ATOM     13  C   UNL A   1      33.005  22.631  22.651  1.00  0.00     0.020 A 
ATOM     14  C   UNL A   1      34.313  22.904  22.969  1.00  0.00     0.091 A 
BRANCH  12  15
ATOM     15  C   UNL A   1      35.873  22.463  24.842  1.00  0.00     0.081 A 
ATOM     16  C   UNL A   1      36.749  21.370  24.820  1.00  0.00     0.030 A 
ATOM     17  C   UNL A   1      36.267  23.640  25.482  1.00  0.00     0.147 A 
ATOM     18  C   UNL A   1      38.030  21.496  25.365  1.00  0.00     0.002 A 
ATOM     19  C   UNL A   1      37.545  23.767  26.018  1.00  0.00     0.041 A 
ATOM     20  F   UNL A   1      35.409  24.654  25.665  1.00  0.00    -0.205 F 
ATOM     21  C   UNL A   1      38.434  22.698  25.948  1.00  0.00     0.003 A 
ENDBRANCH  12  15
ENDBRANCH   9  10
ENDBRANCH   7   9
ENDBRANCH   6   7
ENDBRANCH   5   6
ENDBRANCH   4   5
ENDBRANCH   3   4
ENDBRANCH   2   3
ENDBRANCH   1   2
BRANCH   1  22
ATOM     22  O   UNL A   1      33.495  29.919  26.280  1.00  0.00    -0.376 OA
BRANCH  22  23
ATOM     23  C   UNL A   1      33.257  30.832  27.335  1.00  0.00     0.202 C 
BRANCH  23  24
ATOM     24  C   UNL A   1      34.446  31.445  28.061  1.00  0.00     0.261 C 
BRANCH  24  25
ATOM     25  O   UNL A   1      35.344  30.495  28.617  1.00  0.00    -0.460 OA
BRANCH  25  26
ATOM     26  C   UNL A   1      36.623  30.899  28.582  1.00  0.00     0.338 C 
ATOM     27  O   UNL A   1      37.044  32.051  28.449  1.00  0.00    -0.246 OA
BRANCH  26  28
ATOM     28  C   UNL A   1      37.514  29.752  28.553  1.00  0.00     0.060 A 
ATOM     29  C   UNL A   1      37.493  28.907  29.668  1.00  0.00     0.016 A 
ATOM     30  C   UNL A   1      38.579  29.774  27.643  1.00  0.00     0.016 A 
ATOM     31  C   UNL A   1      38.634  28.205  29.977  1.00  0.00     0.010 A 
ATOM     32  C   UNL A   1      39.736  29.111  27.982  1.00  0.00     0.010 A 
ATOM     33  C   UNL A   1      39.767  28.379  29.174  1.00  0.00    -0.014 A 
BRANCH  33  34
ATOM     34  C   UNL A   1      41.011  27.728  29.584  1.00  0.00     0.031 A 
ATOM     35  C   UNL A   1      41.256  26.457  28.795  1.00  0.00     0.074 A 
ATOM     36  C   UNL A   1      41.686  28.323  30.611  1.00  0.00     0.049 A 
ATOM     37  N   UNL A   1      41.895  25.391  29.152  1.00  0.00    -0.248 NA
ATOM     38  C   UNL A   1      40.616  26.294  27.460  1.00  0.00     0.031 C 
ATOM     39  C   UNL A   1      41.262  29.572  31.286  1.00  0.00     0.029 A 
ATOM     40  N   UNL A   1      42.839  28.017  31.301  1.00  0.00    -0.354 N 
ATOM     41  C   UNL A   1      41.898  24.526  28.044  1.00  0.00     0.074 A 
ATOM     42  C   UNL A   1      40.994  25.074  27.081  1.00  0.00     0.031 C 
ATOM     43  C   UNL A   1      42.088  29.871  32.310  1.00  0.00     0.029 A 
ATOM     44  C   UNL A   1      43.140  28.876  32.386  1.00  0.00     0.049 A 
ATOM     45  H   UNL A   1      43.413  27.255  31.057  1.00  0.00     0.167 HD
ATOM     46  C   UNL A   1      42.772  23.492  27.915  1.00  0.00     0.031 A 
ATOM     47  C   UNL A   1      44.145  28.776  33.307  1.00  0.00     0.031 A 
ATOM     48  C   UNL A   1      43.594  23.379  29.073  1.00  0.00     0.049 A 
ATOM     49  C   UNL A   1      44.991  27.646  32.879  1.00  0.00     0.074 A 
ATOM     50  C   UNL A   1      43.353  22.991  30.366  1.00  0.00     0.029 A 
ATOM     51  N   UNL A   1      44.795  24.049  29.026  1.00  0.00    -0.354 N 
ATOM     52  N   UNL A   1      45.777  27.643  31.846  1.00  0.00    -0.248 NA
ATOM     53  C   UNL A   1      44.913  26.384  33.628  1.00  0.00     0.031 C 
ATOM     54  C   UNL A   1      44.201  23.818  31.135  1.00  0.00     0.029 A 
ATOM     55  C   UNL A   1      45.009  24.574  30.277  1.00  0.00     0.049 A 
ATOM     56  H   UNL A   1      45.387  24.136  28.245  1.00  0.00     0.167 HD
ATOM     57  C   UNL A   1      45.968  26.303  31.618  1.00  0.00     0.074 A 
ATOM     58  C   UNL A   1      45.705  25.630  32.871  1.00  0.00     0.031 C 
ATOM     59  C   UNL A   1      45.769  25.801  30.372  1.00  0.00     0.031 A 
BRANCH  46  60
ATOM     60  C   UNL A   1      43.177  22.734  26.687  1.00  0.00    -0.014 A 
ATOM     61  C   UNL A   1      42.500  21.517  26.441  1.00  0.00     0.010 A 
ATOM     62  C   UNL A   1      44.383  22.966  26.008  1.00  0.00     0.010 A 
ATOM     63  C   UNL A   1      43.081  20.506  25.678  1.00  0.00     0.020 A 
ATOM     64  C   UNL A   1      44.952  21.970  25.203  1.00  0.00     0.020 A 
ATOM     65  C   UNL A   1      44.326  20.727  25.099  1.00  0.00     0.054 A 
BRANCH  65  66
ATOM     66  S   UNL A   1      45.162  19.337  24.292  1.00  0.00     0.124 S 
ATOM     67  O   UNL A   1      44.805  18.223  25.165  1.00  0.00    -0.237 OA
ATOM     68  O   UNL A   1      44.543  19.318  22.968  1.00  0.00    -0.237 OA
ATOM     69  O   UNL A   1      46.568  19.731  24.306  1.00  0.00    -0.744 OA
ENDBRANCH  65  66
ENDBRANCH  46  60
BRANCH  47  70
ATOM     70  C   UNL A   1      44.498  29.413  34.630  1.00  0.00    -0.014 A 
ATOM     71  C   UNL A   1      45.769  29.447  35.219  1.00  0.00     0.010 A 
ATOM     72  C   UNL A   1      43.493  30.172  35.291  1.00  0.00     0.010 A 
ATOM     73  C   UNL A   1      46.047  30.304  36.309  1.00  0.00     0.020 A 
ATOM     74  C   UNL A   1      43.764  31.061  36.333  1.00  0.00     0.020 A 
ATOM     75  C   UNL A   1      45.055  31.144  36.822  1.00  0.00     0.054 A 
BRANCH  75  76
ATOM     76  S   UNL A   1      45.449  32.448  38.022  1.00  0.00     0.124 S 
ATOM     77  O   UNL A   1      45.377  31.735  39.293  1.00  0.00    -0.237 OA
ATOM     78  O   UNL A   1      46.784  32.880  37.614  1.00  0.00    -0.237 OA
ATOM     79  O   UNL A   1      44.394  33.435  37.797  1.00  0.00    -0.744 OA
ENDBRANCH  75  76
ENDBRANCH  47  70
BRANCH  59  80
ATOM     80  C   UNL A   1      45.953  26.799  29.236  1.00  0.00    -0.014 A 
ATOM     81  C   UNL A   1      47.244  27.225  28.876  1.00  0.00     0.010 A 
ATOM     82  C   UNL A   1      44.865  27.397  28.570  1.00  0.00     0.010 A 
ATOM     83  C   UNL A   1      47.440  28.215  27.899  1.00  0.00     0.020 A 
ATOM     84  C   UNL A   1      45.049  28.388  27.591  1.00  0.00     0.020 A 
ATOM     85  C   UNL A   1      46.340  28.795  27.263  1.00  0.00     0.054 A 
BRANCH  85  86
ATOM     86  S   UNL A   1      46.624  30.101  26.030  1.00  0.00     0.124 S 
ATOM     87  O   UNL A   1      45.475  30.984  26.224  1.00  0.00    -0.237 OA
ATOM     88  O   UNL A   1      47.910  30.654  26.443  1.00  0.00    -0.237 OA
ATOM     89  O   UNL A   1      46.637  29.385  24.756  1.00  0.00    -0.744 OA
ENDBRANCH  85  86
ENDBRANCH  59  80
ENDBRANCH  33  34
ENDBRANCH  26  28
ENDBRANCH  25  26
ENDBRANCH  24  25
ENDBRANCH  23  24
ENDBRANCH  22  23
ENDBRANCH   1  22
TORSDOF 22
ENDMDL
MODEL 2
REMARK VINA RESULT:     -10.0      3.670      8.575
REMARK SMILES O=C(Cc1cccn1-c1ccccc1F)OCCOCCOCCOC(=O)c1ccc(-c2c3nc(c(-c4ccc(S(=O)(=O)[O-])cc4)c4ccc([nH]4)c(-c4ccc(S(=O)(=O)[O-])cc4)c4nc(c(-c5ccc(S(=O)(=O)[O-])cc5)c5ccc2[nH]5)C=C4)C=C3)cc1
REMARK SMILES IDX 21 1 20 2 19 3 18 4 17 5 16 6 2 7 1 8 3 9 4 10 5 11 8 12
REMARK SMILES IDX 6 13 7 14 9 15 10 16 14 17 11 18 13 19 15 20 12 21 22 22
REMARK SMILES IDX 23 23 24 24 25 25 26 26 27 27 28 28 29 29 87 30 30 31 86 32
REMARK SMILES IDX 31 33 32 34 33 35 80 36 34 37 85 38 79 39 81 40 35 41 84 42
REMARK SMILES IDX 78 43 77 44 36 46 66 47 47 48 65 49 48 50 51 51 64 52 82 53
REMARK SMILES IDX 49 54 50 55 63 57 83 58 52 59 37 60 38 61 46 62 39 63 45 64
REMARK SMILES IDX 40 65 41 66 42 67 43 68 44 69 67 70 68 71 76 72 69 73 75 74
REMARK SMILES IDX 70 75 71 76 72 77 73 78 74 79 53 80 54 81 62 82 55 83 61 84
REMARK SMILES IDX 56 85 57 86 58 87 59 88 60 89
REMARK H PARENT 81 45 51 56
REMARK Flexibility Score: inf
ROOT
ATOM      1  C   UNL A   1      38.213  21.763  25.561  1.00  0.00     0.188 C 
ENDROOT
BRANCH   1   2
ATOM      2  C   UNL A   1      37.287  22.995  25.624  1.00  0.00     0.188 C 
BRANCH   2   3
ATOM      3  O   UNL A   1      36.665  23.381  24.413  1.00  0.00    -0.376 OA
BRANCH   3   4
ATOM      4  C   UNL A   1      35.318  23.003  24.174  1.00  0.00     0.202 C 
BRANCH   4   5
ATOM      5  C   UNL A   1      34.442  23.986  23.397  1.00  0.00     0.261 C 
BRANCH   5   6
ATOM      6  O   UNL A   1      34.407  25.331  23.910  1.00  0.00    -0.463 OA
BRANCH   6   7
ATOM      7  C   UNL A   1      33.586  26.265  23.375  1.00  0.00     0.311 C 
ATOM      8  O   UNL A   1      32.809  25.978  22.469  1.00  0.00    -0.252 OA
BRANCH   7   9
ATOM      9  C   UNL A   1      33.843  27.687  23.808  1.00  0.00     0.177 C 
BRANCH   9  10
ATOM     10  C   UNL A   1      33.408  27.974  25.211  1.00  0.00     0.034 A 
ATOM     11  C   UNL A   1      34.184  28.110  26.353  1.00  0.00     0.024 A 
ATOM     12  N   UNL A   1      32.102  28.336  25.543  1.00  0.00    -0.318 N 
ATOM     13  C   UNL A   1      33.372  28.636  27.376  1.00  0.00     0.020 A 
ATOM     14  C   UNL A   1      32.114  28.797  26.846  1.00  0.00     0.091 A 
BRANCH  12  15
ATOM     15  C   UNL A   1      30.964  28.364  24.696  1.00  0.00     0.081 A 
ATOM     16  C   UNL A   1      30.580  29.572  24.098  1.00  0.00     0.030 A 
ATOM     17  C   UNL A   1      30.225  27.209  24.436  1.00  0.00     0.147 A 
ATOM     18  C   UNL A   1      29.517  29.590  23.190  1.00  0.00     0.002 A 
ATOM     19  C   UNL A   1      29.172  27.226  23.526  1.00  0.00     0.041 A 
ATOM     20  F   UNL A   1      30.456  26.069  25.103  1.00  0.00    -0.205 F 
ATOM     21  C   UNL A   1      28.824  28.416  22.891  1.00  0.00     0.003 A 
ENDBRANCH  12  15
ENDBRANCH   9  10
ENDBRANCH   7   9
ENDBRANCH   6   7
ENDBRANCH   5   6
ENDBRANCH   4   5
ENDBRANCH   3   4
ENDBRANCH   2   3
ENDBRANCH   1   2
BRANCH   1  22
ATOM     22  O   UNL A   1      39.289  21.542  26.467  1.00  0.00    -0.376 OA
BRANCH  22  23
ATOM     23  C   UNL A   1      40.181  20.449  26.348  1.00  0.00     0.202 C 
BRANCH  23  24
ATOM     24  C   UNL A   1      41.660  20.727  26.127  1.00  0.00     0.261 C 
BRANCH  24  25
ATOM     25  O   UNL A   1      42.127  21.925  26.732  1.00  0.00    -0.460 OA
BRANCH  25  26
ATOM     26  C   UNL A   1      42.269  22.934  25.860  1.00  0.00     0.338 C 
ATOM     27  O   UNL A   1      42.937  22.943  24.823  1.00  0.00    -0.246 OA
BRANCH  26  28
ATOM     28  C   UNL A   1      41.648  24.141  26.379  1.00  0.00     0.060 A 
ATOM     29  C   UNL A   1      42.036  25.352  25.796  1.00  0.00     0.016 A 
ATOM     30  C   UNL A   1      41.032  24.072  27.635  1.00  0.00     0.016 A 
ATOM     31  C   UNL A   1      41.972  26.494  26.559  1.00  0.00     0.010 A 
ATOM     32  C   UNL A   1      41.017  25.205  28.415  1.00  0.00     0.010 A 
ATOM     33  C   UNL A   1      41.539  26.391  27.886  1.00  0.00    -0.014 A 
BRANCH  33  34
ATOM     34  C   UNL A   1      41.596  27.587  28.726  1.00  0.00     0.031 A 
ATOM     35  C   UNL A   1      42.805  27.562  29.641  1.00  0.00     0.074 A 
ATOM     36  C   UNL A   1      40.558  28.463  28.590  1.00  0.00     0.049 A 
ATOM     37  N   UNL A   1      42.951  28.105  30.806  1.00  0.00    -0.248 NA
ATOM     38  C   UNL A   1      43.984  26.734  29.267  1.00  0.00     0.031 C 
ATOM     39  C   UNL A   1      39.431  28.293  27.641  1.00  0.00     0.029 A 
ATOM     40  N   UNL A   1      40.222  29.651  29.202  1.00  0.00    -0.354 N 
ATOM     41  C   UNL A   1      44.273  27.852  31.211  1.00  0.00     0.074 A 
ATOM     42  C   UNL A   1      44.819  26.902  30.292  1.00  0.00     0.031 C 
ATOM     43  C   UNL A   1      38.524  29.280  27.790  1.00  0.00     0.029 A 
ATOM     44  C   UNL A   1      38.976  30.200  28.815  1.00  0.00     0.049 A 
ATOM     45  H   UNL A   1      40.807  30.087  29.863  1.00  0.00     0.167 HD
ATOM     46  C   UNL A   1      44.897  28.563  32.188  1.00  0.00     0.031 A 
ATOM     47  C   UNL A   1      38.331  31.299  29.310  1.00  0.00     0.031 A 
ATOM     48  C   UNL A   1      44.007  29.513  32.767  1.00  0.00     0.049 A 
ATOM     49  C   UNL A   1      39.259  31.932  30.265  1.00  0.00     0.074 A 
ATOM     50  C   UNL A   1      42.907  29.401  33.577  1.00  0.00     0.029 A 
ATOM     51  N   UNL A   1      44.024  30.771  32.209  1.00  0.00    -0.354 N 
ATOM     52  N   UNL A   1      40.347  32.565  29.950  1.00  0.00    -0.248 NA
ATOM     53  C   UNL A   1      38.990  31.797  31.703  1.00  0.00     0.031 C 
ATOM     54  C   UNL A   1      42.056  30.441  33.143  1.00  0.00     0.029 A 
ATOM     55  C   UNL A   1      42.724  31.215  32.187  1.00  0.00     0.049 A 
ATOM     56  H   UNL A   1      44.815  31.259  31.888  1.00  0.00     0.167 HD
ATOM     57  C   UNL A   1      41.053  32.554  31.128  1.00  0.00     0.074 A 
ATOM     58  C   UNL A   1      40.084  32.380  32.187  1.00  0.00     0.031 C 
ATOM     59  C   UNL A   1      42.343  32.129  31.132  1.00  0.00     0.031 A 
BRANCH  46  60
ATOM     60  C   UNL A   1      46.361  28.702  32.478  1.00  0.00    -0.014 A 
ATOM     61  C   UNL A   1      47.178  29.149  31.413  1.00  0.00     0.010 A 
ATOM     62  C   UNL A   1      46.985  28.089  33.574  1.00  0.00     0.010 A 
ATOM     63  C   UNL A   1      48.539  28.852  31.370  1.00  0.00     0.020 A 
ATOM     64  C   UNL A   1      48.362  27.827  33.558  1.00  0.00     0.020 A 
ATOM     65  C   UNL A   1      49.112  28.153  32.428  1.00  0.00     0.054 A 
BRANCH  65  66
ATOM     66  S   UNL A   1      50.825  27.590  32.262  1.00  0.00     0.124 S 
ATOM     67  O   UNL A   1      51.158  27.225  33.636  1.00  0.00    -0.237 OA
ATOM     68  O   UNL A   1      50.705  26.471  31.329  1.00  0.00    -0.237 OA
ATOM     69  O   UNL A   1      51.518  28.760  31.730  1.00  0.00    -0.744 OA
ENDBRANCH  65  66
ENDBRANCH  46  60
BRANCH  47  70
ATOM     70  C   UNL A   1      36.950  31.903  29.218  1.00  0.00    -0.014 A 
ATOM     71  C   UNL A   1      35.916  31.749  30.151  1.00  0.00     0.010 A 
ATOM     72  C   UNL A   1      36.697  32.828  28.166  1.00  0.00     0.010 A 
ATOM     73  C   UNL A   1      34.770  32.577  30.115  1.00  0.00     0.020 A 
ATOM     74  C   UNL A   1      35.597  33.687  28.148  1.00  0.00     0.020 A 
ATOM     75  C   UNL A   1      34.646  33.576  29.145  1.00  0.00     0.054 A 
BRANCH  75  76
ATOM     76  S   UNL A   1      33.336  34.828  29.242  1.00  0.00     0.124 S 
ATOM     77  O   UNL A   1      32.346  34.319  28.299  1.00  0.00    -0.237 OA
ATOM     78  O   UNL A   1      32.946  34.792  30.650  1.00  0.00    -0.237 OA
ATOM     79  O   UNL A   1      34.020  36.054  28.831  1.00  0.00    -0.744 OA
ENDBRANCH  75  76
ENDBRANCH  47  70
BRANCH  59  80
ATOM     80  C   UNL A   1      43.078  32.282  29.807  1.00  0.00    -0.014 A 
ATOM     81  C   UNL A   1      43.189  31.186  28.933  1.00  0.00     0.010 A 
ATOM     82  C   UNL A   1      43.745  33.469  29.445  1.00  0.00     0.010 A 
ATOM     83  C   UNL A   1      43.942  31.270  27.750  1.00  0.00     0.020 A 
ATOM     84  C   UNL A   1      44.501  33.565  28.264  1.00  0.00     0.020 A 
ATOM     85  C   UNL A   1      44.598  32.459  27.422  1.00  0.00     0.054 A 
BRANCH  85  86
ATOM     86  S   UNL A   1      45.597  32.525  25.904  1.00  0.00     0.124 S 
ATOM     87  O   UNL A   1      44.620  32.918  24.891  1.00  0.00    -0.237 OA
ATOM     88  O   UNL A   1      46.599  33.535  26.228  1.00  0.00    -0.237 OA
ATOM     89  O   UNL A   1      46.111  31.164  25.763  1.00  0.00    -0.744 OA
ENDBRANCH  85  86
ENDBRANCH  59  80
ENDBRANCH  33  34
ENDBRANCH  26  28
ENDBRANCH  25  26
ENDBRANCH  24  25
ENDBRANCH  23  24
ENDBRANCH  22  23
ENDBRANCH   1  22
TORSDOF 22
ENDMDL
MODEL 3
REMARK VINA RESULT:     -10.0      3.713      9.155
REMARK SMILES O=C(Cc1cccn1-c1ccccc1F)OCCOCCOCCOC(=O)c1ccc(-c2c3nc(c(-c4ccc(S(=O)(=O)[O-])cc4)c4ccc([nH]4)c(-c4ccc(S(=O)(=O)[O-])cc4)c4nc(c(-c5ccc(S(=O)(=O)[O-])cc5)c5ccc2[nH]5)C=C4)C=C3)cc1
REMARK SMILES IDX 21 1 20 2 19 3 18 4 17 5 16 6 2 7 1 8 3 9 4 10 5 11 8 12
REMARK SMILES IDX 6 13 7 14 9 15 10 16 14 17 11 18 13 19 15 20 12 21 22 22
REMARK SMILES IDX 23 23 24 24 25 25 26 26 27 27 28 28 29 29 87 30 30 31 86 32
REMARK SMILES IDX 31 33 32 34 33 35 80 36 34 37 85 38 79 39 81 40 35 41 84 42
REMARK SMILES IDX 78 43 77 44 36 46 66 47 47 48 65 49 48 50 51 51 64 52 82 53
REMARK SMILES IDX 49 54 50 55 63 57 83 58 52 59 37 60 38 61 46 62 39 63 45 64
REMARK SMILES IDX 40 65 41 66 42 67 43 68 44 69 67 70 68 71 76 72 69 73 75 74
REMARK SMILES IDX 70 75 71 76 72 77 73 78 74 79 53 80 54 81 62 82 55 83 61 84
REMARK SMILES IDX 56 85 57 86 58 87 59 88 60 89
REMARK H PARENT 81 45 51 56
REMARK Flexibility Score: inf
ROOT
ATOM      1  C   UNL A   1      35.188  21.192  24.698  1.00  0.00     0.188 C 
ENDROOT
BRANCH   1   2
ATOM      2  C   UNL A   1      33.860  20.434  24.899  1.00  0.00     0.188 C 
BRANCH   2   3
ATOM      3  O   UNL A   1      32.689  21.075  24.427  1.00  0.00    -0.376 OA
BRANCH   3   4
ATOM      4  C   UNL A   1      32.675  21.615  23.116  1.00  0.00     0.202 C 
BRANCH   4   5
ATOM      5  C   UNL A   1      32.217  23.066  22.961  1.00  0.00     0.261 C 
BRANCH   5   6
ATOM      6  O   UNL A   1      33.072  23.910  22.167  1.00  0.00    -0.463 OA
BRANCH   6   7
ATOM      7  C   UNL A   1      32.762  25.208  21.939  1.00  0.00     0.311 C 
ATOM      8  O   UNL A   1      33.578  25.971  21.431  1.00  0.00    -0.252 OA
BRANCH   7   9
ATOM      9  C   UNL A   1      31.462  25.684  22.536  1.00  0.00     0.177 C 
BRANCH   9  10
ATOM     10  C   UNL A   1      31.622  26.846  23.467  1.00  0.00     0.034 A 
ATOM     11  C   UNL A   1      31.384  28.192  23.229  1.00  0.00     0.024 A 
ATOM     12  N   UNL A   1      31.878  26.698  24.831  1.00  0.00    -0.318 N 
ATOM     13  C   UNL A   1      31.414  28.868  24.463  1.00  0.00     0.020 A 
ATOM     14  C   UNL A   1      31.683  27.929  25.429  1.00  0.00     0.091 A 
BRANCH  12  15
ATOM     15  C   UNL A   1      32.163  25.501  25.538  1.00  0.00     0.081 A 
ATOM     16  C   UNL A   1      33.494  25.088  25.685  1.00  0.00     0.030 A 
ATOM     17  C   UNL A   1      31.145  24.732  26.103  1.00  0.00     0.147 A 
ATOM     18  C   UNL A   1      33.790  23.962  26.458  1.00  0.00     0.002 A 
ATOM     19  C   UNL A   1      31.440  23.615  26.878  1.00  0.00     0.041 A 
ATOM     20  F   UNL A   1      29.853  24.999  25.858  1.00  0.00    -0.205 F 
ATOM     21  C   UNL A   1      32.767  23.235  27.068  1.00  0.00     0.003 A 
ENDBRANCH  12  15
ENDBRANCH   9  10
ENDBRANCH   7   9
ENDBRANCH   6   7
ENDBRANCH   5   6
ENDBRANCH   4   5
ENDBRANCH   3   4
ENDBRANCH   2   3
ENDBRANCH   1   2
BRANCH   1  22
ATOM     22  O   UNL A   1      36.312  21.047  25.560  1.00  0.00    -0.376 OA
BRANCH  22  23
ATOM     23  C   UNL A   1      37.631  20.868  25.078  1.00  0.00     0.202 C 
BRANCH  23  24
ATOM     24  C   UNL A   1      38.769  21.622  25.751  1.00  0.00     0.261 C 
BRANCH  24  25
ATOM     25  O   UNL A   1      39.465  20.872  26.736  1.00  0.00    -0.460 OA
BRANCH  25  26
ATOM     26  C   UNL A   1      40.596  20.318  26.273  1.00  0.00     0.338 C 
ATOM     27  O   UNL A   1      40.737  19.198  25.777  1.00  0.00    -0.246 OA
BRANCH  26  28
ATOM     28  C   UNL A   1      41.736  21.164  26.585  1.00  0.00     0.060 A 
ATOM     29  C   UNL A   1      41.950  21.463  27.935  1.00  0.00     0.016 A 
ATOM     30  C   UNL A   1      42.292  21.922  25.547  1.00  0.00     0.016 A 
ATOM     31  C   UNL A   1      42.579  22.645  28.250  1.00  0.00     0.010 A 
ATOM     32  C   UNL A   1      42.874  23.128  25.863  1.00  0.00     0.010 A 
ATOM     33  C   UNL A   1      42.960  23.500  27.209  1.00  0.00    -0.014 A 
BRANCH  33  34
ATOM     34  C   UNL A   1      43.511  24.809  27.558  1.00  0.00     0.031 A 
ATOM     35  C   UNL A   1      42.412  25.811  27.850  1.00  0.00     0.074 A 
ATOM     36  C   UNL A   1      44.872  24.918  27.507  1.00  0.00     0.049 A 
ATOM     37  N   UNL A   1      42.425  27.096  27.699  1.00  0.00    -0.248 NA
ATOM     38  C   UNL A   1      41.070  25.320  28.269  1.00  0.00     0.031 C 
ATOM     39  C   UNL A   1      45.793  23.808  27.165  1.00  0.00     0.029 A 
ATOM     40  N   UNL A   1      45.757  25.953  27.717  1.00  0.00    -0.354 N 
ATOM     41  C   UNL A   1      41.192  27.575  28.173  1.00  0.00     0.074 A 
ATOM     42  C   UNL A   1      40.354  26.437  28.390  1.00  0.00     0.031 C 
ATOM     43  C   UNL A   1      47.071  24.239  27.123  1.00  0.00     0.029 A 
ATOM     44  C   UNL A   1      47.116  25.648  27.460  1.00  0.00     0.049 A 
ATOM     45  H   UNL A   1      45.465  26.842  28.023  1.00  0.00     0.167 HD
ATOM     46  C   UNL A   1      40.985  28.875  28.515  1.00  0.00     0.031 A 
ATOM     47  C   UNL A   1      48.200  26.479  27.481  1.00  0.00     0.031 A 
ATOM     48  C   UNL A   1      42.146  29.657  28.250  1.00  0.00     0.049 A 
ATOM     49  C   UNL A   1      47.718  27.781  27.976  1.00  0.00     0.074 A 
ATOM     50  C   UNL A   1      42.755  30.077  27.096  1.00  0.00     0.029 A 
ATOM     51  N   UNL A   1      43.027  29.800  29.298  1.00  0.00    -0.354 N 
ATOM     52  N   UNL A   1      47.353  28.034  29.195  1.00  0.00    -0.248 NA
ATOM     53  C   UNL A   1      47.569  28.887  27.020  1.00  0.00     0.031 C 
ATOM     54  C   UNL A   1      44.133  30.050  27.408  1.00  0.00     0.029 A 
ATOM     55  C   UNL A   1      44.292  29.743  28.765  1.00  0.00     0.049 A 
ATOM     56  H   UNL A   1      42.796  29.918  30.246  1.00  0.00     0.167 HD
ATOM     57  C   UNL A   1      46.593  29.169  29.052  1.00  0.00     0.074 A 
ATOM     58  C   UNL A   1      47.018  29.796  27.820  1.00  0.00     0.031 C 
ATOM     59  C   UNL A   1      45.351  29.217  29.599  1.00  0.00     0.031 A 
BRANCH  46  60
ATOM     60  C   UNL A   1      39.912  29.475  29.373  1.00  0.00    -0.014 A 
ATOM     61  C   UNL A   1      38.895  30.196  28.703  1.00  0.00     0.010 A 
ATOM     62  C   UNL A   1      40.055  29.668  30.755  1.00  0.00     0.010 A 
ATOM     63  C   UNL A   1      38.162  31.187  29.353  1.00  0.00     0.020 A 
ATOM     64  C   UNL A   1      39.290  30.632  31.424  1.00  0.00     0.020 A 
ATOM     65  C   UNL A   1      38.398  31.426  30.703  1.00  0.00     0.054 A 
BRANCH  65  66
ATOM     66  S   UNL A   1      37.595  32.853  31.479  1.00  0.00     0.124 S 
ATOM     67  O   UNL A   1      38.020  32.720  32.869  1.00  0.00    -0.237 OA
ATOM     68  O   UNL A   1      38.175  33.980  30.752  1.00  0.00    -0.237 OA
ATOM     69  O   UNL A   1      36.175  32.624  31.224  1.00  0.00    -0.744 OA
ENDBRANCH  65  66
ENDBRANCH  46  60
BRANCH  47  70
ATOM     70  C   UNL A   1      49.641  26.426  27.029  1.00  0.00    -0.014 A 
ATOM     71  C   UNL A   1      50.756  26.199  27.845  1.00  0.00     0.010 A 
ATOM     72  C   UNL A   1      49.900  26.472  25.630  1.00  0.00     0.010 A 
ATOM     73  C   UNL A   1      52.019  25.890  27.289  1.00  0.00     0.020 A 
ATOM     74  C   UNL A   1      51.127  26.118  25.066  1.00  0.00     0.020 A 
ATOM     75  C   UNL A   1      52.181  25.799  25.903  1.00  0.00     0.054 A 
BRANCH  75  76
ATOM     76  S   UNL A   1      53.703  25.133  25.172  1.00  0.00     0.124 S 
ATOM     77  O   UNL A   1      53.630  25.622  23.799  1.00  0.00    -0.237 OA
ATOM     78  O   UNL A   1      54.753  25.723  25.999  1.00  0.00    -0.237 OA
ATOM     79  O   UNL A   1      53.541  23.688  25.332  1.00  0.00    -0.744 OA
ENDBRANCH  75  76
ENDBRANCH  47  70
BRANCH  59  80
ATOM     80  C   UNL A   1      45.139  28.308  30.802  1.00  0.00    -0.014 A 
ATOM     81  C   UNL A   1      44.249  27.222  30.716  1.00  0.00     0.010 A 
ATOM     82  C   UNL A   1      45.736  28.557  32.053  1.00  0.00     0.010 A 
ATOM     83  C   UNL A   1      43.960  26.425  31.835  1.00  0.00     0.020 A 
ATOM     84  C   UNL A   1      45.455  27.767  33.180  1.00  0.00     0.020 A 
ATOM     85  C   UNL A   1      44.563  26.703  33.065  1.00  0.00     0.054 A 
BRANCH  85  86
ATOM     86  S   UNL A   1      44.139  25.677  34.505  1.00  0.00     0.124 S 
ATOM     87  O   UNL A   1      44.650  24.361  34.127  1.00  0.00    -0.237 OA
ATOM     88  O   UNL A   1      44.862  26.337  35.588  1.00  0.00    -0.237 OA
ATOM     89  O   UNL A   1      42.683  25.768  34.586  1.00  0.00    -0.744 OA
ENDBRANCH  85  86
ENDBRANCH  59  80
ENDBRANCH  33  34
ENDBRANCH  26  28
ENDBRANCH  25  26
ENDBRANCH  24  25
ENDBRANCH  23  24
ENDBRANCH  22  23
ENDBRANCH   1  22
TORSDOF 22
ENDMDL
