MODEL 1
REMARK VINA RESULT:     -10.7      0.000      0.000
REMARK SMILES Cc1cc2c(c(C)c1Br)C=C(C(=O)OCCOCCOCCOC(=O)c1ccc(-c3c4nc(c(-c5ccc(S(=O)(=O)[O-])cc5)c5ccc([nH]5)c(-c5ccc(S(=O)(=O)[O-])cc5)c5nc(c(-c6ccc(S(=O)(=O)[O-])cc6)c6ccc3[nH]6)C=C5)C=C4)cc1)[C@@H](C(F)(F)F)O2
REMARK SMILES IDX 19 1 18 2 17 3 16 4 15 5 14 6 12 7 13 8 11 9 1 10 2 11 3 12
REMARK SMILES IDX 8 13 4 14 6 15 9 16 5 17 91 18 7 19 10 20 86 21 87 22 88 23
REMARK SMILES IDX 89 24 90 25 20 26 21 27 22 28 23 29 24 30 25 31 26 32 27 33
REMARK SMILES IDX 85 34 28 35 84 36 29 37 30 38 31 39 78 40 32 41 83 42 77 43
REMARK SMILES IDX 79 44 33 45 82 46 76 47 75 48 34 50 64 51 45 52 63 53 46 54
REMARK SMILES IDX 49 55 62 56 80 57 47 58 48 59 61 61 81 62 50 63 35 64 36 65
REMARK SMILES IDX 44 66 37 67 43 68 38 69 39 70 40 71 41 72 42 73 65 74 66 75
REMARK SMILES IDX 74 76 67 77 73 78 68 79 69 80 70 81 71 82 72 83 51 84 52 85
REMARK SMILES IDX 60 86 53 87 59 88 54 89 55 90 56 91 57 92 58 93
REMARK H PARENT 79 49 49 60
REMARK Flexibility Score: inf
ROOT
ATOM      1  C   UNL A   1      37.667  22.650  25.622  1.00  0.00     0.188 C 
ENDROOT
BRANCH   1   2
ATOM      2  C   UNL A   1      36.156  22.560  25.321  1.00  0.00     0.188 C 
BRANCH   2   3
ATOM      3  O   UNL A   1      35.695  22.270  24.017  1.00  0.00    -0.376 OA
BRANCH   3   4
ATOM      4  C   UNL A   1      35.090  23.257  23.200  1.00  0.00     0.202 C 
BRANCH   4   5
ATOM      5  C   UNL A   1      33.595  23.279  22.868  1.00  0.00     0.261 C 
BRANCH   5   6
ATOM      6  O   UNL A   1      32.944  24.537  23.064  1.00  0.00    -0.460 OA
BRANCH   6   7
ATOM      7  C   UNL A   1      32.551  24.778  24.339  1.00  0.00     0.338 C 
ATOM      8  O   UNL A   1      32.541  23.984  25.265  1.00  0.00    -0.246 OA
BRANCH   7   9
ATOM      9  C   UNL A   1      32.227  26.207  24.489  1.00  0.00     0.087 C 
ATOM     10  C   UNL A   1      31.258  32.267  26.530  1.00  0.00     0.046 C 
ATOM     11  C   UNL A   1      31.836  30.928  26.160  1.00  0.00    -0.033 A 
ATOM     12  C   UNL A   1      31.131  30.129  25.252  1.00  0.00     0.051 A 
ATOM     13  C   UNL A   1      33.038  30.435  26.711  1.00  0.00     0.024 A 
ATOM     14  C   UNL A   1      31.562  28.842  24.944  1.00  0.00     0.128 A 
ATOM     15  C   UNL A   1      33.514  29.142  26.380  1.00  0.00    -0.026 A 
ATOM     16  Br  UNL A   1      33.989  31.542  27.949  1.00  0.00    -0.050 Br
ATOM     17  C   UNL A   1      32.724  28.326  25.527  1.00  0.00     0.021 A 
ATOM     18  O   UNL A   1      30.763  28.167  24.064  1.00  0.00    -0.475 OA
ATOM     19  C   UNL A   1      34.820  28.600  26.921  1.00  0.00     0.046 C 
ATOM     20  C   UNL A   1      33.041  26.921  25.278  1.00  0.00     0.027 C 
ATOM     21  C   UNL A   1      31.032  26.770  23.783  1.00  0.00     0.316 C 
BRANCH  21  22
ATOM     22  C   UNL A   1      29.749  25.970  24.056  1.00  0.00     0.430 C 
ATOM     23  F   UNL A   1      29.824  24.727  23.519  1.00  0.00    -0.167 F 
ATOM     24  F   UNL A   1      29.532  25.800  25.382  1.00  0.00    -0.167 F 
ATOM     25  F   UNL A   1      28.652  26.567  23.540  1.00  0.00    -0.167 F 
ENDBRANCH  21  22
ENDBRANCH   7   9
ENDBRANCH   6   7
ENDBRANCH   5   6
ENDBRANCH   4   5
ENDBRANCH   3   4
ENDBRANCH   2   3
ENDBRANCH   1   2
BRANCH   1  26
ATOM     26  O   UNL A   1      38.497  21.506  25.546  1.00  0.00    -0.376 OA
BRANCH  26  27
ATOM     27  C   UNL A   1      39.761  21.522  26.192  1.00  0.00     0.202 C 
BRANCH  27  28
ATOM     28  C   UNL A   1      40.125  22.628  27.188  1.00  0.00     0.261 C 
BRANCH  28  29
ATOM     29  O   UNL A   1      40.123  23.950  26.632  1.00  0.00    -0.460 OA
BRANCH  29  30
ATOM     30  C   UNL A   1      41.229  24.686  26.905  1.00  0.00     0.338 C 
ATOM     31  O   UNL A   1      42.336  24.568  26.408  1.00  0.00    -0.246 OA
BRANCH  30  32
ATOM     32  C   UNL A   1      40.859  25.817  27.774  1.00  0.00     0.060 A 
ATOM     33  C   UNL A   1      41.708  26.931  27.803  1.00  0.00     0.016 A 
ATOM     34  C   UNL A   1      39.724  25.763  28.585  1.00  0.00     0.016 A 
ATOM     35  C   UNL A   1      41.435  27.992  28.663  1.00  0.00     0.010 A 
ATOM     36  C   UNL A   1      39.469  26.816  29.469  1.00  0.00     0.010 A 
ATOM     37  C   UNL A   1      40.337  27.920  29.531  1.00  0.00    -0.014 A 
BRANCH  37  38
ATOM     38  C   UNL A   1      40.214  28.907  30.627  1.00  0.00     0.031 A 
ATOM     39  C   UNL A   1      41.122  28.768  31.819  1.00  0.00     0.074 A 
ATOM     40  C   UNL A   1      39.341  29.927  30.554  1.00  0.00     0.049 A 
ATOM     41  N   UNL A   1      41.186  29.500  32.899  1.00  0.00    -0.248 NA
ATOM     42  C   UNL A   1      42.093  27.660  31.781  1.00  0.00     0.031 C 
ATOM     43  C   UNL A   1      38.451  30.203  29.428  1.00  0.00     0.029 A 
ATOM     44  N   UNL A   1      39.064  30.924  31.456  1.00  0.00    -0.354 N 
ATOM     45  C   UNL A   1      42.207  28.951  33.666  1.00  0.00     0.074 A 
ATOM     46  C   UNL A   1      42.717  27.808  32.941  1.00  0.00     0.031 C 
ATOM     47  C   UNL A   1      37.720  31.297  29.710  1.00  0.00     0.029 A 
ATOM     48  C   UNL A   1      38.067  31.777  31.047  1.00  0.00     0.049 A 
ATOM     49  H   UNL A   1      39.534  31.018  32.316  1.00  0.00     0.167 HD
ATOM     50  C   UNL A   1      42.681  29.363  34.863  1.00  0.00     0.031 A 
ATOM     51  C   UNL A   1      37.491  32.814  31.688  1.00  0.00     0.031 A 
ATOM     52  C   UNL A   1      42.155  30.478  35.600  1.00  0.00     0.049 A 
ATOM     53  C   UNL A   1      37.960  33.184  33.071  1.00  0.00     0.074 A 
ATOM     54  C   UNL A   1      42.561  30.965  36.830  1.00  0.00     0.029 A 
ATOM     55  N   UNL A   1      41.101  31.275  35.182  1.00  0.00    -0.354 N 
ATOM     56  N   UNL A   1      38.931  32.659  33.781  1.00  0.00    -0.248 NA
ATOM     57  C   UNL A   1      37.257  34.288  33.742  1.00  0.00     0.031 C 
ATOM     58  C   UNL A   1      41.717  32.023  37.181  1.00  0.00     0.029 A 
ATOM     59  C   UNL A   1      40.824  32.232  36.142  1.00  0.00     0.049 A 
ATOM     60  H   UNL A   1      40.620  31.175  34.328  1.00  0.00     0.167 HD
ATOM     61  C   UNL A   1      38.968  33.382  34.970  1.00  0.00     0.074 A 
ATOM     62  C   UNL A   1      37.932  34.390  34.879  1.00  0.00     0.031 C 
ATOM     63  C   UNL A   1      39.786  33.227  36.040  1.00  0.00     0.031 A 
BRANCH  50  64
ATOM     64  C   UNL A   1      43.815  28.581  35.467  1.00  0.00    -0.014 A 
ATOM     65  C   UNL A   1      45.149  28.982  35.277  1.00  0.00     0.010 A 
ATOM     66  C   UNL A   1      43.540  27.463  36.275  1.00  0.00     0.010 A 
ATOM     67  C   UNL A   1      46.192  28.264  35.869  1.00  0.00     0.020 A 
ATOM     68  C   UNL A   1      44.579  26.757  36.886  1.00  0.00     0.020 A 
ATOM     69  C   UNL A   1      45.899  27.157  36.670  1.00  0.00     0.054 A 
BRANCH  69  70
ATOM     70  S   UNL A   1      47.272  26.268  37.456  1.00  0.00     0.124 S 
ATOM     71  O   UNL A   1      46.831  24.880  37.353  1.00  0.00    -0.237 OA
ATOM     72  O   UNL A   1      48.409  26.630  36.614  1.00  0.00    -0.237 OA
ATOM     73  O   UNL A   1      47.306  26.810  38.812  1.00  0.00    -0.744 OA
ENDBRANCH  69  70
ENDBRANCH  50  64
BRANCH  51  74
ATOM     74  C   UNL A   1      36.384  33.569  31.039  1.00  0.00    -0.014 A 
ATOM     75  C   UNL A   1      36.526  34.065  29.731  1.00  0.00     0.010 A 
ATOM     76  C   UNL A   1      35.183  33.805  31.733  1.00  0.00     0.010 A 
ATOM     77  C   UNL A   1      35.492  34.794  29.134  1.00  0.00     0.020 A 
ATOM     78  C   UNL A   1      34.138  34.511  31.131  1.00  0.00     0.020 A 
ATOM     79  C   UNL A   1      34.302  35.010  29.838  1.00  0.00     0.054 A 
BRANCH  79  80
ATOM     80  S   UNL A   1      32.958  35.918  29.025  1.00  0.00     0.124 S 
ATOM     81  O   UNL A   1      33.684  36.974  28.326  1.00  0.00    -0.237 OA
ATOM     82  O   UNL A   1      32.357  34.893  28.175  1.00  0.00    -0.237 OA
ATOM     83  O   UNL A   1      32.123  36.362  30.138  1.00  0.00    -0.744 OA
ENDBRANCH  79  80
ENDBRANCH  51  74
BRANCH  63  84
ATOM     84  C   UNL A   1      39.619  34.176  37.197  1.00  0.00    -0.014 A 
ATOM     85  C   UNL A   1      38.932  33.787  38.361  1.00  0.00     0.010 A 
ATOM     86  C   UNL A   1      40.234  35.441  37.154  1.00  0.00     0.010 A 
ATOM     87  C   UNL A   1      38.847  34.655  39.453  1.00  0.00     0.020 A 
ATOM     88  C   UNL A   1      40.173  36.301  38.254  1.00  0.00     0.020 A 
ATOM     89  C   UNL A   1      39.471  35.905  39.394  1.00  0.00     0.054 A 
BRANCH  89  90
ATOM     90  S   UNL A   1      39.397  36.986  40.850  1.00  0.00     0.124 S 
ATOM     91  O   UNL A   1      38.594  36.193  41.777  1.00  0.00    -0.237 OA
ATOM     92  O   UNL A   1      40.806  37.135  41.209  1.00  0.00    -0.237 OA
ATOM     93  O   UNL A   1      38.756  38.199  40.351  1.00  0.00    -0.744 OA
ENDBRANCH  89  90
ENDBRANCH  63  84
ENDBRANCH  37  38
ENDBRANCH  30  32
ENDBRANCH  29  30
ENDBRANCH  28  29
ENDBRANCH  27  28
ENDBRANCH  26  27
ENDBRANCH   1  26
TORSDOF 21
ENDMDL
MODEL 2
REMARK VINA RESULT:     -10.6      6.639     12.343
REMARK SMILES Cc1cc2c(c(C)c1Br)C=C(C(=O)OCCOCCOCCOC(=O)c1ccc(-c3c4nc(c(-c5ccc(S(=O)(=O)[O-])cc5)c5ccc([nH]5)c(-c5ccc(S(=O)(=O)[O-])cc5)c5nc(c(-c6ccc(S(=O)(=O)[O-])cc6)c6ccc3[nH]6)C=C5)C=C4)cc1)[C@@H](C(F)(F)F)O2
REMARK SMILES IDX 19 1 18 2 17 3 16 4 15 5 14 6 12 7 13 8 11 9 1 10 2 11 3 12
REMARK SMILES IDX 8 13 4 14 6 15 9 16 5 17 91 18 7 19 10 20 86 21 87 22 88 23
REMARK SMILES IDX 89 24 90 25 20 26 21 27 22 28 23 29 24 30 25 31 26 32 27 33
REMARK SMILES IDX 85 34 28 35 84 36 29 37 30 38 31 39 78 40 32 41 83 42 77 43
REMARK SMILES IDX 79 44 33 45 82 46 76 47 75 48 34 50 64 51 45 52 63 53 46 54
REMARK SMILES IDX 49 55 62 56 80 57 47 58 48 59 61 61 81 62 50 63 35 64 36 65
REMARK SMILES IDX 44 66 37 67 43 68 38 69 39 70 40 71 41 72 42 73 65 74 66 75
REMARK SMILES IDX 74 76 67 77 73 78 68 79 69 80 70 81 71 82 72 83 51 84 52 85
REMARK SMILES IDX 60 86 53 87 59 88 54 89 55 90 56 91 57 92 58 93
REMARK H PARENT 79 49 49 60
REMARK Flexibility Score: inf
ROOT
ATOM      1  C   UNL A   1      32.257  28.701  26.683  1.00  0.00     0.188 C 
ENDROOT
BRANCH   1   2
ATOM      2  C   UNL A   1      31.922  28.740  25.176  1.00  0.00     0.188 C 
BRANCH   2   3
ATOM      3  O   UNL A   1      32.861  29.228  24.240  1.00  0.00    -0.376 OA
BRANCH   3   4
ATOM      4  C   UNL A   1      33.446  28.389  23.261  1.00  0.00     0.202 C 
BRANCH   4   5
ATOM      5  C   UNL A   1      33.164  26.886  23.156  1.00  0.00     0.261 C 
BRANCH   5   6
ATOM      6  O   UNL A   1      34.081  26.042  23.857  1.00  0.00    -0.460 OA
BRANCH   6   7
ATOM      7  C   UNL A   1      33.516  25.253  24.802  1.00  0.00     0.338 C 
ATOM      8  O   UNL A   1      32.470  25.457  25.396  1.00  0.00    -0.246 OA
BRANCH   7   9
ATOM      9  C   UNL A   1      34.306  24.019  24.946  1.00  0.00     0.087 C 
ATOM     10  C   UNL A   1      38.885  19.455  25.154  1.00  0.00     0.046 C 
ATOM     11  C   UNL A   1      38.042  20.687  25.355  1.00  0.00    -0.033 A 
ATOM     12  C   UNL A   1      36.690  20.630  24.997  1.00  0.00     0.051 A 
ATOM     13  C   UNL A   1      38.565  21.898  25.856  1.00  0.00     0.024 A 
ATOM     14  C   UNL A   1      35.882  21.762  25.066  1.00  0.00     0.128 A 
ATOM     15  C   UNL A   1      37.749  23.051  25.971  1.00  0.00    -0.026 A 
ATOM     16  Br  UNL A   1      40.416  21.955  26.341  1.00  0.00    -0.050 Br
ATOM     17  C   UNL A   1      36.407  22.980  25.513  1.00  0.00     0.021 A 
ATOM     18  O   UNL A   1      34.591  21.569  24.662  1.00  0.00    -0.475 OA
ATOM     19  C   UNL A   1      38.268  24.352  26.544  1.00  0.00     0.046 C 
ATOM     20  C   UNL A   1      35.550  24.161  25.422  1.00  0.00     0.027 C 
ATOM     21  C   UNL A   1      33.699  22.706  24.553  1.00  0.00     0.316 C 
BRANCH  21  22
ATOM     22  C   UNL A   1      33.116  22.724  23.132  1.00  0.00     0.430 C 
ATOM     23  F   UNL A   1      32.685  21.491  22.764  1.00  0.00    -0.167 F 
ATOM     24  F   UNL A   1      32.044  23.546  23.036  1.00  0.00    -0.167 F 
ATOM     25  F   UNL A   1      34.019  23.127  22.212  1.00  0.00    -0.167 F 
ENDBRANCH  21  22
ENDBRANCH   7   9
ENDBRANCH   6   7
ENDBRANCH   5   6
ENDBRANCH   4   5
ENDBRANCH   3   4
ENDBRANCH   2   3
ENDBRANCH   1   2
BRANCH   1  26
ATOM     26  O   UNL A   1      32.772  29.839  27.347  1.00  0.00    -0.376 OA
BRANCH  26  27
ATOM     27  C   UNL A   1      34.130  30.204  27.147  1.00  0.00     0.202 C 
BRANCH  27  28
ATOM     28  C   UNL A   1      34.956  30.824  28.278  1.00  0.00     0.261 C 
BRANCH  28  29
ATOM     29  O   UNL A   1      36.368  30.589  28.178  1.00  0.00    -0.460 OA
BRANCH  29  30
ATOM     30  C   UNL A   1      36.891  29.828  29.172  1.00  0.00     0.338 C 
ATOM     31  O   UNL A   1      36.329  29.447  30.184  1.00  0.00    -0.246 OA
BRANCH  30  32
ATOM     32  C   UNL A   1      38.222  29.342  28.764  1.00  0.00     0.060 A 
ATOM     33  C   UNL A   1      39.080  28.859  29.761  1.00  0.00     0.016 A 
ATOM     34  C   UNL A   1      38.637  29.407  27.433  1.00  0.00     0.016 A 
ATOM     35  C   UNL A   1      40.372  28.456  29.430  1.00  0.00     0.010 A 
ATOM     36  C   UNL A   1      39.944  29.030  27.109  1.00  0.00     0.010 A 
ATOM     37  C   UNL A   1      40.823  28.580  28.110  1.00  0.00    -0.014 A 
BRANCH  37  38
ATOM     38  C   UNL A   1      42.267  28.420  27.819  1.00  0.00     0.031 A 
ATOM     39  C   UNL A   1      43.182  29.585  28.085  1.00  0.00     0.074 A 
ATOM     40  C   UNL A   1      42.763  27.257  27.362  1.00  0.00     0.049 A 
ATOM     41  N   UNL A   1      44.470  29.682  27.896  1.00  0.00    -0.248 NA
ATOM     42  C   UNL A   1      42.559  30.795  28.650  1.00  0.00     0.031 C 
ATOM     43  C   UNL A   1      41.989  26.040  27.122  1.00  0.00     0.029 A 
ATOM     44  N   UNL A   1      44.047  26.914  27.020  1.00  0.00    -0.354 N 
ATOM     45  C   UNL A   1      44.818  30.958  28.325  1.00  0.00     0.074 A 
ATOM     46  C   UNL A   1      43.600  31.608  28.759  1.00  0.00     0.031 C 
ATOM     47  C   UNL A   1      42.816  25.083  26.663  1.00  0.00     0.029 A 
ATOM     48  C   UNL A   1      44.168  25.629  26.548  1.00  0.00     0.049 A 
ATOM     49  H   UNL A   1      44.810  27.531  27.103  1.00  0.00     0.167 HD
ATOM     50  C   UNL A   1      46.040  31.536  28.359  1.00  0.00     0.031 A 
ATOM     51  C   UNL A   1      45.243  24.977  26.062  1.00  0.00     0.031 A 
ATOM     52  C   UNL A   1      47.245  30.904  27.899  1.00  0.00     0.049 A 
ATOM     53  C   UNL A   1      46.574  25.682  26.005  1.00  0.00     0.074 A 
ATOM     54  C   UNL A   1      48.531  31.415  27.881  1.00  0.00     0.029 A 
ATOM     55  N   UNL A   1      47.314  29.627  27.366  1.00  0.00    -0.354 N 
ATOM     56  N   UNL A   1      46.888  26.887  26.419  1.00  0.00    -0.248 NA
ATOM     57  C   UNL A   1      47.698  24.939  25.414  1.00  0.00     0.031 C 
ATOM     58  C   UNL A   1      49.369  30.467  27.287  1.00  0.00     0.029 A 
ATOM     59  C   UNL A   1      48.614  29.343  26.989  1.00  0.00     0.049 A 
ATOM     60  H   UNL A   1      46.550  29.012  27.269  1.00  0.00     0.167 HD
ATOM     61  C   UNL A   1      48.248  27.037  26.160  1.00  0.00     0.074 A 
ATOM     62  C   UNL A   1      48.699  25.796  25.565  1.00  0.00     0.031 C 
ATOM     63  C   UNL A   1      49.049  28.104  26.394  1.00  0.00     0.031 A 
BRANCH  50  64
ATOM     64  C   UNL A   1      46.129  32.940  28.890  1.00  0.00    -0.014 A 
ATOM     65  C   UNL A   1      45.289  33.953  28.392  1.00  0.00     0.010 A 
ATOM     66  C   UNL A   1      47.024  33.238  29.932  1.00  0.00     0.010 A 
ATOM     67  C   UNL A   1      45.361  35.247  28.916  1.00  0.00     0.020 A 
ATOM     68  C   UNL A   1      47.082  34.525  30.472  1.00  0.00     0.020 A 
ATOM     69  C   UNL A   1      46.256  35.524  29.953  1.00  0.00     0.054 A 
BRANCH  69  70
ATOM     70  S   UNL A   1      46.298  37.204  30.637  1.00  0.00     0.124 S 
ATOM     71  O   UNL A   1      45.132  37.201  31.515  1.00  0.00    -0.237 OA
ATOM     72  O   UNL A   1      47.593  37.240  31.311  1.00  0.00    -0.237 OA
ATOM     73  O   UNL A   1      46.188  38.061  29.459  1.00  0.00    -0.744 OA
ENDBRANCH  69  70
ENDBRANCH  50  64
BRANCH  51  74
ATOM     74  C   UNL A   1      45.107  23.580  25.566  1.00  0.00    -0.014 A 
ATOM     75  C   UNL A   1      45.459  22.492  26.383  1.00  0.00     0.010 A 
ATOM     76  C   UNL A   1      44.632  23.331  24.265  1.00  0.00     0.010 A 
ATOM     77  C   UNL A   1      45.351  21.182  25.905  1.00  0.00     0.020 A 
ATOM     78  C   UNL A   1      44.499  22.024  23.791  1.00  0.00     0.020 A 
ATOM     79  C   UNL A   1      44.868  20.957  24.611  1.00  0.00     0.054 A 
BRANCH  79  80
ATOM     80  S   UNL A   1      44.693  19.246  24.030  1.00  0.00     0.124 S 
ATOM     81  O   UNL A   1      44.632  19.422  22.582  1.00  0.00    -0.237 OA
ATOM     82  O   UNL A   1      45.908  18.616  24.541  1.00  0.00    -0.237 OA
ATOM     83  O   UNL A   1      43.454  18.796  24.660  1.00  0.00    -0.744 OA
ENDBRANCH  79  80
ENDBRANCH  51  74
BRANCH  63  84
ATOM     84  C   UNL A   1      50.506  27.984  26.030  1.00  0.00    -0.014 A 
ATOM     85  C   UNL A   1      51.437  27.440  26.932  1.00  0.00     0.010 A 
ATOM     86  C   UNL A   1      50.931  28.340  24.737  1.00  0.00     0.010 A 
ATOM     87  C   UNL A   1      52.771  27.271  26.553  1.00  0.00     0.020 A 
ATOM     88  C   UNL A   1      52.259  28.149  24.345  1.00  0.00     0.020 A 
ATOM     89  C   UNL A   1      53.173  27.623  25.261  1.00  0.00     0.054 A 
BRANCH  89  90
ATOM     90  S   UNL A   1      54.898  27.335  24.775  1.00  0.00     0.124 S 
ATOM     91  O   UNL A   1      55.439  26.669  25.956  1.00  0.00    -0.237 OA
ATOM     92  O   UNL A   1      54.760  26.495  23.588  1.00  0.00    -0.237 OA
ATOM     93  O   UNL A   1      55.417  28.677  24.524  1.00  0.00    -0.744 OA
ENDBRANCH  89  90
ENDBRANCH  63  84
ENDBRANCH  37  38
ENDBRANCH  30  32
ENDBRANCH  29  30
ENDBRANCH  28  29
ENDBRANCH  27  28
ENDBRANCH  26  27
ENDBRANCH   1  26
TORSDOF 21
ENDMDL
MODEL 3
REMARK VINA RESULT:     -10.3      6.182     10.825
REMARK SMILES Cc1cc2c(c(C)c1Br)C=C(C(=O)OCCOCCOCCOC(=O)c1ccc(-c3c4nc(c(-c5ccc(S(=O)(=O)[O-])cc5)c5ccc([nH]5)c(-c5ccc(S(=O)(=O)[O-])cc5)c5nc(c(-c6ccc(S(=O)(=O)[O-])cc6)c6ccc3[nH]6)C=C5)C=C4)cc1)[C@@H](C(F)(F)F)O2
REMARK SMILES IDX 19 1 18 2 17 3 16 4 15 5 14 6 12 7 13 8 11 9 1 10 2 11 3 12
REMARK SMILES IDX 8 13 4 14 6 15 9 16 5 17 91 18 7 19 10 20 86 21 87 22 88 23
REMARK SMILES IDX 89 24 90 25 20 26 21 27 22 28 23 29 24 30 25 31 26 32 27 33
REMARK SMILES IDX 85 34 28 35 84 36 29 37 30 38 31 39 78 40 32 41 83 42 77 43
REMARK SMILES IDX 79 44 33 45 82 46 76 47 75 48 34 50 64 51 45 52 63 53 46 54
REMARK SMILES IDX 49 55 62 56 80 57 47 58 48 59 61 61 81 62 50 63 35 64 36 65
REMARK SMILES IDX 44 66 37 67 43 68 38 69 39 70 40 71 41 72 42 73 65 74 66 75
REMARK SMILES IDX 74 76 67 77 73 78 68 79 69 80 70 81 71 82 72 83 51 84 52 85
REMARK SMILES IDX 60 86 53 87 59 88 54 89 55 90 56 91 57 92 58 93
REMARK H PARENT 79 49 49 60
REMARK Flexibility Score: inf
ROOT
ATOM      1  C   UNL A   1      38.397  23.235  26.433  1.00  0.00     0.188 C 
ENDROOT
BRANCH   1   2
ATOM      2  C   UNL A   1      37.666  23.418  25.086  1.00  0.00     0.188 C 
BRANCH   2   3
ATOM      3  O   UNL A   1      36.364  22.902  24.895  1.00  0.00    -0.376 OA
BRANCH   3   4
ATOM      4  C   UNL A   1      36.143  21.589  24.414  1.00  0.00     0.202 C 
BRANCH   4   5
ATOM      5  C   UNL A   1      34.842  20.812  24.643  1.00  0.00     0.261 C 
BRANCH   5   6
ATOM      6  O   UNL A   1      33.679  21.375  24.031  1.00  0.00    -0.460 OA
BRANCH   6   7
ATOM      7  C   UNL A   1      32.548  21.281  24.771  1.00  0.00     0.338 C 
ATOM      8  O   UNL A   1      31.944  20.261  25.059  1.00  0.00    -0.246 OA
BRANCH   7   9
ATOM      9  C   UNL A   1      32.192  22.611  25.292  1.00  0.00     0.087 C 
ATOM     10  C   UNL A   1      31.498  28.927  26.500  1.00  0.00     0.046 C 
ATOM     11  C   UNL A   1      31.522  27.554  25.884  1.00  0.00    -0.033 A 
ATOM     12  C   UNL A   1      31.576  26.445  26.737  1.00  0.00     0.051 A 
ATOM     13  C   UNL A   1      31.523  27.341  24.489  1.00  0.00     0.024 A 
ATOM     14  C   UNL A   1      31.699  25.156  26.229  1.00  0.00     0.128 A 
ATOM     15  C   UNL A   1      31.608  26.033  23.952  1.00  0.00    -0.026 A 
ATOM     16  Br  UNL A   1      31.446  28.869  23.339  1.00  0.00    -0.050 Br
ATOM     17  C   UNL A   1      31.754  24.940  24.848  1.00  0.00     0.021 A 
ATOM     18  O   UNL A   1      31.768  24.172  27.176  1.00  0.00    -0.475 OA
ATOM     19  C   UNL A   1      31.569  25.768  22.463  1.00  0.00     0.046 C 
ATOM     20  C   UNL A   1      32.032  23.582  24.384  1.00  0.00     0.027 C 
ATOM     21  C   UNL A   1      32.042  22.808  26.770  1.00  0.00     0.316 C 
BRANCH  21  22
ATOM     22  C   UNL A   1      33.260  22.308  27.561  1.00  0.00     0.430 C 
ATOM     23  F   UNL A   1      33.409  20.966  27.436  1.00  0.00    -0.167 F 
ATOM     24  F   UNL A   1      34.414  22.862  27.117  1.00  0.00    -0.167 F 
ATOM     25  F   UNL A   1      33.162  22.581  28.881  1.00  0.00    -0.167 F 
ENDBRANCH  21  22
ENDBRANCH   7   9
ENDBRANCH   6   7
ENDBRANCH   5   6
ENDBRANCH   4   5
ENDBRANCH   3   4
ENDBRANCH   2   3
ENDBRANCH   1   2
BRANCH   1  26
ATOM     26  O   UNL A   1      39.212  22.104  26.675  1.00  0.00    -0.376 OA
BRANCH  26  27
ATOM     27  C   UNL A   1      39.185  21.020  25.758  1.00  0.00     0.202 C 
BRANCH  27  28
ATOM     28  C   UNL A   1      39.849  19.682  26.098  1.00  0.00     0.261 C 
BRANCH  28  29
ATOM     29  O   UNL A   1      41.078  19.436  25.400  1.00  0.00    -0.460 OA
BRANCH  29  30
ATOM     30  C   UNL A   1      42.196  19.530  26.162  1.00  0.00     0.338 C 
ATOM     31  O   UNL A   1      42.966  18.632  26.456  1.00  0.00    -0.246 OA
BRANCH  30  32
ATOM     32  C   UNL A   1      42.477  20.949  26.442  1.00  0.00     0.060 A 
ATOM     33  C   UNL A   1      42.676  21.809  25.354  1.00  0.00     0.016 A 
ATOM     34  C   UNL A   1      42.593  21.417  27.752  1.00  0.00     0.016 A 
ATOM     35  C   UNL A   1      43.014  23.142  25.573  1.00  0.00     0.010 A 
ATOM     36  C   UNL A   1      42.962  22.748  27.969  1.00  0.00     0.010 A 
ATOM     37  C   UNL A   1      43.200  23.607  26.882  1.00  0.00    -0.014 A 
BRANCH  37  38
ATOM     38  C   UNL A   1      43.827  24.931  27.098  1.00  0.00     0.031 A 
ATOM     39  C   UNL A   1      42.956  26.065  27.566  1.00  0.00     0.074 A 
ATOM     40  C   UNL A   1      45.146  25.116  26.918  1.00  0.00     0.049 A 
ATOM     41  N   UNL A   1      43.278  27.308  27.808  1.00  0.00    -0.248 NA
ATOM     42  C   UNL A   1      41.536  25.751  27.802  1.00  0.00     0.031 C 
ATOM     43  C   UNL A   1      46.103  24.083  26.525  1.00  0.00     0.029 A 
ATOM     44  N   UNL A   1      45.908  26.251  27.046  1.00  0.00    -0.354 N 
ATOM     45  C   UNL A   1      42.107  27.924  28.232  1.00  0.00     0.074 A 
ATOM     46  C   UNL A   1      41.061  26.926  28.190  1.00  0.00     0.031 C 
ATOM     47  C   UNL A   1      47.327  24.635  26.437  1.00  0.00     0.029 A 
ATOM     48  C   UNL A   1      47.234  26.064  26.736  1.00  0.00     0.049 A 
ATOM     49  H   UNL A   1      45.539  27.118  27.332  1.00  0.00     0.167 HD
ATOM     50  C   UNL A   1      41.919  29.204  28.627  1.00  0.00     0.031 A 
ATOM     51  C   UNL A   1      48.249  26.949  26.684  1.00  0.00     0.031 A 
ATOM     52  C   UNL A   1      42.950  30.205  28.640  1.00  0.00     0.049 A 
ATOM     53  C   UNL A   1      47.990  28.395  27.019  1.00  0.00     0.074 A 
ATOM     54  C   UNL A   1      42.852  31.534  29.011  1.00  0.00     0.029 A 
ATOM     55  N   UNL A   1      44.263  29.991  28.254  1.00  0.00    -0.354 N 
ATOM     56  N   UNL A   1      46.878  28.962  27.424  1.00  0.00    -0.248 NA
ATOM     57  C   UNL A   1      49.123  29.324  26.890  1.00  0.00     0.031 C 
ATOM     58  C   UNL A   1      44.095  32.138  28.799  1.00  0.00     0.029 A 
ATOM     59  C   UNL A   1      44.981  31.170  28.351  1.00  0.00     0.049 A 
ATOM     60  H   UNL A   1      44.632  29.128  27.956  1.00  0.00     0.167 HD
ATOM     61  C   UNL A   1      47.185  30.306  27.619  1.00  0.00     0.074 A 
ATOM     62  C   UNL A   1      48.588  30.466  27.300  1.00  0.00     0.031 C 
ATOM     63  C   UNL A   1      46.377  31.316  28.027  1.00  0.00     0.031 A 
BRANCH  50  64
ATOM     64  C   UNL A   1      40.533  29.602  29.053  1.00  0.00    -0.014 A 
ATOM     65  C   UNL A   1      40.261  29.951  30.388  1.00  0.00     0.010 A 
ATOM     66  C   UNL A   1      39.503  29.678  28.098  1.00  0.00     0.010 A 
ATOM     67  C   UNL A   1      38.976  30.349  30.764  1.00  0.00     0.020 A 
ATOM     68  C   UNL A   1      38.223  30.097  28.467  1.00  0.00     0.020 A 
ATOM     69  C   UNL A   1      37.965  30.420  29.801  1.00  0.00     0.054 A 
BRANCH  69  70
ATOM     70  S   UNL A   1      36.316  30.976  30.313  1.00  0.00     0.124 S 
ATOM     71  O   UNL A   1      36.037  30.093  31.442  1.00  0.00    -0.237 OA
ATOM     72  O   UNL A   1      36.545  32.378  30.654  1.00  0.00    -0.237 OA
ATOM     73  O   UNL A   1      35.491  30.752  29.129  1.00  0.00    -0.744 OA
ENDBRANCH  69  70
ENDBRANCH  50  64
BRANCH  51  74
ATOM     74  C   UNL A   1      49.608  26.501  26.274  1.00  0.00    -0.014 A 
ATOM     75  C   UNL A   1      50.427  25.787  27.167  1.00  0.00     0.010 A 
ATOM     76  C   UNL A   1      50.097  26.796  24.988  1.00  0.00     0.010 A 
ATOM     77  C   UNL A   1      51.712  25.388  26.785  1.00  0.00     0.020 A 
ATOM     78  C   UNL A   1      51.370  26.378  24.593  1.00  0.00     0.020 A 
ATOM     79  C   UNL A   1      52.174  25.684  25.499  1.00  0.00     0.054 A 
BRANCH  79  80
ATOM     80  S   UNL A   1      53.827  25.115  25.012  1.00  0.00     0.124 S 
ATOM     81  O   UNL A   1      53.977  25.712  23.689  1.00  0.00    -0.237 OA
ATOM     82  O   UNL A   1      54.674  25.677  26.061  1.00  0.00    -0.237 OA
ATOM     83  O   UNL A   1      53.707  23.659  25.032  1.00  0.00    -0.744 OA
ENDBRANCH  79  80
ENDBRANCH  51  74
BRANCH  63  84
ATOM     84  C   UNL A   1      46.984  32.686  28.175  1.00  0.00    -0.014 A 
ATOM     85  C   UNL A   1      47.043  33.575  27.088  1.00  0.00     0.010 A 
ATOM     86  C   UNL A   1      47.421  33.120  29.441  1.00  0.00     0.010 A 
ATOM     87  C   UNL A   1      47.545  34.868  27.260  1.00  0.00     0.020 A 
ATOM     88  C   UNL A   1      47.900  34.420  29.623  1.00  0.00     0.020 A 
ATOM     89  C   UNL A   1      47.967  35.284  28.527  1.00  0.00     0.054 A 
BRANCH  89  90
ATOM     90  S   UNL A   1      48.556  36.988  28.735  1.00  0.00     0.124 S 
ATOM     91  O   UNL A   1      47.404  37.764  28.285  1.00  0.00    -0.237 OA
ATOM     92  O   UNL A   1      48.839  37.055  30.167  1.00  0.00    -0.237 OA
ATOM     93  O   UNL A   1      49.731  37.057  27.871  1.00  0.00    -0.744 OA
ENDBRANCH  89  90
ENDBRANCH  63  84
ENDBRANCH  37  38
ENDBRANCH  30  32
ENDBRANCH  29  30
ENDBRANCH  28  29
ENDBRANCH  27  28
ENDBRANCH  26  27
ENDBRANCH   1  26
TORSDOF 21
ENDMDL
