MODEL 1
REMARK VINA RESULT:      -9.6      0.000      0.000
REMARK SMILES Cc1ccc(Nc2c(F)cccc2I)c(CC(=O)OCCOCCOCCOC(=O)c2ccc(-c3c4nc(c(-c5ccc(S(=O)(=O)[O-])cc5)c5ccc([nH]5)c(-c5ccc(S(=O)(=O)[O-])cc5)c5nc(c(-c6ccc(S(=O)(=O)[O-])cc6)c6ccc3[nH]6)C=C5)C=C4)cc2)c1
REMARK SMILES IDX 23 1 22 2 21 3 20 4 19 5 17 6 18 7 16 8 15 9 1 10 2 11 3 12
REMARK SMILES IDX 91 13 4 14 5 15 6 16 7 18 8 19 13 20 9 21 10 22 12 23 14 24
REMARK SMILES IDX 11 25 24 26 25 27 26 28 27 29 28 30 29 31 30 32 31 33 32 34
REMARK SMILES IDX 90 35 33 36 89 37 34 38 35 39 36 40 83 41 37 42 88 43 82 44
REMARK SMILES IDX 84 45 38 46 87 47 81 48 80 49 39 51 69 52 50 53 68 54 51 55
REMARK SMILES IDX 54 56 67 57 85 58 52 59 53 60 66 62 86 63 55 64 40 65 41 66
REMARK SMILES IDX 49 67 42 68 48 69 43 70 44 71 45 72 46 73 47 74 70 75 71 76
REMARK SMILES IDX 79 77 72 78 78 79 73 80 74 81 75 82 76 83 77 84 56 85 57 86
REMARK SMILES IDX 65 87 58 88 64 89 59 90 60 91 61 92 62 93 63 94
REMARK H PARENT 6 17 84 50 54 61
REMARK Flexibility Score: inf
ROOT
ATOM      1  C   UNL A   1      48.206  28.276  32.637  1.00  0.00     0.188 C 
ENDROOT
BRANCH   1   2
ATOM      2  O   UNL A   1      48.170  28.939  31.408  1.00  0.00    -0.376 OA
BRANCH   2   3
ATOM      3  C   UNL A   1      47.278  28.494  30.412  1.00  0.00     0.202 C 
BRANCH   3   4
ATOM      4  C   UNL A   1      46.272  29.222  29.358  1.00  0.00     0.261 C 
BRANCH   4   5
ATOM      5  O   UNL A   1      45.490  28.951  27.715  1.00  0.00    -0.463 OA
BRANCH   5   6
ATOM      6  C   UNL A   1      45.753  28.678  26.102  1.00  0.00     0.310 C 
ATOM      7  O   UNL A   1      46.441  29.238  25.234  1.00  0.00    -0.252 OA
BRANCH   6   8
ATOM      8  C   UNL A   1      45.329  27.383  25.683  1.00  0.00     0.160 C 
BRANCH   8   9
ATOM      9  C   UNL A   1      46.429  26.518  26.183  1.00  0.00    -0.013 A 
ATOM     10  C   UNL A   1      44.722  23.506  27.845  1.00  0.00     0.044 C 
ATOM     11  C   UNL A   1      45.588  24.306  26.930  1.00  0.00    -0.051 A 
ATOM     12  C   UNL A   1      46.226  23.791  25.828  1.00  0.00     0.005 A 
ATOM     13  C   UNL A   1      45.699  25.664  27.111  1.00  0.00     0.009 A 
ATOM     14  C   UNL A   1      47.007  24.640  24.987  1.00  0.00     0.026 A 
ATOM     15  C   UNL A   1      47.443  26.177  25.229  1.00  0.00     0.042 A 
BRANCH  15  16
ATOM     16  N   UNL A   1      49.264  26.919  24.735  1.00  0.00    -0.352 N 
ATOM     17  H   UNL A   1      49.844  27.066  25.517  1.00  0.00     0.167 HD
BRANCH  16  18
ATOM     18  C   UNL A   1      50.072  27.379  23.143  1.00  0.00     0.088 A 
ATOM     19  C   UNL A   1      49.246  27.712  21.855  1.00  0.00     0.147 A 
ATOM     20  C   UNL A   1      51.436  27.153  22.774  1.00  0.00     0.040 A 
ATOM     21  F   UNL A   1      47.897  27.666  21.740  1.00  0.00    -0.205 F 
ATOM     22  C   UNL A   1      49.720  27.905  20.556  1.00  0.00     0.041 A 
ATOM     23  C   UNL A   1      51.829  27.286  21.361  1.00  0.00     0.017 A 
ATOM     24  I   UNL A   1      53.233  26.551  23.634  1.00  0.00    -0.042 I 
ATOM     25  C   UNL A   1      51.022  27.655  20.291  1.00  0.00     0.004 A 
ENDBRANCH  16  18
ENDBRANCH  15  16
ENDBRANCH   8   9
ENDBRANCH   6   8
ENDBRANCH   5   6
ENDBRANCH   4   5
ENDBRANCH   3   4
ENDBRANCH   2   3
ENDBRANCH   1   2
BRANCH   1  26
ATOM     26  C   UNL A   1      46.991  27.454  32.999  1.00  0.00     0.188 C 
BRANCH  26  27
ATOM     27  O   UNL A   1      47.089  26.063  32.822  1.00  0.00    -0.376 OA
BRANCH  27  28
ATOM     28  C   UNL A   1      48.034  25.449  33.687  1.00  0.00     0.202 C 
BRANCH  28  29
ATOM     29  C   UNL A   1      47.551  24.736  35.026  1.00  0.00     0.261 C 
BRANCH  29  30
ATOM     30  O   UNL A   1      46.105  24.811  35.385  1.00  0.00    -0.460 OA
BRANCH  30  31
ATOM     31  C   UNL A   1      45.179  23.724  35.383  1.00  0.00     0.338 C 
ATOM     32  O   UNL A   1      45.105  23.041  36.388  1.00  0.00    -0.246 OA
BRANCH  31  33
ATOM     33  C   UNL A   1      44.254  23.612  33.917  1.00  0.00     0.060 A 
ATOM     34  C   UNL A   1      44.539  23.709  31.974  1.00  0.00     0.016 A 
ATOM     35  C   UNL A   1      43.422  25.067  34.573  1.00  0.00     0.016 A 
ATOM     36  C   UNL A   1      44.182  25.336  31.072  1.00  0.00     0.010 A 
ATOM     37  C   UNL A   1      43.255  26.527  33.645  1.00  0.00     0.010 A 
ATOM     38  C   UNL A   1      43.569  26.840  31.908  1.00  0.00    -0.014 A 
BRANCH  38  39
ATOM     39  C   UNL A   1      42.900  28.534  31.344  1.00  0.00     0.031 A 
ATOM     40  C   UNL A   1      42.834  30.164  32.387  1.00  0.00     0.074 A 
ATOM     41  C   UNL A   1      42.716  28.840  30.040  1.00  0.00     0.049 A 
ATOM     42  N   UNL A   1      41.783  30.844  32.819  1.00  0.00    -0.248 NA
ATOM     43  C   UNL A   1      44.003  30.733  33.506  1.00  0.00     0.031 C 
ATOM     44  C   UNL A   1      42.643  30.177  29.425  1.00  0.00     0.029 A 
ATOM     45  N   UNL A   1      42.680  28.012  28.932  1.00  0.00    -0.354 N 
ATOM     46  C   UNL A   1      42.243  31.781  33.813  1.00  0.00     0.074 A 
ATOM     47  C   UNL A   1      43.302  31.191  34.520  1.00  0.00     0.031 C 
ATOM     48  C   UNL A   1      42.222  30.063  28.148  1.00  0.00     0.029 A 
ATOM     49  C   UNL A   1      41.923  28.657  27.939  1.00  0.00     0.049 A 
ATOM     50  H   UNL A   1      43.108  27.129  28.853  1.00  0.00     0.167 HD
ATOM     51  C   UNL A   1      42.302  33.138  33.588  1.00  0.00     0.031 A 
ATOM     52  C   UNL A   1      40.709  28.098  27.709  1.00  0.00     0.031 A 
ATOM     53  C   UNL A   1      41.784  33.354  32.255  1.00  0.00     0.049 A 
ATOM     54  C   UNL A   1      39.688  28.985  28.419  1.00  0.00     0.074 A 
ATOM     55  C   UNL A   1      42.349  33.628  31.025  1.00  0.00     0.029 A 
ATOM     56  N   UNL A   1      40.566  32.760  31.998  1.00  0.00    -0.354 N 
ATOM     57  N   UNL A   1      39.968  29.764  29.443  1.00  0.00    -0.248 NA
ATOM     58  C   UNL A   1      38.377  29.283  27.854  1.00  0.00     0.031 C 
ATOM     59  C   UNL A   1      41.440  33.127  30.027  1.00  0.00     0.029 A 
ATOM     60  C   UNL A   1      40.370  32.509  30.660  1.00  0.00     0.049 A 
ATOM     61  H   UNL A   1      39.908  32.540  32.696  1.00  0.00     0.167 HD
ATOM     62  C   UNL A   1      39.024  30.744  29.553  1.00  0.00     0.074 A 
ATOM     63  C   UNL A   1      38.020  30.363  28.571  1.00  0.00     0.031 C 
ATOM     64  C   UNL A   1      39.098  31.883  30.311  1.00  0.00     0.031 A 
BRANCH  51  65
ATOM     65  C   UNL A   1      43.133  34.161  34.406  1.00  0.00    -0.014 A 
ATOM     66  C   UNL A   1      42.493  35.321  34.880  1.00  0.00     0.010 A 
ATOM     67  C   UNL A   1      44.499  34.041  34.796  1.00  0.00     0.010 A 
ATOM     68  C   UNL A   1      43.142  36.272  35.696  1.00  0.00     0.020 A 
ATOM     69  C   UNL A   1      45.178  35.011  35.574  1.00  0.00     0.020 A 
ATOM     70  C   UNL A   1      44.478  36.108  36.051  1.00  0.00     0.054 A 
BRANCH  70  71
ATOM     71  S   UNL A   1      45.239  37.287  37.206  1.00  0.00     0.124 S 
ATOM     72  O   UNL A   1      44.308  38.412  37.172  1.00  0.00    -0.237 OA
ATOM     73  O   UNL A   1      45.263  36.527  38.452  1.00  0.00    -0.237 OA
ATOM     74  O   UNL A   1      46.551  37.557  36.620  1.00  0.00    -0.744 OA
ENDBRANCH  70  71
ENDBRANCH  51  65
BRANCH  52  75
ATOM     75  C   UNL A   1      40.915  26.599  27.613  1.00  0.00    -0.014 A 
ATOM     76  C   UNL A   1      39.840  25.787  28.098  1.00  0.00     0.010 A 
ATOM     77  C   UNL A   1      41.799  25.990  26.702  1.00  0.00     0.010 A 
ATOM     78  C   UNL A   1      39.673  24.443  27.724  1.00  0.00     0.020 A 
ATOM     79  C   UNL A   1      41.644  24.631  26.337  1.00  0.00     0.020 A 
ATOM     80  C   UNL A   1      40.621  23.853  26.898  1.00  0.00     0.054 A 
BRANCH  80  81
ATOM     81  S   UNL A   1      40.583  22.051  26.637  1.00  0.00     0.124 S 
ATOM     82  O   UNL A   1      39.254  21.860  26.068  1.00  0.00    -0.237 OA
ATOM     83  O   UNL A   1      41.676  21.799  25.700  1.00  0.00    -0.237 OA
ATOM     84  O   UNL A   1      40.766  21.516  27.982  1.00  0.00    -0.744 OA
ENDBRANCH  80  81
ENDBRANCH  52  75
BRANCH  64  85
ATOM     85  C   UNL A   1      37.846  32.506  30.907  1.00  0.00    -0.014 A 
ATOM     86  C   UNL A   1      37.239  33.641  30.362  1.00  0.00     0.010 A 
ATOM     87  C   UNL A   1      37.134  31.841  31.941  1.00  0.00     0.010 A 
ATOM     88  C   UNL A   1      36.078  34.171  30.918  1.00  0.00     0.020 A 
ATOM     89  C   UNL A   1      35.903  32.281  32.409  1.00  0.00     0.020 A 
ATOM     90  C   UNL A   1      35.424  33.490  31.941  1.00  0.00     0.054 A 
BRANCH  90  91
ATOM     91  S   UNL A   1      33.962  34.226  32.679  1.00  0.00     0.124 S 
ATOM     92  O   UNL A   1      33.310  34.808  31.509  1.00  0.00    -0.237 OA
ATOM     93  O   UNL A   1      33.286  33.073  33.269  1.00  0.00    -0.237 OA
ATOM     94  O   UNL A   1      34.500  35.187  33.638  1.00  0.00    -0.744 OA
ENDBRANCH  90  91
ENDBRANCH  64  85
ENDBRANCH  38  39
ENDBRANCH  31  33
ENDBRANCH  30  31
ENDBRANCH  29  30
ENDBRANCH  28  29
ENDBRANCH  27  28
ENDBRANCH  26  27
ENDBRANCH   1  26
TORSDOF 23
ENDMDL
MODEL 2
REMARK VINA RESULT:      -9.6      6.012     10.346
REMARK SMILES Cc1ccc(Nc2c(F)cccc2I)c(CC(=O)OCCOCCOCCOC(=O)c2ccc(-c3c4nc(c(-c5ccc(S(=O)(=O)[O-])cc5)c5ccc([nH]5)c(-c5ccc(S(=O)(=O)[O-])cc5)c5nc(c(-c6ccc(S(=O)(=O)[O-])cc6)c6ccc3[nH]6)C=C5)C=C4)cc2)c1
REMARK SMILES IDX 23 1 22 2 21 3 20 4 19 5 17 6 18 7 16 8 15 9 1 10 2 11 3 12
REMARK SMILES IDX 91 13 4 14 5 15 6 16 7 18 8 19 13 20 9 21 10 22 12 23 14 24
REMARK SMILES IDX 11 25 24 26 25 27 26 28 27 29 28 30 29 31 30 32 31 33 32 34
REMARK SMILES IDX 90 35 33 36 89 37 34 38 35 39 36 40 83 41 37 42 88 43 82 44
REMARK SMILES IDX 84 45 38 46 87 47 81 48 80 49 39 51 69 52 50 53 68 54 51 55
REMARK SMILES IDX 54 56 67 57 85 58 52 59 53 60 66 62 86 63 55 64 40 65 41 66
REMARK SMILES IDX 49 67 42 68 48 69 43 70 44 71 45 72 46 73 47 74 70 75 71 76
REMARK SMILES IDX 79 77 72 78 78 79 73 80 74 81 75 82 76 83 77 84 56 85 57 86
REMARK SMILES IDX 65 87 58 88 64 89 59 90 60 91 61 92 62 93 63 94
REMARK H PARENT 6 17 84 50 54 61
REMARK Flexibility Score: inf
ROOT
ATOM      1  C   UNL A   1      36.611  33.464  29.447  1.00  0.00     0.188 C 
ENDROOT
BRANCH   1   2
ATOM      2  O   UNL A   1      36.876  32.339  28.663  1.00  0.00    -0.376 OA
BRANCH   2   3
ATOM      3  C   UNL A   1      35.820  31.725  27.961  1.00  0.00     0.202 C 
BRANCH   3   4
ATOM      4  C   UNL A   1      35.512  30.214  27.435  1.00  0.00     0.261 C 
BRANCH   4   5
ATOM      5  O   UNL A   1      34.138  29.193  26.761  1.00  0.00    -0.463 OA
BRANCH   5   6
ATOM      6  C   UNL A   1      33.737  27.865  25.855  1.00  0.00     0.310 C 
ATOM      7  O   UNL A   1      33.493  26.678  26.125  1.00  0.00    -0.252 OA
BRANCH   6   8
ATOM      8  C   UNL A   1      33.311  28.201  24.537  1.00  0.00     0.160 C 
BRANCH   8   9
ATOM      9  C   UNL A   1      31.991  27.524  24.451  1.00  0.00    -0.013 A 
ATOM     10  C   UNL A   1      29.454  30.274  23.587  1.00  0.00     0.044 C 
ATOM     11  C   UNL A   1      30.254  29.017  23.498  1.00  0.00    -0.051 A 
ATOM     12  C   UNL A   1      30.291  28.205  22.391  1.00  0.00     0.005 A 
ATOM     13  C   UNL A   1      31.095  28.670  24.528  1.00  0.00     0.009 A 
ATOM     14  C   UNL A   1      31.114  27.039  22.381  1.00  0.00     0.026 A 
ATOM     15  C   UNL A   1      31.932  26.369  23.604  1.00  0.00     0.042 A 
BRANCH  15  16
ATOM     16  N   UNL A   1      32.098  24.368  23.882  1.00  0.00    -0.352 N 
ATOM     17  H   UNL A   1      31.646  23.845  23.181  1.00  0.00     0.167 HD
BRANCH  16  18
ATOM     18  C   UNL A   1      32.909  23.314  25.158  1.00  0.00     0.088 A 
ATOM     19  C   UNL A   1      32.283  23.090  26.576  1.00  0.00     0.147 A 
ATOM     20  C   UNL A   1      34.278  22.895  25.184  1.00  0.00     0.040 A 
ATOM     21  F   UNL A   1      31.139  23.649  27.038  1.00  0.00    -0.205 F 
ATOM     22  C   UNL A   1      32.862  22.467  27.683  1.00  0.00     0.041 A 
ATOM     23  C   UNL A   1      34.832  22.335  26.428  1.00  0.00     0.017 A 
ATOM     24  I   UNL A   1      35.957  22.884  23.956  1.00  0.00    -0.042 I 
ATOM     25  C   UNL A   1      34.165  22.114  27.627  1.00  0.00     0.004 A 
ENDBRANCH  16  18
ENDBRANCH  15  16
ENDBRANCH   8   9
ENDBRANCH   6   8
ENDBRANCH   5   6
ENDBRANCH   4   5
ENDBRANCH   3   4
ENDBRANCH   2   3
ENDBRANCH   1   2
BRANCH   1  26
ATOM     26  C   UNL A   1      36.427  33.229  30.928  1.00  0.00     0.188 C 
BRANCH  26  27
ATOM     27  O   UNL A   1      37.584  33.260  31.724  1.00  0.00    -0.376 OA
BRANCH  27  28
ATOM     28  C   UNL A   1      37.391  32.715  33.022  1.00  0.00     0.202 C 
BRANCH  28  29
ATOM     29  C   UNL A   1      37.598  31.156  33.277  1.00  0.00     0.261 C 
BRANCH  29  30
ATOM     30  O   UNL A   1      36.645  30.203  32.638  1.00  0.00    -0.460 OA
BRANCH  30  31
ATOM     31  C   UNL A   1      36.906  29.390  31.493  1.00  0.00     0.338 C 
ATOM     32  O   UNL A   1      36.041  29.318  30.640  1.00  0.00    -0.246 OA
BRANCH  31  33
ATOM     33  C   UNL A   1      38.491  28.678  31.503  1.00  0.00     0.060 A 
ATOM     34  C   UNL A   1      40.000  28.439  32.741  1.00  0.00     0.016 A 
ATOM     35  C   UNL A   1      38.825  29.901  30.226  1.00  0.00     0.016 A 
ATOM     36  C   UNL A   1      41.466  29.634  32.647  1.00  0.00     0.010 A 
ATOM     37  C   UNL A   1      40.169  30.997  30.331  1.00  0.00     0.010 A 
ATOM     38  C   UNL A   1      41.570  31.011  31.450  1.00  0.00    -0.014 A 
BRANCH  38  39
ATOM     39  C   UNL A   1      42.919  32.243  30.907  1.00  0.00     0.031 A 
ATOM     40  C   UNL A   1      43.325  33.955  31.716  1.00  0.00     0.074 A 
ATOM     41  C   UNL A   1      43.948  31.881  30.108  1.00  0.00     0.049 A 
ATOM     42  N   UNL A   1      43.204  35.172  31.211  1.00  0.00    -0.248 NA
ATOM     43  C   UNL A   1      43.303  34.350  33.386  1.00  0.00     0.031 C 
ATOM     44  C   UNL A   1      45.257  32.542  29.962  1.00  0.00     0.029 A 
ATOM     45  N   UNL A   1      44.109  30.750  29.328  1.00  0.00    -0.354 N 
ATOM     46  C   UNL A   1      43.315  36.113  32.298  1.00  0.00     0.074 A 
ATOM     47  C   UNL A   1      42.740  35.537  33.441  1.00  0.00     0.031 C 
ATOM     48  C   UNL A   1      45.911  32.016  28.905  1.00  0.00     0.029 A 
ATOM     49  C   UNL A   1      44.999  31.068  28.288  1.00  0.00     0.049 A 
ATOM     50  H   UNL A   1      43.677  29.877  29.474  1.00  0.00     0.167 HD
ATOM     51  C   UNL A   1      44.415  36.923  32.474  1.00  0.00     0.031 A 
ATOM     52  C   UNL A   1      44.422  31.158  27.064  1.00  0.00     0.031 A 
ATOM     53  C   UNL A   1      45.306  36.648  31.368  1.00  0.00     0.049 A 
ATOM     54  C   UNL A   1      44.266  32.649  26.772  1.00  0.00     0.074 A 
ATOM     55  C   UNL A   1      46.477  35.931  31.218  1.00  0.00     0.029 A 
ATOM     56  N   UNL A   1      44.722  36.700  30.120  1.00  0.00    -0.354 N 
ATOM     57  N   UNL A   1      44.198  33.582  27.699  1.00  0.00    -0.248 NA
ATOM     58  C   UNL A   1      44.474  33.217  25.445  1.00  0.00     0.031 C 
ATOM     59  C   UNL A   1      46.540  35.516  29.841  1.00  0.00     0.029 A 
ATOM     60  C   UNL A   1      45.386  35.935  29.190  1.00  0.00     0.049 A 
ATOM     61  H   UNL A   1      43.916  37.228  29.917  1.00  0.00     0.167 HD
ATOM     62  C   UNL A   1      44.528  34.794  27.163  1.00  0.00     0.074 A 
ATOM     63  C   UNL A   1      44.636  34.519  25.737  1.00  0.00     0.031 C 
ATOM     64  C   UNL A   1      44.826  35.946  27.842  1.00  0.00     0.031 A 
BRANCH  51  65
ATOM     65  C   UNL A   1      44.810  37.650  33.787  1.00  0.00    -0.014 A 
ATOM     66  C   UNL A   1      45.625  36.971  34.711  1.00  0.00     0.010 A 
ATOM     67  C   UNL A   1      44.481  38.986  34.160  1.00  0.00     0.010 A 
ATOM     68  C   UNL A   1      46.100  37.572  35.896  1.00  0.00     0.020 A 
ATOM     69  C   UNL A   1      44.910  39.587  35.369  1.00  0.00     0.020 A 
ATOM     70  C   UNL A   1      45.752  38.882  36.216  1.00  0.00     0.054 A 
BRANCH  70  71
ATOM     71  S   UNL A   1      46.486  39.661  37.684  1.00  0.00     0.124 S 
ATOM     72  O   UNL A   1      45.330  39.849  38.557  1.00  0.00    -0.237 OA
ATOM     73  O   UNL A   1      47.448  38.654  38.121  1.00  0.00    -0.237 OA
ATOM     74  O   UNL A   1      47.075  40.897  37.170  1.00  0.00    -0.744 OA
ENDBRANCH  70  71
ENDBRANCH  51  65
BRANCH  52  75
ATOM     75  C   UNL A   1      43.515  29.953  26.906  1.00  0.00    -0.014 A 
ATOM     76  C   UNL A   1      44.172  28.685  26.803  1.00  0.00     0.010 A 
ATOM     77  C   UNL A   1      42.169  29.929  27.317  1.00  0.00     0.010 A 
ATOM     78  C   UNL A   1      43.522  27.467  27.064  1.00  0.00     0.020 A 
ATOM     79  C   UNL A   1      41.506  28.703  27.563  1.00  0.00     0.020 A 
ATOM     80  C   UNL A   1      42.169  27.483  27.374  1.00  0.00     0.054 A 
BRANCH  80  81
ATOM     81  S   UNL A   1      41.246  25.913  27.431  1.00  0.00     0.124 S 
ATOM     82  O   UNL A   1      40.543  25.933  26.153  1.00  0.00    -0.237 OA
ATOM     83  O   UNL A   1      42.282  24.888  27.527  1.00  0.00    -0.237 OA
ATOM     84  O   UNL A   1      40.398  26.068  28.609  1.00  0.00    -0.744 OA
ENDBRANCH  80  81
ENDBRANCH  52  75
BRANCH  64  85
ATOM     85  C   UNL A   1      44.499  37.307  27.251  1.00  0.00    -0.014 A 
ATOM     86  C   UNL A   1      43.205  37.835  27.249  1.00  0.00     0.010 A 
ATOM     87  C   UNL A   1      45.541  38.181  26.841  1.00  0.00     0.010 A 
ATOM     88  C   UNL A   1      42.945  39.097  26.722  1.00  0.00     0.020 A 
ATOM     89  C   UNL A   1      45.311  39.492  26.445  1.00  0.00     0.020 A 
ATOM     90  C   UNL A   1      44.000  39.912  26.318  1.00  0.00     0.054 A 
BRANCH  90  91
ATOM     91  S   UNL A   1      43.633  41.511  25.588  1.00  0.00     0.124 S 
ATOM     92  O   UNL A   1      42.195  41.400  25.359  1.00  0.00    -0.237 OA
ATOM     93  O   UNL A   1      44.034  42.442  26.639  1.00  0.00    -0.237 OA
ATOM     94  O   UNL A   1      44.458  41.542  24.383  1.00  0.00    -0.744 OA
ENDBRANCH  90  91
ENDBRANCH  64  85
ENDBRANCH  38  39
ENDBRANCH  31  33
ENDBRANCH  30  31
ENDBRANCH  29  30
ENDBRANCH  28  29
ENDBRANCH  27  28
ENDBRANCH  26  27
ENDBRANCH   1  26
TORSDOF 23
ENDMDL
MODEL 3
REMARK VINA RESULT:      -9.4      6.668     15.700
REMARK SMILES Cc1ccc(Nc2c(F)cccc2I)c(CC(=O)OCCOCCOCCOC(=O)c2ccc(-c3c4nc(c(-c5ccc(S(=O)(=O)[O-])cc5)c5ccc([nH]5)c(-c5ccc(S(=O)(=O)[O-])cc5)c5nc(c(-c6ccc(S(=O)(=O)[O-])cc6)c6ccc3[nH]6)C=C5)C=C4)cc2)c1
REMARK SMILES IDX 23 1 22 2 21 3 20 4 19 5 17 6 18 7 16 8 15 9 1 10 2 11 3 12
REMARK SMILES IDX 91 13 4 14 5 15 6 16 7 18 8 19 13 20 9 21 10 22 12 23 14 24
REMARK SMILES IDX 11 25 24 26 25 27 26 28 27 29 28 30 29 31 30 32 31 33 32 34
REMARK SMILES IDX 90 35 33 36 89 37 34 38 35 39 36 40 83 41 37 42 88 43 82 44
REMARK SMILES IDX 84 45 38 46 87 47 81 48 80 49 39 51 69 52 50 53 68 54 51 55
REMARK SMILES IDX 54 56 67 57 85 58 52 59 53 60 66 62 86 63 55 64 40 65 41 66
REMARK SMILES IDX 49 67 42 68 48 69 43 70 44 71 45 72 46 73 47 74 70 75 71 76
REMARK SMILES IDX 79 77 72 78 78 79 73 80 74 81 75 82 76 83 77 84 56 85 57 86
REMARK SMILES IDX 65 87 58 88 64 89 59 90 60 91 61 92 62 93 63 94
REMARK H PARENT 6 17 84 50 54 61
REMARK Flexibility Score: inf
ROOT
ATOM      1  C   UNL A   1      37.675  21.581  25.295  1.00  0.00     0.188 C 
ENDROOT
BRANCH   1   2
ATOM      2  O   UNL A   1      36.633  22.511  25.268  1.00  0.00    -0.376 OA
BRANCH   2   3
ATOM      3  C   UNL A   1      35.601  22.360  24.320  1.00  0.00     0.202 C 
BRANCH   3   4
ATOM      4  C   UNL A   1      34.642  23.382  23.490  1.00  0.00     0.261 C 
BRANCH   4   5
ATOM      5  O   UNL A   1      34.592  25.121  22.893  1.00  0.00    -0.463 OA
BRANCH   5   6
ATOM      6  C   UNL A   1      33.625  26.421  22.542  1.00  0.00     0.310 C 
ATOM      7  O   UNL A   1      33.823  27.523  22.006  1.00  0.00    -0.252 OA
BRANCH   6   8
ATOM      8  C   UNL A   1      32.235  26.111  22.610  1.00  0.00     0.160 C 
BRANCH   8   9
ATOM      9  C   UNL A   1      31.778  26.972  23.731  1.00  0.00    -0.013 A 
ATOM     10  C   UNL A   1      27.977  26.469  23.959  1.00  0.00     0.044 C 
ATOM     11  C   UNL A   1      29.419  26.504  24.343  1.00  0.00    -0.051 A 
ATOM     12  C   UNL A   1      29.921  25.958  25.499  1.00  0.00     0.005 A 
ATOM     13  C   UNL A   1      30.345  27.019  23.468  1.00  0.00     0.009 A 
ATOM     14  C   UNL A   1      31.322  26.008  25.769  1.00  0.00     0.026 A 
ATOM     15  C   UNL A   1      32.476  26.811  24.972  1.00  0.00     0.042 A 
BRANCH  15  16
ATOM     16  N   UNL A   1      34.029  27.742  25.883  1.00  0.00    -0.352 N 
ATOM     17  H   UNL A   1      34.886  27.274  25.755  1.00  0.00     0.167 HD
BRANCH  16  18
ATOM     18  C   UNL A   1      34.190  29.274  26.896  1.00  0.00     0.088 A 
ATOM     19  C   UNL A   1      33.074  30.371  26.930  1.00  0.00     0.147 A 
ATOM     20  C   UNL A   1      35.393  29.819  27.447  1.00  0.00     0.040 A 
ATOM     21  F   UNL A   1      31.920  30.357  26.220  1.00  0.00    -0.205 F 
ATOM     22  C   UNL A   1      33.133  31.641  27.508  1.00  0.00     0.041 A 
ATOM     23  C   UNL A   1      35.390  31.204  27.948  1.00  0.00     0.017 A 
ATOM     24  I   UNL A   1      37.386  29.294  27.736  1.00  0.00    -0.042 I 
ATOM     25  C   UNL A   1      34.315  32.084  27.993  1.00  0.00     0.004 A 
ENDBRANCH  16  18
ENDBRANCH  15  16
ENDBRANCH   8   9
ENDBRANCH   6   8
ENDBRANCH   5   6
ENDBRANCH   4   5
ENDBRANCH   3   4
ENDBRANCH   2   3
ENDBRANCH   1   2
BRANCH   1  26
ATOM     26  C   UNL A   1      38.934  21.995  26.022  1.00  0.00     0.188 C 
BRANCH  26  27
ATOM     27  O   UNL A   1      39.959  21.039  26.111  1.00  0.00    -0.376 OA
BRANCH  27  28
ATOM     28  C   UNL A   1      41.231  21.600  26.404  1.00  0.00     0.202 C 
BRANCH  28  29
ATOM     29  C   UNL A   1      42.558  20.759  26.144  1.00  0.00     0.261 C 
BRANCH  29  30
ATOM     30  O   UNL A   1      43.791  21.493  25.736  1.00  0.00    -0.460 OA
BRANCH  30  31
ATOM     31  C   UNL A   1      43.852  22.613  24.853  1.00  0.00     0.338 C 
ATOM     32  O   UNL A   1      43.828  22.395  23.656  1.00  0.00    -0.246 OA
BRANCH  31  33
ATOM     33  C   UNL A   1      43.891  24.140  25.683  1.00  0.00     0.060 A 
ATOM     34  C   UNL A   1      43.705  26.054  25.273  1.00  0.00     0.016 A 
ATOM     35  C   UNL A   1      45.589  23.667  26.047  1.00  0.00     0.016 A 
ATOM     36  C   UNL A   1      45.266  27.102  25.046  1.00  0.00     0.010 A 
ATOM     37  C   UNL A   1      46.930  24.712  25.691  1.00  0.00     0.010 A 
ATOM     38  C   UNL A   1      46.959  26.435  25.197  1.00  0.00    -0.014 A 
BRANCH  38  39
ATOM     39  C   UNL A   1      48.714  27.178  25.263  1.00  0.00     0.031 A 
ATOM     40  C   UNL A   1      49.943  27.391  23.783  1.00  0.00     0.074 A 
ATOM     41  C   UNL A   1      49.137  27.940  26.297  1.00  0.00     0.049 A 
ATOM     42  N   UNL A   1      51.115  26.811  23.574  1.00  0.00    -0.248 NA
ATOM     43  C   UNL A   1      49.564  27.825  22.167  1.00  0.00     0.031 C 
ATOM     44  C   UNL A   1      50.238  28.920  26.310  1.00  0.00     0.029 A 
ATOM     45  N   UNL A   1      48.589  28.109  27.556  1.00  0.00    -0.354 N 
ATOM     46  C   UNL A   1      51.480  27.039  22.198  1.00  0.00     0.074 A 
ATOM     47  C   UNL A   1      50.310  27.037  21.424  1.00  0.00     0.031 C 
ATOM     48  C   UNL A   1      50.491  29.296  27.580  1.00  0.00     0.029 A 
ATOM     49  C   UNL A   1      49.622  28.496  28.426  1.00  0.00     0.049 A 
ATOM     50  H   UNL A   1      47.644  27.981  27.800  1.00  0.00     0.167 HD
ATOM     51  C   UNL A   1      52.491  27.898  21.827  1.00  0.00     0.031 A 
ATOM     52  C   UNL A   1      49.990  27.543  29.318  1.00  0.00     0.031 A 
ATOM     53  C   UNL A   1      53.062  28.412  23.053  1.00  0.00     0.049 A 
ATOM     54  C   UNL A   1      51.286  26.934  28.785  1.00  0.00     0.074 A 
ATOM     55  C   UNL A   1      52.974  29.605  23.741  1.00  0.00     0.029 A 
ATOM     56  N   UNL A   1      53.406  27.453  23.982  1.00  0.00    -0.354 N 
ATOM     57  N   UNL A   1      51.644  26.948  27.518  1.00  0.00    -0.248 NA
ATOM     58  C   UNL A   1      52.389  26.544  29.656  1.00  0.00     0.031 C 
ATOM     59  C   UNL A   1      53.230  29.309  25.126  1.00  0.00     0.029 A 
ATOM     60  C   UNL A   1      53.414  27.940  25.268  1.00  0.00     0.049 A 
ATOM     61  H   UNL A   1      53.623  26.522  23.751  1.00  0.00     0.167 HD
ATOM     62  C   UNL A   1      52.994  26.771  27.415  1.00  0.00     0.074 A 
ATOM     63  C   UNL A   1      53.404  26.465  28.778  1.00  0.00     0.031 C 
ATOM     64  C   UNL A   1      53.774  26.980  26.309  1.00  0.00     0.031 A 
BRANCH  51  65
ATOM     65  C   UNL A   1      52.691  28.512  20.416  1.00  0.00    -0.014 A 
ATOM     66  C   UNL A   1      52.142  29.779  20.150  1.00  0.00     0.010 A 
ATOM     67  C   UNL A   1      53.435  27.954  19.335  1.00  0.00     0.010 A 
ATOM     68  C   UNL A   1      52.334  30.454  18.926  1.00  0.00     0.020 A 
ATOM     69  C   UNL A   1      53.596  28.597  18.083  1.00  0.00     0.020 A 
ATOM     70  C   UNL A   1      53.071  29.867  17.901  1.00  0.00     0.054 A 
BRANCH  70  71
ATOM     71  S   UNL A   1      53.403  30.820  16.390  1.00  0.00     0.124 S 
ATOM     72  O   UNL A   1      54.399  29.998  15.708  1.00  0.00    -0.237 OA
ATOM     73  O   UNL A   1      52.087  30.867  15.758  1.00  0.00    -0.237 OA
ATOM     74  O   UNL A   1      53.899  32.104  16.884  1.00  0.00    -0.744 OA
ENDBRANCH  70  71
ENDBRANCH  51  65
BRANCH  52  75
ATOM     75  C   UNL A   1      48.718  26.964  29.907  1.00  0.00    -0.014 A 
ATOM     76  C   UNL A   1      47.905  27.874  30.656  1.00  0.00     0.010 A 
ATOM     77  C   UNL A   1      48.074  25.820  29.401  1.00  0.00     0.010 A 
ATOM     78  C   UNL A   1      46.543  27.644  30.911  1.00  0.00     0.020 A 
ATOM     79  C   UNL A   1      46.707  25.575  29.671  1.00  0.00     0.020 A 
ATOM     80  C   UNL A   1      45.970  26.457  30.475  1.00  0.00     0.054 A 
BRANCH  80  81
ATOM     81  S   UNL A   1      44.297  26.010  31.040  1.00  0.00     0.124 S 
ATOM     82  O   UNL A   1      43.678  25.546  29.804  1.00  0.00    -0.237 OA
ATOM     83  O   UNL A   1      44.518  24.958  32.029  1.00  0.00    -0.237 OA
ATOM     84  O   UNL A   1      43.776  27.269  31.562  1.00  0.00    -0.744 OA
ENDBRANCH  80  81
ENDBRANCH  52  75
BRANCH  64  85
ATOM     85  C   UNL A   1      55.023  26.150  26.065  1.00  0.00    -0.014 A 
ATOM     86  C   UNL A   1      54.990  24.756  25.957  1.00  0.00     0.010 A 
ATOM     87  C   UNL A   1      56.256  26.781  25.750  1.00  0.00     0.010 A 
ATOM     88  C   UNL A   1      56.150  24.028  25.708  1.00  0.00     0.020 A 
ATOM     89  C   UNL A   1      57.386  26.073  25.363  1.00  0.00     0.020 A 
ATOM     90  C   UNL A   1      57.339  24.693  25.419  1.00  0.00     0.054 A 
BRANCH  90  91
ATOM     91  S   UNL A   1      58.833  23.730  25.160  1.00  0.00     0.124 S 
ATOM     92  O   UNL A   1      59.173  24.090  23.786  1.00  0.00    -0.237 OA
ATOM     93  O   UNL A   1      59.730  24.248  26.188  1.00  0.00    -0.237 OA
ATOM     94  O   UNL A   1      58.397  22.350  25.355  1.00  0.00    -0.744 OA
ENDBRANCH  90  91
ENDBRANCH  64  85
ENDBRANCH  38  39
ENDBRANCH  31  33
ENDBRANCH  30  31
ENDBRANCH  29  30
ENDBRANCH  28  29
ENDBRANCH  27  28
ENDBRANCH  26  27
ENDBRANCH   1  26
TORSDOF 23
ENDMDL
