MODEL 1
REMARK VINA RESULT:     -10.4      0.000      0.000
REMARK SMILES Cc1cc(C(=O)N[C@H]2C=C[C@H](C(=O)OCCOCCOCCOC(=O)c3ccc(-c4c5nc(c(-c6ccc(S(=O)(=O)[O-])cc6)c6ccc([nH]6)c(-c6ccc(S(=O)(=O)[O-])cc6)c6nc(c(-c7ccc(S(=O)(=O)[O-])cc7)c7ccc4[nH]7)C=C6)C=C5)cc3)C2)ccc1F
REMARK SMILES IDX 19 1 18 2 17 3 16 4 15 5 14 6 12 7 13 8 11 9 8 10 9 11 86 12
REMARK SMILES IDX 10 13 7 14 5 15 6 16 4 18 1 19 2 20 3 21 89 22 88 23 90 24
REMARK SMILES IDX 87 25 20 26 21 27 22 28 23 29 24 30 25 31 26 32 27 33 85 34
REMARK SMILES IDX 28 35 84 36 29 37 30 38 31 39 78 40 32 41 83 42 77 43 79 44
REMARK SMILES IDX 33 45 82 46 76 47 75 48 34 50 64 51 45 52 63 53 46 54 49 55
REMARK SMILES IDX 62 56 80 57 47 58 48 59 61 61 81 62 50 63 35 64 36 65 44 66
REMARK SMILES IDX 37 67 43 68 38 69 39 70 40 71 41 72 42 73 65 74 66 75 74 76
REMARK SMILES IDX 67 77 73 78 68 79 69 80 70 81 71 82 72 83 51 84 52 85 60 86
REMARK SMILES IDX 53 87 59 88 54 89 55 90 56 91 57 92 58 93
REMARK H PARENT 7 17 79 49 49 60
REMARK Flexibility Score: inf
ROOT
ATOM      1  C   UNL A   1      37.685  22.631  25.682  1.00  0.00     0.188 C 
ENDROOT
BRANCH   1   2
ATOM      2  C   UNL A   1      36.560  23.635  25.352  1.00  0.00     0.188 C 
BRANCH   2   3
ATOM      3  O   UNL A   1      36.091  23.714  24.021  1.00  0.00    -0.376 OA
BRANCH   3   4
ATOM      4  C   UNL A   1      34.693  23.679  23.753  1.00  0.00     0.202 C 
BRANCH   4   5
ATOM      5  C   UNL A   1      33.995  24.709  22.856  1.00  0.00     0.261 C 
BRANCH   5   6
ATOM      6  O   UNL A   1      32.664  25.037  23.271  1.00  0.00    -0.463 OA
BRANCH   6   7
ATOM      7  C   UNL A   1      32.288  26.317  22.989  1.00  0.00     0.312 C 
ATOM      8  O   UNL A   1      32.296  26.802  21.864  1.00  0.00    -0.252 OA
BRANCH   7   9
ATOM      9  C   UNL A   1      31.693  27.002  24.224  1.00  0.00     0.124 C 
ATOM     10  C   UNL A   1      30.352  25.239  25.162  1.00  0.00     0.106 C 
ATOM     11  C   UNL A   1      29.480  26.356  24.674  1.00  0.00    -0.006 C 
ATOM     12  C   UNL A   1      31.670  25.993  25.382  1.00  0.00     0.048 C 
ATOM     13  C   UNL A   1      30.228  27.307  24.095  1.00  0.00    -0.014 C 
BRANCH  10  14
ATOM     14  N   UNL A   1      29.818  24.599  26.326  1.00  0.00    -0.346 N 
ATOM     15  C   UNL A   1      30.146  23.406  26.933  1.00  0.00     0.251 C 
ATOM     16  O   UNL A   1      29.403  23.043  27.848  1.00  0.00    -0.269 OA
ATOM     17  H   UNL A   1      29.094  25.097  26.770  1.00  0.00     0.164 HD
BRANCH  15  18
ATOM     18  C   UNL A   1      31.353  22.573  26.601  1.00  0.00     0.040 A 
ATOM     19  C   UNL A   1      32.810  20.198  23.986  1.00  0.00     0.047 C 
ATOM     20  C   UNL A   1      32.680  21.035  25.224  1.00  0.00    -0.015 A 
ATOM     21  C   UNL A   1      31.467  21.679  25.527  1.00  0.00     0.020 A 
ATOM     22  C   UNL A   1      33.778  21.245  26.054  1.00  0.00     0.126 A 
ATOM     23  C   UNL A   1      33.676  22.057  27.175  1.00  0.00     0.040 A 
ATOM     24  F   UNL A   1      34.949  20.664  25.764  1.00  0.00    -0.207 F 
ATOM     25  C   UNL A   1      32.474  22.724  27.438  1.00  0.00     0.017 A 
ENDBRANCH  15  18
ENDBRANCH  10  14
ENDBRANCH   7   9
ENDBRANCH   6   7
ENDBRANCH   5   6
ENDBRANCH   4   5
ENDBRANCH   3   4
ENDBRANCH   2   3
ENDBRANCH   1   2
BRANCH   1  26
ATOM     26  O   UNL A   1      38.905  23.060  26.255  1.00  0.00    -0.376 OA
BRANCH  26  27
ATOM     27  C   UNL A   1      39.942  22.109  26.449  1.00  0.00     0.202 C 
BRANCH  27  28
ATOM     28  C   UNL A   1      41.427  22.501  26.401  1.00  0.00     0.261 C 
BRANCH  28  29
ATOM     29  O   UNL A   1      41.797  23.601  27.242  1.00  0.00    -0.460 OA
BRANCH  29  30
ATOM     30  C   UNL A   1      41.941  24.784  26.596  1.00  0.00     0.338 C 
ATOM     31  O   UNL A   1      42.221  24.953  25.417  1.00  0.00    -0.246 OA
BRANCH  30  32
ATOM     32  C   UNL A   1      41.504  25.883  27.472  1.00  0.00     0.060 A 
ATOM     33  C   UNL A   1      42.261  27.063  27.488  1.00  0.00     0.016 A 
ATOM     34  C   UNL A   1      40.411  25.725  28.324  1.00  0.00     0.016 A 
ATOM     35  C   UNL A   1      41.937  28.090  28.370  1.00  0.00     0.010 A 
ATOM     36  C   UNL A   1      40.108  26.742  29.232  1.00  0.00     0.010 A 
ATOM     37  C   UNL A   1      40.885  27.915  29.277  1.00  0.00    -0.014 A 
BRANCH  37  38
ATOM     38  C   UNL A   1      40.718  28.870  30.396  1.00  0.00     0.031 A 
ATOM     39  C   UNL A   1      41.600  28.716  31.604  1.00  0.00     0.074 A 
ATOM     40  C   UNL A   1      39.806  29.855  30.339  1.00  0.00     0.049 A 
ATOM     41  N   UNL A   1      41.585  29.382  32.730  1.00  0.00    -0.248 NA
ATOM     42  C   UNL A   1      42.637  27.673  31.532  1.00  0.00     0.031 C 
ATOM     43  C   UNL A   1      38.935  30.139  29.199  1.00  0.00     0.029 A 
ATOM     44  N   UNL A   1      39.457  30.794  31.275  1.00  0.00    -0.354 N 
ATOM     45  C   UNL A   1      42.598  28.830  33.505  1.00  0.00     0.074 A 
ATOM     46  C   UNL A   1      43.195  27.764  32.730  1.00  0.00     0.031 C 
ATOM     47  C   UNL A   1      38.137  31.175  29.512  1.00  0.00     0.029 A 
ATOM     48  C   UNL A   1      38.417  31.601  30.883  1.00  0.00     0.049 A 
ATOM     49  H   UNL A   1      39.907  30.881  32.147  1.00  0.00     0.167 HD
ATOM     50  C   UNL A   1      42.993  29.177  34.752  1.00  0.00     0.031 A 
ATOM     51  C   UNL A   1      37.751  32.554  31.564  1.00  0.00     0.031 A 
ATOM     52  C   UNL A   1      42.384  30.224  35.528  1.00  0.00     0.049 A 
ATOM     53  C   UNL A   1      38.152  32.866  32.983  1.00  0.00     0.074 A 
ATOM     54  C   UNL A   1      42.717  30.657  36.799  1.00  0.00     0.029 A 
ATOM     55  N   UNL A   1      41.310  30.994  35.110  1.00  0.00    -0.354 N 
ATOM     56  N   UNL A   1      39.118  32.346  33.702  1.00  0.00    -0.248 NA
ATOM     57  C   UNL A   1      37.372  33.898  33.683  1.00  0.00     0.031 C 
ATOM     58  C   UNL A   1      41.807  31.652  37.172  1.00  0.00     0.029 A 
ATOM     59  C   UNL A   1      40.948  31.882  36.109  1.00  0.00     0.049 A 
ATOM     60  H   UNL A   1      40.869  30.920  34.233  1.00  0.00     0.167 HD
ATOM     61  C   UNL A   1      39.082  33.008  34.925  1.00  0.00     0.074 A 
ATOM     62  C   UNL A   1      38.004  33.972  34.846  1.00  0.00     0.031 C 
ATOM     63  C   UNL A   1      39.873  32.837  36.014  1.00  0.00     0.031 A 
BRANCH  50  64
ATOM     64  C   UNL A   1      44.111  28.382  35.371  1.00  0.00    -0.014 A 
ATOM     65  C   UNL A   1      43.854  27.229  36.133  1.00  0.00     0.010 A 
ATOM     66  C   UNL A   1      45.444  28.782  35.162  1.00  0.00     0.010 A 
ATOM     67  C   UNL A   1      44.907  26.511  36.706  1.00  0.00     0.020 A 
ATOM     68  C   UNL A   1      46.500  28.052  35.710  1.00  0.00     0.020 A 
ATOM     69  C   UNL A   1      46.224  26.929  36.494  1.00  0.00     0.054 A 
BRANCH  69  70
ATOM     70  S   UNL A   1      47.573  25.968  37.232  1.00  0.00     0.124 S 
ATOM     71  O   UNL A   1      46.932  24.675  37.459  1.00  0.00    -0.237 OA
ATOM     72  O   UNL A   1      48.591  25.989  36.185  1.00  0.00    -0.237 OA
ATOM     73  O   UNL A   1      47.911  26.715  38.441  1.00  0.00    -0.744 OA
ENDBRANCH  69  70
ENDBRANCH  50  64
BRANCH  51  74
ATOM     74  C   UNL A   1      36.617  33.271  30.919  1.00  0.00    -0.014 A 
ATOM     75  C   UNL A   1      36.796  33.940  29.695  1.00  0.00     0.010 A 
ATOM     76  C   UNL A   1      35.349  33.289  31.529  1.00  0.00     0.010 A 
ATOM     77  C   UNL A   1      35.733  34.627  29.102  1.00  0.00     0.020 A 
ATOM     78  C   UNL A   1      34.277  33.951  30.925  1.00  0.00     0.020 A 
ATOM     79  C   UNL A   1      34.479  34.625  29.720  1.00  0.00     0.054 A 
BRANCH  79  80
ATOM     80  S   UNL A   1      33.104  35.482  28.903  1.00  0.00     0.124 S 
ATOM     81  O   UNL A   1      33.799  36.512  28.137  1.00  0.00    -0.237 OA
ATOM     82  O   UNL A   1      32.495  34.411  28.119  1.00  0.00    -0.237 OA
ATOM     83  O   UNL A   1      32.293  35.969  30.017  1.00  0.00    -0.744 OA
ENDBRANCH  79  80
ENDBRANCH  51  74
BRANCH  63  84
ATOM     84  C   UNL A   1      39.635  33.737  37.200  1.00  0.00    -0.014 A 
ATOM     85  C   UNL A   1      38.885  33.305  38.308  1.00  0.00     0.010 A 
ATOM     86  C   UNL A   1      40.229  35.013  37.230  1.00  0.00     0.010 A 
ATOM     87  C   UNL A   1      38.710  34.145  39.412  1.00  0.00     0.020 A 
ATOM     88  C   UNL A   1      40.078  35.844  38.342  1.00  0.00     0.020 A 
ATOM     89  C   UNL A   1      39.307  35.410  39.422  1.00  0.00     0.054 A 
BRANCH  89  90
ATOM     90  S   UNL A   1      39.105  36.463  40.886  1.00  0.00     0.124 S 
ATOM     91  O   UNL A   1      40.391  36.299  41.558  1.00  0.00    -0.237 OA
ATOM     92  O   UNL A   1      38.865  37.781  40.302  1.00  0.00    -0.237 OA
ATOM     93  O   UNL A   1      37.960  35.878  41.579  1.00  0.00    -0.744 OA
ENDBRANCH  89  90
ENDBRANCH  63  84
ENDBRANCH  37  38
ENDBRANCH  30  32
ENDBRANCH  29  30
ENDBRANCH  28  29
ENDBRANCH  27  28
ENDBRANCH  26  27
ENDBRANCH   1  26
TORSDOF 22
ENDMDL
MODEL 2
REMARK VINA RESULT:     -10.3      6.264      8.713
REMARK SMILES Cc1cc(C(=O)N[C@H]2C=C[C@H](C(=O)OCCOCCOCCOC(=O)c3ccc(-c4c5nc(c(-c6ccc(S(=O)(=O)[O-])cc6)c6ccc([nH]6)c(-c6ccc(S(=O)(=O)[O-])cc6)c6nc(c(-c7ccc(S(=O)(=O)[O-])cc7)c7ccc4[nH]7)C=C6)C=C5)cc3)C2)ccc1F
REMARK SMILES IDX 19 1 18 2 17 3 16 4 15 5 14 6 12 7 13 8 11 9 8 10 9 11 86 12
REMARK SMILES IDX 10 13 7 14 5 15 6 16 4 18 1 19 2 20 3 21 89 22 88 23 90 24
REMARK SMILES IDX 87 25 20 26 21 27 22 28 23 29 24 30 25 31 26 32 27 33 85 34
REMARK SMILES IDX 28 35 84 36 29 37 30 38 31 39 78 40 32 41 83 42 77 43 79 44
REMARK SMILES IDX 33 45 82 46 76 47 75 48 34 50 64 51 45 52 63 53 46 54 49 55
REMARK SMILES IDX 62 56 80 57 47 58 48 59 61 61 81 62 50 63 35 64 36 65 44 66
REMARK SMILES IDX 37 67 43 68 38 69 39 70 40 71 41 72 42 73 65 74 66 75 74 76
REMARK SMILES IDX 67 77 73 78 68 79 69 80 70 81 71 82 72 83 51 84 52 85 60 86
REMARK SMILES IDX 53 87 59 88 54 89 55 90 56 91 57 92 58 93
REMARK H PARENT 7 17 79 49 49 60
REMARK Flexibility Score: inf
ROOT
ATOM      1  C   UNL A   1      41.071  21.025  27.660  1.00  0.00     0.188 C 
ENDROOT
BRANCH   1   2
ATOM      2  C   UNL A   1      40.600  21.935  26.505  1.00  0.00     0.188 C 
BRANCH   2   3
ATOM      3  O   UNL A   1      39.213  22.148  26.332  1.00  0.00    -0.376 OA
BRANCH   3   4
ATOM      4  C   UNL A   1      38.486  21.380  25.379  1.00  0.00     0.202 C 
BRANCH   4   5
ATOM      5  C   UNL A   1      37.045  21.715  24.972  1.00  0.00     0.261 C 
BRANCH   5   6
ATOM      6  O   UNL A   1      36.060  20.853  25.553  1.00  0.00    -0.463 OA
BRANCH   6   7
ATOM      7  C   UNL A   1      34.879  20.812  24.873  1.00  0.00     0.312 C 
ATOM      8  O   UNL A   1      34.344  19.778  24.490  1.00  0.00    -0.252 OA
BRANCH   7   9
ATOM      9  C   UNL A   1      34.231  22.199  24.808  1.00  0.00     0.124 C 
ATOM     10  C   UNL A   1      32.023  21.747  25.648  1.00  0.00     0.106 C 
ATOM     11  C   UNL A   1      31.962  22.142  24.203  1.00  0.00    -0.006 C 
ATOM     12  C   UNL A   1      33.355  22.391  26.055  1.00  0.00     0.048 C 
ATOM     13  C   UNL A   1      33.200  22.331  23.723  1.00  0.00    -0.014 C 
BRANCH  10  14
ATOM     14  N   UNL A   1      30.881  22.199  26.385  1.00  0.00    -0.346 N 
ATOM     15  C   UNL A   1      30.409  23.470  26.632  1.00  0.00     0.251 C 
ATOM     16  O   UNL A   1      29.476  23.553  27.434  1.00  0.00    -0.269 OA
ATOM     17  H   UNL A   1      30.342  21.479  26.783  1.00  0.00     0.164 HD
BRANCH  15  18
ATOM     18  C   UNL A   1      30.905  24.720  25.959  1.00  0.00     0.040 A 
ATOM     19  C   UNL A   1      30.105  27.238  23.199  1.00  0.00     0.047 C 
ATOM     20  C   UNL A   1      30.811  26.555  24.332  1.00  0.00    -0.015 A 
ATOM     21  C   UNL A   1      30.352  25.317  24.818  1.00  0.00     0.020 A 
ATOM     22  C   UNL A   1      31.886  27.169  24.968  1.00  0.00     0.126 A 
ATOM     23  C   UNL A   1      32.513  26.563  26.048  1.00  0.00     0.040 A 
ATOM     24  F   UNL A   1      32.317  28.362  24.538  1.00  0.00    -0.207 F 
ATOM     25  C   UNL A   1      32.017  25.352  26.546  1.00  0.00     0.017 A 
ENDBRANCH  15  18
ENDBRANCH  10  14
ENDBRANCH   7   9
ENDBRANCH   6   7
ENDBRANCH   5   6
ENDBRANCH   4   5
ENDBRANCH   3   4
ENDBRANCH   2   3
ENDBRANCH   1   2
BRANCH   1  26
ATOM     26  O   UNL A   1      41.389  19.665  27.438  1.00  0.00    -0.376 OA
BRANCH  26  27
ATOM     27  C   UNL A   1      41.640  19.229  26.110  1.00  0.00     0.202 C 
BRANCH  27  28
ATOM     28  C   UNL A   1      42.990  18.626  25.692  1.00  0.00     0.261 C 
BRANCH  28  29
ATOM     29  O   UNL A   1      43.497  19.076  24.428  1.00  0.00    -0.460 OA
BRANCH  29  30
ATOM     30  C   UNL A   1      44.722  19.654  24.482  1.00  0.00     0.338 C 
ATOM     31  O   UNL A   1      45.778  19.189  24.073  1.00  0.00    -0.246 OA
BRANCH  30  32
ATOM     32  C   UNL A   1      44.592  21.050  24.930  1.00  0.00     0.060 A 
ATOM     33  C   UNL A   1      44.513  22.055  23.956  1.00  0.00     0.016 A 
ATOM     34  C   UNL A   1      44.626  21.370  26.286  1.00  0.00     0.016 A 
ATOM     35  C   UNL A   1      44.483  23.394  24.335  1.00  0.00     0.010 A 
ATOM     36  C   UNL A   1      44.630  22.715  26.664  1.00  0.00     0.010 A 
ATOM     37  C   UNL A   1      44.586  23.731  25.690  1.00  0.00    -0.014 A 
BRANCH  37  38
ATOM     38  C   UNL A   1      44.842  25.137  26.077  1.00  0.00     0.031 A 
ATOM     39  C   UNL A   1      46.248  25.662  25.977  1.00  0.00     0.074 A 
ATOM     40  C   UNL A   1      43.847  25.933  26.503  1.00  0.00     0.049 A 
ATOM     41  N   UNL A   1      46.723  26.828  26.328  1.00  0.00    -0.248 NA
ATOM     42  C   UNL A   1      47.250  24.748  25.403  1.00  0.00     0.031 C 
ATOM     43  C   UNL A   1      42.436  25.555  26.588  1.00  0.00     0.029 A 
ATOM     44  N   UNL A   1      43.879  27.226  26.957  1.00  0.00    -0.354 N 
ATOM     45  C   UNL A   1      48.080  26.785  26.033  1.00  0.00     0.074 A 
ATOM     46  C   UNL A   1      48.356  25.472  25.491  1.00  0.00     0.031 C 
ATOM     47  C   UNL A   1      41.739  26.593  27.082  1.00  0.00     0.029 A 
ATOM     48  C   UNL A   1      42.659  27.690  27.382  1.00  0.00     0.049 A 
ATOM     49  H   UNL A   1      44.700  27.770  26.978  1.00  0.00     0.167 HD
ATOM     50  C   UNL A   1      49.014  27.750  26.202  1.00  0.00     0.031 A 
ATOM     51  C   UNL A   1      42.328  28.857  27.970  1.00  0.00     0.031 A 
ATOM     52  C   UNL A   1      48.740  29.046  26.760  1.00  0.00     0.049 A 
ATOM     53  C   UNL A   1      43.400  29.886  28.227  1.00  0.00     0.074 A 
ATOM     54  C   UNL A   1      49.616  30.097  26.965  1.00  0.00     0.029 A 
ATOM     55  N   UNL A   1      47.498  29.466  27.212  1.00  0.00    -0.354 N 
ATOM     56  N   UNL A   1      44.678  29.839  27.933  1.00  0.00    -0.248 NA
ATOM     57  C   UNL A   1      42.983  31.129  28.893  1.00  0.00     0.031 C 
ATOM     58  C   UNL A   1      48.916  31.133  27.593  1.00  0.00     0.029 A 
ATOM     59  C   UNL A   1      47.589  30.750  27.721  1.00  0.00     0.049 A 
ATOM     60  H   UNL A   1      46.673  28.930  27.176  1.00  0.00     0.167 HD
ATOM     61  C   UNL A   1      45.210  31.055  28.350  1.00  0.00     0.074 A 
ATOM     62  C   UNL A   1      44.114  31.820  28.909  1.00  0.00     0.031 C 
ATOM     63  C   UNL A   1      46.489  31.500  28.273  1.00  0.00     0.031 A 
BRANCH  50  64
ATOM     64  C   UNL A   1      50.430  27.418  25.818  1.00  0.00    -0.014 A 
ATOM     65  C   UNL A   1      50.883  27.562  24.494  1.00  0.00     0.010 A 
ATOM     66  C   UNL A   1      51.332  26.981  26.807  1.00  0.00     0.010 A 
ATOM     67  C   UNL A   1      52.200  27.239  24.159  1.00  0.00     0.020 A 
ATOM     68  C   UNL A   1      52.657  26.683  26.480  1.00  0.00     0.020 A 
ATOM     69  C   UNL A   1      53.078  26.799  25.153  1.00  0.00     0.054 A 
BRANCH  69  70
ATOM     70  S   UNL A   1      54.788  26.406  24.695  1.00  0.00     0.124 S 
ATOM     71  O   UNL A   1      54.885  26.996  23.361  1.00  0.00    -0.237 OA
ATOM     72  O   UNL A   1      55.562  27.077  25.736  1.00  0.00    -0.237 OA
ATOM     73  O   UNL A   1      54.832  24.946  24.733  1.00  0.00    -0.744 OA
ENDBRANCH  69  70
ENDBRANCH  50  64
BRANCH  51  74
ATOM     74  C   UNL A   1      40.919  29.110  28.377  1.00  0.00    -0.014 A 
ATOM     75  C   UNL A   1      40.546  29.066  29.732  1.00  0.00     0.010 A 
ATOM     76  C   UNL A   1      39.939  29.394  27.407  1.00  0.00     0.010 A 
ATOM     77  C   UNL A   1      39.218  29.286  30.108  1.00  0.00     0.020 A 
ATOM     78  C   UNL A   1      38.616  29.643  27.782  1.00  0.00     0.020 A 
ATOM     79  C   UNL A   1      38.262  29.576  29.131  1.00  0.00     0.054 A 
BRANCH  79  80
ATOM     80  S   UNL A   1      36.556  29.908  29.651  1.00  0.00     0.124 S 
ATOM     81  O   UNL A   1      36.544  31.365  29.743  1.00  0.00    -0.237 OA
ATOM     82  O   UNL A   1      35.782  29.336  28.552  1.00  0.00    -0.237 OA
ATOM     83  O   UNL A   1      36.440  29.198  30.922  1.00  0.00    -0.744 OA
ENDBRANCH  79  80
ENDBRANCH  51  74
BRANCH  63  84
ATOM     84  C   UNL A   1      46.774  32.895  28.767  1.00  0.00    -0.014 A 
ATOM     85  C   UNL A   1      47.340  33.122  30.034  1.00  0.00     0.010 A 
ATOM     86  C   UNL A   1      46.533  33.992  27.918  1.00  0.00     0.010 A 
ATOM     87  C   UNL A   1      47.631  34.424  30.454  1.00  0.00     0.020 A 
ATOM     88  C   UNL A   1      46.847  35.291  28.324  1.00  0.00     0.020 A 
ATOM     89  C   UNL A   1      47.382  35.500  29.597  1.00  0.00     0.054 A 
BRANCH  89  90
ATOM     90  S   UNL A   1      47.811  37.175  30.146  1.00  0.00     0.124 S 
ATOM     91  O   UNL A   1      47.895  37.007  31.595  1.00  0.00    -0.237 OA
ATOM     92  O   UNL A   1      49.082  37.420  29.468  1.00  0.00    -0.237 OA
ATOM     93  O   UNL A   1      46.694  37.992  29.677  1.00  0.00    -0.744 OA
ENDBRANCH  89  90
ENDBRANCH  63  84
ENDBRANCH  37  38
ENDBRANCH  30  32
ENDBRANCH  29  30
ENDBRANCH  28  29
ENDBRANCH  27  28
ENDBRANCH  26  27
ENDBRANCH   1  26
TORSDOF 22
ENDMDL
MODEL 3
REMARK VINA RESULT:     -10.2      4.827      6.179
REMARK SMILES Cc1cc(C(=O)N[C@H]2C=C[C@H](C(=O)OCCOCCOCCOC(=O)c3ccc(-c4c5nc(c(-c6ccc(S(=O)(=O)[O-])cc6)c6ccc([nH]6)c(-c6ccc(S(=O)(=O)[O-])cc6)c6nc(c(-c7ccc(S(=O)(=O)[O-])cc7)c7ccc4[nH]7)C=C6)C=C5)cc3)C2)ccc1F
REMARK SMILES IDX 19 1 18 2 17 3 16 4 15 5 14 6 12 7 13 8 11 9 8 10 9 11 86 12
REMARK SMILES IDX 10 13 7 14 5 15 6 16 4 18 1 19 2 20 3 21 89 22 88 23 90 24
REMARK SMILES IDX 87 25 20 26 21 27 22 28 23 29 24 30 25 31 26 32 27 33 85 34
REMARK SMILES IDX 28 35 84 36 29 37 30 38 31 39 78 40 32 41 83 42 77 43 79 44
REMARK SMILES IDX 33 45 82 46 76 47 75 48 34 50 64 51 45 52 63 53 46 54 49 55
REMARK SMILES IDX 62 56 80 57 47 58 48 59 61 61 81 62 50 63 35 64 36 65 44 66
REMARK SMILES IDX 37 67 43 68 38 69 39 70 40 71 41 72 42 73 65 74 66 75 74 76
REMARK SMILES IDX 67 77 73 78 68 79 69 80 70 81 71 82 72 83 51 84 52 85 60 86
REMARK SMILES IDX 53 87 59 88 54 89 55 90 56 91 57 92 58 93
REMARK H PARENT 7 17 79 49 49 60
REMARK Flexibility Score: inf
ROOT
ATOM      1  C   UNL A   1      35.283  23.512  25.513  1.00  0.00     0.188 C 
ENDROOT
BRANCH   1   2
ATOM      2  C   UNL A   1      34.785  24.034  24.148  1.00  0.00     0.188 C 
BRANCH   2   3
ATOM      3  O   UNL A   1      34.288  25.355  24.067  1.00  0.00    -0.376 OA
BRANCH   3   4
ATOM      4  C   UNL A   1      33.521  25.762  22.940  1.00  0.00     0.202 C 
BRANCH   4   5
ATOM      5  C   UNL A   1      33.635  27.162  22.322  1.00  0.00     0.261 C 
BRANCH   5   6
ATOM      6  O   UNL A   1      32.629  28.079  22.767  1.00  0.00    -0.463 OA
BRANCH   6   7
ATOM      7  C   UNL A   1      32.780  28.496  24.056  1.00  0.00     0.312 C 
ATOM      8  O   UNL A   1      33.847  28.852  24.541  1.00  0.00    -0.252 OA
BRANCH   7   9
ATOM      9  C   UNL A   1      31.424  28.626  24.756  1.00  0.00     0.124 C 
ATOM     10  C   UNL A   1      31.018  26.362  25.461  1.00  0.00     0.106 C 
ATOM     11  C   UNL A   1      30.019  26.772  24.422  1.00  0.00    -0.006 C 
ATOM     12  C   UNL A   1      31.429  27.736  26.008  1.00  0.00     0.048 C 
ATOM     13  C   UNL A   1      30.289  28.012  23.986  1.00  0.00    -0.014 C 
BRANCH  10  14
ATOM     14  N   UNL A   1      30.461  25.467  26.430  1.00  0.00    -0.346 N 
ATOM     15  C   UNL A   1      30.375  24.092  26.447  1.00  0.00     0.251 C 
ATOM     16  O   UNL A   1      29.700  23.604  27.356  1.00  0.00    -0.269 OA
ATOM     17  H   UNL A   1      30.074  25.909  27.219  1.00  0.00     0.164 HD
BRANCH  15  18
ATOM     18  C   UNL A   1      31.082  23.172  25.490  1.00  0.00     0.040 A 
ATOM     19  C   UNL A   1      33.063  19.913  25.271  1.00  0.00     0.047 C 
ATOM     20  C   UNL A   1      32.371  21.180  24.865  1.00  0.00    -0.015 A 
ATOM     21  C   UNL A   1      31.849  22.052  25.838  1.00  0.00     0.020 A 
ATOM     22  C   UNL A   1      32.170  21.476  23.520  1.00  0.00     0.126 A 
ATOM     23  C   UNL A   1      31.488  22.623  23.139  1.00  0.00     0.040 A 
ATOM     24  F   UNL A   1      32.634  20.641  22.581  1.00  0.00    -0.207 F 
ATOM     25  C   UNL A   1      30.939  23.458  24.119  1.00  0.00     0.017 A 
ENDBRANCH  15  18
ENDBRANCH  10  14
ENDBRANCH   7   9
ENDBRANCH   6   7
ENDBRANCH   5   6
ENDBRANCH   4   5
ENDBRANCH   3   4
ENDBRANCH   2   3
ENDBRANCH   1   2
BRANCH   1  26
ATOM     26  O   UNL A   1      35.744  22.183  25.665  1.00  0.00    -0.376 OA
BRANCH  26  27
ATOM     27  C   UNL A   1      36.705  21.683  24.746  1.00  0.00     0.202 C 
BRANCH  27  28
ATOM     28  C   UNL A   1      38.123  21.286  25.184  1.00  0.00     0.261 C 
BRANCH  28  29
ATOM     29  O   UNL A   1      38.598  21.931  26.374  1.00  0.00    -0.460 OA
BRANCH  29  30
ATOM     30  C   UNL A   1      39.938  22.133  26.412  1.00  0.00     0.338 C 
ATOM     31  O   UNL A   1      40.805  21.439  25.897  1.00  0.00    -0.246 OA
BRANCH  30  32
ATOM     32  C   UNL A   1      40.223  23.452  26.999  1.00  0.00     0.060 A 
ATOM     33  C   UNL A   1      39.720  24.590  26.354  1.00  0.00     0.016 A 
ATOM     34  C   UNL A   1      41.040  23.571  28.123  1.00  0.00     0.016 A 
ATOM     35  C   UNL A   1      40.044  25.860  26.823  1.00  0.00     0.010 A 
ATOM     36  C   UNL A   1      41.392  24.846  28.572  1.00  0.00     0.010 A 
ATOM     37  C   UNL A   1      40.918  25.993  27.908  1.00  0.00    -0.014 A 
BRANCH  37  38
ATOM     38  C   UNL A   1      41.490  27.321  28.229  1.00  0.00     0.031 A 
ATOM     39  C   UNL A   1      42.972  27.518  28.071  1.00  0.00     0.074 A 
ATOM     40  C   UNL A   1      40.708  28.332  28.645  1.00  0.00     0.049 A 
ATOM     41  N   UNL A   1      43.704  28.563  28.361  1.00  0.00    -0.248 NA
ATOM     42  C   UNL A   1      43.730  26.386  27.513  1.00  0.00     0.031 C 
ATOM     43  C   UNL A   1      39.253  28.278  28.781  1.00  0.00     0.029 A 
ATOM     44  N   UNL A   1      41.040  29.601  29.043  1.00  0.00    -0.354 N 
ATOM     45  C   UNL A   1      45.008  28.210  28.035  1.00  0.00     0.074 A 
ATOM     46  C   UNL A   1      44.970  26.850  27.542  1.00  0.00     0.031 C 
ATOM     47  C   UNL A   1      38.818  29.462  29.248  1.00  0.00     0.029 A 
ATOM     48  C   UNL A   1      39.966  30.339  29.478  1.00  0.00     0.049 A 
ATOM     49  H   UNL A   1      41.960  29.951  29.020  1.00  0.00     0.167 HD
ATOM     50  C   UNL A   1      46.136  28.950  28.139  1.00  0.00     0.031 A 
ATOM     51  C   UNL A   1      39.919  31.570  30.024  1.00  0.00     0.031 A 
ATOM     52  C   UNL A   1      46.172  30.295  28.648  1.00  0.00     0.049 A 
ATOM     53  C   UNL A   1      41.200  32.345  30.210  1.00  0.00     0.074 A 
ATOM     54  C   UNL A   1      47.264  31.133  28.787  1.00  0.00     0.029 A 
ATOM     55  N   UNL A   1      45.069  30.995  29.113  1.00  0.00    -0.354 N 
ATOM     56  N   UNL A   1      42.425  32.006  29.887  1.00  0.00    -0.248 NA
ATOM     57  C   UNL A   1      41.088  33.673  30.833  1.00  0.00     0.031 C 
ATOM     58  C   UNL A   1      46.830  32.319  29.388  1.00  0.00     0.029 A 
ATOM     59  C   UNL A   1      45.457  32.244  29.565  1.00  0.00     0.049 A 
ATOM     60  H   UNL A   1      44.145  30.653  29.120  1.00  0.00     0.167 HD
ATOM     61  C   UNL A   1      43.225  33.089  30.239  1.00  0.00     0.074 A 
ATOM     62  C   UNL A   1      42.344  34.097  30.791  1.00  0.00     0.031 C 
ATOM     63  C   UNL A   1      44.567  33.238  30.112  1.00  0.00     0.031 A 
BRANCH  50  64
ATOM     64  C   UNL A   1      47.431  28.300  27.735  1.00  0.00    -0.014 A 
ATOM     65  C   UNL A   1      47.954  28.455  26.439  1.00  0.00     0.010 A 
ATOM     66  C   UNL A   1      48.151  27.544  28.679  1.00  0.00     0.010 A 
ATOM     67  C   UNL A   1      49.154  27.834  26.082  1.00  0.00     0.020 A 
ATOM     68  C   UNL A   1      49.365  26.945  28.334  1.00  0.00     0.020 A 
ATOM     69  C   UNL A   1      49.850  27.081  27.032  1.00  0.00     0.054 A 
BRANCH  69  70
ATOM     70  S   UNL A   1      51.416  26.303  26.549  1.00  0.00     0.124 S 
ATOM     71  O   UNL A   1      52.392  27.121  27.264  1.00  0.00    -0.237 OA
ATOM     72  O   UNL A   1      51.260  24.937  27.042  1.00  0.00    -0.237 OA
ATOM     73  O   UNL A   1      51.438  26.438  25.094  1.00  0.00    -0.744 OA
ENDBRANCH  69  70
ENDBRANCH  50  64
BRANCH  51  74
ATOM     74  C   UNL A   1      38.615  32.142  30.455  1.00  0.00    -0.014 A 
ATOM     75  C   UNL A   1      38.091  31.852  31.727  1.00  0.00     0.010 A 
ATOM     76  C   UNL A   1      37.887  32.981  29.590  1.00  0.00     0.010 A 
ATOM     77  C   UNL A   1      36.857  32.378  32.121  1.00  0.00     0.020 A 
ATOM     78  C   UNL A   1      36.666  33.531  29.991  1.00  0.00     0.020 A 
ATOM     79  C   UNL A   1      36.154  33.216  31.251  1.00  0.00     0.054 A 
BRANCH  79  80
ATOM     80  S   UNL A   1      34.579  33.925  31.806  1.00  0.00     0.124 S 
ATOM     81  O   UNL A   1      34.081  32.891  32.707  1.00  0.00    -0.237 OA
ATOM     82  O   UNL A   1      35.007  35.168  32.442  1.00  0.00    -0.237 OA
ATOM     83  O   UNL A   1      33.823  34.094  30.567  1.00  0.00    -0.744 OA
ENDBRANCH  79  80
ENDBRANCH  51  74
BRANCH  63  84
ATOM     84  C   UNL A   1      45.169  34.552  30.538  1.00  0.00    -0.014 A 
ATOM     85  C   UNL A   1      45.258  35.638  29.651  1.00  0.00     0.010 A 
ATOM     86  C   UNL A   1      45.590  34.720  31.871  1.00  0.00     0.010 A 
ATOM     87  C   UNL A   1      45.786  36.860  30.081  1.00  0.00     0.020 A 
ATOM     88  C   UNL A   1      46.092  35.946  32.312  1.00  0.00     0.020 A 
ATOM     89  C   UNL A   1      46.200  37.006  31.409  1.00  0.00     0.054 A 
BRANCH  89  90
ATOM     90  S   UNL A   1      46.837  38.614  31.956  1.00  0.00     0.124 S 
ATOM     91  O   UNL A   1      47.434  39.137  30.730  1.00  0.00    -0.237 OA
ATOM     92  O   UNL A   1      45.629  39.301  32.408  1.00  0.00    -0.237 OA
ATOM     93  O   UNL A   1      47.785  38.272  33.014  1.00  0.00    -0.744 OA
ENDBRANCH  89  90
ENDBRANCH  63  84
ENDBRANCH  37  38
ENDBRANCH  30  32
ENDBRANCH  29  30
ENDBRANCH  28  29
ENDBRANCH  27  28
ENDBRANCH  26  27
ENDBRANCH   1  26
TORSDOF 22
ENDMDL
