MODEL 1
REMARK VINA RESULT:     -10.7      0.000      0.000
REMARK SMILES O=C(OCCOCCOCCOC(=O)c1ccc(-c2c3nc(c(-c4ccc(S(=O)(=O)[O-])cc4)c4ccc([nH]4)c(-c4ccc(S(=O)(=O)[O-])cc4)c4nc(c(-c5ccc(S(=O)(=O)[O-])cc5)c5ccc2[nH]5)C=C4)C=C3)cc1)C1=Cc2cc(S(F)(F)(F)(F)F)ccc2O[C@H]1C(F)(F)F
REMARK SMILES IDX 8 1 7 2 6 3 5 4 4 5 3 6 2 7 1 8 75 9 76 10 90 11 77 12 89 13
REMARK SMILES IDX 78 14 88 15 79 16 87 17 86 18 91 19 92 20 93 21 94 22 80 23
REMARK SMILES IDX 81 24 82 25 83 26 84 27 85 28 9 29 10 30 11 31 12 32 13 33
REMARK SMILES IDX 14 34 15 35 16 36 74 37 17 38 73 39 18 40 19 41 20 42 67 43
REMARK SMILES IDX 21 44 72 45 66 46 68 47 22 48 71 49 65 50 64 51 23 53 53 54
REMARK SMILES IDX 34 55 52 56 35 57 38 58 51 59 69 60 36 61 37 62 50 64 70 65
REMARK SMILES IDX 39 66 24 67 25 68 33 69 26 70 32 71 27 72 28 73 29 74 30 75
REMARK SMILES IDX 31 76 54 77 55 78 63 79 56 80 62 81 57 82 58 83 59 84 60 85
REMARK SMILES IDX 61 86 40 87 41 88 49 89 42 90 48 91 43 92 44 93 45 94 46 95
REMARK SMILES IDX 47 96
REMARK H PARENT 68 52 38 63
REMARK Flexibility Score: inf
ROOT
ATOM      1  C   UNL A   1      38.528  21.769  26.121  1.00  0.00     0.188 C 
ENDROOT
BRANCH   1   2
ATOM      2  C   UNL A   1      37.765  20.879  25.153  1.00  0.00     0.188 C 
BRANCH   2   3
ATOM      3  O   UNL A   1      36.515  21.477  24.844  1.00  0.00    -0.376 OA
BRANCH   3   4
ATOM      4  C   UNL A   1      36.733  22.680  24.123  1.00  0.00     0.202 C 
BRANCH   4   5
ATOM      5  C   UNL A   1      35.773  23.750  24.618  1.00  0.00     0.261 C 
BRANCH   5   6
ATOM      6  O   UNL A   1      34.717  23.908  23.683  1.00  0.00    -0.460 OA
BRANCH   6   7
ATOM      7  C   UNL A   1      33.455  24.398  24.112  1.00  0.00     0.338 C 
ATOM      8  O   UNL A   1      33.382  25.162  25.125  1.00  0.00    -0.246 OA
BRANCH   7   9
ATOM      9  C   UNL A   1      32.192  24.010  23.360  1.00  0.00     0.087 C 
ATOM     10  C   UNL A   1      31.732  22.732  23.419  1.00  0.00     0.027 C 
ATOM     11  C   UNL A   1      31.444  25.051  22.543  1.00  0.00     0.316 C 
ATOM     12  C   UNL A   1      32.480  21.691  24.236  1.00  0.00     0.019 A 
ATOM     13  O   UNL A   1      32.755  23.342  25.923  1.00  0.00    -0.475 OA
ATOM     14  C   UNL A   1      32.742  20.447  23.688  1.00  0.00     0.036 A 
ATOM     15  C   UNL A   1      32.900  22.010  25.455  1.00  0.00     0.128 A 
ATOM     16  C   UNL A   1      33.212  19.496  24.625  1.00  0.00     0.107 A 
ATOM     17  C   UNL A   1      33.474  21.061  26.268  1.00  0.00     0.048 A 
ATOM     18  C   UNL A   1      33.710  19.794  25.810  1.00  0.00     0.028 A 
BRANCH  11  19
ATOM     19  C   UNL A   1      32.163  26.387  22.644  1.00  0.00     0.430 C 
ATOM     20  F   UNL A   1      33.444  26.229  22.324  1.00  0.00    -0.167 F 
ATOM     21  F   UNL A   1      31.600  27.254  21.807  1.00  0.00    -0.167 F 
ATOM     22  F   UNL A   1      32.071  26.848  23.888  1.00  0.00    -0.167 F 
ENDBRANCH  11  19
BRANCH  16  23
ATOM     23  S   UNL A   1      33.125  17.746  24.164  1.00  0.00     0.310 S 
ATOM     24  F   UNL A   1      32.619  18.091  22.700  1.00  0.00    -0.094 F 
ATOM     25  F   UNL A   1      31.613  17.729  24.608  1.00  0.00    -0.094 F 
ATOM     26  F   UNL A   1      33.056  16.245  23.769  1.00  0.00    -0.094 F 
ATOM     27  F   UNL A   1      34.597  17.821  23.595  1.00  0.00    -0.094 F 
ATOM     28  F   UNL A   1      33.176  19.300  24.456  1.00  0.00    -0.094 F 
ENDBRANCH  16  23
ENDBRANCH   7   9
ENDBRANCH   6   7
ENDBRANCH   5   6
ENDBRANCH   4   5
ENDBRANCH   3   4
ENDBRANCH   2   3
ENDBRANCH   1   2
BRANCH   1  29
ATOM     29  O   UNL A   1      39.909  21.755  25.787  1.00  0.00    -0.376 OA
BRANCH  29  30
ATOM     30  C   UNL A   1      40.534  22.919  26.306  1.00  0.00     0.202 C 
BRANCH  30  31
ATOM     31  C   UNL A   1      39.584  23.618  27.267  1.00  0.00     0.261 C 
BRANCH  31  32
ATOM     32  O   UNL A   1      39.222  24.884  26.738  1.00  0.00    -0.460 OA
BRANCH  32  33
ATOM     33  C   UNL A   1      40.124  25.976  26.830  1.00  0.00     0.338 C 
ATOM     34  O   UNL A   1      40.859  26.278  25.838  1.00  0.00    -0.246 OA
BRANCH  33  35
ATOM     35  C   UNL A   1      40.210  26.786  28.114  1.00  0.00     0.060 A 
ATOM     36  C   UNL A   1      39.458  26.412  29.214  1.00  0.00     0.016 A 
ATOM     37  C   UNL A   1      40.965  27.878  28.134  1.00  0.00     0.016 A 
ATOM     38  C   UNL A   1      39.342  27.421  30.199  1.00  0.00     0.010 A 
ATOM     39  C   UNL A   1      40.902  28.753  29.192  1.00  0.00     0.010 A 
ATOM     40  C   UNL A   1      40.133  28.475  30.289  1.00  0.00    -0.014 A 
BRANCH  40  41
ATOM     41  C   UNL A   1      40.186  29.334  31.542  1.00  0.00     0.031 A 
ATOM     42  C   UNL A   1      39.194  30.302  31.708  1.00  0.00     0.074 A 
ATOM     43  C   UNL A   1      41.184  29.081  32.467  1.00  0.00     0.049 A 
ATOM     44  N   UNL A   1      39.010  31.106  32.756  1.00  0.00    -0.248 NA
ATOM     45  C   UNL A   1      38.154  30.594  30.711  1.00  0.00     0.031 C 
ATOM     46  C   UNL A   1      42.182  28.100  32.311  1.00  0.00     0.029 A 
ATOM     47  N   UNL A   1      41.397  29.711  33.674  1.00  0.00    -0.354 N 
ATOM     48  C   UNL A   1      37.945  31.886  32.557  1.00  0.00     0.074 A 
ATOM     49  C   UNL A   1      37.382  31.572  31.236  1.00  0.00     0.031 C 
ATOM     50  C   UNL A   1      42.992  28.145  33.402  1.00  0.00     0.029 A 
ATOM     51  C   UNL A   1      42.512  29.154  34.259  1.00  0.00     0.049 A 
ATOM     52  H   UNL A   1      40.845  30.433  34.053  1.00  0.00     0.167 HD
ATOM     53  C   UNL A   1      37.420  32.844  33.425  1.00  0.00     0.031 A 
ATOM     54  C   UNL A   1      43.096  29.495  35.469  1.00  0.00     0.031 A 
ATOM     55  C   UNL A   1      37.979  33.155  34.655  1.00  0.00     0.049 A 
ATOM     56  C   UNL A   1      42.605  30.495  36.312  1.00  0.00     0.074 A 
ATOM     57  C   UNL A   1      37.457  34.113  35.545  1.00  0.00     0.029 A 
ATOM     58  N   UNL A   1      39.108  32.616  35.228  1.00  0.00    -0.354 N 
ATOM     59  N   UNL A   1      41.517  31.246  36.130  1.00  0.00    -0.248 NA
ATOM     60  C   UNL A   1      43.233  30.886  37.581  1.00  0.00     0.031 C 
ATOM     61  C   UNL A   1      38.267  34.157  36.637  1.00  0.00     0.029 A 
ATOM     62  C   UNL A   1      39.308  33.229  36.446  1.00  0.00     0.049 A 
ATOM     63  H   UNL A   1      39.676  31.913  34.836  1.00  0.00     0.167 HD
ATOM     64  C   UNL A   1      41.357  32.079  37.160  1.00  0.00     0.074 A 
ATOM     65  C   UNL A   1      42.463  31.865  38.104  1.00  0.00     0.031 C 
ATOM     66  C   UNL A   1      40.333  33.007  37.352  1.00  0.00     0.031 A 
BRANCH  53  67
ATOM     67  C   UNL A   1      36.165  33.589  32.998  1.00  0.00    -0.014 A 
ATOM     68  C   UNL A   1      36.290  34.809  32.356  1.00  0.00     0.010 A 
ATOM     69  C   UNL A   1      34.973  33.068  33.260  1.00  0.00     0.010 A 
ATOM     70  C   UNL A   1      35.085  35.547  32.285  1.00  0.00     0.020 A 
ATOM     71  C   UNL A   1      33.828  33.794  33.040  1.00  0.00     0.020 A 
ATOM     72  C   UNL A   1      33.882  35.033  32.463  1.00  0.00     0.054 A 
BRANCH  72  73
ATOM     73  S   UNL A   1      32.384  35.920  31.968  1.00  0.00     0.124 S 
ATOM     74  O   UNL A   1      32.270  35.915  30.442  1.00  0.00    -0.237 OA
ATOM     75  O   UNL A   1      31.159  35.233  32.575  1.00  0.00    -0.237 OA
ATOM     76  O   UNL A   1      32.467  37.535  32.526  1.00  0.00    -0.744 OA
ENDBRANCH  72  73
ENDBRANCH  53  67
BRANCH  54  77
ATOM     77  C   UNL A   1      44.340  28.738  35.904  1.00  0.00    -0.014 A 
ATOM     78  C   UNL A   1      44.189  27.474  36.447  1.00  0.00     0.010 A 
ATOM     79  C   UNL A   1      45.541  29.287  35.758  1.00  0.00     0.010 A 
ATOM     80  C   UNL A   1      45.354  26.979  37.079  1.00  0.00     0.020 A 
ATOM     81  C   UNL A   1      46.656  28.680  36.284  1.00  0.00     0.020 A 
ATOM     82  C   UNL A   1      46.571  27.456  36.888  1.00  0.00     0.054 A 
BRANCH  82  83
ATOM     83  S   UNL A   1      48.046  26.540  37.397  1.00  0.00     0.124 S 
ATOM     84  O   UNL A   1      48.093  25.198  36.662  1.00  0.00    -0.237 OA
ATOM     85  O   UNL A   1      49.296  27.354  37.053  1.00  0.00    -0.237 OA
ATOM     86  O   UNL A   1      47.993  26.263  39.084  1.00  0.00    -0.744 OA
ENDBRANCH  82  83
ENDBRANCH  54  77
BRANCH  66  87
ATOM     87  C   UNL A   1      40.340  33.825  38.635  1.00  0.00    -0.014 A 
ATOM     88  C   UNL A   1      39.713  33.329  39.765  1.00  0.00     0.010 A 
ATOM     89  C   UNL A   1      40.920  35.020  38.635  1.00  0.00     0.010 A 
ATOM     90  C   UNL A   1      39.496  34.299  40.772  1.00  0.00     0.020 A 
ATOM     91  C   UNL A   1      40.780  35.863  39.711  1.00  0.00     0.020 A 
ATOM     92  C   UNL A   1      40.121  35.461  40.839  1.00  0.00     0.054 A 
BRANCH  92  93
ATOM     93  S   UNL A   1      40.104  36.467  42.344  1.00  0.00     0.124 S 
ATOM     94  O   UNL A   1      39.738  37.910  41.989  1.00  0.00    -0.237 OA
ATOM     95  O   UNL A   1      39.071  35.904  43.322  1.00  0.00    -0.237 OA
ATOM     96  O   UNL A   1      41.653  36.433  43.069  1.00  0.00    -0.744 OA
ENDBRANCH  92  93
ENDBRANCH  66  87
ENDBRANCH  40  41
ENDBRANCH  33  35
ENDBRANCH  32  33
ENDBRANCH  31  32
ENDBRANCH  30  31
ENDBRANCH  29  30
ENDBRANCH   1  29
TORSDOF 22
ENDMDL
MODEL 2
REMARK VINA RESULT:     -10.7      1.988      8.731
REMARK SMILES O=C(OCCOCCOCCOC(=O)c1ccc(-c2c3nc(c(-c4ccc(S(=O)(=O)[O-])cc4)c4ccc([nH]4)c(-c4ccc(S(=O)(=O)[O-])cc4)c4nc(c(-c5ccc(S(=O)(=O)[O-])cc5)c5ccc2[nH]5)C=C4)C=C3)cc1)C1=Cc2cc(S(F)(F)(F)(F)F)ccc2O[C@H]1C(F)(F)F
REMARK SMILES IDX 8 1 7 2 6 3 5 4 4 5 3 6 2 7 1 8 75 9 76 10 90 11 77 12 89 13
REMARK SMILES IDX 78 14 88 15 79 16 87 17 86 18 91 19 92 20 93 21 94 22 80 23
REMARK SMILES IDX 81 24 82 25 83 26 84 27 85 28 9 29 10 30 11 31 12 32 13 33
REMARK SMILES IDX 14 34 15 35 16 36 74 37 17 38 73 39 18 40 19 41 20 42 67 43
REMARK SMILES IDX 21 44 72 45 66 46 68 47 22 48 71 49 65 50 64 51 23 53 53 54
REMARK SMILES IDX 34 55 52 56 35 57 38 58 51 59 69 60 36 61 37 62 50 64 70 65
REMARK SMILES IDX 39 66 24 67 25 68 33 69 26 70 32 71 27 72 28 73 29 74 30 75
REMARK SMILES IDX 31 76 54 77 55 78 63 79 56 80 62 81 57 82 58 83 59 84 60 85
REMARK SMILES IDX 61 86 40 87 41 88 49 89 42 90 48 91 43 92 44 93 45 94 46 95
REMARK SMILES IDX 47 96
REMARK H PARENT 68 52 38 63
REMARK Flexibility Score: inf
ROOT
ATOM      1  C   UNL A   1      39.445  21.936  26.252  1.00  0.00     0.188 C 
ENDROOT
BRANCH   1   2
ATOM      2  C   UNL A   1      38.205  21.305  25.641  1.00  0.00     0.188 C 
BRANCH   2   3
ATOM      3  O   UNL A   1      37.175  22.278  25.546  1.00  0.00    -0.376 OA
BRANCH   3   4
ATOM      4  C   UNL A   1      37.352  23.041  24.363  1.00  0.00     0.202 C 
BRANCH   4   5
ATOM      5  C   UNL A   1      36.138  22.873  23.464  1.00  0.00     0.261 C 
BRANCH   5   6
ATOM      6  O   UNL A   1      34.994  23.413  24.109  1.00  0.00    -0.460 OA
BRANCH   6   7
ATOM      7  C   UNL A   1      33.696  23.127  23.609  1.00  0.00     0.338 C 
ATOM      8  O   UNL A   1      33.521  22.938  22.364  1.00  0.00    -0.246 OA
BRANCH   7   9
ATOM      9  C   UNL A   1      32.515  23.047  24.563  1.00  0.00     0.087 C 
ATOM     10  C   UNL A   1      32.035  24.177  25.148  1.00  0.00     0.027 C 
ATOM     11  C   UNL A   1      31.870  21.703  24.863  1.00  0.00     0.316 C 
ATOM     12  C   UNL A   1      32.679  25.520  24.847  1.00  0.00     0.019 A 
ATOM     13  O   UNL A   1      32.795  24.857  22.569  1.00  0.00    -0.475 OA
ATOM     14  C   UNL A   1      32.983  26.384  25.887  1.00  0.00     0.036 A 
ATOM     15  C   UNL A   1      32.972  25.828  23.589  1.00  0.00     0.128 A 
ATOM     16  C   UNL A   1      33.339  27.686  25.465  1.00  0.00     0.107 A 
ATOM     17  C   UNL A   1      33.445  27.077  23.266  1.00  0.00     0.048 A 
ATOM     18  C   UNL A   1      33.713  28.000  24.238  1.00  0.00     0.028 A 
BRANCH  11  19
ATOM     19  C   UNL A   1      32.591  20.611  24.088  1.00  0.00     0.430 C 
ATOM     20  F   UNL A   1      32.405  20.794  22.784  1.00  0.00    -0.167 F 
ATOM     21  F   UNL A   1      33.891  20.661  24.363  1.00  0.00    -0.167 F 
ATOM     22  F   UNL A   1      32.108  19.423  24.442  1.00  0.00    -0.167 F 
ENDBRANCH  11  19
BRANCH  16  23
ATOM     23  S   UNL A   1      33.280  29.016  26.693  1.00  0.00     0.310 S 
ATOM     24  F   UNL A   1      33.231  30.137  25.571  1.00  0.00    -0.094 F 
ATOM     25  F   UNL A   1      34.852  29.115  26.625  1.00  0.00    -0.094 F 
ATOM     26  F   UNL A   1      33.225  30.155  27.748  1.00  0.00    -0.094 F 
ATOM     27  F   UNL A   1      31.702  28.997  26.642  1.00  0.00    -0.094 F 
ATOM     28  F   UNL A   1      33.316  27.936  25.538  1.00  0.00    -0.094 F 
ENDBRANCH  16  23
ENDBRANCH   7   9
ENDBRANCH   6   7
ENDBRANCH   5   6
ENDBRANCH   4   5
ENDBRANCH   3   4
ENDBRANCH   2   3
ENDBRANCH   1   2
BRANCH   1  29
ATOM     29  O   UNL A   1      40.548  21.055  26.099  1.00  0.00    -0.376 OA
BRANCH  29  30
ATOM     30  C   UNL A   1      41.757  21.801  26.123  1.00  0.00     0.202 C 
BRANCH  30  31
ATOM     31  C   UNL A   1      41.531  23.106  26.870  1.00  0.00     0.261 C 
BRANCH  31  32
ATOM     32  O   UNL A   1      42.242  24.150  26.224  1.00  0.00    -0.460 OA
BRANCH  32  33
ATOM     33  C   UNL A   1      41.684  25.454  26.157  1.00  0.00     0.338 C 
ATOM     34  O   UNL A   1      41.323  25.935  25.038  1.00  0.00    -0.246 OA
BRANCH  33  35
ATOM     35  C   UNL A   1      41.518  26.276  27.426  1.00  0.00     0.060 A 
ATOM     36  C   UNL A   1      40.530  25.942  28.337  1.00  0.00     0.016 A 
ATOM     37  C   UNL A   1      42.291  27.340  27.607  1.00  0.00     0.016 A 
ATOM     38  C   UNL A   1      40.240  26.966  29.269  1.00  0.00     0.010 A 
ATOM     39  C   UNL A   1      42.031  28.229  28.623  1.00  0.00     0.010 A 
ATOM     40  C   UNL A   1      41.031  27.992  29.525  1.00  0.00    -0.014 A 
BRANCH  40  41
ATOM     41  C   UNL A   1      40.841  28.863  30.756  1.00  0.00     0.031 A 
ATOM     42  C   UNL A   1      41.686  28.642  31.845  1.00  0.00     0.074 A 
ATOM     43  C   UNL A   1      39.873  29.853  30.716  1.00  0.00     0.049 A 
ATOM     44  N   UNL A   1      41.741  29.332  32.985  1.00  0.00    -0.248 NA
ATOM     45  C   UNL A   1      42.691  27.570  31.903  1.00  0.00     0.031 C 
ATOM     46  C   UNL A   1      39.022  30.088  29.618  1.00  0.00     0.029 A 
ATOM     47  N   UNL A   1      39.557  30.766  31.697  1.00  0.00    -0.354 N 
ATOM     48  C   UNL A   1      42.691  28.834  33.780  1.00  0.00     0.074 A 
ATOM     49  C   UNL A   1      43.312  27.690  33.097  1.00  0.00     0.031 C 
ATOM     50  C   UNL A   1      38.198  31.120  29.937  1.00  0.00     0.029 A 
ATOM     51  C   UNL A   1      38.520  31.548  31.238  1.00  0.00     0.049 A 
ATOM     52  H   UNL A   1      39.997  30.847  32.574  1.00  0.00     0.167 HD
ATOM     53  C   UNL A   1      43.065  29.289  35.045  1.00  0.00     0.031 A 
ATOM     54  C   UNL A   1      37.877  32.580  31.904  1.00  0.00     0.031 A 
ATOM     55  C   UNL A   1      42.450  30.349  35.692  1.00  0.00     0.049 A 
ATOM     56  C   UNL A   1      38.212  32.999  33.194  1.00  0.00     0.074 A 
ATOM     57  C   UNL A   1      42.820  30.825  36.965  1.00  0.00     0.029 A 
ATOM     58  N   UNL A   1      41.397  31.115  35.245  1.00  0.00    -0.354 N 
ATOM     59  N   UNL A   1      39.188  32.526  33.971  1.00  0.00    -0.248 NA
ATOM     60  C   UNL A   1      37.517  34.069  33.920  1.00  0.00     0.031 C 
ATOM     61  C   UNL A   1      41.995  31.859  37.283  1.00  0.00     0.029 A 
ATOM     62  C   UNL A   1      41.096  32.044  36.216  1.00  0.00     0.049 A 
ATOM     63  H   UNL A   1      40.938  31.016  34.378  1.00  0.00     0.167 HD
ATOM     64  C   UNL A   1      39.215  33.189  35.129  1.00  0.00     0.074 A 
ATOM     65  C   UNL A   1      38.135  34.186  35.116  1.00  0.00     0.031 C 
ATOM     66  C   UNL A   1      40.098  33.006  36.194  1.00  0.00     0.031 A 
BRANCH  53  67
ATOM     67  C   UNL A   1      44.210  28.583  35.752  1.00  0.00    -0.014 A 
ATOM     68  C   UNL A   1      45.509  29.002  35.518  1.00  0.00     0.010 A 
ATOM     69  C   UNL A   1      43.950  27.568  36.567  1.00  0.00     0.010 A 
ATOM     70  C   UNL A   1      46.495  28.095  35.973  1.00  0.00     0.020 A 
ATOM     71  C   UNL A   1      44.970  26.806  37.083  1.00  0.00     0.020 A 
ATOM     72  C   UNL A   1      46.278  27.128  36.845  1.00  0.00     0.054 A 
BRANCH  72  73
ATOM     73  S   UNL A   1      47.638  26.275  37.681  1.00  0.00     0.124 S 
ATOM     74  O   UNL A   1      48.915  27.110  37.558  1.00  0.00    -0.237 OA
ATOM     75  O   UNL A   1      47.290  26.087  39.159  1.00  0.00    -0.237 OA
ATOM     76  O   UNL A   1      47.886  24.747  36.954  1.00  0.00    -0.744 OA
ENDBRANCH  72  73
ENDBRANCH  53  67
BRANCH  54  77
ATOM     77  C   UNL A   1      36.743  33.297  31.190  1.00  0.00    -0.014 A 
ATOM     78  C   UNL A   1      35.464  33.198  31.712  1.00  0.00     0.010 A 
ATOM     79  C   UNL A   1      36.986  34.004  30.091  1.00  0.00     0.010 A 
ATOM     80  C   UNL A   1      34.450  33.646  30.833  1.00  0.00     0.020 A 
ATOM     81  C   UNL A   1      35.952  34.528  29.354  1.00  0.00     0.020 A 
ATOM     82  C   UNL A   1      34.657  34.416  29.780  1.00  0.00     0.054 A 
BRANCH  82  83
ATOM     83  S   UNL A   1      33.301  35.277  28.946  1.00  0.00     0.124 S 
ATOM     84  O   UNL A   1      32.548  34.292  28.047  1.00  0.00    -0.237 OA
ATOM     85  O   UNL A   1      32.342  35.850  29.990  1.00  0.00    -0.237 OA
ATOM     86  O   UNL A   1      33.934  36.548  27.993  1.00  0.00    -0.744 OA
ENDBRANCH  82  83
ENDBRANCH  54  77
BRANCH  66  87
ATOM     87  C   UNL A   1      39.958  33.917  37.403  1.00  0.00    -0.014 A 
ATOM     88  C   UNL A   1      39.240  33.483  38.505  1.00  0.00     0.010 A 
ATOM     89  C   UNL A   1      40.498  35.129  37.365  1.00  0.00     0.010 A 
ATOM     90  C   UNL A   1      38.899  34.517  39.409  1.00  0.00     0.020 A 
ATOM     91  C   UNL A   1      40.230  36.045  38.354  1.00  0.00     0.020 A 
ATOM     92  C   UNL A   1      39.478  35.703  39.444  1.00  0.00     0.054 A 
BRANCH  92  93
ATOM     93  S   UNL A   1      39.287  36.818  40.857  1.00  0.00     0.124 S 
ATOM     94  O   UNL A   1      40.668  37.217  41.382  1.00  0.00    -0.237 OA
ATOM     95  O   UNL A   1      38.526  38.071  40.419  1.00  0.00    -0.237 OA
ATOM     96  O   UNL A   1      38.414  36.024  42.095  1.00  0.00    -0.744 OA
ENDBRANCH  92  93
ENDBRANCH  66  87
ENDBRANCH  40  41
ENDBRANCH  33  35
ENDBRANCH  32  33
ENDBRANCH  31  32
ENDBRANCH  30  31
ENDBRANCH  29  30
ENDBRANCH   1  29
TORSDOF 22
ENDMDL
MODEL 3
REMARK VINA RESULT:     -10.7      1.957      4.160
REMARK SMILES O=C(OCCOCCOCCOC(=O)c1ccc(-c2c3nc(c(-c4ccc(S(=O)(=O)[O-])cc4)c4ccc([nH]4)c(-c4ccc(S(=O)(=O)[O-])cc4)c4nc(c(-c5ccc(S(=O)(=O)[O-])cc5)c5ccc2[nH]5)C=C4)C=C3)cc1)C1=Cc2cc(S(F)(F)(F)(F)F)ccc2O[C@H]1C(F)(F)F
REMARK SMILES IDX 8 1 7 2 6 3 5 4 4 5 3 6 2 7 1 8 75 9 76 10 90 11 77 12 89 13
REMARK SMILES IDX 78 14 88 15 79 16 87 17 86 18 91 19 92 20 93 21 94 22 80 23
REMARK SMILES IDX 81 24 82 25 83 26 84 27 85 28 9 29 10 30 11 31 12 32 13 33
REMARK SMILES IDX 14 34 15 35 16 36 74 37 17 38 73 39 18 40 19 41 20 42 67 43
REMARK SMILES IDX 21 44 72 45 66 46 68 47 22 48 71 49 65 50 64 51 23 53 53 54
REMARK SMILES IDX 34 55 52 56 35 57 38 58 51 59 69 60 36 61 37 62 50 64 70 65
REMARK SMILES IDX 39 66 24 67 25 68 33 69 26 70 32 71 27 72 28 73 29 74 30 75
REMARK SMILES IDX 31 76 54 77 55 78 63 79 56 80 62 81 57 82 58 83 59 84 60 85
REMARK SMILES IDX 61 86 40 87 41 88 49 89 42 90 48 91 43 92 44 93 45 94 46 95
REMARK SMILES IDX 47 96
REMARK H PARENT 68 52 38 63
REMARK Flexibility Score: inf
ROOT
ATOM      1  C   UNL A   1      39.418  22.330  26.184  1.00  0.00     0.188 C 
ENDROOT
BRANCH   1   2
ATOM      2  C   UNL A   1      38.347  21.492  25.505  1.00  0.00     0.188 C 
BRANCH   2   3
ATOM      3  O   UNL A   1      37.064  21.936  25.920  1.00  0.00    -0.376 OA
BRANCH   3   4
ATOM      4  C   UNL A   1      36.991  23.348  25.803  1.00  0.00     0.202 C 
BRANCH   4   5
ATOM      5  C   UNL A   1      36.124  23.715  24.609  1.00  0.00     0.261 C 
BRANCH   5   6
ATOM      6  O   UNL A   1      34.755  23.637  24.978  1.00  0.00    -0.460 OA
BRANCH   6   7
ATOM      7  C   UNL A   1      33.849  22.878  24.190  1.00  0.00     0.338 C 
ATOM      8  O   UNL A   1      34.239  22.360  23.097  1.00  0.00    -0.246 OA
BRANCH   7   9
ATOM      9  C   UNL A   1      32.414  22.686  24.653  1.00  0.00     0.087 C 
ATOM     10  C   UNL A   1      31.502  23.678  24.471  1.00  0.00     0.027 C 
ATOM     11  C   UNL A   1      31.999  21.385  25.321  1.00  0.00     0.316 C 
ATOM     12  C   UNL A   1      31.917  24.979  23.803  1.00  0.00     0.019 A 
ATOM     13  O   UNL A   1      33.162  23.682  22.249  1.00  0.00    -0.475 OA
ATOM     14  C   UNL A   1      31.544  26.189  24.365  1.00  0.00     0.036 A 
ATOM     15  C   UNL A   1      32.664  24.930  22.706  1.00  0.00     0.128 A 
ATOM     16  C   UNL A   1      31.771  27.305  23.525  1.00  0.00     0.107 A 
ATOM     17  C   UNL A   1      32.960  26.078  22.009  1.00  0.00     0.048 A 
ATOM     18  C   UNL A   1      32.573  27.303  22.476  1.00  0.00     0.028 A 
BRANCH  11  19
ATOM     19  C   UNL A   1      33.197  20.453  25.403  1.00  0.00     0.430 C 
ATOM     20  F   UNL A   1      34.171  21.038  26.093  1.00  0.00    -0.167 F 
ATOM     21  F   UNL A   1      32.837  19.326  26.011  1.00  0.00    -0.167 F 
ATOM     22  F   UNL A   1      33.628  20.176  24.175  1.00  0.00    -0.167 F 
ENDBRANCH  11  19
BRANCH  16  23
ATOM     23  S   UNL A   1      30.901  28.844  23.916  1.00  0.00     0.310 S 
ATOM     24  F   UNL A   1      31.281  29.490  22.518  1.00  0.00    -0.094 F 
ATOM     25  F   UNL A   1      32.249  29.435  24.477  1.00  0.00    -0.094 F 
ATOM     26  F   UNL A   1      30.150  30.163  24.252  1.00  0.00    -0.094 F 
ATOM     27  F   UNL A   1      29.596  28.286  23.222  1.00  0.00    -0.094 F 
ATOM     28  F   UNL A   1      31.678  27.542  23.467  1.00  0.00    -0.094 F 
ENDBRANCH  16  23
ENDBRANCH   7   9
ENDBRANCH   6   7
ENDBRANCH   5   6
ENDBRANCH   4   5
ENDBRANCH   3   4
ENDBRANCH   2   3
ENDBRANCH   1   2
BRANCH   1  29
ATOM     29  O   UNL A   1      39.961  21.605  27.278  1.00  0.00    -0.376 OA
BRANCH  29  30
ATOM     30  C   UNL A   1      41.342  21.909  27.408  1.00  0.00     0.202 C 
BRANCH  30  31
ATOM     31  C   UNL A   1      41.837  22.572  26.132  1.00  0.00     0.261 C 
BRANCH  31  32
ATOM     32  O   UNL A   1      42.631  23.701  26.463  1.00  0.00    -0.460 OA
BRANCH  32  33
ATOM     33  C   UNL A   1      42.113  25.011  26.285  1.00  0.00     0.338 C 
ATOM     34  O   UNL A   1      41.825  25.428  25.120  1.00  0.00    -0.246 OA
BRANCH  33  35
ATOM     35  C   UNL A   1      41.900  25.915  27.490  1.00  0.00     0.060 A 
ATOM     36  C   UNL A   1      40.888  25.633  28.391  1.00  0.00     0.016 A 
ATOM     37  C   UNL A   1      42.658  26.997  27.621  1.00  0.00     0.016 A 
ATOM     38  C   UNL A   1      40.560  26.715  29.242  1.00  0.00     0.010 A 
ATOM     39  C   UNL A   1      42.359  27.950  28.565  1.00  0.00     0.010 A 
ATOM     40  C   UNL A   1      41.334  27.765  29.451  1.00  0.00    -0.014 A 
BRANCH  40  41
ATOM     41  C   UNL A   1      41.099  28.715  30.614  1.00  0.00     0.031 A 
ATOM     42  C   UNL A   1      40.076  29.657  30.486  1.00  0.00     0.074 A 
ATOM     43  C   UNL A   1      41.878  28.567  31.749  1.00  0.00     0.049 A 
ATOM     44  N   UNL A   1      39.655  30.529  31.403  1.00  0.00    -0.248 NA
ATOM     45  C   UNL A   1      39.270  29.836  29.270  1.00  0.00     0.031 C 
ATOM     46  C   UNL A   1      42.906  27.614  31.888  1.00  0.00     0.029 A 
ATOM     47  N   UNL A   1      41.813  29.292  32.918  1.00  0.00    -0.354 N 
ATOM     48  C   UNL A   1      38.643  31.253  30.919  1.00  0.00     0.074 A 
ATOM     49  C   UNL A   1      38.385  30.822  29.538  1.00  0.00     0.031 C 
ATOM     50  C   UNL A   1      43.460  27.769  33.120  1.00  0.00     0.029 A 
ATOM     51  C   UNL A   1      42.787  28.821  33.770  1.00  0.00     0.049 A 
ATOM     52  H   UNL A   1      41.180  30.020  33.112  1.00  0.00     0.167 HD
ATOM     53  C   UNL A   1      37.925  32.253  31.575  1.00  0.00     0.031 A 
ATOM     54  C   UNL A   1      43.089  29.271  35.046  1.00  0.00     0.031 A 
ATOM     55  C   UNL A   1      38.199  32.674  32.867  1.00  0.00     0.049 A 
ATOM     56  C   UNL A   1      42.409  30.313  35.682  1.00  0.00     0.074 A 
ATOM     57  C   UNL A   1      37.479  33.676  33.546  1.00  0.00     0.029 A 
ATOM     58  N   UNL A   1      39.188  32.220  33.710  1.00  0.00    -0.354 N 
ATOM     59  N   UNL A   1      41.372  31.008  35.212  1.00  0.00    -0.248 NA
ATOM     60  C   UNL A   1      42.740  30.819  37.020  1.00  0.00     0.031 C 
ATOM     61  C   UNL A   1      38.033  33.831  34.778  1.00  0.00     0.029 A 
ATOM     62  C   UNL A   1      39.108  32.928  34.889  1.00  0.00     0.049 A 
ATOM     63  H   UNL A   1      39.841  31.511  33.506  1.00  0.00     0.167 HD
ATOM     64  C   UNL A   1      40.977  31.910  36.114  1.00  0.00     0.074 A 
ATOM     65  C   UNL A   1      41.857  31.806  37.287  1.00  0.00     0.031 C 
ATOM     66  C   UNL A   1      39.918  32.812  36.008  1.00  0.00     0.031 A 
BRANCH  53  67
ATOM     67  C   UNL A   1      36.778  32.919  30.832  1.00  0.00    -0.014 A 
ATOM     68  C   UNL A   1      37.061  33.851  29.849  1.00  0.00     0.010 A 
ATOM     69  C   UNL A   1      35.526  32.608  31.146  1.00  0.00     0.010 A 
ATOM     70  C   UNL A   1      35.944  34.621  29.448  1.00  0.00     0.020 A 
ATOM     71  C   UNL A   1      34.475  33.315  30.613  1.00  0.00     0.020 A 
ATOM     72  C   UNL A   1      34.687  34.292  29.679  1.00  0.00     0.054 A 
BRANCH  72  73
ATOM     73  S   UNL A   1      33.317  35.089  28.806  1.00  0.00     0.124 S 
ATOM     74  O   UNL A   1      32.626  34.067  27.901  1.00  0.00    -0.237 OA
ATOM     75  O   UNL A   1      32.311  35.634  29.823  1.00  0.00    -0.237 OA
ATOM     76  O   UNL A   1      33.919  36.377  27.854  1.00  0.00    -0.744 OA
ENDBRANCH  72  73
ENDBRANCH  53  67
BRANCH  54  77
ATOM     77  C   UNL A   1      44.224  28.594  35.796  1.00  0.00    -0.014 A 
ATOM     78  C   UNL A   1      43.915  27.593  36.701  1.00  0.00     0.010 A 
ATOM     79  C   UNL A   1      45.483  28.961  35.576  1.00  0.00     0.010 A 
ATOM     80  C   UNL A   1      44.990  27.233  37.547  1.00  0.00     0.020 A 
ATOM     81  C   UNL A   1      46.501  28.466  36.355  1.00  0.00     0.020 A 
ATOM     82  C   UNL A   1      46.258  27.517  37.310  1.00  0.00     0.054 A 
BRANCH  82  83
ATOM     83  S   UNL A   1      47.603  26.694  38.199  1.00  0.00     0.124 S 
ATOM     84  O   UNL A   1      47.654  27.211  39.639  1.00  0.00    -0.237 OA
ATOM     85  O   UNL A   1      47.360  25.184  38.207  1.00  0.00    -0.237 OA
ATOM     86  O   UNL A   1      49.090  27.029  37.422  1.00  0.00    -0.744 OA
ENDBRANCH  82  83
ENDBRANCH  54  77
BRANCH  66  87
ATOM     87  C   UNL A   1      39.633  33.722  37.193  1.00  0.00    -0.014 A 
ATOM     88  C   UNL A   1      40.296  34.932  37.299  1.00  0.00     0.010 A 
ATOM     89  C   UNL A   1      38.777  33.320  38.125  1.00  0.00     0.010 A 
ATOM     90  C   UNL A   1      40.206  35.524  38.581  1.00  0.00     0.020 A 
ATOM     91  C   UNL A   1      38.641  34.022  39.298  1.00  0.00     0.020 A 
ATOM     92  C   UNL A   1      39.311  35.197  39.496  1.00  0.00     0.054 A 
BRANCH  92  93
ATOM     93  S   UNL A   1      38.990  36.248  40.934  1.00  0.00     0.124 S 
ATOM     94  O   UNL A   1      37.843  35.653  41.754  1.00  0.00    -0.237 OA
ATOM     95  O   UNL A   1      40.249  36.326  41.800  1.00  0.00    -0.237 OA
ATOM     96  O   UNL A   1      38.560  37.818  40.409  1.00  0.00    -0.744 OA
ENDBRANCH  92  93
ENDBRANCH  66  87
ENDBRANCH  40  41
ENDBRANCH  33  35
ENDBRANCH  32  33
ENDBRANCH  31  32
ENDBRANCH  30  31
ENDBRANCH  29  30
ENDBRANCH   1  29
TORSDOF 22
ENDMDL
