MODEL 1
REMARK VINA RESULT:     -10.4      0.000      0.000
REMARK SMILES COc1ccc2c(CC(=O)OCCOCCOCCOC(=O)c3ccc(-c4c5nc(c(-c6ccc(S(=O)(=O)[O-])cc6)c6ccc([nH]6)c(-c6ccc(S(=O)(=O)[O-])cc6)c6nc(c(-c7ccc(S(=O)(=O)[O-])cc7)c7ccc4[nH]7)C=C6)C=C5)cc3)c(C(=O)c3cc(C)ccn3)[nH]c2c1
REMARK SMILES IDX 15 1 14 2 13 3 12 4 11 5 9 6 10 7 8 8 7 9 3 10 4 11 95 12
REMARK SMILES IDX 5 13 94 14 6 15 93 16 83 17 2 19 1 20 84 21 85 22 86 23
REMARK SMILES IDX 87 24 92 25 88 26 91 27 89 28 90 29 16 30 17 31 18 32 19 33
REMARK SMILES IDX 20 34 21 35 22 36 23 37 24 38 82 39 25 40 81 41 26 42 27 43
REMARK SMILES IDX 28 44 75 45 29 46 80 47 74 48 76 49 30 50 79 51 73 52 72 53
REMARK SMILES IDX 31 55 61 56 42 57 60 58 43 59 46 60 59 61 77 62 44 63 45 64
REMARK SMILES IDX 58 66 78 67 47 68 32 69 33 70 41 71 34 72 40 73 35 74 36 75
REMARK SMILES IDX 37 76 38 77 39 78 62 79 63 80 71 81 64 82 70 83 65 84 66 85
REMARK SMILES IDX 67 86 68 87 69 88 48 89 49 90 57 91 50 92 56 93 51 94 52 95
REMARK SMILES IDX 53 96 54 97 55 98
REMARK H PARENT 93 18 76 54 46 65
REMARK Flexibility Score: inf
ROOT
ATOM      1  C   UNL A   1      32.120  29.193  25.745  1.00  0.00     0.188 C 
ENDROOT
BRANCH   1   2
ATOM      2  O   UNL A   1      33.229  28.965  24.878  1.00  0.00    -0.376 OA
BRANCH   2   3
ATOM      3  C   UNL A   1      33.009  28.226  23.683  1.00  0.00     0.202 C 
BRANCH   3   4
ATOM      4  C   UNL A   1      32.878  26.705  23.838  1.00  0.00     0.261 C 
BRANCH   4   5
ATOM      5  O   UNL A   1      33.992  26.129  24.554  1.00  0.00    -0.463 OA
BRANCH   5   6
ATOM      6  C   UNL A   1      34.101  24.775  24.542  1.00  0.00     0.310 C 
ATOM      7  O   UNL A   1      33.825  24.088  23.563  1.00  0.00    -0.252 OA
BRANCH   6   8
ATOM      8  C   UNL A   1      34.770  24.198  25.789  1.00  0.00     0.161 C 
BRANCH   8   9
ATOM      9  C   UNL A   1      35.732  23.040  25.623  1.00  0.00     0.000 A 
ATOM     10  C   UNL A   1      39.797  22.499  26.505  1.00  0.00     0.120 A 
ATOM     11  C   UNL A   1      39.349  23.816  26.574  1.00  0.00     0.047 A 
ATOM     12  C   UNL A   1      38.985  21.482  26.003  1.00  0.00     0.073 A 
ATOM     13  C   UNL A   1      38.029  24.138  26.228  1.00  0.00     0.014 A 
ATOM     14  C   UNL A   1      37.659  21.817  25.711  1.00  0.00     0.050 A 
ATOM     15  C   UNL A   1      37.150  23.108  25.838  1.00  0.00     0.004 A 
ATOM     16  N   UNL A   1      36.619  21.017  25.309  1.00  0.00    -0.351 N 
ATOM     17  C   UNL A   1      35.425  21.673  25.515  1.00  0.00     0.093 A 
ATOM     18  H   UNL A   1      36.713  20.113  24.932  1.00  0.00     0.167 HD
BRANCH  10  19
ATOM     19  O   UNL A   1      41.060  22.143  26.905  1.00  0.00    -0.497 OA
ATOM     20  C   UNL A   1      41.065  20.830  27.473  1.00  0.00     0.278 C 
ENDBRANCH  10  19
BRANCH  17  21
ATOM     21  C   UNL A   1      34.154  20.979  25.679  1.00  0.00     0.227 C 
ATOM     22  O   UNL A   1      33.459  21.096  26.686  1.00  0.00    -0.285 OA
BRANCH  21  23
ATOM     23  C   UNL A   1      33.680  20.049  24.608  1.00  0.00     0.113 A 
ATOM     24  C   UNL A   1      34.128  18.731  24.564  1.00  0.00     0.036 A 
ATOM     25  N   UNL A   1      32.746  20.560  23.764  1.00  0.00    -0.253 NA
ATOM     26  C   UNL A   1      33.561  17.870  23.615  1.00  0.00    -0.047 A 
ATOM     27  C   UNL A   1      32.167  19.685  22.911  1.00  0.00     0.112 A 
ATOM     28  C   UNL A   1      34.009  16.446  23.458  1.00  0.00     0.044 C 
ATOM     29  C   UNL A   1      32.530  18.351  22.806  1.00  0.00     0.023 A 
ENDBRANCH  21  23
ENDBRANCH  17  21
ENDBRANCH   8   9
ENDBRANCH   6   8
ENDBRANCH   5   6
ENDBRANCH   4   5
ENDBRANCH   3   4
ENDBRANCH   2   3
ENDBRANCH   1   2
BRANCH   1  30
ATOM     30  C   UNL A   1      32.187  30.362  26.754  1.00  0.00     0.188 C 
BRANCH  30  31
ATOM     31  O   UNL A   1      33.321  30.322  27.610  1.00  0.00    -0.376 OA
BRANCH  31  32
ATOM     32  C   UNL A   1      34.268  31.351  27.367  1.00  0.00     0.202 C 
BRANCH  32  33
ATOM     33  C   UNL A   1      35.365  31.398  28.432  1.00  0.00     0.261 C 
BRANCH  33  34
ATOM     34  O   UNL A   1      36.462  30.512  28.114  1.00  0.00    -0.460 OA
BRANCH  34  35
ATOM     35  C   UNL A   1      36.849  29.626  29.047  1.00  0.00     0.338 C 
ATOM     36  O   UNL A   1      36.172  29.250  30.006  1.00  0.00    -0.246 OA
BRANCH  35  37
ATOM     37  C   UNL A   1      38.237  29.157  28.810  1.00  0.00     0.060 A 
ATOM     38  C   UNL A   1      39.032  28.606  29.820  1.00  0.00     0.016 A 
ATOM     39  C   UNL A   1      38.813  29.397  27.563  1.00  0.00     0.016 A 
ATOM     40  C   UNL A   1      40.399  28.380  29.619  1.00  0.00     0.010 A 
ATOM     41  C   UNL A   1      40.165  29.097  27.339  1.00  0.00     0.010 A 
ATOM     42  C   UNL A   1      40.991  28.620  28.374  1.00  0.00    -0.014 A 
BRANCH  42  43
ATOM     43  C   UNL A   1      42.456  28.427  28.149  1.00  0.00     0.031 A 
ATOM     44  C   UNL A   1      43.423  29.550  28.447  1.00  0.00     0.074 A 
ATOM     45  C   UNL A   1      42.945  27.269  27.660  1.00  0.00     0.049 A 
ATOM     46  N   UNL A   1      44.687  29.669  28.119  1.00  0.00    -0.248 NA
ATOM     47  C   UNL A   1      42.893  30.696  29.205  1.00  0.00     0.031 C 
ATOM     48  C   UNL A   1      42.164  26.061  27.386  1.00  0.00     0.029 A 
ATOM     49  N   UNL A   1      44.225  26.923  27.293  1.00  0.00    -0.354 N 
ATOM     50  C   UNL A   1      45.087  30.919  28.579  1.00  0.00     0.074 A 
ATOM     51  C   UNL A   1      43.929  31.524  29.205  1.00  0.00     0.031 C 
ATOM     52  C   UNL A   1      42.982  25.107  26.912  1.00  0.00     0.029 A 
ATOM     53  C   UNL A   1      44.326  25.656  26.766  1.00  0.00     0.049 A 
ATOM     54  H   UNL A   1      44.997  27.525  27.398  1.00  0.00     0.167 HD
ATOM     55  C   UNL A   1      46.303  31.515  28.484  1.00  0.00     0.031 A 
ATOM     56  C   UNL A   1      45.361  25.015  26.186  1.00  0.00     0.031 A 
ATOM     57  C   UNL A   1      47.467  30.909  27.885  1.00  0.00     0.049 A 
ATOM     58  C   UNL A   1      46.683  25.717  26.037  1.00  0.00     0.074 A 
ATOM     59  C   UNL A   1      48.738  31.441  27.747  1.00  0.00     0.029 A 
ATOM     60  N   UNL A   1      47.509  29.637  27.337  1.00  0.00    -0.354 N 
ATOM     61  N   UNL A   1      47.029  26.922  26.421  1.00  0.00    -0.248 NA
ATOM     62  C   UNL A   1      47.757  24.968  25.367  1.00  0.00     0.031 C 
ATOM     63  C   UNL A   1      49.536  30.511  27.072  1.00  0.00     0.029 A 
ATOM     64  C   UNL A   1      48.781  29.373  26.847  1.00  0.00     0.049 A 
ATOM     65  H   UNL A   1      46.750  29.011  27.301  1.00  0.00     0.167 HD
ATOM     66  C   UNL A   1      48.367  27.065  26.063  1.00  0.00     0.074 A 
ATOM     67  C   UNL A   1      48.772  25.816  25.450  1.00  0.00     0.031 C 
ATOM     68  C   UNL A   1      49.184  28.134  26.232  1.00  0.00     0.031 A 
BRANCH  55  69
ATOM     69  C   UNL A   1      46.431  32.926  28.999  1.00  0.00    -0.014 A 
ATOM     70  C   UNL A   1      46.163  34.038  28.180  1.00  0.00     0.010 A 
ATOM     71  C   UNL A   1      46.780  33.140  30.345  1.00  0.00     0.010 A 
ATOM     72  C   UNL A   1      46.285  35.335  28.687  1.00  0.00     0.020 A 
ATOM     73  C   UNL A   1      46.874  34.435  30.864  1.00  0.00     0.020 A 
ATOM     74  C   UNL A   1      46.645  35.525  30.025  1.00  0.00     0.054 A 
BRANCH  74  75
ATOM     75  S   UNL A   1      46.787  37.221  30.657  1.00  0.00     0.124 S 
ATOM     76  O   UNL A   1      45.716  37.900  29.933  1.00  0.00    -0.237 OA
ATOM     77  O   UNL A   1      46.565  37.048  32.090  1.00  0.00    -0.237 OA
ATOM     78  O   UNL A   1      48.143  37.618  30.283  1.00  0.00    -0.744 OA
ENDBRANCH  74  75
ENDBRANCH  55  69
BRANCH  56  79
ATOM     79  C   UNL A   1      45.176  23.634  25.658  1.00  0.00    -0.014 A 
ATOM     80  C   UNL A   1      45.727  22.529  26.331  1.00  0.00     0.010 A 
ATOM     81  C   UNL A   1      44.447  23.417  24.474  1.00  0.00     0.010 A 
ATOM     82  C   UNL A   1      45.563  21.236  25.823  1.00  0.00     0.020 A 
ATOM     83  C   UNL A   1      44.252  22.124  23.982  1.00  0.00     0.020 A 
ATOM     84  C   UNL A   1      44.823  21.043  24.654  1.00  0.00     0.054 A 
BRANCH  84  85
ATOM     85  S   UNL A   1      44.575  19.352  24.042  1.00  0.00     0.124 S 
ATOM     86  O   UNL A   1      45.759  18.669  24.554  1.00  0.00    -0.237 OA
ATOM     87  O   UNL A   1      43.308  18.973  24.664  1.00  0.00    -0.237 OA
ATOM     88  O   UNL A   1      44.525  19.517  22.592  1.00  0.00    -0.744 OA
ENDBRANCH  84  85
ENDBRANCH  56  79
BRANCH  68  89
ATOM     89  C   UNL A   1      50.619  27.983  25.793  1.00  0.00    -0.014 A 
ATOM     90  C   UNL A   1      51.618  27.537  26.678  1.00  0.00     0.010 A 
ATOM     91  C   UNL A   1      50.973  28.291  24.466  1.00  0.00     0.010 A 
ATOM     92  C   UNL A   1      52.950  27.454  26.259  1.00  0.00     0.020 A 
ATOM     93  C   UNL A   1      52.297  28.180  24.035  1.00  0.00     0.020 A 
ATOM     94  C   UNL A   1      53.283  27.784  24.941  1.00  0.00     0.054 A 
BRANCH  94  95
ATOM     95  S   UNL A   1      55.017  27.671  24.419  1.00  0.00     0.124 S 
ATOM     96  O   UNL A   1      54.948  26.677  23.352  1.00  0.00    -0.237 OA
ATOM     97  O   UNL A   1      55.312  29.035  23.988  1.00  0.00    -0.237 OA
ATOM     98  O   UNL A   1      55.716  27.242  25.628  1.00  0.00    -0.744 OA
ENDBRANCH  94  95
ENDBRANCH  68  89
ENDBRANCH  42  43
ENDBRANCH  35  37
ENDBRANCH  34  35
ENDBRANCH  33  34
ENDBRANCH  32  33
ENDBRANCH  31  32
ENDBRANCH  30  31
ENDBRANCH   1  30
TORSDOF 24
ENDMDL
MODEL 2
REMARK VINA RESULT:      -9.5      1.110      3.428
REMARK SMILES COc1ccc2c(CC(=O)OCCOCCOCCOC(=O)c3ccc(-c4c5nc(c(-c6ccc(S(=O)(=O)[O-])cc6)c6ccc([nH]6)c(-c6ccc(S(=O)(=O)[O-])cc6)c6nc(c(-c7ccc(S(=O)(=O)[O-])cc7)c7ccc4[nH]7)C=C6)C=C5)cc3)c(C(=O)c3cc(C)ccn3)[nH]c2c1
REMARK SMILES IDX 15 1 14 2 13 3 12 4 11 5 9 6 10 7 8 8 7 9 3 10 4 11 95 12
REMARK SMILES IDX 5 13 94 14 6 15 93 16 83 17 2 19 1 20 84 21 85 22 86 23
REMARK SMILES IDX 87 24 92 25 88 26 91 27 89 28 90 29 16 30 17 31 18 32 19 33
REMARK SMILES IDX 20 34 21 35 22 36 23 37 24 38 82 39 25 40 81 41 26 42 27 43
REMARK SMILES IDX 28 44 75 45 29 46 80 47 74 48 76 49 30 50 79 51 73 52 72 53
REMARK SMILES IDX 31 55 61 56 42 57 60 58 43 59 46 60 59 61 77 62 44 63 45 64
REMARK SMILES IDX 58 66 78 67 47 68 32 69 33 70 41 71 34 72 40 73 35 74 36 75
REMARK SMILES IDX 37 76 38 77 39 78 62 79 63 80 71 81 64 82 70 83 65 84 66 85
REMARK SMILES IDX 67 86 68 87 69 88 48 89 49 90 57 91 50 92 56 93 51 94 52 95
REMARK SMILES IDX 53 96 54 97 55 98
REMARK H PARENT 93 18 76 54 46 65
REMARK Flexibility Score: inf
ROOT
ATOM      1  C   UNL A   1      31.359  28.474  26.048  1.00  0.00     0.188 C 
ENDROOT
BRANCH   1   2
ATOM      2  O   UNL A   1      31.749  28.091  24.731  1.00  0.00    -0.376 OA
BRANCH   2   3
ATOM      3  C   UNL A   1      32.032  26.720  24.484  1.00  0.00     0.202 C 
BRANCH   3   4
ATOM      4  C   UNL A   1      32.210  25.827  25.720  1.00  0.00     0.261 C 
BRANCH   4   5
ATOM      5  O   UNL A   1      32.722  24.520  25.382  1.00  0.00    -0.463 OA
BRANCH   5   6
ATOM      6  C   UNL A   1      34.072  24.380  25.328  1.00  0.00     0.310 C 
ATOM      7  O   UNL A   1      34.788  25.057  24.595  1.00  0.00    -0.252 OA
BRANCH   6   8
ATOM      8  C   UNL A   1      34.639  23.437  26.388  1.00  0.00     0.161 C 
BRANCH   8   9
ATOM      9  C   UNL A   1      35.101  22.061  25.959  1.00  0.00     0.000 A 
ATOM     10  C   UNL A   1      33.201  18.809  24.112  1.00  0.00     0.120 A 
ATOM     11  C   UNL A   1      32.346  19.807  24.574  1.00  0.00     0.047 A 
ATOM     12  C   UNL A   1      34.563  18.825  24.413  1.00  0.00     0.073 A 
ATOM     13  C   UNL A   1      32.853  20.909  25.276  1.00  0.00     0.014 A 
ATOM     14  C   UNL A   1      35.053  19.958  25.071  1.00  0.00     0.050 A 
ATOM     15  C   UNL A   1      34.243  21.013  25.484  1.00  0.00     0.004 A 
ATOM     16  N   UNL A   1      36.342  20.294  25.398  1.00  0.00    -0.351 N 
ATOM     17  C   UNL A   1      36.412  21.641  25.676  1.00  0.00     0.093 A 
ATOM     18  H   UNL A   1      37.101  19.667  25.430  1.00  0.00     0.167 HD
BRANCH  10  19
ATOM     19  O   UNL A   1      32.744  17.757  23.360  1.00  0.00    -0.497 OA
ATOM     20  C   UNL A   1      33.560  16.598  23.553  1.00  0.00     0.278 C 
ENDBRANCH  10  19
BRANCH  17  21
ATOM     21  C   UNL A   1      37.643  22.414  25.565  1.00  0.00     0.227 C 
ATOM     22  O   UNL A   1      37.682  23.531  25.056  1.00  0.00    -0.285 OA
BRANCH  21  23
ATOM     23  C   UNL A   1      38.929  21.821  26.046  1.00  0.00     0.113 A 
ATOM     24  C   UNL A   1      39.736  22.512  26.947  1.00  0.00     0.036 A 
ATOM     25  N   UNL A   1      39.191  20.562  25.608  1.00  0.00    -0.253 NA
ATOM     26  C   UNL A   1      40.867  21.862  27.458  1.00  0.00    -0.047 A 
ATOM     27  C   UNL A   1      40.247  19.938  26.176  1.00  0.00     0.112 A 
ATOM     28  C   UNL A   1      41.823  22.537  28.398  1.00  0.00     0.044 C 
ATOM     29  C   UNL A   1      41.096  20.533  27.095  1.00  0.00     0.023 A 
ENDBRANCH  21  23
ENDBRANCH  17  21
ENDBRANCH   8   9
ENDBRANCH   6   8
ENDBRANCH   5   6
ENDBRANCH   4   5
ENDBRANCH   3   4
ENDBRANCH   2   3
ENDBRANCH   1   2
BRANCH   1  30
ATOM     30  C   UNL A   1      32.361  29.259  26.925  1.00  0.00     0.188 C 
BRANCH  30  31
ATOM     31  O   UNL A   1      33.697  29.231  26.442  1.00  0.00    -0.376 OA
BRANCH  31  32
ATOM     32  C   UNL A   1      34.630  29.897  27.278  1.00  0.00     0.202 C 
BRANCH  32  33
ATOM     33  C   UNL A   1      35.874  29.052  27.554  1.00  0.00     0.261 C 
BRANCH  33  34
ATOM     34  O   UNL A   1      36.311  29.167  28.927  1.00  0.00    -0.460 OA
BRANCH  34  35
ATOM     35  C   UNL A   1      37.251  30.083  29.216  1.00  0.00     0.338 C 
ATOM     36  O   UNL A   1      37.040  31.229  29.616  1.00  0.00    -0.246 OA
BRANCH  35  37
ATOM     37  C   UNL A   1      38.617  29.560  28.960  1.00  0.00     0.060 A 
ATOM     38  C   UNL A   1      39.418  29.015  29.967  1.00  0.00     0.016 A 
ATOM     39  C   UNL A   1      39.168  29.739  27.692  1.00  0.00     0.016 A 
ATOM     40  C   UNL A   1      40.772  28.735  29.740  1.00  0.00     0.010 A 
ATOM     41  C   UNL A   1      40.503  29.386  27.444  1.00  0.00     0.010 A 
ATOM     42  C   UNL A   1      41.338  28.914  28.473  1.00  0.00    -0.014 A 
BRANCH  42  43
ATOM     43  C   UNL A   1      42.790  28.664  28.219  1.00  0.00     0.031 A 
ATOM     44  C   UNL A   1      43.805  29.751  28.488  1.00  0.00     0.074 A 
ATOM     45  C   UNL A   1      43.223  27.484  27.727  1.00  0.00     0.049 A 
ATOM     46  N   UNL A   1      45.065  29.818  28.133  1.00  0.00    -0.248 NA
ATOM     47  C   UNL A   1      43.337  30.921  29.249  1.00  0.00     0.031 C 
ATOM     48  C   UNL A   1      42.392  26.306  27.478  1.00  0.00     0.029 A 
ATOM     49  N   UNL A   1      44.482  27.088  27.336  1.00  0.00    -0.354 N 
ATOM     50  C   UNL A   1      45.523  31.056  28.575  1.00  0.00     0.074 A 
ATOM     51  C   UNL A   1      44.403  31.708  29.222  1.00  0.00     0.031 C 
ATOM     52  C   UNL A   1      43.162  25.318  26.994  1.00  0.00     0.029 A 
ATOM     53  C   UNL A   1      44.522  25.814  26.816  1.00  0.00     0.049 A 
ATOM     54  H   UNL A   1      45.278  27.660  27.420  1.00  0.00     0.167 HD
ATOM     55  C   UNL A   1      46.759  31.603  28.450  1.00  0.00     0.031 A 
ATOM     56  C   UNL A   1      45.519  25.131  26.218  1.00  0.00     0.031 A 
ATOM     57  C   UNL A   1      47.885  30.950  27.831  1.00  0.00     0.049 A 
ATOM     58  C   UNL A   1      46.864  25.780  26.036  1.00  0.00     0.074 A 
ATOM     59  C   UNL A   1      49.173  31.432  27.663  1.00  0.00     0.029 A 
ATOM     60  N   UNL A   1      47.867  29.673  27.291  1.00  0.00    -0.354 N 
ATOM     61  N   UNL A   1      47.264  26.973  26.404  1.00  0.00    -0.248 NA
ATOM     62  C   UNL A   1      47.894  24.987  25.348  1.00  0.00     0.031 C 
ATOM     63  C   UNL A   1      49.920  30.467  26.976  1.00  0.00     0.029 A 
ATOM     64  C   UNL A   1      49.117  29.358  26.776  1.00  0.00     0.049 A 
ATOM     65  H   UNL A   1      47.084  29.077  27.275  1.00  0.00     0.167 HD
ATOM     66  C   UNL A   1      48.598  27.062  26.017  1.00  0.00     0.074 A 
ATOM     67  C   UNL A   1      48.942  25.796  25.404  1.00  0.00     0.031 C 
ATOM     68  C   UNL A   1      49.459  28.100  26.161  1.00  0.00     0.031 A 
BRANCH  55  69
ATOM     69  C   UNL A   1      46.952  33.012  28.952  1.00  0.00    -0.014 A 
ATOM     70  C   UNL A   1      47.427  33.275  30.250  1.00  0.00     0.010 A 
ATOM     71  C   UNL A   1      46.698  34.093  28.087  1.00  0.00     0.010 A 
ATOM     72  C   UNL A   1      47.602  34.593  30.685  1.00  0.00     0.020 A 
ATOM     73  C   UNL A   1      46.900  35.411  28.508  1.00  0.00     0.020 A 
ATOM     74  C   UNL A   1      47.332  35.652  29.813  1.00  0.00     0.054 A 
BRANCH  74  75
ATOM     75  S   UNL A   1      47.575  37.351  30.403  1.00  0.00     0.124 S 
ATOM     76  O   UNL A   1      48.718  37.194  31.300  1.00  0.00    -0.237 OA
ATOM     77  O   UNL A   1      47.842  38.084  29.169  1.00  0.00    -0.237 OA
ATOM     78  O   UNL A   1      46.310  37.676  31.057  1.00  0.00    -0.744 OA
ENDBRANCH  74  75
ENDBRANCH  55  69
BRANCH  56  79
ATOM     79  C   UNL A   1      45.270  23.755  25.703  1.00  0.00    -0.014 A 
ATOM     80  C   UNL A   1      44.880  23.548  24.368  1.00  0.00     0.010 A 
ATOM     81  C   UNL A   1      45.423  22.640  26.550  1.00  0.00     0.010 A 
ATOM     82  C   UNL A   1      44.634  22.256  23.894  1.00  0.00     0.020 A 
ATOM     83  C   UNL A   1      45.212  21.345  26.070  1.00  0.00     0.020 A 
ATOM     84  C   UNL A   1      44.806  21.163  24.747  1.00  0.00     0.054 A 
BRANCH  84  85
ATOM     85  S   UNL A   1      44.536  19.490  24.096  1.00  0.00     0.124 S 
ATOM     86  O   UNL A   1      44.456  19.734  22.659  1.00  0.00    -0.237 OA
ATOM     87  O   UNL A   1      45.727  18.777  24.553  1.00  0.00    -0.237 OA
ATOM     88  O   UNL A   1      43.289  19.073  24.732  1.00  0.00    -0.744 OA
ENDBRANCH  84  85
ENDBRANCH  56  79
BRANCH  68  89
ATOM     89  C   UNL A   1      50.878  27.892  25.693  1.00  0.00    -0.014 A 
ATOM     90  C   UNL A   1      51.876  27.405  26.557  1.00  0.00     0.010 A 
ATOM     91  C   UNL A   1      51.216  28.186  24.359  1.00  0.00     0.010 A 
ATOM     92  C   UNL A   1      53.194  27.268  26.111  1.00  0.00     0.020 A 
ATOM     93  C   UNL A   1      52.526  28.022  23.900  1.00  0.00     0.020 A 
ATOM     94  C   UNL A   1      53.513  27.586  24.786  1.00  0.00     0.054 A 
BRANCH  94  95
ATOM     95  S   UNL A   1      55.230  27.403  24.228  1.00  0.00     0.124 S 
ATOM     96  O   UNL A   1      55.162  27.920  22.864  1.00  0.00    -0.237 OA
ATOM     97  O   UNL A   1      55.967  28.232  25.178  1.00  0.00    -0.237 OA
ATOM     98  O   UNL A   1      55.479  25.968  24.339  1.00  0.00    -0.744 OA
ENDBRANCH  94  95
ENDBRANCH  68  89
ENDBRANCH  42  43
ENDBRANCH  35  37
ENDBRANCH  34  35
ENDBRANCH  33  34
ENDBRANCH  32  33
ENDBRANCH  31  32
ENDBRANCH  30  31
ENDBRANCH   1  30
TORSDOF 24
ENDMDL
MODEL 3
REMARK VINA RESULT:      -9.4      6.856      9.727
REMARK SMILES COc1ccc2c(CC(=O)OCCOCCOCCOC(=O)c3ccc(-c4c5nc(c(-c6ccc(S(=O)(=O)[O-])cc6)c6ccc([nH]6)c(-c6ccc(S(=O)(=O)[O-])cc6)c6nc(c(-c7ccc(S(=O)(=O)[O-])cc7)c7ccc4[nH]7)C=C6)C=C5)cc3)c(C(=O)c3cc(C)ccn3)[nH]c2c1
REMARK SMILES IDX 15 1 14 2 13 3 12 4 11 5 9 6 10 7 8 8 7 9 3 10 4 11 95 12
REMARK SMILES IDX 5 13 94 14 6 15 93 16 83 17 2 19 1 20 84 21 85 22 86 23
REMARK SMILES IDX 87 24 92 25 88 26 91 27 89 28 90 29 16 30 17 31 18 32 19 33
REMARK SMILES IDX 20 34 21 35 22 36 23 37 24 38 82 39 25 40 81 41 26 42 27 43
REMARK SMILES IDX 28 44 75 45 29 46 80 47 74 48 76 49 30 50 79 51 73 52 72 53
REMARK SMILES IDX 31 55 61 56 42 57 60 58 43 59 46 60 59 61 77 62 44 63 45 64
REMARK SMILES IDX 58 66 78 67 47 68 32 69 33 70 41 71 34 72 40 73 35 74 36 75
REMARK SMILES IDX 37 76 38 77 39 78 62 79 63 80 71 81 64 82 70 83 65 84 66 85
REMARK SMILES IDX 67 86 68 87 69 88 48 89 49 90 57 91 50 92 56 93 51 94 52 95
REMARK SMILES IDX 53 96 54 97 55 98
REMARK H PARENT 93 18 76 54 46 65
REMARK Flexibility Score: inf
ROOT
ATOM      1  C   UNL A   1      35.392  32.264  28.967  1.00  0.00     0.188 C 
ENDROOT
BRANCH   1   2
ATOM      2  O   UNL A   1      35.958  31.059  28.456  1.00  0.00    -0.376 OA
BRANCH   2   3
ATOM      3  C   UNL A   1      35.177  30.273  27.566  1.00  0.00     0.202 C 
BRANCH   3   4
ATOM      4  C   UNL A   1      33.656  30.461  27.644  1.00  0.00     0.261 C 
BRANCH   4   5
ATOM      5  O   UNL A   1      32.954  29.669  26.662  1.00  0.00    -0.463 OA
BRANCH   5   6
ATOM      6  C   UNL A   1      32.870  28.333  26.891  1.00  0.00     0.310 C 
ATOM      7  O   UNL A   1      31.935  27.812  27.494  1.00  0.00    -0.252 OA
BRANCH   6   8
ATOM      8  C   UNL A   1      33.944  27.514  26.176  1.00  0.00     0.161 C 
BRANCH   8   9
ATOM      9  C   UNL A   1      33.528  26.628  25.021  1.00  0.00     0.000 A 
ATOM     10  C   UNL A   1      32.739  22.524  24.652  1.00  0.00     0.120 A 
ATOM     11  C   UNL A   1      33.351  22.902  25.844  1.00  0.00     0.047 A 
ATOM     12  C   UNL A   1      32.575  23.429  23.603  1.00  0.00     0.073 A 
ATOM     13  C   UNL A   1      33.736  24.233  26.057  1.00  0.00     0.014 A 
ATOM     14  C   UNL A   1      32.920  24.761  23.855  1.00  0.00     0.050 A 
ATOM     15  C   UNL A   1      33.467  25.194  25.061  1.00  0.00     0.004 A 
ATOM     16  N   UNL A   1      32.773  25.871  23.063  1.00  0.00    -0.351 N 
ATOM     17  C   UNL A   1      32.875  27.007  23.835  1.00  0.00     0.093 A 
ATOM     18  H   UNL A   1      32.618  25.857  22.091  1.00  0.00     0.167 HD
BRANCH  10  19
ATOM     19  O   UNL A   1      32.287  21.246  24.444  1.00  0.00    -0.497 OA
ATOM     20  C   UNL A   1      32.909  20.330  25.350  1.00  0.00     0.278 C 
ENDBRANCH  10  19
BRANCH  17  21
ATOM     21  C   UNL A   1      32.292  28.286  23.452  1.00  0.00     0.227 C 
ATOM     22  O   UNL A   1      32.974  29.268  23.167  1.00  0.00    -0.285 OA
BRANCH  21  23
ATOM     23  C   UNL A   1      30.805  28.442  23.440  1.00  0.00     0.113 A 
ATOM     24  C   UNL A   1      30.224  29.693  23.244  1.00  0.00     0.036 A 
ATOM     25  N   UNL A   1      30.096  27.288  23.552  1.00  0.00    -0.253 NA
ATOM     26  C   UNL A   1      28.830  29.765  23.121  1.00  0.00    -0.047 A 
ATOM     27  C   UNL A   1      28.762  27.384  23.355  1.00  0.00     0.112 A 
ATOM     28  C   UNL A   1      28.108  31.070  22.954  1.00  0.00     0.044 C 
ATOM     29  C   UNL A   1      28.096  28.578  23.133  1.00  0.00     0.023 A 
ENDBRANCH  21  23
ENDBRANCH  17  21
ENDBRANCH   8   9
ENDBRANCH   6   8
ENDBRANCH   5   6
ENDBRANCH   4   5
ENDBRANCH   3   4
ENDBRANCH   2   3
ENDBRANCH   1   2
BRANCH   1  30
ATOM     30  C   UNL A   1      35.158  33.448  28.002  1.00  0.00     0.188 C 
BRANCH  30  31
ATOM     31  O   UNL A   1      34.695  34.630  28.641  1.00  0.00    -0.376 OA
BRANCH  31  32
ATOM     32  C   UNL A   1      33.285  34.791  28.612  1.00  0.00     0.202 C 
BRANCH  32  33
ATOM     33  C   UNL A   1      32.840  36.145  29.165  1.00  0.00     0.261 C 
BRANCH  33  34
ATOM     34  O   UNL A   1      33.393  36.399  30.477  1.00  0.00    -0.460 OA
BRANCH  34  35
ATOM     35  C   UNL A   1      32.943  35.661  31.506  1.00  0.00     0.338 C 
ATOM     36  O   UNL A   1      31.767  35.559  31.857  1.00  0.00    -0.246 OA
BRANCH  35  37
ATOM     37  C   UNL A   1      34.058  34.988  32.219  1.00  0.00     0.060 A 
ATOM     38  C   UNL A   1      35.351  35.516  32.271  1.00  0.00     0.016 A 
ATOM     39  C   UNL A   1      33.834  33.717  32.747  1.00  0.00     0.016 A 
ATOM     40  C   UNL A   1      36.422  34.756  32.759  1.00  0.00     0.010 A 
ATOM     41  C   UNL A   1      34.893  32.987  33.306  1.00  0.00     0.010 A 
ATOM     42  C   UNL A   1      36.212  33.478  33.287  1.00  0.00    -0.014 A 
BRANCH  42  43
ATOM     43  C   UNL A   1      37.345  32.632  33.772  1.00  0.00     0.031 A 
ATOM     44  C   UNL A   1      38.028  32.957  35.080  1.00  0.00     0.074 A 
ATOM     45  C   UNL A   1      37.794  31.582  33.053  1.00  0.00     0.049 A 
ATOM     46  N   UNL A   1      39.153  32.495  35.569  1.00  0.00    -0.248 NA
ATOM     47  C   UNL A   1      37.361  33.940  35.950  1.00  0.00     0.031 C 
ATOM     48  C   UNL A   1      37.207  31.086  31.808  1.00  0.00     0.029 A 
ATOM     49  N   UNL A   1      38.868  30.748  33.267  1.00  0.00    -0.354 N 
ATOM     50  C   UNL A   1      39.358  33.169  36.768  1.00  0.00     0.074 A 
ATOM     51  C   UNL A   1      38.241  34.076  36.932  1.00  0.00     0.031 C 
ATOM     52  C   UNL A   1      37.914  30.028  31.379  1.00  0.00     0.029 A 
ATOM     53  C   UNL A   1      39.053  29.821  32.266  1.00  0.00     0.049 A 
ATOM     54  H   UNL A   1      39.448  30.807  34.060  1.00  0.00     0.167 HD
ATOM     55  C   UNL A   1      40.382  33.051  37.650  1.00  0.00     0.031 A 
ATOM     56  C   UNL A   1      40.046  28.935  32.050  1.00  0.00     0.031 A 
ATOM     57  C   UNL A   1      41.485  32.132  37.506  1.00  0.00     0.049 A 
ATOM     58  C   UNL A   1      41.204  28.863  33.009  1.00  0.00     0.074 A 
ATOM     59  C   UNL A   1      42.565  31.946  38.353  1.00  0.00     0.029 A 
ATOM     60  N   UNL A   1      41.644  31.237  36.460  1.00  0.00    -0.354 N 
ATOM     61  N   UNL A   1      41.414  29.550  34.106  1.00  0.00    -0.248 NA
ATOM     62  C   UNL A   1      42.265  27.895  32.694  1.00  0.00     0.031 C 
ATOM     63  C   UNL A   1      43.404  30.975  37.794  1.00  0.00     0.029 A 
ATOM     64  C   UNL A   1      42.813  30.509  36.633  1.00  0.00     0.049 A 
ATOM     65  H   UNL A   1      41.021  31.133  35.705  1.00  0.00     0.167 HD
ATOM     66  C   UNL A   1      42.616  29.078  34.625  1.00  0.00     0.074 A 
ATOM     67  C   UNL A   1      43.077  28.035  33.732  1.00  0.00     0.031 C 
ATOM     68  C   UNL A   1      43.275  29.474  35.743  1.00  0.00     0.031 A 
BRANCH  55  69
ATOM     69  C   UNL A   1      40.392  33.980  38.838  1.00  0.00    -0.014 A 
ATOM     70  C   UNL A   1      41.130  35.176  38.834  1.00  0.00     0.010 A 
ATOM     71  C   UNL A   1      39.604  33.668  39.963  1.00  0.00     0.010 A 
ATOM     72  C   UNL A   1      41.114  36.021  39.948  1.00  0.00     0.020 A 
ATOM     73  C   UNL A   1      39.563  34.524  41.068  1.00  0.00     0.020 A 
ATOM     74  C   UNL A   1      40.334  35.686  41.060  1.00  0.00     0.054 A 
BRANCH  74  75
ATOM     75  S   UNL A   1      40.328  36.805  42.489  1.00  0.00     0.124 S 
ATOM     76  O   UNL A   1      41.756  36.980  42.738  1.00  0.00    -0.237 OA
ATOM     77  O   UNL A   1      39.633  37.981  41.972  1.00  0.00    -0.237 OA
ATOM     78  O   UNL A   1      39.603  36.057  43.513  1.00  0.00    -0.744 OA
ENDBRANCH  74  75
ENDBRANCH  55  69
BRANCH  56  79
ATOM     79  C   UNL A   1      40.014  28.064  30.842  1.00  0.00    -0.014 A 
ATOM     80  C   UNL A   1      41.016  28.162  29.860  1.00  0.00     0.010 A 
ATOM     81  C   UNL A   1      38.977  27.128  30.667  1.00  0.00     0.010 A 
ATOM     82  C   UNL A   1      40.973  27.352  28.720  1.00  0.00     0.020 A 
ATOM     83  C   UNL A   1      38.949  26.293  29.547  1.00  0.00     0.020 A 
ATOM     84  C   UNL A   1      39.942  26.420  28.574  1.00  0.00     0.054 A 
BRANCH  84  85
ATOM     85  S   UNL A   1      39.935  25.340  27.115  1.00  0.00     0.124 S 
ATOM     86  O   UNL A   1      38.517  25.026  26.978  1.00  0.00    -0.237 OA
ATOM     87  O   UNL A   1      40.495  26.206  26.079  1.00  0.00    -0.237 OA
ATOM     88  O   UNL A   1      40.790  24.225  27.513  1.00  0.00    -0.744 OA
ENDBRANCH  84  85
ENDBRANCH  56  79
BRANCH  68  89
ATOM     89  C   UNL A   1      44.544  28.737  36.095  1.00  0.00    -0.014 A 
ATOM     90  C   UNL A   1      44.525  27.566  36.874  1.00  0.00     0.010 A 
ATOM     91  C   UNL A   1      45.779  29.226  35.630  1.00  0.00     0.010 A 
ATOM     92  C   UNL A   1      45.720  26.931  37.228  1.00  0.00     0.020 A 
ATOM     93  C   UNL A   1      46.973  28.577  35.955  1.00  0.00     0.020 A 
ATOM     94  C   UNL A   1      46.938  27.446  36.772  1.00  0.00     0.054 A 
BRANCH  94  95
ATOM     95  S   UNL A   1      48.477  26.608  37.243  1.00  0.00     0.124 S 
ATOM     96  O   UNL A   1      49.069  27.561  38.177  1.00  0.00    -0.237 OA
ATOM     97  O   UNL A   1      47.996  25.363  37.837  1.00  0.00    -0.237 OA
ATOM     98  O   UNL A   1      49.188  26.452  35.976  1.00  0.00    -0.744 OA
ENDBRANCH  94  95
ENDBRANCH  68  89
ENDBRANCH  42  43
ENDBRANCH  35  37
ENDBRANCH  34  35
ENDBRANCH  33  34
ENDBRANCH  32  33
ENDBRANCH  31  32
ENDBRANCH  30  31
ENDBRANCH   1  30
TORSDOF 24
ENDMDL
