MODEL 1
REMARK VINA RESULT:      -8.9      0.000      0.000
REMARK SMILES O=C(CCc1cncc([C@@H]2CN(c3ccccc3)CCO2)n1)OCCOCCOCCOC(=O)c1ccc(-c2c3nc(c(-c4ccc(S(=O)(=O)[O-])cc4)c4ccc([nH]4)c(-c4ccc(S(=O)(=O)[O-])cc4)c4nc(c(-c5ccc(S(=O)(=O)[O-])cc5)c5ccc2[nH]5)C=C4)C=C3)cc1
REMARK SMILES IDX 27 1 26 2 25 3 24 4 23 5 2 6 1 7 3 8 4 9 5 10 6 11 22 12
REMARK SMILES IDX 7 13 9 14 8 15 10 16 11 17 21 18 12 19 20 20 19 21 13 22
REMARK SMILES IDX 14 23 18 24 15 25 17 26 16 27 28 28 29 29 30 30 31 31 32 32
REMARK SMILES IDX 33 33 34 34 35 35 36 36 94 37 37 38 93 39 38 40 39 41 40 42
REMARK SMILES IDX 87 43 41 44 92 45 86 46 88 47 42 48 91 49 85 50 84 51 43 53
REMARK SMILES IDX 73 54 54 55 72 56 55 57 58 58 71 59 89 60 56 61 57 62 70 64
REMARK SMILES IDX 90 65 59 66 44 67 45 68 53 69 46 70 52 71 47 72 48 73 49 74
REMARK SMILES IDX 50 75 51 76 74 77 75 78 83 79 76 80 82 81 77 82 78 83 79 84
REMARK SMILES IDX 80 85 81 86 60 87 61 88 69 89 62 90 68 91 63 92 64 93 65 94
REMARK SMILES IDX 66 95 67 96
REMARK H PARENT 88 52 58 63
REMARK Flexibility Score: inf
ROOT
ATOM      1  C   UNL A   1      41.104  25.368  27.501  1.00  0.00     0.188 C 
ENDROOT
BRANCH   1   2
ATOM      2  O   UNL A   1      39.689  25.352  27.413  1.00  0.00    -0.376 OA
BRANCH   2   3
ATOM      3  C   UNL A   1      39.038  24.102  27.237  1.00  0.00     0.202 C 
BRANCH   3   4
ATOM      4  C   UNL A   1      38.122  23.912  26.030  1.00  0.00     0.261 C 
BRANCH   4   5
ATOM      5  O   UNL A   1      36.954  23.059  26.100  1.00  0.00    -0.463 OA
BRANCH   5   6
ATOM      6  C   UNL A   1      36.290  22.299  25.214  1.00  0.00     0.306 C 
ATOM      7  O   UNL A   1      36.534  22.433  24.014  1.00  0.00    -0.252 OA
BRANCH   6   8
ATOM      8  C   UNL A   1      35.228  21.331  25.656  1.00  0.00     0.129 C 
BRANCH   8   9
ATOM      9  C   UNL A   1      34.062  22.014  26.350  1.00  0.00     0.069 C 
BRANCH   9  10
ATOM     10  C   UNL A   1      33.101  22.595  25.355  1.00  0.00     0.060 A 
ATOM     11  C   UNL A   1      32.703  21.898  24.222  1.00  0.00     0.134 A 
ATOM     12  N   UNL A   1      32.737  23.885  25.545  1.00  0.00    -0.252 NA
ATOM     13  N   UNL A   1      31.952  22.464  23.247  1.00  0.00    -0.261 NA
ATOM     14  C   UNL A   1      31.954  24.463  24.597  1.00  0.00     0.090 A 
ATOM     15  C   UNL A   1      31.571  23.745  23.471  1.00  0.00     0.137 A 
BRANCH  14  16
ATOM     16  C   UNL A   1      31.485  25.882  24.819  1.00  0.00     0.188 C 
ATOM     17  C   UNL A   1      31.341  26.657  23.477  1.00  0.00     0.155 C 
ATOM     18  O   UNL A   1      32.442  26.488  25.716  1.00  0.00    -0.368 OA
ATOM     19  N   UNL A   1      31.154  28.102  23.722  1.00  0.00    -0.366 N 
ATOM     20  C   UNL A   1      32.174  27.879  25.926  1.00  0.00     0.182 C 
ATOM     21  C   UNL A   1      32.185  28.665  24.607  1.00  0.00     0.145 C 
BRANCH  19  22
ATOM     22  C   UNL A   1      29.970  28.784  23.538  1.00  0.00     0.037 A 
ATOM     23  C   UNL A   1      28.801  28.086  23.188  1.00  0.00     0.026 A 
ATOM     24  C   UNL A   1      29.860  30.172  23.674  1.00  0.00     0.026 A 
ATOM     25  C   UNL A   1      27.587  28.739  22.951  1.00  0.00     0.002 A 
ATOM     26  C   UNL A   1      28.650  30.837  23.428  1.00  0.00     0.002 A 
ATOM     27  C   UNL A   1      27.516  30.121  23.061  1.00  0.00     0.000 A 
ENDBRANCH  19  22
ENDBRANCH  14  16
ENDBRANCH   9  10
ENDBRANCH   8   9
ENDBRANCH   6   8
ENDBRANCH   5   6
ENDBRANCH   4   5
ENDBRANCH   3   4
ENDBRANCH   2   3
ENDBRANCH   1   2
BRANCH   1  28
ATOM     28  C   UNL A   1      41.885  24.444  26.567  1.00  0.00     0.188 C 
BRANCH  28  29
ATOM     29  O   UNL A   1      42.636  23.440  27.244  1.00  0.00    -0.376 OA
BRANCH  29  30
ATOM     30  C   UNL A   1      43.089  22.391  26.391  1.00  0.00     0.202 C 
BRANCH  30  31
ATOM     31  C   UNL A   1      44.578  22.456  26.026  1.00  0.00     0.261 C 
BRANCH  31  32
ATOM     32  O   UNL A   1      45.297  23.631  26.426  1.00  0.00    -0.460 OA
BRANCH  32  33
ATOM     33  C   UNL A   1      45.857  24.396  25.464  1.00  0.00     0.338 C 
ATOM     34  O   UNL A   1      46.116  24.063  24.323  1.00  0.00    -0.246 OA
BRANCH  33  35
ATOM     35  C   UNL A   1      46.026  25.759  26.013  1.00  0.00     0.060 A 
ATOM     36  C   UNL A   1      46.502  25.932  27.318  1.00  0.00     0.016 A 
ATOM     37  C   UNL A   1      45.689  26.867  25.231  1.00  0.00     0.016 A 
ATOM     38  C   UNL A   1      46.659  27.220  27.842  1.00  0.00     0.010 A 
ATOM     39  C   UNL A   1      45.808  28.150  25.768  1.00  0.00     0.010 A 
ATOM     40  C   UNL A   1      46.276  28.333  27.082  1.00  0.00    -0.014 A 
BRANCH  40  41
ATOM     41  C   UNL A   1      46.145  29.674  27.702  1.00  0.00     0.031 A 
ATOM     42  C   UNL A   1      44.883  29.976  28.461  1.00  0.00     0.074 A 
ATOM     43  C   UNL A   1      47.076  30.627  27.535  1.00  0.00     0.049 A 
ATOM     44  N   UNL A   1      44.460  31.110  28.952  1.00  0.00    -0.248 NA
ATOM     45  C   UNL A   1      43.971  28.840  28.680  1.00  0.00     0.031 C 
ATOM     46  C   UNL A   1      48.357  30.451  26.855  1.00  0.00     0.029 A 
ATOM     47  N   UNL A   1      47.065  31.952  27.900  1.00  0.00    -0.354 N 
ATOM     48  C   UNL A   1      43.221  30.832  29.519  1.00  0.00     0.074 A 
ATOM     49  C   UNL A   1      42.959  29.426  29.298  1.00  0.00     0.031 C 
ATOM     50  C   UNL A   1      48.994  31.636  26.819  1.00  0.00     0.029 A 
ATOM     51  C   UNL A   1      48.148  32.658  27.435  1.00  0.00     0.049 A 
ATOM     52  H   UNL A   1      46.349  32.356  28.444  1.00  0.00     0.167 HD
ATOM     53  C   UNL A   1      42.370  31.674  30.152  1.00  0.00     0.031 A 
ATOM     54  C   UNL A   1      48.406  33.983  27.462  1.00  0.00     0.031 A 
ATOM     55  C   UNL A   1      42.614  33.078  30.329  1.00  0.00     0.049 A 
ATOM     56  C   UNL A   1      47.420  34.920  28.111  1.00  0.00     0.074 A 
ATOM     57  C   UNL A   1      41.822  34.015  30.967  1.00  0.00     0.029 A 
ATOM     58  N   UNL A   1      43.725  33.754  29.846  1.00  0.00    -0.354 N 
ATOM     59  N   UNL A   1      46.265  34.643  28.671  1.00  0.00    -0.248 NA
ATOM     60  C   UNL A   1      47.771  36.348  28.136  1.00  0.00     0.031 C 
ATOM     61  C   UNL A   1      42.425  35.269  30.817  1.00  0.00     0.029 A 
ATOM     62  C   UNL A   1      43.627  35.101  30.146  1.00  0.00     0.049 A 
ATOM     63  H   UNL A   1      44.475  33.336  29.362  1.00  0.00     0.167 HD
ATOM     64  C   UNL A   1      45.767  35.855  29.141  1.00  0.00     0.074 A 
ATOM     65  C   UNL A   1      46.745  36.868  28.800  1.00  0.00     0.031 C 
ATOM     66  C   UNL A   1      44.609  36.101  29.803  1.00  0.00     0.031 A 
BRANCH  53  67
ATOM     67  C   UNL A   1      41.066  31.092  30.627  1.00  0.00    -0.014 A 
ATOM     68  C   UNL A   1      39.935  31.040  29.791  1.00  0.00     0.010 A 
ATOM     69  C   UNL A   1      40.963  30.616  31.948  1.00  0.00     0.010 A 
ATOM     70  C   UNL A   1      38.710  30.587  30.287  1.00  0.00     0.020 A 
ATOM     71  C   UNL A   1      39.748  30.133  32.437  1.00  0.00     0.020 A 
ATOM     72  C   UNL A   1      38.621  30.148  31.612  1.00  0.00     0.054 A 
BRANCH  72  73
ATOM     73  S   UNL A   1      37.014  29.597  32.242  1.00  0.00     0.124 S 
ATOM     74  O   UNL A   1      36.317  29.234  31.011  1.00  0.00    -0.237 OA
ATOM     75  O   UNL A   1      37.374  28.481  33.113  1.00  0.00    -0.237 OA
ATOM     76  O   UNL A   1      36.489  30.776  32.929  1.00  0.00    -0.744 OA
ENDBRANCH  72  73
ENDBRANCH  53  67
BRANCH  54  77
ATOM     77  C   UNL A   1      49.647  34.496  26.821  1.00  0.00    -0.014 A 
ATOM     78  C   UNL A   1      49.663  34.847  25.461  1.00  0.00     0.010 A 
ATOM     79  C   UNL A   1      50.811  34.687  27.591  1.00  0.00     0.010 A 
ATOM     80  C   UNL A   1      50.815  35.396  24.885  1.00  0.00     0.020 A 
ATOM     81  C   UNL A   1      51.954  35.257  27.025  1.00  0.00     0.020 A 
ATOM     82  C   UNL A   1      51.949  35.609  25.674  1.00  0.00     0.054 A 
BRANCH  82  83
ATOM     83  S   UNL A   1      53.390  36.427  24.934  1.00  0.00     0.124 S 
ATOM     84  O   UNL A   1      54.500  35.712  25.555  1.00  0.00    -0.237 OA
ATOM     85  O   UNL A   1      53.195  36.179  23.508  1.00  0.00    -0.237 OA
ATOM     86  O   UNL A   1      53.238  37.822  25.341  1.00  0.00    -0.744 OA
ENDBRANCH  82  83
ENDBRANCH  54  77
BRANCH  66  87
ATOM     87  C   UNL A   1      44.339  37.513  30.256  1.00  0.00    -0.014 A 
ATOM     88  C   UNL A   1      43.654  38.430  29.440  1.00  0.00     0.010 A 
ATOM     89  C   UNL A   1      44.686  37.890  31.568  1.00  0.00     0.010 A 
ATOM     90  C   UNL A   1      43.332  39.702  29.923  1.00  0.00     0.020 A 
ATOM     91  C   UNL A   1      44.343  39.151  32.063  1.00  0.00     0.020 A 
ATOM     92  C   UNL A   1      43.673  40.052  31.234  1.00  0.00     0.054 A 
BRANCH  92  93
ATOM     93  S   UNL A   1      43.175  41.680  31.863  1.00  0.00     0.124 S 
ATOM     94  O   UNL A   1      42.934  42.423  30.630  1.00  0.00    -0.237 OA
ATOM     95  O   UNL A   1      41.986  41.368  32.653  1.00  0.00    -0.237 OA
ATOM     96  O   UNL A   1      44.332  42.121  32.640  1.00  0.00    -0.744 OA
ENDBRANCH  92  93
ENDBRANCH  66  87
ENDBRANCH  40  41
ENDBRANCH  33  35
ENDBRANCH  32  33
ENDBRANCH  31  32
ENDBRANCH  30  31
ENDBRANCH  29  30
ENDBRANCH  28  29
ENDBRANCH   1  28
TORSDOF 24
ENDMDL
MODEL 2
REMARK VINA RESULT:      -8.4      5.848      9.209
REMARK SMILES O=C(CCc1cncc([C@@H]2CN(c3ccccc3)CCO2)n1)OCCOCCOCCOC(=O)c1ccc(-c2c3nc(c(-c4ccc(S(=O)(=O)[O-])cc4)c4ccc([nH]4)c(-c4ccc(S(=O)(=O)[O-])cc4)c4nc(c(-c5ccc(S(=O)(=O)[O-])cc5)c5ccc2[nH]5)C=C4)C=C3)cc1
REMARK SMILES IDX 27 1 26 2 25 3 24 4 23 5 2 6 1 7 3 8 4 9 5 10 6 11 22 12
REMARK SMILES IDX 7 13 9 14 8 15 10 16 11 17 21 18 12 19 20 20 19 21 13 22
REMARK SMILES IDX 14 23 18 24 15 25 17 26 16 27 28 28 29 29 30 30 31 31 32 32
REMARK SMILES IDX 33 33 34 34 35 35 36 36 94 37 37 38 93 39 38 40 39 41 40 42
REMARK SMILES IDX 87 43 41 44 92 45 86 46 88 47 42 48 91 49 85 50 84 51 43 53
REMARK SMILES IDX 73 54 54 55 72 56 55 57 58 58 71 59 89 60 56 61 57 62 70 64
REMARK SMILES IDX 90 65 59 66 44 67 45 68 53 69 46 70 52 71 47 72 48 73 49 74
REMARK SMILES IDX 50 75 51 76 74 77 75 78 83 79 76 80 82 81 77 82 78 83 79 84
REMARK SMILES IDX 80 85 81 86 60 87 61 88 69 89 62 90 68 91 63 92 64 93 65 94
REMARK SMILES IDX 66 95 67 96
REMARK H PARENT 88 52 58 63
REMARK Flexibility Score: inf
ROOT
ATOM      1  C   UNL A   1      52.085  27.140  28.953  1.00  0.00     0.188 C 
ENDROOT
BRANCH   1   2
ATOM      2  O   UNL A   1      51.170  26.194  28.428  1.00  0.00    -0.376 OA
BRANCH   2   3
ATOM      3  C   UNL A   1      49.849  26.169  28.953  1.00  0.00     0.202 C 
BRANCH   3   4
ATOM      4  C   UNL A   1      48.849  25.166  28.383  1.00  0.00     0.261 C 
BRANCH   4   5
ATOM      5  O   UNL A   1      47.660  25.606  27.685  1.00  0.00    -0.463 OA
BRANCH   5   6
ATOM      6  C   UNL A   1      46.554  24.993  27.231  1.00  0.00     0.306 C 
ATOM      7  O   UNL A   1      46.472  23.767  27.327  1.00  0.00    -0.252 OA
BRANCH   6   8
ATOM      8  C   UNL A   1      45.446  25.766  26.572  1.00  0.00     0.129 C 
BRANCH   8   9
ATOM      9  C   UNL A   1      44.384  26.226  27.555  1.00  0.00     0.069 C 
BRANCH   9  10
ATOM     10  C   UNL A   1      43.315  27.025  26.868  1.00  0.00     0.060 A 
ATOM     11  C   UNL A   1      43.365  27.307  25.510  1.00  0.00     0.134 A 
ATOM     12  N   UNL A   1      42.361  27.569  27.660  1.00  0.00    -0.252 NA
ATOM     13  N   UNL A   1      42.485  28.143  24.909  1.00  0.00    -0.261 NA
ATOM     14  C   UNL A   1      41.447  28.384  27.072  1.00  0.00     0.090 A 
ATOM     15  C   UNL A   1      41.520  28.653  25.712  1.00  0.00     0.137 A 
BRANCH  14  16
ATOM     16  C   UNL A   1      40.338  28.953  27.926  1.00  0.00     0.188 C 
ATOM     17  C   UNL A   1      40.896  29.734  29.150  1.00  0.00     0.155 C 
ATOM     18  O   UNL A   1      39.505  27.835  28.306  1.00  0.00    -0.368 OA
ATOM     19  N   UNL A   1      39.819  30.043  30.113  1.00  0.00    -0.366 N 
ATOM     20  C   UNL A   1      38.468  28.222  29.213  1.00  0.00     0.182 C 
ATOM     21  C   UNL A   1      39.039  28.855  30.491  1.00  0.00     0.145 C 
BRANCH  19  22
ATOM     22  C   UNL A   1      39.292  31.299  30.326  1.00  0.00     0.037 A 
ATOM     23  C   UNL A   1      38.350  31.504  31.349  1.00  0.00     0.026 A 
ATOM     24  C   UNL A   1      39.643  32.414  29.558  1.00  0.00     0.026 A 
ATOM     25  C   UNL A   1      37.758  32.750  31.576  1.00  0.00     0.002 A 
ATOM     26  C   UNL A   1      39.047  33.666  29.771  1.00  0.00     0.002 A 
ATOM     27  C   UNL A   1      38.101  33.832  30.776  1.00  0.00     0.000 A 
ENDBRANCH  19  22
ENDBRANCH  14  16
ENDBRANCH   9  10
ENDBRANCH   8   9
ENDBRANCH   6   8
ENDBRANCH   5   6
ENDBRANCH   4   5
ENDBRANCH   3   4
ENDBRANCH   2   3
ENDBRANCH   1   2
BRANCH   1  28
ATOM     28  C   UNL A   1      53.408  27.337  28.212  1.00  0.00     0.188 C 
BRANCH  28  29
ATOM     29  O   UNL A   1      53.290  28.096  27.013  1.00  0.00    -0.376 OA
BRANCH  29  30
ATOM     30  C   UNL A   1      53.334  27.305  25.827  1.00  0.00     0.202 C 
BRANCH  30  31
ATOM     31  C   UNL A   1      52.064  27.363  24.967  1.00  0.00     0.261 C 
BRANCH  31  32
ATOM     32  O   UNL A   1      51.033  28.267  25.389  1.00  0.00    -0.460 OA
BRANCH  32  33
ATOM     33  C   UNL A   1      49.749  27.931  25.139  1.00  0.00     0.338 C 
ATOM     34  O   UNL A   1      49.348  27.136  24.311  1.00  0.00    -0.246 OA
BRANCH  33  35
ATOM     35  C   UNL A   1      48.899  28.642  26.119  1.00  0.00     0.060 A 
ATOM     36  C   UNL A   1      49.490  29.367  27.161  1.00  0.00     0.016 A 
ATOM     37  C   UNL A   1      47.507  28.569  26.010  1.00  0.00     0.016 A 
ATOM     38  C   UNL A   1      48.688  30.036  28.092  1.00  0.00     0.010 A 
ATOM     39  C   UNL A   1      46.709  29.203  26.963  1.00  0.00     0.010 A 
ATOM     40  C   UNL A   1      47.293  29.925  28.018  1.00  0.00    -0.014 A 
BRANCH  40  41
ATOM     41  C   UNL A   1      46.432  30.363  29.143  1.00  0.00     0.031 A 
ATOM     42  C   UNL A   1      46.139  29.368  30.231  1.00  0.00     0.074 A 
ATOM     43  C   UNL A   1      45.857  31.577  29.167  1.00  0.00     0.049 A 
ATOM     44  N   UNL A   1      45.297  29.448  31.226  1.00  0.00    -0.248 NA
ATOM     45  C   UNL A   1      46.894  28.105  30.175  1.00  0.00     0.031 C 
ATOM     46  C   UNL A   1      46.088  32.643  28.195  1.00  0.00     0.029 A 
ATOM     47  N   UNL A   1      44.927  32.102  30.032  1.00  0.00    -0.354 N 
ATOM     48  C   UNL A   1      45.402  28.239  31.903  1.00  0.00     0.074 A 
ATOM     49  C   UNL A   1      46.380  27.440  31.196  1.00  0.00     0.031 C 
ATOM     50  C   UNL A   1      45.291  33.684  28.497  1.00  0.00     0.029 A 
ATOM     51  C   UNL A   1      44.466  33.340  29.656  1.00  0.00     0.049 A 
ATOM     52  H   UNL A   1      44.622  31.634  30.844  1.00  0.00     0.167 HD
ATOM     53  C   UNL A   1      44.733  27.822  33.004  1.00  0.00     0.031 A 
ATOM     54  C   UNL A   1      43.464  34.091  30.159  1.00  0.00     0.031 A 
ATOM     55  C   UNL A   1      43.729  28.600  33.676  1.00  0.00     0.049 A 
ATOM     56  C   UNL A   1      42.681  33.587  31.345  1.00  0.00     0.074 A 
ATOM     57  C   UNL A   1      43.003  28.275  34.807  1.00  0.00     0.029 A 
ATOM     58  N   UNL A   1      43.294  29.852  33.265  1.00  0.00    -0.354 N 
ATOM     59  N   UNL A   1      42.809  32.454  31.997  1.00  0.00    -0.248 NA
ATOM     60  C   UNL A   1      41.621  34.463  31.867  1.00  0.00     0.031 C 
ATOM     61  C   UNL A   1      42.085  29.304  35.044  1.00  0.00     0.029 A 
ATOM     62  C   UNL A   1      42.288  30.301  34.103  1.00  0.00     0.049 A 
ATOM     63  H   UNL A   1      43.650  30.348  32.493  1.00  0.00     0.167 HD
ATOM     64  C   UNL A   1      41.868  32.495  33.022  1.00  0.00     0.074 A 
ATOM     65  C   UNL A   1      41.178  33.764  32.905  1.00  0.00     0.031 C 
ATOM     66  C   UNL A   1      41.609  31.568  33.978  1.00  0.00     0.031 A 
BRANCH  53  67
ATOM     67  C   UNL A   1      45.026  26.429  33.492  1.00  0.00    -0.014 A 
ATOM     68  C   UNL A   1      44.318  25.314  33.005  1.00  0.00     0.010 A 
ATOM     69  C   UNL A   1      46.010  26.236  34.479  1.00  0.00     0.010 A 
ATOM     70  C   UNL A   1      44.540  24.045  33.545  1.00  0.00     0.020 A 
ATOM     71  C   UNL A   1      46.257  24.964  34.999  1.00  0.00     0.020 A 
ATOM     72  C   UNL A   1      45.500  23.880  34.549  1.00  0.00     0.054 A 
BRANCH  72  73
ATOM     73  S   UNL A   1      45.746  22.230  35.257  1.00  0.00     0.124 S 
ATOM     74  O   UNL A   1      44.385  21.700  35.261  1.00  0.00    -0.237 OA
ATOM     75  O   UNL A   1      46.661  21.604  34.308  1.00  0.00    -0.237 OA
ATOM     76  O   UNL A   1      46.311  22.501  36.578  1.00  0.00    -0.744 OA
ENDBRANCH  72  73
ENDBRANCH  53  67
BRANCH  54  77
ATOM     77  C   UNL A   1      43.130  35.389  29.512  1.00  0.00    -0.014 A 
ATOM     78  C   UNL A   1      43.808  36.567  29.869  1.00  0.00     0.010 A 
ATOM     79  C   UNL A   1      42.164  35.439  28.489  1.00  0.00     0.010 A 
ATOM     80  C   UNL A   1      43.539  37.768  29.204  1.00  0.00     0.020 A 
ATOM     81  C   UNL A   1      41.909  36.632  27.807  1.00  0.00     0.020 A 
ATOM     82  C   UNL A   1      42.600  37.790  28.169  1.00  0.00     0.054 A 
BRANCH  82  83
ATOM     83  S   UNL A   1      42.350  39.333  27.245  1.00  0.00     0.124 S 
ATOM     84  O   UNL A   1      43.647  39.518  26.604  1.00  0.00    -0.237 OA
ATOM     85  O   UNL A   1      41.245  38.989  26.354  1.00  0.00    -0.237 OA
ATOM     86  O   UNL A   1      42.020  40.304  28.286  1.00  0.00    -0.744 OA
ENDBRANCH  82  83
ENDBRANCH  54  77
BRANCH  66  87
ATOM     87  C   UNL A   1      40.567  31.894  35.017  1.00  0.00    -0.014 A 
ATOM     88  C   UNL A   1      39.205  31.617  34.805  1.00  0.00     0.010 A 
ATOM     89  C   UNL A   1      40.979  32.389  36.269  1.00  0.00     0.010 A 
ATOM     90  C   UNL A   1      38.274  31.841  35.824  1.00  0.00     0.020 A 
ATOM     91  C   UNL A   1      40.054  32.589  37.298  1.00  0.00     0.020 A 
ATOM     92  C   UNL A   1      38.705  32.319  37.066  1.00  0.00     0.054 A 
BRANCH  92  93
ATOM     93  S   UNL A   1      37.487  32.526  38.396  1.00  0.00     0.124 S 
ATOM     94  O   UNL A   1      36.307  32.975  37.662  1.00  0.00    -0.237 OA
ATOM     95  O   UNL A   1      37.402  31.183  38.964  1.00  0.00    -0.237 OA
ATOM     96  O   UNL A   1      38.095  33.527  39.270  1.00  0.00    -0.744 OA
ENDBRANCH  92  93
ENDBRANCH  66  87
ENDBRANCH  40  41
ENDBRANCH  33  35
ENDBRANCH  32  33
ENDBRANCH  31  32
ENDBRANCH  30  31
ENDBRANCH  29  30
ENDBRANCH  28  29
ENDBRANCH   1  28
TORSDOF 24
ENDMDL
MODEL 3
REMARK VINA RESULT:      -8.3      5.532     13.490
REMARK SMILES O=C(CCc1cncc([C@@H]2CN(c3ccccc3)CCO2)n1)OCCOCCOCCOC(=O)c1ccc(-c2c3nc(c(-c4ccc(S(=O)(=O)[O-])cc4)c4ccc([nH]4)c(-c4ccc(S(=O)(=O)[O-])cc4)c4nc(c(-c5ccc(S(=O)(=O)[O-])cc5)c5ccc2[nH]5)C=C4)C=C3)cc1
REMARK SMILES IDX 27 1 26 2 25 3 24 4 23 5 2 6 1 7 3 8 4 9 5 10 6 11 22 12
REMARK SMILES IDX 7 13 9 14 8 15 10 16 11 17 21 18 12 19 20 20 19 21 13 22
REMARK SMILES IDX 14 23 18 24 15 25 17 26 16 27 28 28 29 29 30 30 31 31 32 32
REMARK SMILES IDX 33 33 34 34 35 35 36 36 94 37 37 38 93 39 38 40 39 41 40 42
REMARK SMILES IDX 87 43 41 44 92 45 86 46 88 47 42 48 91 49 85 50 84 51 43 53
REMARK SMILES IDX 73 54 54 55 72 56 55 57 58 58 71 59 89 60 56 61 57 62 70 64
REMARK SMILES IDX 90 65 59 66 44 67 45 68 53 69 46 70 52 71 47 72 48 73 49 74
REMARK SMILES IDX 50 75 51 76 74 77 75 78 83 79 76 80 82 81 77 82 78 83 79 84
REMARK SMILES IDX 80 85 81 86 60 87 61 88 69 89 62 90 68 91 63 92 64 93 65 94
REMARK SMILES IDX 66 95 67 96
REMARK H PARENT 88 52 58 63
REMARK Flexibility Score: inf
ROOT
ATOM      1  C   UNL A   1      37.921  33.462  34.033  1.00  0.00     0.188 C 
ENDROOT
BRANCH   1   2
ATOM      2  O   UNL A   1      38.854  33.758  35.058  1.00  0.00    -0.376 OA
BRANCH   2   3
ATOM      3  C   UNL A   1      39.310  32.695  35.883  1.00  0.00     0.202 C 
BRANCH   3   4
ATOM      4  C   UNL A   1      40.420  31.783  35.363  1.00  0.00     0.261 C 
BRANCH   4   5
ATOM      5  O   UNL A   1      41.797  31.969  35.769  1.00  0.00    -0.463 OA
BRANCH   5   6
ATOM      6  C   UNL A   1      42.885  32.502  35.190  1.00  0.00     0.306 C 
ATOM      7  O   UNL A   1      43.657  33.174  35.877  1.00  0.00    -0.252 OA
BRANCH   6   8
ATOM      8  C   UNL A   1      43.149  32.334  33.720  1.00  0.00     0.129 C 
BRANCH   8   9
ATOM      9  C   UNL A   1      44.479  32.929  33.289  1.00  0.00     0.069 C 
BRANCH   9  10
ATOM     10  C   UNL A   1      45.495  31.857  33.024  1.00  0.00     0.060 A 
ATOM     11  C   UNL A   1      46.826  32.152  32.764  1.00  0.00     0.134 A 
ATOM     12  N   UNL A   1      45.028  30.591  32.923  1.00  0.00    -0.252 NA
ATOM     13  N   UNL A   1      47.719  31.208  32.385  1.00  0.00    -0.261 NA
ATOM     14  C   UNL A   1      45.914  29.621  32.577  1.00  0.00     0.090 A 
ATOM     15  C   UNL A   1      47.240  29.942  32.320  1.00  0.00     0.137 A 
BRANCH  14  16
ATOM     16  C   UNL A   1      45.427  28.191  32.518  1.00  0.00     0.188 C 
ATOM     17  C   UNL A   1      45.715  27.429  33.844  1.00  0.00     0.155 C 
ATOM     18  O   UNL A   1      46.075  27.590  31.374  1.00  0.00    -0.368 OA
ATOM     19  N   UNL A   1      45.491  25.979  33.677  1.00  0.00    -0.366 N 
ATOM     20  C   UNL A   1      45.783  26.193  31.265  1.00  0.00     0.182 C 
ATOM     21  C   UNL A   1      46.212  25.423  32.522  1.00  0.00     0.145 C 
BRANCH  19  22
ATOM     22  C   UNL A   1      44.433  25.280  34.219  1.00  0.00     0.037 A 
ATOM     23  C   UNL A   1      44.403  23.876  34.143  1.00  0.00     0.026 A 
ATOM     24  C   UNL A   1      43.351  25.902  34.852  1.00  0.00     0.026 A 
ATOM     25  C   UNL A   1      43.333  23.127  34.642  1.00  0.00     0.002 A 
ATOM     26  C   UNL A   1      42.268  25.160  35.346  1.00  0.00     0.002 A 
ATOM     27  C   UNL A   1      42.257  23.773  35.235  1.00  0.00     0.000 A 
ENDBRANCH  19  22
ENDBRANCH  14  16
ENDBRANCH   9  10
ENDBRANCH   8   9
ENDBRANCH   6   8
ENDBRANCH   5   6
ENDBRANCH   4   5
ENDBRANCH   3   4
ENDBRANCH   2   3
ENDBRANCH   1   2
BRANCH   1  28
ATOM     28  C   UNL A   1      37.541  34.588  33.070  1.00  0.00     0.188 C 
BRANCH  28  29
ATOM     29  O   UNL A   1      36.250  35.140  33.309  1.00  0.00    -0.376 OA
BRANCH  29  30
ATOM     30  C   UNL A   1      35.310  34.198  33.822  1.00  0.00     0.202 C 
BRANCH  30  31
ATOM     31  C   UNL A   1      34.192  33.808  32.845  1.00  0.00     0.261 C 
BRANCH  31  32
ATOM     32  O   UNL A   1      34.405  32.635  32.047  1.00  0.00    -0.460 OA
BRANCH  32  33
ATOM     33  C   UNL A   1      34.711  32.799  30.742  1.00  0.00     0.338 C 
ATOM     34  O   UNL A   1      34.078  33.426  29.914  1.00  0.00    -0.246 OA
BRANCH  33  35
ATOM     35  C   UNL A   1      36.016  32.146  30.500  1.00  0.00     0.060 A 
ATOM     36  C   UNL A   1      36.601  31.361  31.502  1.00  0.00     0.016 A 
ATOM     37  C   UNL A   1      36.668  32.333  29.279  1.00  0.00     0.016 A 
ATOM     38  C   UNL A   1      37.837  30.747  31.278  1.00  0.00     0.010 A 
ATOM     39  C   UNL A   1      37.920  31.752  29.072  1.00  0.00     0.010 A 
ATOM     40  C   UNL A   1      38.520  30.970  30.075  1.00  0.00    -0.014 A 
BRANCH  40  41
ATOM     41  C   UNL A   1      39.945  30.589  29.923  1.00  0.00     0.031 A 
ATOM     42  C   UNL A   1      40.977  31.679  30.007  1.00  0.00     0.074 A 
ATOM     43  C   UNL A   1      40.316  29.329  29.639  1.00  0.00     0.049 A 
ATOM     44  N   UNL A   1      42.257  31.633  29.750  1.00  0.00    -0.248 NA
ATOM     45  C   UNL A   1      40.487  33.003  30.424  1.00  0.00     0.031 C 
ATOM     46  C   UNL A   1      39.420  28.177  29.568  1.00  0.00     0.029 A 
ATOM     47  N   UNL A   1      41.552  28.818  29.321  1.00  0.00    -0.354 N 
ATOM     48  C   UNL A   1      42.724  32.926  29.952  1.00  0.00     0.074 A 
ATOM     49  C   UNL A   1      41.587  33.733  30.339  1.00  0.00     0.031 C 
ATOM     50  C   UNL A   1      40.131  27.099  29.191  1.00  0.00     0.029 A 
ATOM     51  C   UNL A   1      41.520  27.495  28.954  1.00  0.00     0.049 A 
ATOM     52  H   UNL A   1      42.380  29.351  29.354  1.00  0.00     0.167 HD
ATOM     53  C   UNL A   1      43.983  33.404  29.812  1.00  0.00     0.031 A 
ATOM     54  C   UNL A   1      42.487  26.705  28.443  1.00  0.00     0.031 A 
ATOM     55  C   UNL A   1      45.101  32.610  29.383  1.00  0.00     0.049 A 
ATOM     56  C   UNL A   1      43.869  27.266  28.229  1.00  0.00     0.074 A 
ATOM     57  C   UNL A   1      46.419  32.995  29.222  1.00  0.00     0.029 A 
ATOM     58  N   UNL A   1      45.027  31.272  29.025  1.00  0.00    -0.354 N 
ATOM     59  N   UNL A   1      44.309  28.483  28.452  1.00  0.00    -0.248 NA
ATOM     60  C   UNL A   1      44.889  26.348  27.698  1.00  0.00     0.031 C 
ATOM     61  C   UNL A   1      47.130  31.905  28.707  1.00  0.00     0.029 A 
ATOM     62  C   UNL A   1      46.270  30.822  28.615  1.00  0.00     0.049 A 
ATOM     63  H   UNL A   1      44.210  30.722  29.058  1.00  0.00     0.167 HD
ATOM     64  C   UNL A   1      45.661  28.468  28.118  1.00  0.00     0.074 A 
ATOM     65  C   UNL A   1      45.967  27.123  27.677  1.00  0.00     0.031 C 
ATOM     66  C   UNL A   1      46.564  29.478  28.181  1.00  0.00     0.031 A 
BRANCH  53  67
ATOM     67  C   UNL A   1      44.184  34.875  30.059  1.00  0.00    -0.014 A 
ATOM     68  C   UNL A   1      44.762  35.349  31.251  1.00  0.00     0.010 A 
ATOM     69  C   UNL A   1      43.758  35.803  29.090  1.00  0.00     0.010 A 
ATOM     70  C   UNL A   1      44.847  36.722  31.498  1.00  0.00     0.020 A 
ATOM     71  C   UNL A   1      43.871  37.175  29.320  1.00  0.00     0.020 A 
ATOM     72  C   UNL A   1      44.388  37.626  30.536  1.00  0.00     0.054 A 
BRANCH  72  73
ATOM     73  S   UNL A   1      44.478  39.401  30.895  1.00  0.00     0.124 S 
ATOM     74  O   UNL A   1      43.080  39.804  30.763  1.00  0.00    -0.237 OA
ATOM     75  O   UNL A   1      45.014  39.428  32.253  1.00  0.00    -0.237 OA
ATOM     76  O   UNL A   1      45.374  39.918  29.863  1.00  0.00    -0.744 OA
ENDBRANCH  72  73
ENDBRANCH  53  67
BRANCH  54  77
ATOM     77  C   UNL A   1      42.161  25.301  28.072  1.00  0.00    -0.014 A 
ATOM     78  C   UNL A   1      41.746  24.978  26.768  1.00  0.00     0.010 A 
ATOM     79  C   UNL A   1      42.318  24.267  29.015  1.00  0.00     0.010 A 
ATOM     80  C   UNL A   1      41.511  23.646  26.409  1.00  0.00     0.020 A 
ATOM     81  C   UNL A   1      42.107  22.934  28.653  1.00  0.00     0.020 A 
ATOM     82  C   UNL A   1      41.705  22.631  27.351  1.00  0.00     0.054 A 
BRANCH  82  83
ATOM     83  S   UNL A   1      41.505  20.904  26.831  1.00  0.00     0.124 S 
ATOM     84  O   UNL A   1      40.054  20.745  26.850  1.00  0.00    -0.237 OA
ATOM     85  O   UNL A   1      42.126  20.900  25.509  1.00  0.00    -0.237 OA
ATOM     86  O   UNL A   1      42.231  20.153  27.853  1.00  0.00    -0.744 OA
ENDBRANCH  82  83
ENDBRANCH  54  77
BRANCH  66  87
ATOM     87  C   UNL A   1      47.994  29.173  27.812  1.00  0.00    -0.014 A 
ATOM     88  C   UNL A   1      49.013  29.144  28.780  1.00  0.00     0.010 A 
ATOM     89  C   UNL A   1      48.297  28.805  26.488  1.00  0.00     0.010 A 
ATOM     90  C   UNL A   1      50.311  28.764  28.426  1.00  0.00     0.020 A 
ATOM     91  C   UNL A   1      49.587  28.399  26.136  1.00  0.00     0.020 A 
ATOM     92  C   UNL A   1      50.588  28.388  27.107  1.00  0.00     0.054 A 
BRANCH  92  93
ATOM     93  S   UNL A   1      52.263  27.823  26.691  1.00  0.00     0.124 S 
ATOM     94  O   UNL A   1      52.753  27.346  27.981  1.00  0.00    -0.237 OA
ATOM     95  O   UNL A   1      52.012  26.789  25.690  1.00  0.00    -0.237 OA
ATOM     96  O   UNL A   1      52.918  29.027  26.183  1.00  0.00    -0.744 OA
ENDBRANCH  92  93
ENDBRANCH  66  87
ENDBRANCH  40  41
ENDBRANCH  33  35
ENDBRANCH  32  33
ENDBRANCH  31  32
ENDBRANCH  30  31
ENDBRANCH  29  30
ENDBRANCH  28  29
ENDBRANCH   1  28
TORSDOF 24
ENDMDL
