MODEL 1
REMARK VINA RESULT:      -9.6      0.000      0.000
REMARK SMILES C[NH2+][C@]1(C(=O)OCCOCCOCCOC(=O)c2ccc(-c3c4nc(c(-c5ccc(S(=O)(=O)[O-])cc5)c5ccc([nH]5)c(-c5ccc(S(=O)(=O)[O-])cc5)c5nc(c(-c6ccc(S(=O)(=O)[O-])cc6)c6ccc3[nH]6)C=C5)C=C4)cc2)CCC[C@H]([N@H+](C)C2CC2)C1
REMARK SMILES IDX 11 1 10 2 9 3 8 4 7 5 6 6 4 7 5 8 3 9 78 10 87 11 79 12
REMARK SMILES IDX 81 13 80 14 2 15 1 16 82 19 83 20 84 22 85 23 86 24 12 25
REMARK SMILES IDX 13 26 14 27 15 28 16 29 17 30 18 31 19 32 77 33 20 34 76 35
REMARK SMILES IDX 21 36 22 37 23 38 70 39 24 40 75 41 69 42 71 43 25 44 74 45
REMARK SMILES IDX 68 46 67 47 26 49 56 50 37 51 55 52 38 53 41 54 54 55 72 56
REMARK SMILES IDX 39 57 40 58 53 60 73 61 42 62 27 63 28 64 36 65 29 66 35 67
REMARK SMILES IDX 30 68 31 69 32 70 33 71 34 72 57 73 58 74 66 75 59 76 65 77
REMARK SMILES IDX 60 78 61 79 62 80 63 81 64 82 43 83 44 84 52 85 45 86 51 87
REMARK SMILES IDX 46 88 47 89 48 90 49 91 50 92
REMARK H PARENT 2 17 2 18 82 21 71 48 41 59
REMARK Flexibility Score: inf
ROOT
ATOM      1  C   UNL A   1      37.164  20.810  25.090  1.00  0.00     0.188 C 
ENDROOT
BRANCH   1   2
ATOM      2  C   UNL A   1      35.653  20.987  25.199  1.00  0.00     0.188 C 
BRANCH   2   3
ATOM      3  O   UNL A   1      34.847  19.946  24.659  1.00  0.00    -0.376 OA
BRANCH   3   4
ATOM      4  C   UNL A   1      33.542  19.803  25.214  1.00  0.00     0.202 C 
BRANCH   4   5
ATOM      5  C   UNL A   1      32.499  20.859  24.819  1.00  0.00     0.261 C 
BRANCH   5   6
ATOM      6  O   UNL A   1      32.493  22.028  25.661  1.00  0.00    -0.459 OA
BRANCH   6   7
ATOM      7  C   UNL A   1      31.360  22.790  25.614  1.00  0.00     0.368 C 
ATOM      8  O   UNL A   1      30.278  22.431  26.074  1.00  0.00    -0.245 OA
BRANCH   7   9
ATOM      9  C   UNL A   1      31.568  24.182  24.935  1.00  0.00     0.199 C 
ATOM     10  C   UNL A   1      33.020  24.373  24.429  1.00  0.00     0.081 C 
ATOM     11  C   UNL A   1      30.619  24.205  23.700  1.00  0.00     0.146 C 
ATOM     12  C   UNL A   1      33.191  25.583  23.507  1.00  0.00     0.013 C 
ATOM     13  C   UNL A   1      30.726  25.466  22.802  1.00  0.00     0.190 C 
ATOM     14  C   UNL A   1      32.199  25.548  22.345  1.00  0.00     0.065 C 
BRANCH   9  15
ATOM     15  N   UNL A   1      31.316  25.315  25.882  1.00  0.00    -0.334 N 
ATOM     16  C   UNL A   1      32.494  25.912  26.501  1.00  0.00     0.331 C 
ATOM     17  H   UNL A   1      30.831  26.050  25.366  1.00  0.00     0.347 HD
ATOM     18  H   UNL A   1      30.778  24.914  26.649  1.00  0.00     0.347 HD
ENDBRANCH   9  15
BRANCH  13  19
ATOM     19  N   UNL A   1      30.220  26.692  23.480  1.00  0.00    -0.332 N 
ATOM     20  C   UNL A   1      28.789  26.547  23.832  1.00  0.00     0.333 C 
ATOM     21  H   UNL A   1      30.817  26.777  24.302  1.00  0.00     0.348 HD
BRANCH  19  22
ATOM     22  C   UNL A   1      30.347  27.944  22.693  1.00  0.00     0.184 C 
ATOM     23  C   UNL A   1      30.338  29.223  23.505  1.00  0.00     0.071 C 
ATOM     24  C   UNL A   1      31.545  28.852  22.707  1.00  0.00     0.071 C 
ENDBRANCH  19  22
ENDBRANCH  13  19
ENDBRANCH   7   9
ENDBRANCH   6   7
ENDBRANCH   5   6
ENDBRANCH   4   5
ENDBRANCH   3   4
ENDBRANCH   2   3
ENDBRANCH   1   2
BRANCH   1  25
ATOM     25  O   UNL A   1      37.917  22.010  24.933  1.00  0.00    -0.376 OA
BRANCH  25  26
ATOM     26  C   UNL A   1      38.442  22.563  26.145  1.00  0.00     0.202 C 
BRANCH  26  27
ATOM     27  C   UNL A   1      39.929  22.266  26.432  1.00  0.00     0.261 C 
BRANCH  27  28
ATOM     28  O   UNL A   1      40.541  23.123  27.421  1.00  0.00    -0.460 OA
BRANCH  28  29
ATOM     29  C   UNL A   1      41.288  24.160  26.974  1.00  0.00     0.338 C 
ATOM     30  O   UNL A   1      41.930  24.190  25.937  1.00  0.00    -0.246 OA
BRANCH  29  31
ATOM     31  C   UNL A   1      41.002  25.354  27.820  1.00  0.00     0.060 A 
ATOM     32  C   UNL A   1      41.994  26.337  27.940  1.00  0.00     0.016 A 
ATOM     33  C   UNL A   1      39.760  25.545  28.436  1.00  0.00     0.016 A 
ATOM     34  C   UNL A   1      41.772  27.476  28.722  1.00  0.00     0.010 A 
ATOM     35  C   UNL A   1      39.541  26.683  29.223  1.00  0.00     0.010 A 
ATOM     36  C   UNL A   1      40.559  27.635  29.406  1.00  0.00    -0.014 A 
BRANCH  36  37
ATOM     37  C   UNL A   1      40.432  28.665  30.473  1.00  0.00     0.031 A 
ATOM     38  C   UNL A   1      41.341  28.560  31.672  1.00  0.00     0.074 A 
ATOM     39  C   UNL A   1      39.558  29.685  30.393  1.00  0.00     0.049 A 
ATOM     40  N   UNL A   1      41.397  29.310  32.742  1.00  0.00    -0.248 NA
ATOM     41  C   UNL A   1      42.319  27.458  31.657  1.00  0.00     0.031 C 
ATOM     42  C   UNL A   1      38.650  29.944  29.278  1.00  0.00     0.029 A 
ATOM     43  N   UNL A   1      39.290  30.696  31.287  1.00  0.00    -0.354 N 
ATOM     44  C   UNL A   1      42.409  28.769  33.528  1.00  0.00     0.074 A 
ATOM     45  C   UNL A   1      42.917  27.611  32.828  1.00  0.00     0.031 C 
ATOM     46  C   UNL A   1      37.917  31.038  29.559  1.00  0.00     0.029 A 
ATOM     47  C   UNL A   1      38.282  31.540  30.884  1.00  0.00     0.049 A 
ATOM     48  H   UNL A   1      39.776  30.806  32.136  1.00  0.00     0.167 HD
ATOM     49  C   UNL A   1      42.884  29.199  34.722  1.00  0.00     0.031 A 
ATOM     50  C   UNL A   1      37.705  32.584  31.517  1.00  0.00     0.031 A 
ATOM     51  C   UNL A   1      42.376  30.339  35.437  1.00  0.00     0.049 A 
ATOM     52  C   UNL A   1      38.191  32.994  32.888  1.00  0.00     0.074 A 
ATOM     53  C   UNL A   1      42.801  30.848  36.651  1.00  0.00     0.029 A 
ATOM     54  N   UNL A   1      41.329  31.139  35.011  1.00  0.00    -0.354 N 
ATOM     55  N   UNL A   1      39.163  32.486  33.607  1.00  0.00    -0.248 NA
ATOM     56  C   UNL A   1      37.501  34.126  33.528  1.00  0.00     0.031 C 
ATOM     57  C   UNL A   1      41.973  31.924  36.988  1.00  0.00     0.029 A 
ATOM     58  C   UNL A   1      41.075  32.123  35.952  1.00  0.00     0.049 A 
ATOM     59  H   UNL A   1      40.837  31.025  34.166  1.00  0.00     0.167 HD
ATOM     60  C   UNL A   1      39.221  33.254  34.767  1.00  0.00     0.074 A 
ATOM     61  C   UNL A   1      38.193  34.268  34.650  1.00  0.00     0.031 C 
ATOM     62  C   UNL A   1      40.053  33.132  35.832  1.00  0.00     0.031 A 
BRANCH  49  63
ATOM     63  C   UNL A   1      43.996  28.400  35.347  1.00  0.00    -0.014 A 
ATOM     64  C   UNL A   1      45.344  28.715  35.101  1.00  0.00     0.010 A 
ATOM     65  C   UNL A   1      43.685  27.335  36.212  1.00  0.00     0.010 A 
ATOM     66  C   UNL A   1      46.364  27.951  35.677  1.00  0.00     0.020 A 
ATOM     67  C   UNL A   1      44.701  26.587  36.812  1.00  0.00     0.020 A 
ATOM     68  C   UNL A   1      46.034  26.890  36.525  1.00  0.00     0.054 A 
BRANCH  68  69
ATOM     69  S   UNL A   1      47.376  25.924  37.270  1.00  0.00     0.124 S 
ATOM     70  O   UNL A   1      48.010  25.333  36.092  1.00  0.00    -0.237 OA
ATOM     71  O   UNL A   1      48.161  26.943  37.960  1.00  0.00    -0.237 OA
ATOM     72  O   UNL A   1      46.682  24.978  38.142  1.00  0.00    -0.744 OA
ENDBRANCH  68  69
ENDBRANCH  49  63
BRANCH  50  73
ATOM     73  C   UNL A   1      36.576  33.314  30.875  1.00  0.00    -0.014 A 
ATOM     74  C   UNL A   1      35.333  33.437  31.523  1.00  0.00     0.010 A 
ATOM     75  C   UNL A   1      36.733  33.873  29.592  1.00  0.00     0.010 A 
ATOM     76  C   UNL A   1      34.268  34.091  30.895  1.00  0.00     0.020 A 
ATOM     77  C   UNL A   1      35.679  34.551  28.975  1.00  0.00     0.020 A 
ATOM     78  C   UNL A   1      34.448  34.647  29.626  1.00  0.00     0.054 A 
BRANCH  78  79
ATOM     79  S   UNL A   1      33.067  35.536  28.853  1.00  0.00     0.124 S 
ATOM     80  O   UNL A   1      32.421  34.482  28.078  1.00  0.00    -0.237 OA
ATOM     81  O   UNL A   1      32.318  36.020  30.010  1.00  0.00    -0.237 OA
ATOM     82  O   UNL A   1      33.727  36.577  28.068  1.00  0.00    -0.744 OA
ENDBRANCH  78  79
ENDBRANCH  50  73
BRANCH  62  83
ATOM     83  C   UNL A   1      39.927  34.139  36.947  1.00  0.00    -0.014 A 
ATOM     84  C   UNL A   1      40.563  35.390  36.882  1.00  0.00     0.010 A 
ATOM     85  C   UNL A   1      39.099  33.851  38.050  1.00  0.00     0.010 A 
ATOM     86  C   UNL A   1      40.397  36.324  37.910  1.00  0.00     0.020 A 
ATOM     87  C   UNL A   1      38.910  34.791  39.067  1.00  0.00     0.020 A 
ATOM     88  C   UNL A   1      39.571  36.018  38.997  1.00  0.00     0.054 A 
BRANCH  88  89
ATOM     89  S   UNL A   1      39.337  37.263  40.297  1.00  0.00     0.124 S 
ATOM     90  O   UNL A   1      38.593  36.515  41.306  1.00  0.00    -0.237 OA
ATOM     91  O   UNL A   1      40.708  37.613  40.659  1.00  0.00    -0.237 OA
ATOM     92  O   UNL A   1      38.585  38.325  39.629  1.00  0.00    -0.744 OA
ENDBRANCH  88  89
ENDBRANCH  62  83
ENDBRANCH  36  37
ENDBRANCH  29  31
ENDBRANCH  28  29
ENDBRANCH  27  28
ENDBRANCH  26  27
ENDBRANCH  25  26
ENDBRANCH   1  25
TORSDOF 23
ENDMDL
MODEL 2
REMARK VINA RESULT:      -9.4      1.136      8.305
REMARK SMILES C[NH2+][C@]1(C(=O)OCCOCCOCCOC(=O)c2ccc(-c3c4nc(c(-c5ccc(S(=O)(=O)[O-])cc5)c5ccc([nH]5)c(-c5ccc(S(=O)(=O)[O-])cc5)c5nc(c(-c6ccc(S(=O)(=O)[O-])cc6)c6ccc3[nH]6)C=C5)C=C4)cc2)CCC[C@H]([N@H+](C)C2CC2)C1
REMARK SMILES IDX 11 1 10 2 9 3 8 4 7 5 6 6 4 7 5 8 3 9 78 10 87 11 79 12
REMARK SMILES IDX 81 13 80 14 2 15 1 16 82 19 83 20 84 22 85 23 86 24 12 25
REMARK SMILES IDX 13 26 14 27 15 28 16 29 17 30 18 31 19 32 77 33 20 34 76 35
REMARK SMILES IDX 21 36 22 37 23 38 70 39 24 40 75 41 69 42 71 43 25 44 74 45
REMARK SMILES IDX 68 46 67 47 26 49 56 50 37 51 55 52 38 53 41 54 54 55 72 56
REMARK SMILES IDX 39 57 40 58 53 60 73 61 42 62 27 63 28 64 36 65 29 66 35 67
REMARK SMILES IDX 30 68 31 69 32 70 33 71 34 72 57 73 58 74 66 75 59 76 65 77
REMARK SMILES IDX 60 78 61 79 62 80 63 81 64 82 43 83 44 84 52 85 45 86 51 87
REMARK SMILES IDX 46 88 47 89 48 90 49 91 50 92
REMARK H PARENT 2 17 2 18 82 21 71 48 41 59
REMARK Flexibility Score: inf
ROOT
ATOM      1  C   UNL A   1      38.723  21.013  25.390  1.00  0.00     0.188 C 
ENDROOT
BRANCH   1   2
ATOM      2  C   UNL A   1      37.358  21.285  24.767  1.00  0.00     0.188 C 
BRANCH   2   3
ATOM      3  O   UNL A   1      36.330  20.340  25.042  1.00  0.00    -0.376 OA
BRANCH   3   4
ATOM      4  C   UNL A   1      35.063  20.875  25.418  1.00  0.00     0.202 C 
BRANCH   4   5
ATOM      5  C   UNL A   1      35.074  22.126  26.310  1.00  0.00     0.261 C 
BRANCH   5   6
ATOM      6  O   UNL A   1      33.973  23.026  26.078  1.00  0.00    -0.459 OA
BRANCH   6   7
ATOM      7  C   UNL A   1      34.275  24.173  25.398  1.00  0.00     0.368 C 
ATOM      8  O   UNL A   1      35.413  24.474  25.043  1.00  0.00    -0.245 OA
BRANCH   7   9
ATOM      9  C   UNL A   1      33.030  25.066  25.090  1.00  0.00     0.199 C 
ATOM     10  C   UNL A   1      32.240  25.426  26.373  1.00  0.00     0.081 C 
ATOM     11  C   UNL A   1      33.587  26.385  24.479  1.00  0.00     0.146 C 
ATOM     12  C   UNL A   1      31.198  26.528  26.158  1.00  0.00     0.013 C 
ATOM     13  C   UNL A   1      32.528  27.480  24.181  1.00  0.00     0.190 C 
ATOM     14  C   UNL A   1      31.818  27.771  25.521  1.00  0.00     0.065 C 
BRANCH   9  15
ATOM     15  N   UNL A   1      32.051  24.377  24.190  1.00  0.00    -0.334 N 
ATOM     16  C   UNL A   1      32.611  23.435  23.228  1.00  0.00     0.331 C 
ATOM     17  H   UNL A   1      31.394  23.865  24.779  1.00  0.00     0.347 HD
ATOM     18  H   UNL A   1      31.627  25.117  23.631  1.00  0.00     0.347 HD
ENDBRANCH   9  15
BRANCH  13  19
ATOM     19  N   UNL A   1      31.615  27.100  23.068  1.00  0.00    -0.332 N 
ATOM     20  C   UNL A   1      32.385  26.646  21.887  1.00  0.00     0.333 C 
ATOM     21  H   UNL A   1      31.041  26.358  23.468  1.00  0.00     0.348 HD
BRANCH  19  22
ATOM     22  C   UNL A   1      30.707  28.178  22.603  1.00  0.00     0.184 C 
ATOM     23  C   UNL A   1      29.283  28.091  23.114  1.00  0.00     0.071 C 
ATOM     24  C   UNL A   1      30.139  29.261  23.477  1.00  0.00     0.071 C 
ENDBRANCH  19  22
ENDBRANCH  13  19
ENDBRANCH   7   9
ENDBRANCH   6   7
ENDBRANCH   5   6
ENDBRANCH   4   5
ENDBRANCH   3   4
ENDBRANCH   2   3
ENDBRANCH   1   2
BRANCH   1  25
ATOM     25  O   UNL A   1      39.077  21.845  26.492  1.00  0.00    -0.376 OA
BRANCH  25  26
ATOM     26  C   UNL A   1      40.466  21.835  26.842  1.00  0.00     0.202 C 
BRANCH  26  27
ATOM     27  C   UNL A   1      41.266  23.097  26.460  1.00  0.00     0.261 C 
BRANCH  27  28
ATOM     28  O   UNL A   1      40.501  24.323  26.449  1.00  0.00    -0.460 OA
BRANCH  28  29
ATOM     29  C   UNL A   1      41.175  25.479  26.237  1.00  0.00     0.338 C 
ATOM     30  O   UNL A   1      41.755  25.795  25.212  1.00  0.00    -0.246 OA
BRANCH  29  31
ATOM     31  C   UNL A   1      40.883  26.414  27.361  1.00  0.00     0.060 A 
ATOM     32  C   UNL A   1      41.614  27.608  27.440  1.00  0.00     0.016 A 
ATOM     33  C   UNL A   1      39.867  26.162  28.290  1.00  0.00     0.016 A 
ATOM     34  C   UNL A   1      41.376  28.517  28.476  1.00  0.00     0.010 A 
ATOM     35  C   UNL A   1      39.633  27.071  29.330  1.00  0.00     0.010 A 
ATOM     36  C   UNL A   1      40.414  28.234  29.455  1.00  0.00    -0.014 A 
BRANCH  36  37
ATOM     37  C   UNL A   1      40.372  29.026  30.714  1.00  0.00     0.031 A 
ATOM     38  C   UNL A   1      39.361  30.141  30.816  1.00  0.00     0.074 A 
ATOM     39  C   UNL A   1      41.182  28.770  31.757  1.00  0.00     0.049 A 
ATOM     40  N   UNL A   1      39.155  30.991  31.789  1.00  0.00    -0.248 NA
ATOM     41  C   UNL A   1      38.463  30.318  29.662  1.00  0.00     0.031 C 
ATOM     42  C   UNL A   1      42.173  27.699  31.823  1.00  0.00     0.029 A 
ATOM     43  N   UNL A   1      41.297  29.411  32.970  1.00  0.00    -0.354 N 
ATOM     44  C   UNL A   1      38.110  31.804  31.364  1.00  0.00     0.074 A 
ATOM     45  C   UNL A   1      37.748  31.368  30.034  1.00  0.00     0.031 C 
ATOM     46  C   UNL A   1      42.803  27.762  33.011  1.00  0.00     0.029 A 
ATOM     47  C   UNL A   1      42.282  28.895  33.778  1.00  0.00     0.049 A 
ATOM     48  H   UNL A   1      40.726  30.168  33.234  1.00  0.00     0.167 HD
ATOM     49  C   UNL A   1      37.497  32.818  32.020  1.00  0.00     0.031 A 
ATOM     50  C   UNL A   1      42.728  29.299  34.987  1.00  0.00     0.031 A 
ATOM     51  C   UNL A   1      37.859  33.273  33.335  1.00  0.00     0.049 A 
ATOM     52  C   UNL A   1      42.088  30.488  35.665  1.00  0.00     0.074 A 
ATOM     53  C   UNL A   1      37.288  34.292  34.077  1.00  0.00     0.029 A 
ATOM     54  N   UNL A   1      38.888  32.749  34.099  1.00  0.00    -0.354 N 
ATOM     55  N   UNL A   1      41.086  31.232  35.258  1.00  0.00    -0.248 NA
ATOM     56  C   UNL A   1      42.638  30.887  36.970  1.00  0.00     0.031 C 
ATOM     57  C   UNL A   1      38.008  34.422  35.269  1.00  0.00     0.029 A 
ATOM     58  C   UNL A   1      38.987  33.440  35.295  1.00  0.00     0.049 A 
ATOM     59  H   UNL A   1      39.464  31.996  33.833  1.00  0.00     0.167 HD
ATOM     60  C   UNL A   1      40.868  32.164  36.270  1.00  0.00     0.074 A 
ATOM     61  C   UNL A   1      41.834  31.885  37.312  1.00  0.00     0.031 C 
ATOM     62  C   UNL A   1      39.948  33.159  36.331  1.00  0.00     0.031 A 
BRANCH  49  63
ATOM     63  C   UNL A   1      36.384  33.530  31.298  1.00  0.00    -0.014 A 
ATOM     64  C   UNL A   1      35.183  33.855  31.954  1.00  0.00     0.010 A 
ATOM     65  C   UNL A   1      36.555  33.900  29.952  1.00  0.00     0.010 A 
ATOM     66  C   UNL A   1      34.154  34.500  31.263  1.00  0.00     0.020 A 
ATOM     67  C   UNL A   1      35.540  34.572  29.265  1.00  0.00     0.020 A 
ATOM     68  C   UNL A   1      34.339  34.851  29.922  1.00  0.00     0.054 A 
BRANCH  68  69
ATOM     69  S   UNL A   1      32.993  35.701  29.052  1.00  0.00     0.124 S 
ATOM     70  O   UNL A   1      32.430  34.622  28.243  1.00  0.00    -0.237 OA
ATOM     71  O   UNL A   1      32.148  36.169  30.148  1.00  0.00    -0.237 OA
ATOM     72  O   UNL A   1      33.674  36.752  28.300  1.00  0.00    -0.744 OA
ENDBRANCH  68  69
ENDBRANCH  49  63
BRANCH  50  73
ATOM     73  C   UNL A   1      43.863  28.589  35.640  1.00  0.00    -0.014 A 
ATOM     74  C   UNL A   1      45.194  28.962  35.380  1.00  0.00     0.010 A 
ATOM     75  C   UNL A   1      43.616  27.512  36.512  1.00  0.00     0.010 A 
ATOM     76  C   UNL A   1      46.254  28.264  35.968  1.00  0.00     0.020 A 
ATOM     77  C   UNL A   1      44.672  26.830  37.122  1.00  0.00     0.020 A 
ATOM     78  C   UNL A   1      45.987  27.203  36.838  1.00  0.00     0.054 A 
BRANCH  78  79
ATOM     79  S   UNL A   1      47.377  26.346  37.630  1.00  0.00     0.124 S 
ATOM     80  O   UNL A   1      47.137  24.959  37.247  1.00  0.00    -0.237 OA
ATOM     81  O   UNL A   1      48.535  26.982  37.007  1.00  0.00    -0.237 OA
ATOM     82  O   UNL A   1      47.199  26.645  39.049  1.00  0.00    -0.744 OA
ENDBRANCH  78  79
ENDBRANCH  50  73
BRANCH  62  83
ATOM     83  C   UNL A   1      39.902  34.004  37.579  1.00  0.00    -0.014 A 
ATOM     84  C   UNL A   1      39.140  33.622  38.697  1.00  0.00     0.010 A 
ATOM     85  C   UNL A   1      40.691  35.168  37.657  1.00  0.00     0.010 A 
ATOM     86  C   UNL A   1      39.145  34.402  39.858  1.00  0.00     0.020 A 
ATOM     87  C   UNL A   1      40.720  35.935  38.825  1.00  0.00     0.020 A 
ATOM     88  C   UNL A   1      39.936  35.554  39.915  1.00  0.00     0.054 A 
BRANCH  88  89
ATOM     89  S   UNL A   1      39.962  36.524  41.449  1.00  0.00     0.124 S 
ATOM     90  O   UNL A   1      39.120  37.666  41.102  1.00  0.00    -0.237 OA
ATOM     91  O   UNL A   1      39.393  35.598  42.425  1.00  0.00    -0.237 OA
ATOM     92  O   UNL A   1      41.378  36.831  41.642  1.00  0.00    -0.744 OA
ENDBRANCH  88  89
ENDBRANCH  62  83
ENDBRANCH  36  37
ENDBRANCH  29  31
ENDBRANCH  28  29
ENDBRANCH  27  28
ENDBRANCH  26  27
ENDBRANCH  25  26
ENDBRANCH   1  25
TORSDOF 23
ENDMDL
MODEL 3
REMARK VINA RESULT:      -9.4      6.262     10.655
REMARK SMILES C[NH2+][C@]1(C(=O)OCCOCCOCCOC(=O)c2ccc(-c3c4nc(c(-c5ccc(S(=O)(=O)[O-])cc5)c5ccc([nH]5)c(-c5ccc(S(=O)(=O)[O-])cc5)c5nc(c(-c6ccc(S(=O)(=O)[O-])cc6)c6ccc3[nH]6)C=C5)C=C4)cc2)CCC[C@H]([N@H+](C)C2CC2)C1
REMARK SMILES IDX 11 1 10 2 9 3 8 4 7 5 6 6 4 7 5 8 3 9 78 10 87 11 79 12
REMARK SMILES IDX 81 13 80 14 2 15 1 16 82 19 83 20 84 22 85 23 86 24 12 25
REMARK SMILES IDX 13 26 14 27 15 28 16 29 17 30 18 31 19 32 77 33 20 34 76 35
REMARK SMILES IDX 21 36 22 37 23 38 70 39 24 40 75 41 69 42 71 43 25 44 74 45
REMARK SMILES IDX 68 46 67 47 26 49 56 50 37 51 55 52 38 53 41 54 54 55 72 56
REMARK SMILES IDX 39 57 40 58 53 60 73 61 42 62 27 63 28 64 36 65 29 66 35 67
REMARK SMILES IDX 30 68 31 69 32 70 33 71 34 72 57 73 58 74 66 75 59 76 65 77
REMARK SMILES IDX 60 78 61 79 62 80 63 81 64 82 43 83 44 84 52 85 45 86 51 87
REMARK SMILES IDX 46 88 47 89 48 90 49 91 50 92
REMARK H PARENT 2 17 2 18 82 21 71 48 41 59
REMARK Flexibility Score: inf
ROOT
ATOM      1  C   UNL A   1      36.760  20.522  25.045  1.00  0.00     0.188 C 
ENDROOT
BRANCH   1   2
ATOM      2  C   UNL A   1      35.343  21.082  25.112  1.00  0.00     0.188 C 
BRANCH   2   3
ATOM      3  O   UNL A   1      34.291  20.208  24.719  1.00  0.00    -0.376 OA
BRANCH   3   4
ATOM      4  C   UNL A   1      33.147  20.820  24.128  1.00  0.00     0.202 C 
BRANCH   4   5
ATOM      5  C   UNL A   1      31.980  21.165  25.066  1.00  0.00     0.261 C 
BRANCH   5   6
ATOM      6  O   UNL A   1      31.503  22.518  24.942  1.00  0.00    -0.459 OA
BRANCH   6   7
ATOM      7  C   UNL A   1      31.595  23.288  26.068  1.00  0.00     0.368 C 
ATOM      8  O   UNL A   1      31.442  22.850  27.207  1.00  0.00    -0.245 OA
BRANCH   7   9
ATOM      9  C   UNL A   1      31.937  24.785  25.779  1.00  0.00     0.199 C 
ATOM     10  C   UNL A   1      33.339  25.176  26.312  1.00  0.00     0.081 C 
ATOM     11  C   UNL A   1      31.951  24.931  24.229  1.00  0.00     0.146 C 
ATOM     12  C   UNL A   1      33.830  26.532  25.796  1.00  0.00     0.013 C 
ATOM     13  C   UNL A   1      32.370  26.328  23.695  1.00  0.00     0.190 C 
ATOM     14  C   UNL A   1      33.776  26.606  24.271  1.00  0.00     0.065 C 
BRANCH   9  15
ATOM     15  N   UNL A   1      30.974  25.722  26.442  1.00  0.00    -0.334 N 
ATOM     16  C   UNL A   1      29.561  25.507  26.151  1.00  0.00     0.331 C 
ATOM     17  H   UNL A   1      31.100  25.634  27.450  1.00  0.00     0.347 HD
ATOM     18  H   UNL A   1      31.192  26.645  26.069  1.00  0.00     0.347 HD
ENDBRANCH   9  15
BRANCH  13  19
ATOM     19  N   UNL A   1      31.359  27.379  23.998  1.00  0.00    -0.332 N 
ATOM     20  C   UNL A   1      30.181  27.248  23.110  1.00  0.00     0.333 C 
ATOM     21  H   UNL A   1      31.128  27.217  24.978  1.00  0.00     0.348 HD
BRANCH  19  22
ATOM     22  C   UNL A   1      31.845  28.775  23.868  1.00  0.00     0.184 C 
ATOM     23  C   UNL A   1      31.285  29.753  24.881  1.00  0.00     0.071 C 
ATOM     24  C   UNL A   1      32.751  29.466  24.848  1.00  0.00     0.071 C 
ENDBRANCH  19  22
ENDBRANCH  13  19
ENDBRANCH   7   9
ENDBRANCH   6   7
ENDBRANCH   5   6
ENDBRANCH   4   5
ENDBRANCH   3   4
ENDBRANCH   2   3
ENDBRANCH   1   2
BRANCH   1  25
ATOM     25  O   UNL A   1      37.779  21.456  24.696  1.00  0.00    -0.376 OA
BRANCH  25  26
ATOM     26  C   UNL A   1      38.324  22.200  25.790  1.00  0.00     0.202 C 
BRANCH  26  27
ATOM     27  C   UNL A   1      39.489  21.529  26.547  1.00  0.00     0.261 C 
BRANCH  27  28
ATOM     28  O   UNL A   1      40.130  20.444  25.840  1.00  0.00    -0.460 OA
BRANCH  28  29
ATOM     29  C   UNL A   1      41.351  20.051  26.273  1.00  0.00     0.338 C 
ATOM     30  O   UNL A   1      41.765  18.904  26.313  1.00  0.00    -0.246 OA
BRANCH  29  31
ATOM     31  C   UNL A   1      42.205  21.259  26.456  1.00  0.00     0.060 A 
ATOM     32  C   UNL A   1      42.582  21.616  27.759  1.00  0.00     0.016 A 
ATOM     33  C   UNL A   1      42.685  21.998  25.370  1.00  0.00     0.016 A 
ATOM     34  C   UNL A   1      43.383  22.742  27.981  1.00  0.00     0.010 A 
ATOM     35  C   UNL A   1      43.482  23.128  25.593  1.00  0.00     0.010 A 
ATOM     36  C   UNL A   1      43.802  23.532  26.902  1.00  0.00    -0.014 A 
BRANCH  36  37
ATOM     37  C   UNL A   1      44.377  24.883  27.144  1.00  0.00     0.031 A 
ATOM     38  C   UNL A   1      43.452  25.972  27.626  1.00  0.00     0.074 A 
ATOM     39  C   UNL A   1      45.683  25.155  26.968  1.00  0.00     0.049 A 
ATOM     40  N   UNL A   1      43.706  27.231  27.872  1.00  0.00    -0.248 NA
ATOM     41  C   UNL A   1      42.051  25.584  27.861  1.00  0.00     0.031 C 
ATOM     42  C   UNL A   1      46.705  24.196  26.552  1.00  0.00     0.029 A 
ATOM     43  N   UNL A   1      46.372  26.337  27.115  1.00  0.00    -0.354 N 
ATOM     44  C   UNL A   1      42.499  27.785  28.286  1.00  0.00     0.074 A 
ATOM     45  C   UNL A   1      41.508  26.734  28.226  1.00  0.00     0.031 C 
ATOM     46  C   UNL A   1      47.889  24.831  26.468  1.00  0.00     0.029 A 
ATOM     47  C   UNL A   1      47.705  26.246  26.794  1.00  0.00     0.049 A 
ATOM     48  H   UNL A   1      45.948  27.171  27.422  1.00  0.00     0.167 HD
ATOM     49  C   UNL A   1      42.235  29.051  28.689  1.00  0.00     0.031 A 
ATOM     50  C   UNL A   1      48.664  27.196  26.748  1.00  0.00     0.031 A 
ATOM     51  C   UNL A   1      43.207  30.109  28.737  1.00  0.00     0.049 A 
ATOM     52  C   UNL A   1      48.329  28.622  27.118  1.00  0.00     0.074 A 
ATOM     53  C   UNL A   1      43.027  31.422  29.137  1.00  0.00     0.029 A 
ATOM     54  N   UNL A   1      44.535  29.983  28.365  1.00  0.00    -0.354 N 
ATOM     55  N   UNL A   1      47.188  29.123  27.528  1.00  0.00    -0.248 NA
ATOM     56  C   UNL A   1      49.417  29.608  27.024  1.00  0.00     0.031 C 
ATOM     57  C   UNL A   1      44.234  32.105  28.953  1.00  0.00     0.029 A 
ATOM     58  C   UNL A   1      45.181  31.200  28.500  1.00  0.00     0.049 A 
ATOM     59  H   UNL A   1      44.958  29.151  28.050  1.00  0.00     0.167 HD
ATOM     60  C   UNL A   1      47.430  30.473  27.769  1.00  0.00     0.074 A 
ATOM     61  C   UNL A   1      48.827  30.709  27.470  1.00  0.00     0.031 C 
ATOM     62  C   UNL A   1      46.572  31.431  28.203  1.00  0.00     0.031 A 
BRANCH  49  63
ATOM     63  C   UNL A   1      40.816  29.365  29.080  1.00  0.00    -0.014 A 
ATOM     64  C   UNL A   1      39.819  29.558  28.106  1.00  0.00     0.010 A 
ATOM     65  C   UNL A   1      40.472  29.445  30.441  1.00  0.00     0.010 A 
ATOM     66  C   UNL A   1      38.511  29.867  28.487  1.00  0.00     0.020 A 
ATOM     67  C   UNL A   1      39.158  29.726  30.827  1.00  0.00     0.020 A 
ATOM     68  C   UNL A   1      38.190  29.952  29.846  1.00  0.00     0.054 A 
BRANCH  68  69
ATOM     69  S   UNL A   1      36.482  30.341  30.313  1.00  0.00     0.124 S 
ATOM     70  O   UNL A   1      36.544  31.789  30.501  1.00  0.00    -0.237 OA
ATOM     71  O   UNL A   1      35.720  29.891  29.151  1.00  0.00    -0.237 OA
ATOM     72  O   UNL A   1      36.269  29.565  31.533  1.00  0.00    -0.744 OA
ENDBRANCH  68  69
ENDBRANCH  49  63
BRANCH  50  73
ATOM     73  C   UNL A   1      50.044  26.842  26.310  1.00  0.00    -0.014 A 
ATOM     74  C   UNL A   1      50.471  27.093  24.994  1.00  0.00     0.010 A 
ATOM     75  C   UNL A   1      50.935  26.226  27.210  1.00  0.00     0.010 A 
ATOM     76  C   UNL A   1      51.756  26.722  24.582  1.00  0.00     0.020 A 
ATOM     77  C   UNL A   1      52.229  25.880  26.809  1.00  0.00     0.020 A 
ATOM     78  C   UNL A   1      52.628  26.120  25.494  1.00  0.00     0.054 A 
BRANCH  78  79
ATOM     79  S   UNL A   1      54.307  25.695  24.951  1.00  0.00     0.124 S 
ATOM     80  O   UNL A   1      55.130  26.484  25.862  1.00  0.00    -0.237 OA
ATOM     81  O   UNL A   1      54.347  24.250  25.154  1.00  0.00    -0.237 OA
ATOM     82  O   UNL A   1      54.333  26.122  23.553  1.00  0.00    -0.744 OA
ENDBRANCH  78  79
ENDBRANCH  50  73
BRANCH  62  83
ATOM     83  C   UNL A   1      47.116  32.820  28.425  1.00  0.00    -0.014 A 
ATOM     84  C   UNL A   1      47.687  33.197  29.652  1.00  0.00     0.010 A 
ATOM     85  C   UNL A   1      47.115  33.742  27.361  1.00  0.00     0.010 A 
ATOM     86  C   UNL A   1      48.222  34.479  29.821  1.00  0.00     0.020 A 
ATOM     87  C   UNL A   1      47.672  35.015  27.517  1.00  0.00     0.020 A 
ATOM     88  C   UNL A   1      48.211  35.380  28.751  1.00  0.00     0.054 A 
BRANCH  88  89
ATOM     89  S   UNL A   1      48.951  37.021  28.980  1.00  0.00     0.124 S 
ATOM     90  O   UNL A   1      47.950  37.696  29.802  1.00  0.00    -0.237 OA
ATOM     91  O   UNL A   1      50.212  36.715  29.651  1.00  0.00    -0.237 OA
ATOM     92  O   UNL A   1      49.087  37.534  27.618  1.00  0.00    -0.744 OA
ENDBRANCH  88  89
ENDBRANCH  62  83
ENDBRANCH  36  37
ENDBRANCH  29  31
ENDBRANCH  28  29
ENDBRANCH  27  28
ENDBRANCH  26  27
ENDBRANCH  25  26
ENDBRANCH   1  25
TORSDOF 23
ENDMDL
