MODEL 1
REMARK VINA RESULT:      -8.1      0.000      0.000
REMARK SMILES CCCc1cc(=O)[nH]c(S[C@@H]2CC[C@@]([NH2+]C)(C(=O)OCCOCCOCCOC(=O)c3ccc(-c4c5nc(c(-c6ccc(S(=O)(=O)[O-])cc6)c6ccc([nH]6)c(-c6ccc(S(=O)(=O)[O-])cc6)c6nc(c(-c7ccc(S(=O)(=O)[O-])cc7)c7ccc4[nH]7)C=C6)C=C5)cc3)C2)n1
REMARK SMILES IDX 23 1 22 2 21 3 20 4 19 5 17 6 18 7 14 8 11 9 12 10 91 11
REMARK SMILES IDX 13 12 10 13 9 14 4 15 5 16 92 17 6 18 7 19 8 20 3 22 2 23
REMARK SMILES IDX 1 24 15 25 16 26 24 29 25 30 26 31 27 32 28 33 29 34 30 35
REMARK SMILES IDX 31 36 32 37 90 38 33 39 89 40 34 41 35 42 36 43 83 44 37 45
REMARK SMILES IDX 88 46 82 47 84 48 38 49 87 50 81 51 80 52 39 54 69 55 50 56
REMARK SMILES IDX 68 57 51 58 54 59 67 60 85 61 52 62 53 63 66 65 86 66 55 67
REMARK SMILES IDX 40 68 41 69 49 70 42 71 48 72 43 73 44 74 45 75 46 76 47 77
REMARK SMILES IDX 70 78 71 79 79 80 72 81 78 82 73 83 74 84 75 85 76 86 77 87
REMARK SMILES IDX 56 88 57 89 65 90 58 91 64 92 59 93 60 94 61 95 62 96 63 97
REMARK H PARENT 8 21 15 27 15 28 84 53 54 64
REMARK Flexibility Score: inf
ROOT
ATOM      1  C   UNL A   1      34.569  29.880  26.489  1.00  0.00     0.188 C 
ENDROOT
BRANCH   1   2
ATOM      2  O   UNL A   1      34.467  28.465  26.451  1.00  0.00    -0.376 OA
BRANCH   2   3
ATOM      3  C   UNL A   1      33.250  27.857  26.044  1.00  0.00     0.202 C 
BRANCH   3   4
ATOM      4  C   UNL A   1      33.172  26.960  24.793  1.00  0.00     0.261 C 
BRANCH   4   5
ATOM      5  O   UNL A   1      33.302  25.533  24.962  1.00  0.00    -0.459 OA
BRANCH   5   6
ATOM      6  C   UNL A   1      33.394  24.824  23.802  1.00  0.00     0.368 C 
ATOM      7  O   UNL A   1      34.014  25.233  22.822  1.00  0.00    -0.245 OA
BRANCH   6   8
ATOM      8  C   UNL A   1      32.603  23.468  23.782  1.00  0.00     0.195 C 
ATOM      9  C   UNL A   1      34.050  21.865  24.881  1.00  0.00     0.062 C 
ATOM     10  C   UNL A   1      32.773  21.886  25.710  1.00  0.00     0.022 C 
ATOM     11  C   UNL A   1      33.622  22.335  23.496  1.00  0.00     0.096 C 
ATOM     12  C   UNL A   1      31.921  23.015  25.102  1.00  0.00     0.082 C 
BRANCH   9  13
ATOM     13  S   UNL A   1      35.045  20.351  24.922  1.00  0.00    -0.084 SA
BRANCH  13  14
ATOM     14  C   UNL A   1      36.649  20.885  25.280  1.00  0.00     0.168 A 
ATOM     15  C   UNL A   1      38.881  20.619  25.637  1.00  0.00     0.049 A 
ATOM     16  C   UNL A   1      39.046  21.906  25.973  1.00  0.00     0.095 A 
ATOM     17  N   UNL A   1      37.661  20.090  25.302  1.00  0.00    -0.229 NA
ATOM     18  C   UNL A   1      37.879  22.803  25.918  1.00  0.00     0.251 A 
ATOM     19  O   UNL A   1      37.984  23.989  26.204  1.00  0.00    -0.269 OA
ATOM     20  N   UNL A   1      36.711  22.213  25.554  1.00  0.00    -0.301 N 
ATOM     21  H   UNL A   1      35.894  22.757  25.490  1.00  0.00     0.172 HD
BRANCH  15  22
ATOM     22  C   UNL A   1      40.005  19.606  25.670  1.00  0.00     0.056 C 
BRANCH  22  23
ATOM     23  C   UNL A   1      41.256  20.009  26.457  1.00  0.00     0.003 C 
ATOM     24  C   UNL A   1      42.474  19.149  26.159  1.00  0.00     0.004 C 
ENDBRANCH  22  23
ENDBRANCH  15  22
ENDBRANCH  13  14
ENDBRANCH   9  13
BRANCH   8  25
ATOM     25  N   UNL A   1      31.524  23.537  22.753  1.00  0.00    -0.335 N 
ATOM     26  C   UNL A   1      30.344  24.280  23.180  1.00  0.00     0.331 C 
ATOM     27  H   UNL A   1      31.238  22.586  22.523  1.00  0.00     0.347 HD
ATOM     28  H   UNL A   1      31.912  24.035  21.952  1.00  0.00     0.347 HD
ENDBRANCH   8  25
ENDBRANCH   6   8
ENDBRANCH   5   6
ENDBRANCH   4   5
ENDBRANCH   3   4
ENDBRANCH   2   3
ENDBRANCH   1   2
BRANCH   1  29
ATOM     29  C   UNL A   1      34.360  30.609  27.825  1.00  0.00     0.188 C 
BRANCH  29  30
ATOM     30  O   UNL A   1      33.108  31.233  27.964  1.00  0.00    -0.376 OA
BRANCH  30  31
ATOM     31  C   UNL A   1      32.786  32.310  27.106  1.00  0.00     0.202 C 
BRANCH  31  32
ATOM     32  C   UNL A   1      32.546  33.738  27.636  1.00  0.00     0.261 C 
BRANCH  32  33
ATOM     33  O   UNL A   1      32.823  33.999  29.021  1.00  0.00    -0.460 OA
BRANCH  33  34
ATOM     34  C   UNL A   1      33.785  34.916  29.295  1.00  0.00     0.338 C 
ATOM     35  O   UNL A   1      33.625  36.112  29.410  1.00  0.00    -0.246 OA
BRANCH  34  36
ATOM     36  C   UNL A   1      35.031  34.194  29.677  1.00  0.00     0.060 A 
ATOM     37  C   UNL A   1      34.911  33.088  30.525  1.00  0.00     0.016 A 
ATOM     38  C   UNL A   1      36.293  34.592  29.224  1.00  0.00     0.016 A 
ATOM     39  C   UNL A   1      36.051  32.403  30.950  1.00  0.00     0.010 A 
ATOM     40  C   UNL A   1      37.439  33.906  29.664  1.00  0.00     0.010 A 
ATOM     41  C   UNL A   1      37.327  32.819  30.549  1.00  0.00    -0.014 A 
BRANCH  41  42
ATOM     42  C   UNL A   1      38.513  32.223  31.222  1.00  0.00     0.031 A 
ATOM     43  C   UNL A   1      38.885  32.723  32.594  1.00  0.00     0.074 A 
ATOM     44  C   UNL A   1      39.195  31.191  30.688  1.00  0.00     0.049 A 
ATOM     45  N   UNL A   1      39.811  32.294  33.412  1.00  0.00    -0.248 NA
ATOM     46  C   UNL A   1      38.092  33.848  33.116  1.00  0.00     0.031 C 
ATOM     47  C   UNL A   1      38.912  30.564  29.400  1.00  0.00     0.029 A 
ATOM     48  N   UNL A   1      40.262  30.477  31.180  1.00  0.00    -0.354 N 
ATOM     49  C   UNL A   1      39.708  33.086  34.550  1.00  0.00     0.074 A 
ATOM     50  C   UNL A   1      38.649  34.042  34.302  1.00  0.00     0.031 C 
ATOM     51  C   UNL A   1      39.778  29.552  29.207  1.00  0.00     0.029 A 
ATOM     52  C   UNL A   1      40.699  29.478  30.342  1.00  0.00     0.049 A 
ATOM     53  H   UNL A   1      40.676  30.663  32.055  1.00  0.00     0.167 HD
ATOM     54  C   UNL A   1      40.423  33.027  35.700  1.00  0.00     0.031 A 
ATOM     55  C   UNL A   1      41.726  28.612  30.466  1.00  0.00     0.031 A 
ATOM     56  C   UNL A   1      41.507  32.112  35.937  1.00  0.00     0.049 A 
ATOM     57  C   UNL A   1      42.578  28.635  31.713  1.00  0.00     0.074 A 
ATOM     58  C   UNL A   1      42.299  31.993  37.068  1.00  0.00     0.029 A 
ATOM     59  N   UNL A   1      41.967  31.169  35.031  1.00  0.00    -0.354 N 
ATOM     60  N   UNL A   1      42.456  29.381  32.785  1.00  0.00    -0.248 NA
ATOM     61  C   UNL A   1      43.701  27.686  31.769  1.00  0.00     0.031 C 
ATOM     62  C   UNL A   1      43.279  31.028  36.818  1.00  0.00     0.029 A 
ATOM     63  C   UNL A   1      43.049  30.487  35.563  1.00  0.00     0.049 A 
ATOM     64  H   UNL A   1      41.581  31.009  34.139  1.00  0.00     0.167 HD
ATOM     65  C   UNL A   1      43.461  28.966  33.655  1.00  0.00     0.074 A 
ATOM     66  C   UNL A   1      44.173  27.894  32.990  1.00  0.00     0.031 C 
ATOM     67  C   UNL A   1      43.761  29.425  34.898  1.00  0.00     0.031 A 
BRANCH  54  68
ATOM     68  C   UNL A   1      40.081  34.028  36.773  1.00  0.00    -0.014 A 
ATOM     69  C   UNL A   1      40.696  35.294  36.816  1.00  0.00     0.010 A 
ATOM     70  C   UNL A   1      39.115  33.702  37.742  1.00  0.00     0.010 A 
ATOM     71  C   UNL A   1      40.381  36.196  37.836  1.00  0.00     0.020 A 
ATOM     72  C   UNL A   1      38.776  34.614  38.744  1.00  0.00     0.020 A 
ATOM     73  C   UNL A   1      39.427  35.848  38.796  1.00  0.00     0.054 A 
BRANCH  73  74
ATOM     74  S   UNL A   1      39.036  37.040  40.106  1.00  0.00     0.124 S 
ATOM     75  O   UNL A   1      38.370  38.102  39.357  1.00  0.00    -0.237 OA
ATOM     76  O   UNL A   1      38.175  36.265  40.997  1.00  0.00    -0.237 OA
ATOM     77  O   UNL A   1      40.343  37.393  40.657  1.00  0.00    -0.744 OA
ENDBRANCH  73  74
ENDBRANCH  54  68
BRANCH  55  78
ATOM     78  C   UNL A   1      42.032  27.647  29.368  1.00  0.00    -0.014 A 
ATOM     79  C   UNL A   1      43.077  27.889  28.458  1.00  0.00     0.010 A 
ATOM     80  C   UNL A   1      41.249  26.488  29.210  1.00  0.00     0.010 A 
ATOM     81  C   UNL A   1      43.323  27.001  27.405  1.00  0.00     0.020 A 
ATOM     82  C   UNL A   1      41.512  25.582  28.179  1.00  0.00     0.020 A 
ATOM     83  C   UNL A   1      42.541  25.850  27.275  1.00  0.00     0.054 A 
BRANCH  83  84
ATOM     84  S   UNL A   1      42.912  24.685  25.933  1.00  0.00     0.124 S 
ATOM     85  O   UNL A   1      44.371  24.663  25.943  1.00  0.00    -0.237 OA
ATOM     86  O   UNL A   1      42.257  23.462  26.389  1.00  0.00    -0.237 OA
ATOM     87  O   UNL A   1      42.303  25.310  24.760  1.00  0.00    -0.744 OA
ENDBRANCH  83  84
ENDBRANCH  55  78
BRANCH  67  88
ATOM     88  C   UNL A   1      44.880  28.741  35.648  1.00  0.00    -0.014 A 
ATOM     89  C   UNL A   1      46.213  29.179  35.557  1.00  0.00     0.010 A 
ATOM     90  C   UNL A   1      44.580  27.650  36.488  1.00  0.00     0.010 A 
ATOM     91  C   UNL A   1      47.230  28.510  36.247  1.00  0.00     0.020 A 
ATOM     92  C   UNL A   1      45.587  27.000  37.206  1.00  0.00     0.020 A 
ATOM     93  C   UNL A   1      46.910  27.421  37.064  1.00  0.00     0.054 A 
BRANCH  93  94
ATOM     94  S   UNL A   1      48.245  26.575  37.957  1.00  0.00     0.124 S 
ATOM     95  O   UNL A   1      47.508  25.595  38.749  1.00  0.00    -0.237 OA
ATOM     96  O   UNL A   1      49.057  26.026  36.875  1.00  0.00    -0.237 OA
ATOM     97  O   UNL A   1      48.881  27.643  38.725  1.00  0.00    -0.744 OA
ENDBRANCH  93  94
ENDBRANCH  67  88
ENDBRANCH  41  42
ENDBRANCH  34  36
ENDBRANCH  33  34
ENDBRANCH  32  33
ENDBRANCH  31  32
ENDBRANCH  30  31
ENDBRANCH  29  30
ENDBRANCH   1  29
TORSDOF 25
ENDMDL
MODEL 2
REMARK VINA RESULT:      -7.5      5.297      9.259
REMARK SMILES CCCc1cc(=O)[nH]c(S[C@@H]2CC[C@@]([NH2+]C)(C(=O)OCCOCCOCCOC(=O)c3ccc(-c4c5nc(c(-c6ccc(S(=O)(=O)[O-])cc6)c6ccc([nH]6)c(-c6ccc(S(=O)(=O)[O-])cc6)c6nc(c(-c7ccc(S(=O)(=O)[O-])cc7)c7ccc4[nH]7)C=C6)C=C5)cc3)C2)n1
REMARK SMILES IDX 23 1 22 2 21 3 20 4 19 5 17 6 18 7 14 8 11 9 12 10 91 11
REMARK SMILES IDX 13 12 10 13 9 14 4 15 5 16 92 17 6 18 7 19 8 20 3 22 2 23
REMARK SMILES IDX 1 24 15 25 16 26 24 29 25 30 26 31 27 32 28 33 29 34 30 35
REMARK SMILES IDX 31 36 32 37 90 38 33 39 89 40 34 41 35 42 36 43 83 44 37 45
REMARK SMILES IDX 88 46 82 47 84 48 38 49 87 50 81 51 80 52 39 54 69 55 50 56
REMARK SMILES IDX 68 57 51 58 54 59 67 60 85 61 52 62 53 63 66 65 86 66 55 67
REMARK SMILES IDX 40 68 41 69 49 70 42 71 48 72 43 73 44 74 45 75 46 76 47 77
REMARK SMILES IDX 70 78 71 79 79 80 72 81 78 82 73 83 74 84 75 85 76 86 77 87
REMARK SMILES IDX 56 88 57 89 65 90 58 91 64 92 59 93 60 94 61 95 62 96 63 97
REMARK H PARENT 8 21 15 27 15 28 84 53 54 64
REMARK Flexibility Score: inf
ROOT
ATOM      1  C   UNL A   1      39.806  25.170  27.481  1.00  0.00     0.188 C 
ENDROOT
BRANCH   1   2
ATOM      2  O   UNL A   1      39.240  23.869  27.459  1.00  0.00    -0.376 OA
BRANCH   2   3
ATOM      3  C   UNL A   1      38.294  23.529  26.456  1.00  0.00     0.202 C 
BRANCH   3   4
ATOM      4  C   UNL A   1      38.342  22.172  25.726  1.00  0.00     0.261 C 
BRANCH   4   5
ATOM      5  O   UNL A   1      37.149  21.360  25.708  1.00  0.00    -0.459 OA
BRANCH   5   6
ATOM      6  C   UNL A   1      36.052  21.966  25.175  1.00  0.00     0.368 C 
ATOM      7  O   UNL A   1      36.130  22.851  24.326  1.00  0.00    -0.245 OA
BRANCH   6   8
ATOM      8  C   UNL A   1      34.674  21.494  25.763  1.00  0.00     0.195 C 
ATOM      9  C   UNL A   1      33.060  21.866  23.995  1.00  0.00     0.062 C 
ATOM     10  C   UNL A   1      32.996  20.373  24.288  1.00  0.00     0.022 C 
ATOM     11  C   UNL A   1      33.591  22.492  25.279  1.00  0.00     0.096 C 
ATOM     12  C   UNL A   1      34.129  20.116  25.298  1.00  0.00     0.082 C 
BRANCH   9  13
ATOM     13  S   UNL A   1      31.577  22.643  23.300  1.00  0.00    -0.084 SA
BRANCH  13  14
ATOM     14  C   UNL A   1      32.087  24.227  22.831  1.00  0.00     0.168 A 
ATOM     15  C   UNL A   1      32.509  26.440  23.156  1.00  0.00     0.049 A 
ATOM     16  C   UNL A   1      32.804  26.639  21.864  1.00  0.00     0.095 A 
ATOM     17  N   UNL A   1      32.126  25.219  23.650  1.00  0.00    -0.229 NA
ATOM     18  C   UNL A   1      32.776  25.485  20.949  1.00  0.00     0.251 A 
ATOM     19  O   UNL A   1      33.050  25.616  19.763  1.00  0.00    -0.269 OA
ATOM     20  N   UNL A   1      32.411  24.305  21.515  1.00  0.00    -0.301 N 
ATOM     21  H   UNL A   1      32.380  23.492  20.962  1.00  0.00     0.172 HD
BRANCH  15  22
ATOM     22  C   UNL A   1      32.493  27.552  24.181  1.00  0.00     0.056 C 
BRANCH  22  23
ATOM     23  C   UNL A   1      31.245  27.640  25.065  1.00  0.00     0.003 C 
ATOM     24  C   UNL A   1      31.542  27.964  26.521  1.00  0.00     0.004 C 
ENDBRANCH  22  23
ENDBRANCH  15  22
ENDBRANCH  13  14
ENDBRANCH   9  13
BRANCH   8  25
ATOM     25  N   UNL A   1      34.766  21.429  27.252  1.00  0.00    -0.335 N 
ATOM     26  C   UNL A   1      34.037  22.490  27.938  1.00  0.00     0.331 C 
ATOM     27  H   UNL A   1      35.749  21.492  27.516  1.00  0.00     0.347 HD
ATOM     28  H   UNL A   1      34.339  20.547  27.534  1.00  0.00     0.347 HD
ENDBRANCH   8  25
ENDBRANCH   6   8
ENDBRANCH   5   6
ENDBRANCH   4   5
ENDBRANCH   3   4
ENDBRANCH   2   3
ENDBRANCH   1   2
BRANCH   1  29
ATOM     29  C   UNL A   1      41.233  25.375  26.949  1.00  0.00     0.188 C 
BRANCH  29  30
ATOM     30  O   UNL A   1      42.020  24.210  26.917  1.00  0.00    -0.376 OA
BRANCH  30  31
ATOM     31  C   UNL A   1      42.544  23.710  28.131  1.00  0.00     0.202 C 
BRANCH  31  32
ATOM     32  C   UNL A   1      44.059  23.658  28.412  1.00  0.00     0.261 C 
BRANCH  32  33
ATOM     33  O   UNL A   1      44.629  24.691  29.231  1.00  0.00    -0.460 OA
BRANCH  33  34
ATOM     34  C   UNL A   1      44.235  24.735  30.529  1.00  0.00     0.338 C 
ATOM     35  O   UNL A   1      44.199  23.801  31.301  1.00  0.00    -0.246 OA
BRANCH  34  36
ATOM     36  C   UNL A   1      44.088  26.162  30.930  1.00  0.00     0.060 A 
ATOM     37  C   UNL A   1      43.199  26.957  30.199  1.00  0.00     0.016 A 
ATOM     38  C   UNL A   1      44.806  26.717  31.993  1.00  0.00     0.016 A 
ATOM     39  C   UNL A   1      43.056  28.312  30.503  1.00  0.00     0.010 A 
ATOM     40  C   UNL A   1      44.668  28.085  32.290  1.00  0.00     0.010 A 
ATOM     41  C   UNL A   1      43.807  28.897  31.531  1.00  0.00    -0.014 A 
BRANCH  41  42
ATOM     42  C   UNL A   1      43.810  30.381  31.653  1.00  0.00     0.031 A 
ATOM     43  C   UNL A   1      42.932  31.015  32.701  1.00  0.00     0.074 A 
ATOM     44  C   UNL A   1      44.641  31.157  30.931  1.00  0.00     0.049 A 
ATOM     45  N   UNL A   1      42.838  32.270  33.058  1.00  0.00    -0.248 NA
ATOM     46  C   UNL A   1      42.055  30.105  33.455  1.00  0.00     0.031 C 
ATOM     47  C   UNL A   1      45.589  30.678  29.928  1.00  0.00     0.029 A 
ATOM     48  N   UNL A   1      44.832  32.519  30.949  1.00  0.00    -0.354 N 
ATOM     49  C   UNL A   1      41.902  32.302  34.085  1.00  0.00     0.074 A 
ATOM     50  C   UNL A   1      41.435  30.945  34.271  1.00  0.00     0.031 C 
ATOM     51  C   UNL A   1      46.267  31.730  29.431  1.00  0.00     0.029 A 
ATOM     52  C   UNL A   1      45.782  32.960  30.057  1.00  0.00     0.049 A 
ATOM     53  H   UNL A   1      44.334  33.123  31.546  1.00  0.00     0.167 HD
ATOM     54  C   UNL A   1      41.469  33.360  34.813  1.00  0.00     0.031 A 
ATOM     55  C   UNL A   1      46.203  34.209  29.768  1.00  0.00     0.031 A 
ATOM     56  C   UNL A   1      41.892  34.719  34.604  1.00  0.00     0.049 A 
ATOM     57  C   UNL A   1      45.627  35.386  30.519  1.00  0.00     0.074 A 
ATOM     58  C   UNL A   1      41.491  35.858  35.285  1.00  0.00     0.029 A 
ATOM     59  N   UNL A   1      42.797  35.132  33.638  1.00  0.00    -0.354 N 
ATOM     60  N   UNL A   1      44.754  35.396  31.498  1.00  0.00    -0.248 NA
ATOM     61  C   UNL A   1      46.108  36.722  30.132  1.00  0.00     0.031 C 
ATOM     62  C   UNL A   1      42.101  36.964  34.685  1.00  0.00     0.029 A 
ATOM     63  C   UNL A   1      42.943  36.510  33.684  1.00  0.00     0.049 A 
ATOM     64  H   UNL A   1      43.265  34.534  33.012  1.00  0.00     0.167 HD
ATOM     65  C   UNL A   1      44.610  36.731  31.868  1.00  0.00     0.074 A 
ATOM     66  C   UNL A   1      45.496  37.498  31.016  1.00  0.00     0.031 C 
ATOM     67  C   UNL A   1      43.821  37.272  32.831  1.00  0.00     0.031 A 
BRANCH  54  68
ATOM     68  C   UNL A   1      40.435  33.086  35.874  1.00  0.00    -0.014 A 
ATOM     69  C   UNL A   1      40.786  33.005  37.235  1.00  0.00     0.010 A 
ATOM     70  C   UNL A   1      39.088  32.924  35.504  1.00  0.00     0.010 A 
ATOM     71  C   UNL A   1      39.814  32.723  38.199  1.00  0.00     0.020 A 
ATOM     72  C   UNL A   1      38.109  32.672  36.469  1.00  0.00     0.020 A 
ATOM     73  C   UNL A   1      38.483  32.554  37.809  1.00  0.00     0.054 A 
BRANCH  73  74
ATOM     74  S   UNL A   1      37.242  32.193  39.081  1.00  0.00     0.124 S 
ATOM     75  O   UNL A   1      37.803  32.869  40.248  1.00  0.00    -0.237 OA
ATOM     76  O   UNL A   1      36.032  32.797  38.527  1.00  0.00    -0.237 OA
ATOM     77  O   UNL A   1      37.231  30.734  39.153  1.00  0.00    -0.744 OA
ENDBRANCH  73  74
ENDBRANCH  54  68
BRANCH  55  78
ATOM     78  C   UNL A   1      47.221  34.429  28.698  1.00  0.00    -0.014 A 
ATOM     79  C   UNL A   1      46.837  34.621  27.358  1.00  0.00     0.010 A 
ATOM     80  C   UNL A   1      48.591  34.417  29.016  1.00  0.00     0.010 A 
ATOM     81  C   UNL A   1      47.802  34.779  26.358  1.00  0.00     0.020 A 
ATOM     82  C   UNL A   1      49.559  34.606  28.024  1.00  0.00     0.020 A 
ATOM     83  C   UNL A   1      49.158  34.775  26.698  1.00  0.00     0.054 A 
BRANCH  83  84
ATOM     84  S   UNL A   1      50.390  35.034  25.392  1.00  0.00     0.124 S 
ATOM     85  O   UNL A   1      50.621  33.674  24.916  1.00  0.00    -0.237 OA
ATOM     86  O   UNL A   1      49.686  35.918  24.467  1.00  0.00    -0.237 OA
ATOM     87  O   UNL A   1      51.512  35.650  26.098  1.00  0.00    -0.744 OA
ENDBRANCH  83  84
ENDBRANCH  55  78
BRANCH  67  88
ATOM     88  C   UNL A   1      43.911  38.763  33.057  1.00  0.00    -0.014 A 
ATOM     89  C   UNL A   1      43.319  39.686  32.176  1.00  0.00     0.010 A 
ATOM     90  C   UNL A   1      44.580  39.249  34.198  1.00  0.00     0.010 A 
ATOM     91  C   UNL A   1      43.439  41.062  32.401  1.00  0.00     0.020 A 
ATOM     92  C   UNL A   1      44.673  40.621  34.446  1.00  0.00     0.020 A 
ATOM     93  C   UNL A   1      44.121  41.520  33.533  1.00  0.00     0.054 A 
BRANCH  93  94
ATOM     94  S   UNL A   1      44.255  43.309  33.809  1.00  0.00     0.124 S 
ATOM     95  O   UNL A   1      45.639  43.446  34.252  1.00  0.00    -0.237 OA
ATOM     96  O   UNL A   1      43.961  43.861  32.489  1.00  0.00    -0.237 OA
ATOM     97  O   UNL A   1      43.245  43.581  34.830  1.00  0.00    -0.744 OA
ENDBRANCH  93  94
ENDBRANCH  67  88
ENDBRANCH  41  42
ENDBRANCH  34  36
ENDBRANCH  33  34
ENDBRANCH  32  33
ENDBRANCH  31  32
ENDBRANCH  30  31
ENDBRANCH  29  30
ENDBRANCH   1  29
TORSDOF 25
ENDMDL
MODEL 3
REMARK VINA RESULT:      -6.9     13.434     18.072
REMARK SMILES CCCc1cc(=O)[nH]c(S[C@@H]2CC[C@@]([NH2+]C)(C(=O)OCCOCCOCCOC(=O)c3ccc(-c4c5nc(c(-c6ccc(S(=O)(=O)[O-])cc6)c6ccc([nH]6)c(-c6ccc(S(=O)(=O)[O-])cc6)c6nc(c(-c7ccc(S(=O)(=O)[O-])cc7)c7ccc4[nH]7)C=C6)C=C5)cc3)C2)n1
REMARK SMILES IDX 23 1 22 2 21 3 20 4 19 5 17 6 18 7 14 8 11 9 12 10 91 11
REMARK SMILES IDX 13 12 10 13 9 14 4 15 5 16 92 17 6 18 7 19 8 20 3 22 2 23
REMARK SMILES IDX 1 24 15 25 16 26 24 29 25 30 26 31 27 32 28 33 29 34 30 35
REMARK SMILES IDX 31 36 32 37 90 38 33 39 89 40 34 41 35 42 36 43 83 44 37 45
REMARK SMILES IDX 88 46 82 47 84 48 38 49 87 50 81 51 80 52 39 54 69 55 50 56
REMARK SMILES IDX 68 57 51 58 54 59 67 60 85 61 52 62 53 63 66 65 86 66 55 67
REMARK SMILES IDX 40 68 41 69 49 70 42 71 48 72 43 73 44 74 45 75 46 76 47 77
REMARK SMILES IDX 70 78 71 79 79 80 72 81 78 82 73 83 74 84 75 85 76 86 77 87
REMARK SMILES IDX 56 88 57 89 65 90 58 91 64 92 59 93 60 94 61 95 62 96 63 97
REMARK H PARENT 8 21 15 27 15 28 84 53 54 64
REMARK Flexibility Score: inf
ROOT
ATOM      1  C   UNL A   1      47.870  42.595  21.752  1.00  0.00     0.188 C 
ENDROOT
BRANCH   1   2
ATOM      2  O   UNL A   1      47.621  42.468  20.361  1.00  0.00    -0.376 OA
BRANCH   2   3
ATOM      3  C   UNL A   1      46.399  42.948  19.818  1.00  0.00     0.202 C 
BRANCH   3   4
ATOM      4  C   UNL A   1      46.307  44.319  19.119  1.00  0.00     0.261 C 
BRANCH   4   5
ATOM      5  O   UNL A   1      45.133  44.612  18.334  1.00  0.00    -0.459 OA
BRANCH   5   6
ATOM      6  C   UNL A   1      44.210  45.399  18.953  1.00  0.00     0.368 C 
ATOM      7  O   UNL A   1      43.956  45.305  20.152  1.00  0.00    -0.245 OA
BRANCH   6   8
ATOM      8  C   UNL A   1      43.448  46.402  18.015  1.00  0.00     0.195 C 
ATOM      9  C   UNL A   1      44.848  48.377  17.915  1.00  0.00     0.062 C 
ATOM     10  C   UNL A   1      44.726  47.899  16.474  1.00  0.00     0.022 C 
ATOM     11  C   UNL A   1      43.613  47.822  18.615  1.00  0.00     0.096 C 
ATOM     12  C   UNL A   1      43.968  46.561  16.560  1.00  0.00     0.082 C 
BRANCH   9  13
ATOM     13  S   UNL A   1      45.174  50.139  18.183  1.00  0.00    -0.084 SA
BRANCH  13  14
ATOM     14  C   UNL A   1      46.848  50.220  18.604  1.00  0.00     0.168 A 
ATOM     15  C   UNL A   1      48.986  49.446  18.727  1.00  0.00     0.049 A 
ATOM     16  C   UNL A   1      49.391  50.494  19.456  1.00  0.00     0.095 A 
ATOM     17  N   UNL A   1      47.689  49.291  18.306  1.00  0.00    -0.229 NA
ATOM     18  C   UNL A   1      48.419  51.556  19.765  1.00  0.00     0.251 A 
ATOM     19  O   UNL A   1      48.747  52.538  20.418  1.00  0.00    -0.269 OA
ATOM     20  N   UNL A   1      47.162  51.345  19.295  1.00  0.00    -0.301 N 
ATOM     21  H   UNL A   1      46.465  52.020  19.459  1.00  0.00     0.172 HD
BRANCH  15  22
ATOM     22  C   UNL A   1      49.893  48.292  18.361  1.00  0.00     0.056 C 
BRANCH  22  23
ATOM     23  C   UNL A   1      49.261  47.170  17.531  1.00  0.00     0.003 C 
ATOM     24  C   UNL A   1      49.774  45.781  17.880  1.00  0.00     0.004 C 
ENDBRANCH  22  23
ENDBRANCH  15  22
ENDBRANCH  13  14
ENDBRANCH   9  13
BRANCH   8  25
ATOM     25  N   UNL A   1      42.017  45.991  17.907  1.00  0.00    -0.335 N 
ATOM     26  C   UNL A   1      41.673  45.370  16.633  1.00  0.00     0.331 C 
ATOM     27  H   UNL A   1      41.435  46.819  18.027  1.00  0.00     0.347 HD
ATOM     28  H   UNL A   1      41.857  45.289  18.630  1.00  0.00     0.347 HD
ENDBRANCH   8  25
ENDBRANCH   6   8
ENDBRANCH   5   6
ENDBRANCH   4   5
ENDBRANCH   3   4
ENDBRANCH   2   3
ENDBRANCH   1   2
BRANCH   1  29
ATOM     29  C   UNL A   1      48.168  43.985  22.335  1.00  0.00     0.188 C 
BRANCH  29  30
ATOM     30  O   UNL A   1      47.297  44.389  23.363  1.00  0.00    -0.376 OA
BRANCH  30  31
ATOM     31  C   UNL A   1      46.010  44.858  23.019  1.00  0.00     0.202 C 
BRANCH  31  32
ATOM     32  C   UNL A   1      45.037  45.433  24.068  1.00  0.00     0.261 C 
BRANCH  32  33
ATOM     33  O   UNL A   1      44.343  44.509  24.922  1.00  0.00    -0.460 OA
BRANCH  33  34
ATOM     34  C   UNL A   1      44.905  44.247  26.129  1.00  0.00     0.338 C 
ATOM     35  O   UNL A   1      45.267  45.065  26.947  1.00  0.00    -0.246 OA
BRANCH  34  36
ATOM     36  C   UNL A   1      44.782  42.787  26.400  1.00  0.00     0.060 A 
ATOM     37  C   UNL A   1      45.377  42.286  27.563  1.00  0.00     0.016 A 
ATOM     38  C   UNL A   1      44.106  41.921  25.535  1.00  0.00     0.016 A 
ATOM     39  C   UNL A   1      45.331  40.919  27.842  1.00  0.00     0.010 A 
ATOM     40  C   UNL A   1      44.071  40.543  25.814  1.00  0.00     0.010 A 
ATOM     41  C   UNL A   1      44.704  40.030  26.960  1.00  0.00    -0.014 A 
BRANCH  41  42
ATOM     42  C   UNL A   1      44.896  38.568  27.167  1.00  0.00     0.031 A 
ATOM     43  C   UNL A   1      46.214  37.956  26.767  1.00  0.00     0.074 A 
ATOM     44  C   UNL A   1      43.975  37.806  27.787  1.00  0.00     0.049 A 
ATOM     45  N   UNL A   1      46.648  36.734  26.938  1.00  0.00    -0.248 NA
ATOM     46  C   UNL A   1      47.174  38.850  26.101  1.00  0.00     0.031 C 
ATOM     47  C   UNL A   1      42.683  38.273  28.283  1.00  0.00     0.029 A 
ATOM     48  N   UNL A   1      43.999  36.472  28.121  1.00  0.00    -0.354 N 
ATOM     49  C   UNL A   1      47.934  36.712  26.411  1.00  0.00     0.074 A 
ATOM     50  C   UNL A   1      48.197  38.036  25.887  1.00  0.00     0.031 C 
ATOM     51  C   UNL A   1      42.042  37.244  28.867  1.00  0.00     0.029 A 
ATOM     52  C   UNL A   1      42.860  36.036  28.758  1.00  0.00     0.049 A 
ATOM     53  H   UNL A   1      44.763  35.882  27.923  1.00  0.00     0.167 HD
ATOM     54  C   UNL A   1      48.822  35.689  26.367  1.00  0.00     0.031 A 
ATOM     55  C   UNL A   1      42.512  34.807  29.193  1.00  0.00     0.031 A 
ATOM     56  C   UNL A   1      48.554  34.358  26.842  1.00  0.00     0.049 A 
ATOM     57  C   UNL A   1      43.477  33.656  29.036  1.00  0.00     0.074 A 
ATOM     58  C   UNL A   1      49.391  33.254  26.821  1.00  0.00     0.029 A 
ATOM     59  N   UNL A   1      47.360  33.941  27.409  1.00  0.00    -0.354 N 
ATOM     60  N   UNL A   1      44.695  33.658  28.549  1.00  0.00    -0.248 NA
ATOM     61  C   UNL A   1      43.021  32.337  29.502  1.00  0.00     0.031 C 
ATOM     62  C   UNL A   1      48.678  32.155  27.311  1.00  0.00     0.029 A 
ATOM     63  C   UNL A   1      47.426  32.590  27.713  1.00  0.00     0.049 A 
ATOM     64  H   UNL A   1      46.579  34.519  27.570  1.00  0.00     0.167 HD
ATOM     65  C   UNL A   1      45.163  32.352  28.685  1.00  0.00     0.074 A 
ATOM     66  C   UNL A   1      44.101  31.592  29.312  1.00  0.00     0.031 C 
ATOM     67  C   UNL A   1      46.366  31.833  28.331  1.00  0.00     0.031 A 
BRANCH  54  68
ATOM     68  C   UNL A   1      50.158  35.967  25.726  1.00  0.00    -0.014 A 
ATOM     69  C   UNL A   1      51.308  36.200  26.503  1.00  0.00     0.010 A 
ATOM     70  C   UNL A   1      50.265  35.977  24.324  1.00  0.00     0.010 A 
ATOM     71  C   UNL A   1      52.530  36.481  25.887  1.00  0.00     0.020 A 
ATOM     72  C   UNL A   1      51.492  36.228  23.705  1.00  0.00     0.020 A 
ATOM     73  C   UNL A   1      52.613  36.498  24.492  1.00  0.00     0.054 A 
BRANCH  73  74
ATOM     74  S   UNL A   1      54.214  36.862  23.719  1.00  0.00     0.124 S 
ATOM     75  O   UNL A   1      54.022  38.237  23.265  1.00  0.00    -0.237 OA
ATOM     76  O   UNL A   1      55.149  36.691  24.828  1.00  0.00    -0.237 OA
ATOM     77  O   UNL A   1      54.321  35.865  22.656  1.00  0.00    -0.744 OA
ENDBRANCH  73  74
ENDBRANCH  54  68
BRANCH  55  78
ATOM     78  C   UNL A   1      41.171  34.582  29.809  1.00  0.00    -0.014 A 
ATOM     79  C   UNL A   1      40.001  34.590  29.027  1.00  0.00     0.010 A 
ATOM     80  C   UNL A   1      41.058  34.387  31.198  1.00  0.00     0.010 A 
ATOM     81  C   UNL A   1      38.746  34.424  29.624  1.00  0.00     0.020 A 
ATOM     82  C   UNL A   1      39.808  34.189  31.794  1.00  0.00     0.020 A 
ATOM     83  C   UNL A   1      38.658  34.220  31.004  1.00  0.00     0.054 A 
BRANCH  83  84
ATOM     84  S   UNL A   1      37.025  33.955  31.748  1.00  0.00     0.124 S 
ATOM     85  O   UNL A   1      36.133  34.184  30.616  1.00  0.00    -0.237 OA
ATOM     86  O   UNL A   1      37.113  32.574  32.216  1.00  0.00    -0.237 OA
ATOM     87  O   UNL A   1      36.964  34.961  32.807  1.00  0.00    -0.744 OA
ENDBRANCH  83  84
ENDBRANCH  55  78
BRANCH  67  88
ATOM     88  C   UNL A   1      46.626  30.380  28.655  1.00  0.00    -0.014 A 
ATOM     89  C   UNL A   1      46.332  29.351  27.744  1.00  0.00     0.010 A 
ATOM     90  C   UNL A   1      47.210  30.044  29.893  1.00  0.00     0.010 A 
ATOM     91  C   UNL A   1      46.564  28.013  28.083  1.00  0.00     0.020 A 
ATOM     92  C   UNL A   1      47.476  28.712  30.222  1.00  0.00     0.020 A 
ATOM     93  C   UNL A   1      47.131  27.703  29.323  1.00  0.00     0.054 A 
BRANCH  93  94
ATOM     94  S   UNL A   1      47.432  25.962  29.737  1.00  0.00     0.124 S 
ATOM     95  O   UNL A   1      47.597  26.016  31.186  1.00  0.00    -0.237 OA
ATOM     96  O   UNL A   1      46.216  25.304  29.266  1.00  0.00    -0.237 OA
ATOM     97  O   UNL A   1      48.642  25.630  28.986  1.00  0.00    -0.744 OA
ENDBRANCH  93  94
ENDBRANCH  67  88
ENDBRANCH  41  42
ENDBRANCH  34  36
ENDBRANCH  33  34
ENDBRANCH  32  33
ENDBRANCH  31  32
ENDBRANCH  30  31
ENDBRANCH  29  30
ENDBRANCH   1  29
TORSDOF 25
ENDMDL
