MODEL 1
REMARK VINA RESULT:     -11.9      0.000      0.000
REMARK SMILES O=C(C[C@H]1N=NC(=O)c2ccccc21)N[C@@H](CC1=c2ccccc2=NC1)C(=O)OCCOCCOCCOC(=O)c1ccc(-c2c3nc(c(-c4ccc(S(=O)(=O)[O-])cc4)c4ccc([nH]4)c(-c4ccc(S(=O)(=O)[O-])cc4)c4nc(c(-c5ccc(S(=O)(=O)[O-])cc5)c5ccc2[nH]5)C=C4)C=C3)cc1
REMARK SMILES IDX 33 1 32 2 31 3 30 4 29 5 27 6 28 7 16 8 15 9 1 10 2 11 3 13
REMARK SMILES IDX 4 14 5 15 14 16 6 17 9 18 13 19 7 20 10 21 12 22 8 23 11 24
REMARK SMILES IDX 17 25 18 26 19 27 26 28 20 29 24 30 25 31 21 32 23 33 22 34
REMARK SMILES IDX 34 35 35 36 36 37 37 38 38 39 39 40 40 41 41 42 42 43 100 44
REMARK SMILES IDX 43 45 99 46 44 47 45 48 46 49 93 50 47 51 98 52 92 53 94 54
REMARK SMILES IDX 48 55 97 56 91 57 90 58 49 60 79 61 60 62 78 63 61 64 64 65
REMARK SMILES IDX 77 66 95 67 62 68 63 69 76 71 96 72 65 73 50 74 51 75 59 76
REMARK SMILES IDX 52 77 58 78 53 79 54 80 55 81 56 82 57 83 80 84 81 85 89 86
REMARK SMILES IDX 82 87 88 88 83 89 84 90 85 91 86 92 87 93 66 94 67 95 75 96
REMARK SMILES IDX 68 97 74 98 69 99 70 100 71 101 72 102 73 103
REMARK H PARENT 15 12 94 59 64 70
REMARK Flexibility Score: inf
ROOT
ATOM      1  C   UNL A   1      28.562  32.456  22.676  1.00  0.00     0.188 C 
ENDROOT
BRANCH   1   2
ATOM      2  O   UNL A   1      28.079  31.160  23.007  1.00  0.00    -0.376 OA
BRANCH   2   3
ATOM      3  C   UNL A   1      28.523  30.074  22.205  1.00  0.00     0.202 C 
BRANCH   3   4
ATOM      4  C   UNL A   1      29.839  29.409  22.631  1.00  0.00     0.261 C 
BRANCH   4   5
ATOM      5  O   UNL A   1      30.151  28.180  21.946  1.00  0.00    -0.462 OA
BRANCH   5   6
ATOM      6  C   UNL A   1      31.232  27.489  22.381  1.00  0.00     0.329 C 
ATOM      7  O   UNL A   1      32.355  27.973  22.448  1.00  0.00    -0.250 OA
BRANCH   6   8
ATOM      8  C   UNL A   1      30.927  25.993  22.622  1.00  0.00     0.196 C 
BRANCH   8   9
ATOM      9  N   UNL A   1      31.953  24.970  22.974  1.00  0.00    -0.342 N 
ATOM     10  O   UNL A   1      33.143  24.933  21.019  1.00  0.00    -0.275 OA
ATOM     11  C   UNL A   1      32.890  24.433  22.109  1.00  0.00     0.223 C 
ATOM     12  H   UNL A   1      31.964  24.648  23.904  1.00  0.00     0.164 HD
BRANCH  11  13
ATOM     13  C   UNL A   1      33.580  23.157  22.620  1.00  0.00     0.134 C 
BRANCH  13  14
ATOM     14  C   UNL A   1      33.543  22.755  24.123  1.00  0.00     0.169 C 
ATOM     15  N   UNL A   1      32.205  22.152  24.359  1.00  0.00    -0.177 NA
ATOM     16  C   UNL A   1      34.652  21.863  24.614  1.00  0.00    -0.008 A 
ATOM     17  N   UNL A   1      32.139  21.272  25.254  1.00  0.00    -0.111 NA
ATOM     18  C   UNL A   1      34.195  20.137  24.617  1.00  0.00     0.049 A 
ATOM     19  C   UNL A   1      36.329  22.361  24.834  1.00  0.00     0.007 A 
ATOM     20  C   UNL A   1      32.717  20.051  24.917  1.00  0.00     0.295 C 
ATOM     21  C   UNL A   1      35.530  18.889  24.677  1.00  0.00     0.014 A 
ATOM     22  C   UNL A   1      37.646  21.161  25.004  1.00  0.00     0.000 A 
ATOM     23  O   UNL A   1      32.113  19.027  24.975  1.00  0.00    -0.265 OA
ATOM     24  C   UNL A   1      37.283  19.411  24.902  1.00  0.00     0.001 A 
ENDBRANCH  13  14
ENDBRANCH  11  13
ENDBRANCH   8   9
BRANCH   8  25
ATOM     25  C   UNL A   1      29.829  26.023  23.706  1.00  0.00     0.070 C 
BRANCH  25  26
ATOM     26  C   UNL A   1      30.173  26.495  25.146  1.00  0.00    -0.037 C 
ATOM     27  C   UNL A   1      31.349  27.072  25.439  1.00  0.00     0.001 A 
ATOM     28  C   UNL A   1      30.056  25.294  26.066  1.00  0.00     0.174 C 
ATOM     29  C   UNL A   1      31.683  28.295  26.131  1.00  0.00     0.010 A 
ATOM     30  C   UNL A   1      32.115  25.898  25.927  1.00  0.00     0.065 A 
ATOM     31  N   UNL A   1      31.452  24.835  26.252  1.00  0.00    -0.280 NA
ATOM     32  C   UNL A   1      32.944  28.422  26.592  1.00  0.00     0.001 A 
ATOM     33  C   UNL A   1      33.570  26.127  26.017  1.00  0.00     0.028 A 
ATOM     34  C   UNL A   1      33.937  27.382  26.330  1.00  0.00     0.002 A 
ENDBRANCH  25  26
ENDBRANCH   8  25
ENDBRANCH   6   8
ENDBRANCH   5   6
ENDBRANCH   4   5
ENDBRANCH   3   4
ENDBRANCH   2   3
ENDBRANCH   1   2
BRANCH   1  35
ATOM     35  C   UNL A   1      29.819  33.087  23.670  1.00  0.00     0.188 C 
BRANCH  35  36
ATOM     36  O   UNL A   1      30.383  32.712  25.558  1.00  0.00    -0.376 OA
BRANCH  36  37
ATOM     37  C   UNL A   1      31.381  31.880  26.466  1.00  0.00     0.202 C 
BRANCH  37  38
ATOM     38  C   UNL A   1      32.774  32.310  27.224  1.00  0.00     0.261 C 
BRANCH  38  39
ATOM     39  O   UNL A   1      33.781  31.351  27.694  1.00  0.00    -0.460 OA
BRANCH  39  40
ATOM     40  C   UNL A   1      34.676  31.688  28.676  1.00  0.00     0.338 C 
ATOM     41  O   UNL A   1      34.487  32.580  29.485  1.00  0.00    -0.246 OA
BRANCH  40  42
ATOM     42  C   UNL A   1      35.910  30.777  28.692  1.00  0.00     0.060 A 
ATOM     43  C   UNL A   1      36.640  30.496  27.547  1.00  0.00     0.016 A 
ATOM     44  C   UNL A   1      36.465  30.301  29.898  1.00  0.00     0.016 A 
ATOM     45  C   UNL A   1      37.877  29.803  27.646  1.00  0.00     0.010 A 
ATOM     46  C   UNL A   1      37.680  29.639  30.024  1.00  0.00     0.010 A 
ATOM     47  C   UNL A   1      38.421  29.401  28.890  1.00  0.00    -0.014 A 
BRANCH  47  48
ATOM     48  C   UNL A   1      39.838  29.001  29.056  1.00  0.00     0.031 A 
ATOM     49  C   UNL A   1      40.348  27.619  28.781  1.00  0.00     0.074 A 
ATOM     50  C   UNL A   1      40.670  29.912  29.596  1.00  0.00     0.049 A 
ATOM     51  N   UNL A   1      41.582  27.247  28.561  1.00  0.00    -0.248 NA
ATOM     52  C   UNL A   1      39.380  26.510  28.783  1.00  0.00     0.031 C 
ATOM     53  C   UNL A   1      40.247  31.202  30.147  1.00  0.00     0.029 A 
ATOM     54  N   UNL A   1      42.033  29.914  29.743  1.00  0.00    -0.354 N 
ATOM     55  C   UNL A   1      41.533  25.880  28.324  1.00  0.00     0.074 A 
ATOM     56  C   UNL A   1      40.162  25.466  28.526  1.00  0.00     0.031 C 
ATOM     57  C   UNL A   1      41.334  31.915  30.471  1.00  0.00     0.029 A 
ATOM     58  C   UNL A   1      42.524  31.133  30.146  1.00  0.00     0.049 A 
ATOM     59  H   UNL A   1      42.599  29.125  29.578  1.00  0.00     0.167 HD
ATOM     60  C   UNL A   1      42.545  25.071  27.927  1.00  0.00     0.031 A 
ATOM     61  C   UNL A   1      43.787  31.604  30.173  1.00  0.00     0.031 A 
ATOM     62  C   UNL A   1      43.908  25.523  27.788  1.00  0.00     0.049 A 
ATOM     63  C   UNL A   1      44.890  30.732  29.644  1.00  0.00     0.074 A 
ATOM     64  C   UNL A   1      44.997  24.833  27.282  1.00  0.00     0.029 A 
ATOM     65  N   UNL A   1      44.374  26.771  28.178  1.00  0.00    -0.354 N 
ATOM     66  N   UNL A   1      44.817  29.511  29.170  1.00  0.00    -0.248 NA
ATOM     67  C   UNL A   1      46.240  31.310  29.613  1.00  0.00     0.031 C 
ATOM     68  C   UNL A   1      46.131  25.636  27.439  1.00  0.00     0.029 A 
ATOM     69  C   UNL A   1      45.738  26.858  27.962  1.00  0.00     0.049 A 
ATOM     70  H   UNL A   1      43.816  27.489  28.555  1.00  0.00     0.167 HD
ATOM     71  C   UNL A   1      46.106  29.177  28.773  1.00  0.00     0.074 A 
ATOM     72  C   UNL A   1      46.934  30.336  29.037  1.00  0.00     0.031 C 
ATOM     73  C   UNL A   1      46.559  28.013  28.244  1.00  0.00     0.031 A 
BRANCH  60  74
ATOM     74  C   UNL A   1      42.231  23.648  27.524  1.00  0.00    -0.014 A 
ATOM     75  C   UNL A   1      42.469  22.579  28.409  1.00  0.00     0.010 A 
ATOM     76  C   UNL A   1      41.875  23.358  26.193  1.00  0.00     0.010 A 
ATOM     77  C   UNL A   1      42.399  21.254  27.962  1.00  0.00     0.020 A 
ATOM     78  C   UNL A   1      41.777  22.035  25.749  1.00  0.00     0.020 A 
ATOM     79  C   UNL A   1      42.066  20.991  26.629  1.00  0.00     0.054 A 
BRANCH  79  80
ATOM     80  S   UNL A   1      42.040  19.271  26.049  1.00  0.00     0.124 S 
ATOM     81  O   UNL A   1      40.646  19.097  25.658  1.00  0.00    -0.237 OA
ATOM     82  O   UNL A   1      43.007  19.289  24.954  1.00  0.00    -0.237 OA
ATOM     83  O   UNL A   1      42.459  18.506  27.224  1.00  0.00    -0.744 OA
ENDBRANCH  79  80
ENDBRANCH  60  74
BRANCH  61  84
ATOM     84  C   UNL A   1      44.010  33.020  30.571  1.00  0.00    -0.014 A 
ATOM     85  C   UNL A   1      44.682  33.326  31.770  1.00  0.00     0.010 A 
ATOM     86  C   UNL A   1      43.433  34.065  29.829  1.00  0.00     0.010 A 
ATOM     87  C   UNL A   1      44.726  34.638  32.245  1.00  0.00     0.020 A 
ATOM     88  C   UNL A   1      43.503  35.386  30.284  1.00  0.00     0.020 A 
ATOM     89  C   UNL A   1      44.123  35.659  31.505  1.00  0.00     0.054 A 
BRANCH  89  90
ATOM     90  S   UNL A   1      44.141  37.346  32.171  1.00  0.00     0.124 S 
ATOM     91  O   UNL A   1      43.037  37.306  33.126  1.00  0.00    -0.237 OA
ATOM     92  O   UNL A   1      45.476  37.444  32.756  1.00  0.00    -0.237 OA
ATOM     93  O   UNL A   1      43.920  38.183  30.995  1.00  0.00    -0.744 OA
ENDBRANCH  89  90
ENDBRANCH  61  84
BRANCH  73  94
ATOM     94  C   UNL A   1      48.030  27.899  27.931  1.00  0.00    -0.014 A 
ATOM     95  C   UNL A   1      48.842  27.033  28.687  1.00  0.00     0.010 A 
ATOM     96  C   UNL A   1      48.631  28.755  26.991  1.00  0.00     0.010 A 
ATOM     97  C   UNL A   1      50.232  27.059  28.544  1.00  0.00     0.020 A 
ATOM     98  C   UNL A   1      50.019  28.759  26.821  1.00  0.00     0.020 A 
ATOM     99  C   UNL A   1      50.812  27.932  27.620  1.00  0.00     0.054 A 
BRANCH  99 100
ATOM    100  S   UNL A   1      52.620  27.989  27.487  1.00  0.00     0.124 S 
ATOM    101  O   UNL A   1      52.999  26.629  27.858  1.00  0.00    -0.237 OA
ATOM    102  O   UNL A   1      52.828  28.341  26.085  1.00  0.00    -0.237 OA
ATOM    103  O   UNL A   1      53.002  29.026  28.445  1.00  0.00    -0.744 OA
ENDBRANCH  99 100
ENDBRANCH  73  94
ENDBRANCH  47  48
ENDBRANCH  40  42
ENDBRANCH  39  40
ENDBRANCH  38  39
ENDBRANCH  37  38
ENDBRANCH  36  37
ENDBRANCH  35  36
ENDBRANCH   1  35
TORSDOF 25
ENDMDL
MODEL 2
REMARK VINA RESULT:     -11.7      4.040      8.382
REMARK SMILES O=C(C[C@H]1N=NC(=O)c2ccccc21)N[C@@H](CC1=c2ccccc2=NC1)C(=O)OCCOCCOCCOC(=O)c1ccc(-c2c3nc(c(-c4ccc(S(=O)(=O)[O-])cc4)c4ccc([nH]4)c(-c4ccc(S(=O)(=O)[O-])cc4)c4nc(c(-c5ccc(S(=O)(=O)[O-])cc5)c5ccc2[nH]5)C=C4)C=C3)cc1
REMARK SMILES IDX 33 1 32 2 31 3 30 4 29 5 27 6 28 7 16 8 15 9 1 10 2 11 3 13
REMARK SMILES IDX 4 14 5 15 14 16 6 17 9 18 13 19 7 20 10 21 12 22 8 23 11 24
REMARK SMILES IDX 17 25 18 26 19 27 26 28 20 29 24 30 25 31 21 32 23 33 22 34
REMARK SMILES IDX 34 35 35 36 36 37 37 38 38 39 39 40 40 41 41 42 42 43 100 44
REMARK SMILES IDX 43 45 99 46 44 47 45 48 46 49 93 50 47 51 98 52 92 53 94 54
REMARK SMILES IDX 48 55 97 56 91 57 90 58 49 60 79 61 60 62 78 63 61 64 64 65
REMARK SMILES IDX 77 66 95 67 62 68 63 69 76 71 96 72 65 73 50 74 51 75 59 76
REMARK SMILES IDX 52 77 58 78 53 79 54 80 55 81 56 82 57 83 80 84 81 85 89 86
REMARK SMILES IDX 82 87 88 88 83 89 84 90 85 91 86 92 87 93 66 94 67 95 75 96
REMARK SMILES IDX 68 97 74 98 69 99 70 100 71 101 72 102 73 103
REMARK H PARENT 15 12 94 59 64 70
REMARK Flexibility Score: inf
ROOT
ATOM      1  C   UNL A   1      28.673  31.632  22.169  1.00  0.00     0.188 C 
ENDROOT
BRANCH   1   2
ATOM      2  O   UNL A   1      27.786  30.525  22.063  1.00  0.00    -0.376 OA
BRANCH   2   3
ATOM      3  C   UNL A   1      28.134  29.340  22.766  1.00  0.00     0.202 C 
BRANCH   3   4
ATOM      4  C   UNL A   1      29.563  28.820  22.553  1.00  0.00     0.261 C 
BRANCH   4   5
ATOM      5  O   UNL A   1      29.805  27.485  23.040  1.00  0.00    -0.462 OA
BRANCH   5   6
ATOM      6  C   UNL A   1      31.086  27.044  23.017  1.00  0.00     0.329 C 
ATOM      7  O   UNL A   1      32.042  27.770  22.773  1.00  0.00    -0.250 OA
BRANCH   6   8
ATOM      8  C   UNL A   1      31.190  25.509  23.165  1.00  0.00     0.196 C 
BRANCH   8   9
ATOM      9  N   UNL A   1      32.469  24.767  23.359  1.00  0.00    -0.342 N 
ATOM     10  O   UNL A   1      33.020  24.375  21.172  1.00  0.00    -0.275 OA
ATOM     11  C   UNL A   1      33.207  24.153  22.363  1.00  0.00     0.223 C 
ATOM     12  H   UNL A   1      32.818  24.708  24.277  1.00  0.00     0.164 HD
BRANCH  11  13
ATOM     13  C   UNL A   1      34.273  23.165  22.867  1.00  0.00     0.134 C 
BRANCH  13  14
ATOM     14  C   UNL A   1      34.213  22.562  24.300  1.00  0.00     0.169 C 
ATOM     15  N   UNL A   1      33.620  21.207  24.156  1.00  0.00    -0.177 NA
ATOM     16  C   UNL A   1      35.502  22.528  25.076  1.00  0.00    -0.008 A 
ATOM     17  N   UNL A   1      33.984  20.345  24.996  1.00  0.00    -0.111 NA
ATOM     18  C   UNL A   1      36.339  20.956  24.949  1.00  0.00     0.049 A 
ATOM     19  C   UNL A   1      36.314  23.939  25.753  1.00  0.00     0.007 A 
ATOM     20  C   UNL A   1      35.286  19.880  24.829  1.00  0.00     0.295 C 
ATOM     21  C   UNL A   1      38.116  20.885  25.373  1.00  0.00     0.014 A 
ATOM     22  C   UNL A   1      38.024  23.872  26.277  1.00  0.00     0.000 A 
ATOM     23  O   UNL A   1      35.534  18.721  24.716  1.00  0.00    -0.265 OA
ATOM     24  C   UNL A   1      38.965  22.363  26.074  1.00  0.00     0.001 A 
ENDBRANCH  13  14
ENDBRANCH  11  13
ENDBRANCH   8   9
BRANCH   8  25
ATOM     25  C   UNL A   1      30.226  25.196  24.329  1.00  0.00     0.070 C 
BRANCH  25  26
ATOM     26  C   UNL A   1      30.609  25.592  25.782  1.00  0.00    -0.037 C 
ATOM     27  C   UNL A   1      31.410  26.636  26.041  1.00  0.00     0.001 A 
ATOM     28  C   UNL A   1      31.266  24.388  26.430  1.00  0.00     0.174 C 
ATOM     29  C   UNL A   1      31.273  27.765  26.932  1.00  0.00     0.010 A 
ATOM     30  C   UNL A   1      32.721  25.950  26.167  1.00  0.00     0.065 A 
ATOM     31  N   UNL A   1      32.718  24.667  26.338  1.00  0.00    -0.280 NA
ATOM     32  C   UNL A   1      32.395  28.445  27.249  1.00  0.00     0.001 A 
ATOM     33  C   UNL A   1      33.881  26.861  26.121  1.00  0.00     0.028 A 
ATOM     34  C   UNL A   1      33.677  28.081  26.648  1.00  0.00     0.002 A 
ENDBRANCH  25  26
ENDBRANCH   8  25
ENDBRANCH   6   8
ENDBRANCH   5   6
ENDBRANCH   4   5
ENDBRANCH   3   4
ENDBRANCH   2   3
ENDBRANCH   1   2
BRANCH   1  35
ATOM     35  C   UNL A   1      29.083  32.140  23.762  1.00  0.00     0.188 C 
BRANCH  35  36
ATOM     36  O   UNL A   1      30.461  31.517  25.081  1.00  0.00    -0.376 OA
BRANCH  36  37
ATOM     37  C   UNL A   1      31.071  31.762  26.523  1.00  0.00     0.202 C 
BRANCH  37  38
ATOM     38  C   UNL A   1      32.507  32.401  27.000  1.00  0.00     0.261 C 
BRANCH  38  39
ATOM     39  O   UNL A   1      33.552  31.639  27.695  1.00  0.00    -0.460 OA
BRANCH  39  40
ATOM     40  C   UNL A   1      34.262  32.191  28.729  1.00  0.00     0.338 C 
ATOM     41  O   UNL A   1      33.811  33.040  29.480  1.00  0.00    -0.246 OA
BRANCH  40  42
ATOM     42  C   UNL A   1      35.659  31.579  28.884  1.00  0.00     0.060 A 
ATOM     43  C   UNL A   1      36.809  32.239  28.475  1.00  0.00     0.016 A 
ATOM     44  C   UNL A   1      35.869  30.379  29.594  1.00  0.00     0.016 A 
ATOM     45  C   UNL A   1      38.086  31.713  28.809  1.00  0.00     0.010 A 
ATOM     46  C   UNL A   1      37.106  29.854  29.950  1.00  0.00     0.010 A 
ATOM     47  C   UNL A   1      38.241  30.535  29.579  1.00  0.00    -0.014 A 
BRANCH  47  48
ATOM     48  C   UNL A   1      39.519  30.162  30.229  1.00  0.00     0.031 A 
ATOM     49  C   UNL A   1      40.046  30.825  31.465  1.00  0.00     0.074 A 
ATOM     50  C   UNL A   1      40.288  29.258  29.591  1.00  0.00     0.049 A 
ATOM     51  N   UNL A   1      40.946  30.373  32.298  1.00  0.00    -0.248 NA
ATOM     52  C   UNL A   1      39.541  32.166  31.801  1.00  0.00     0.031 C 
ATOM     53  C   UNL A   1      40.014  28.729  28.252  1.00  0.00     0.029 A 
ATOM     54  N   UNL A   1      41.426  28.604  29.985  1.00  0.00    -0.354 N 
ATOM     55  C   UNL A   1      41.061  31.332  33.296  1.00  0.00     0.074 A 
ATOM     56  C   UNL A   1      40.215  32.440  32.913  1.00  0.00     0.031 C 
ATOM     57  C   UNL A   1      40.892  27.755  27.980  1.00  0.00     0.029 A 
ATOM     58  C   UNL A   1      41.784  27.591  29.125  1.00  0.00     0.049 A 
ATOM     59  H   UNL A   1      41.934  28.836  30.795  1.00  0.00     0.167 HD
ATOM     60  C   UNL A   1      41.779  31.252  34.443  1.00  0.00     0.031 A 
ATOM     61  C   UNL A   1      42.671  26.588  29.274  1.00  0.00     0.031 A 
ATOM     62  C   UNL A   1      42.649  30.145  34.754  1.00  0.00     0.049 A 
ATOM     63  C   UNL A   1      43.393  26.456  30.585  1.00  0.00     0.074 A 
ATOM     64  C   UNL A   1      43.334  29.892  35.930  1.00  0.00     0.029 A 
ATOM     65  N   UNL A   1      42.972  29.119  33.877  1.00  0.00    -0.354 N 
ATOM     66  N   UNL A   1      43.317  27.223  31.646  1.00  0.00    -0.248 NA
ATOM     67  C   UNL A   1      44.291  25.304  30.739  1.00  0.00     0.031 C 
ATOM     68  C   UNL A   1      44.128  28.759  35.736  1.00  0.00     0.029 A 
ATOM     69  C   UNL A   1      43.876  28.254  34.469  1.00  0.00     0.049 A 
ATOM     70  H   UNL A   1      42.612  29.020  32.966  1.00  0.00     0.167 HD
ATOM     71  C   UNL A   1      44.144  26.642  32.599  1.00  0.00     0.074 A 
ATOM     72  C   UNL A   1      44.691  25.443  31.997  1.00  0.00     0.031 C 
ATOM     73  C   UNL A   1      44.427  27.069  33.855  1.00  0.00     0.031 A 
BRANCH  60  74
ATOM     74  C   UNL A   1      41.602  32.325  35.493  1.00  0.00    -0.014 A 
ATOM     75  C   UNL A   1      40.584  32.226  36.461  1.00  0.00     0.010 A 
ATOM     76  C   UNL A   1      42.331  33.525  35.400  1.00  0.00     0.010 A 
ATOM     77  C   UNL A   1      40.272  33.316  37.282  1.00  0.00     0.020 A 
ATOM     78  C   UNL A   1      42.042  34.608  36.237  1.00  0.00     0.020 A 
ATOM     79  C   UNL A   1      40.995  34.506  37.155  1.00  0.00     0.054 A 
BRANCH  79  80
ATOM     80  S   UNL A   1      40.538  35.931  38.183  1.00  0.00     0.124 S 
ATOM     81  O   UNL A   1      39.750  36.740  37.259  1.00  0.00    -0.237 OA
ATOM     82  O   UNL A   1      39.791  35.310  39.275  1.00  0.00    -0.237 OA
ATOM     83  O   UNL A   1      41.827  36.503  38.570  1.00  0.00    -0.744 OA
ENDBRANCH  79  80
ENDBRANCH  60  74
BRANCH  61  84
ATOM     84  C   UNL A   1      42.777  25.566  28.198  1.00  0.00    -0.014 A 
ATOM     85  C   UNL A   1      42.047  24.365  28.282  1.00  0.00     0.010 A 
ATOM     86  C   UNL A   1      43.709  25.725  27.158  1.00  0.00     0.010 A 
ATOM     87  C   UNL A   1      42.285  23.324  27.382  1.00  0.00     0.020 A 
ATOM     88  C   UNL A   1      43.927  24.697  26.234  1.00  0.00     0.020 A 
ATOM     89  C   UNL A   1      43.235  23.493  26.371  1.00  0.00     0.054 A 
BRANCH  89  90
ATOM     90  S   UNL A   1      43.569  22.106  25.249  1.00  0.00     0.124 S 
ATOM     91  O   UNL A   1      42.490  21.181  25.583  1.00  0.00    -0.237 OA
ATOM     92  O   UNL A   1      43.479  22.731  23.933  1.00  0.00    -0.237 OA
ATOM     93  O   UNL A   1      44.909  21.668  25.635  1.00  0.00    -0.744 OA
ENDBRANCH  89  90
ENDBRANCH  61  84
BRANCH  73  94
ATOM     94  C   UNL A   1      45.398  26.261  34.679  1.00  0.00    -0.014 A 
ATOM     95  C   UNL A   1      44.917  25.285  35.572  1.00  0.00     0.010 A 
ATOM     96  C   UNL A   1      46.770  26.569  34.676  1.00  0.00     0.010 A 
ATOM     97  C   UNL A   1      45.780  24.668  36.481  1.00  0.00     0.020 A 
ATOM     98  C   UNL A   1      47.643  25.929  35.561  1.00  0.00     0.020 A 
ATOM     99  C   UNL A   1      47.136  25.004  36.478  1.00  0.00     0.054 A 
BRANCH  99 100
ATOM    100  S   UNL A   1      48.232  24.232  37.701  1.00  0.00     0.124 S 
ATOM    101  O   UNL A   1      48.064  22.810  37.410  1.00  0.00    -0.237 OA
ATOM    102  O   UNL A   1      49.537  24.794  37.362  1.00  0.00    -0.237 OA
ATOM    103  O   UNL A   1      47.684  24.675  38.981  1.00  0.00    -0.744 OA
ENDBRANCH  99 100
ENDBRANCH  73  94
ENDBRANCH  47  48
ENDBRANCH  40  42
ENDBRANCH  39  40
ENDBRANCH  38  39
ENDBRANCH  37  38
ENDBRANCH  36  37
ENDBRANCH  35  36
ENDBRANCH   1  35
TORSDOF 25
ENDMDL
MODEL 3
REMARK VINA RESULT:     -11.6      2.903      8.166
REMARK SMILES O=C(C[C@H]1N=NC(=O)c2ccccc21)N[C@@H](CC1=c2ccccc2=NC1)C(=O)OCCOCCOCCOC(=O)c1ccc(-c2c3nc(c(-c4ccc(S(=O)(=O)[O-])cc4)c4ccc([nH]4)c(-c4ccc(S(=O)(=O)[O-])cc4)c4nc(c(-c5ccc(S(=O)(=O)[O-])cc5)c5ccc2[nH]5)C=C4)C=C3)cc1
REMARK SMILES IDX 33 1 32 2 31 3 30 4 29 5 27 6 28 7 16 8 15 9 1 10 2 11 3 13
REMARK SMILES IDX 4 14 5 15 14 16 6 17 9 18 13 19 7 20 10 21 12 22 8 23 11 24
REMARK SMILES IDX 17 25 18 26 19 27 26 28 20 29 24 30 25 31 21 32 23 33 22 34
REMARK SMILES IDX 34 35 35 36 36 37 37 38 38 39 39 40 40 41 41 42 42 43 100 44
REMARK SMILES IDX 43 45 99 46 44 47 45 48 46 49 93 50 47 51 98 52 92 53 94 54
REMARK SMILES IDX 48 55 97 56 91 57 90 58 49 60 79 61 60 62 78 63 61 64 64 65
REMARK SMILES IDX 77 66 95 67 62 68 63 69 76 71 96 72 65 73 50 74 51 75 59 76
REMARK SMILES IDX 52 77 58 78 53 79 54 80 55 81 56 82 57 83 80 84 81 85 89 86
REMARK SMILES IDX 82 87 88 88 83 89 84 90 85 91 86 92 87 93 66 94 67 95 75 96
REMARK SMILES IDX 68 97 74 98 69 99 70 100 71 101 72 102 73 103
REMARK H PARENT 15 12 94 59 64 70
REMARK Flexibility Score: inf
ROOT
ATOM      1  C   UNL A   1      28.629  32.600  22.960  1.00  0.00     0.188 C 
ENDROOT
BRANCH   1   2
ATOM      2  O   UNL A   1      28.027  31.341  23.239  1.00  0.00    -0.376 OA
BRANCH   2   3
ATOM      3  C   UNL A   1      28.462  30.227  22.472  1.00  0.00     0.202 C 
BRANCH   3   4
ATOM      4  C   UNL A   1      29.718  29.504  22.979  1.00  0.00     0.261 C 
BRANCH   4   5
ATOM      5  O   UNL A   1      30.138  28.380  22.179  1.00  0.00    -0.462 OA
BRANCH   5   6
ATOM      6  C   UNL A   1      31.231  27.698  22.600  1.00  0.00     0.329 C 
ATOM      7  O   UNL A   1      32.332  28.216  22.740  1.00  0.00    -0.250 OA
BRANCH   6   8
ATOM      8  C   UNL A   1      30.975  26.179  22.723  1.00  0.00     0.196 C 
BRANCH   8   9
ATOM      9  N   UNL A   1      32.031  25.169  23.022  1.00  0.00    -0.342 N 
ATOM     10  O   UNL A   1      33.254  25.311  21.093  1.00  0.00    -0.275 OA
ATOM     11  C   UNL A   1      33.000  24.728  22.140  1.00  0.00     0.223 C 
ATOM     12  H   UNL A   1      32.038  24.783  23.927  1.00  0.00     0.164 HD
BRANCH  11  13
ATOM     13  C   UNL A   1      33.727  23.442  22.572  1.00  0.00     0.134 C 
BRANCH  13  14
ATOM     14  C   UNL A   1      33.642  22.909  24.032  1.00  0.00     0.169 C 
ATOM     15  N   UNL A   1      32.865  21.644  23.968  1.00  0.00    -0.177 NA
ATOM     16  C   UNL A   1      34.944  22.728  24.765  1.00  0.00    -0.008 A 
ATOM     17  N   UNL A   1      33.141  20.774  24.832  1.00  0.00    -0.111 NA
ATOM     18  C   UNL A   1      35.554  21.052  24.678  1.00  0.00     0.049 A 
ATOM     19  C   UNL A   1      35.968  24.040  25.350  1.00  0.00     0.007 A 
ATOM     20  C   UNL A   1      34.360  20.128  24.642  1.00  0.00     0.295 C 
ATOM     21  C   UNL A   1      37.320  20.754  25.045  1.00  0.00     0.014 A 
ATOM     22  C   UNL A   1      37.672  23.758  25.818  1.00  0.00     0.000 A 
ATOM     23  O   UNL A   1      34.443  18.943  24.571  1.00  0.00    -0.265 OA
ATOM     24  C   UNL A   1      38.390  22.127  25.651  1.00  0.00     0.001 A 
ENDBRANCH  13  14
ENDBRANCH  11  13
ENDBRANCH   8   9
BRANCH   8  25
ATOM     25  C   UNL A   1      29.856  26.090  23.782  1.00  0.00     0.070 C 
BRANCH  25  26
ATOM     26  C   UNL A   1      30.180  26.353  25.279  1.00  0.00    -0.037 C 
ATOM     27  C   UNL A   1      31.279  27.022  25.656  1.00  0.00     0.001 A 
ATOM     28  C   UNL A   1      30.246  25.009  25.980  1.00  0.00     0.174 C 
ATOM     29  C   UNL A   1      31.474  28.145  26.545  1.00  0.00     0.010 A 
ATOM     30  C   UNL A   1      32.205  25.895  25.929  1.00  0.00     0.065 A 
ATOM     31  N   UNL A   1      31.695  24.714  26.073  1.00  0.00    -0.280 NA
ATOM     32  C   UNL A   1      32.721  28.357  27.012  1.00  0.00     0.001 A 
ATOM     33  C   UNL A   1      33.620  26.296  26.046  1.00  0.00     0.028 A 
ATOM     34  C   UNL A   1      33.832  27.517  26.567  1.00  0.00     0.002 A 
ENDBRANCH  25  26
ENDBRANCH   8  25
ENDBRANCH   6   8
ENDBRANCH   5   6
ENDBRANCH   4   5
ENDBRANCH   3   4
ENDBRANCH   2   3
ENDBRANCH   1   2
BRANCH   1  35
ATOM     35  C   UNL A   1      29.936  33.071  23.978  1.00  0.00     0.188 C 
BRANCH  35  36
ATOM     36  O   UNL A   1      30.582  32.414  25.760  1.00  0.00    -0.376 OA
BRANCH  36  37
ATOM     37  C   UNL A   1      31.729  31.608  26.500  1.00  0.00     0.202 C 
BRANCH  37  38
ATOM     38  C   UNL A   1      33.014  32.118  27.388  1.00  0.00     0.261 C 
BRANCH  38  39
ATOM     39  O   UNL A   1      34.200  31.296  27.659  1.00  0.00    -0.460 OA
BRANCH  39  40
ATOM     40  C   UNL A   1      34.931  31.464  28.807  1.00  0.00     0.338 C 
ATOM     41  O   UNL A   1      34.559  32.140  29.751  1.00  0.00    -0.246 OA
BRANCH  40  42
ATOM     42  C   UNL A   1      36.234  30.656  28.804  1.00  0.00     0.060 A 
ATOM     43  C   UNL A   1      37.256  30.898  27.897  1.00  0.00     0.016 A 
ATOM     44  C   UNL A   1      36.533  29.728  29.823  1.00  0.00     0.016 A 
ATOM     45  C   UNL A   1      38.512  30.252  28.055  1.00  0.00     0.010 A 
ATOM     46  C   UNL A   1      37.758  29.098  30.010  1.00  0.00     0.010 A 
ATOM     47  C   UNL A   1      38.781  29.374  29.133  1.00  0.00    -0.014 A 
BRANCH  47  48
ATOM     48  C   UNL A   1      40.154  28.969  29.516  1.00  0.00     0.031 A 
ATOM     49  C   UNL A   1      41.060  29.810  30.363  1.00  0.00     0.074 A 
ATOM     50  C   UNL A   1      40.633  27.837  28.966  1.00  0.00     0.049 A 
ATOM     51  N   UNL A   1      42.117  29.428  31.033  1.00  0.00    -0.248 NA
ATOM     52  C   UNL A   1      40.785  31.253  30.452  1.00  0.00     0.031 C 
ATOM     53  C   UNL A   1      39.951  27.064  27.925  1.00  0.00     0.029 A 
ATOM     54  N   UNL A   1      41.777  27.125  29.219  1.00  0.00    -0.354 N 
ATOM     55  C   UNL A   1      42.588  30.561  31.683  1.00  0.00     0.074 A 
ATOM     56  C   UNL A   1      41.765  31.668  31.248  1.00  0.00     0.031 C 
ATOM     57  C   UNL A   1      40.632  25.931  27.707  1.00  0.00     0.029 A 
ATOM     58  C   UNL A   1      41.791  25.900  28.594  1.00  0.00     0.049 A 
ATOM     59  H   UNL A   1      42.509  27.456  29.787  1.00  0.00     0.167 HD
ATOM     60  C   UNL A   1      43.589  30.639  32.593  1.00  0.00     0.031 A 
ATOM     61  C   UNL A   1      42.597  24.835  28.773  1.00  0.00     0.031 A 
ATOM     62  C   UNL A   1      44.414  29.513  32.956  1.00  0.00     0.049 A 
ATOM     63  C   UNL A   1      43.644  24.897  29.848  1.00  0.00     0.074 A 
ATOM     64  C   UNL A   1      45.378  29.435  33.946  1.00  0.00     0.029 A 
ATOM     65  N   UNL A   1      44.391  28.276  32.326  1.00  0.00    -0.354 N 
ATOM     66  N   UNL A   1      43.933  25.890  30.656  1.00  0.00    -0.248 NA
ATOM     67  C   UNL A   1      44.448  23.688  30.069  1.00  0.00     0.031 C 
ATOM     68  C   UNL A   1      45.987  28.179  33.863  1.00  0.00     0.029 A 
ATOM     69  C   UNL A   1      45.347  27.442  32.878  1.00  0.00     0.049 A 
ATOM     70  H   UNL A   1      43.782  28.027  31.592  1.00  0.00     0.167 HD
ATOM     71  C   UNL A   1      44.943  25.424  31.489  1.00  0.00     0.074 A 
ATOM     72  C   UNL A   1      45.195  24.049  31.105  1.00  0.00     0.031 C 
ATOM     73  C   UNL A   1      45.602  26.078  32.477  1.00  0.00     0.031 A 
BRANCH  60  74
ATOM     74  C   UNL A   1      43.805  31.937  33.335  1.00  0.00    -0.014 A 
ATOM     75  C   UNL A   1      43.000  32.280  34.438  1.00  0.00     0.010 A 
ATOM     76  C   UNL A   1      44.688  32.903  32.817  1.00  0.00     0.010 A 
ATOM     77  C   UNL A   1      43.043  33.571  34.979  1.00  0.00     0.020 A 
ATOM     78  C   UNL A   1      44.755  34.185  33.371  1.00  0.00     0.020 A 
ATOM     79  C   UNL A   1      43.911  34.521  34.432  1.00  0.00     0.054 A 
BRANCH  79  80
ATOM     80  S   UNL A   1      43.910  36.208  35.102  1.00  0.00     0.124 S 
ATOM     81  O   UNL A   1      43.943  37.023  33.893  1.00  0.00    -0.237 OA
ATOM     82  O   UNL A   1      42.661  36.250  35.860  1.00  0.00    -0.237 OA
ATOM     83  O   UNL A   1      45.124  36.254  35.918  1.00  0.00    -0.744 OA
ENDBRANCH  79  80
ENDBRANCH  60  74
BRANCH  61  84
ATOM     84  C   UNL A   1      42.309  23.589  28.011  1.00  0.00    -0.014 A 
ATOM     85  C   UNL A   1      41.509  22.577  28.575  1.00  0.00     0.010 A 
ATOM     86  C   UNL A   1      42.944  23.348  26.780  1.00  0.00     0.010 A 
ATOM     87  C   UNL A   1      41.394  21.333  27.952  1.00  0.00     0.020 A 
ATOM     88  C   UNL A   1      42.805  22.114  26.136  1.00  0.00     0.020 A 
ATOM     89  C   UNL A   1      42.054  21.105  26.742  1.00  0.00     0.054 A 
BRANCH  89  90
ATOM     90  S   UNL A   1      41.937  19.461  25.982  1.00  0.00     0.124 S 
ATOM     91  O   UNL A   1      40.546  19.434  25.536  1.00  0.00    -0.237 OA
ATOM     92  O   UNL A   1      42.938  19.529  24.920  1.00  0.00    -0.237 OA
ATOM     93  O   UNL A   1      42.259  18.552  27.079  1.00  0.00    -0.744 OA
ENDBRANCH  89  90
ENDBRANCH  61  84
BRANCH  73  94
ATOM     94  C   UNL A   1      46.693  25.342  33.213  1.00  0.00    -0.014 A 
ATOM     95  C   UNL A   1      46.429  24.775  34.474  1.00  0.00     0.010 A 
ATOM     96  C   UNL A   1      48.012  25.341  32.726  1.00  0.00     0.010 A 
ATOM     97  C   UNL A   1      47.468  24.264  35.255  1.00  0.00     0.020 A 
ATOM     98  C   UNL A   1      49.050  24.799  33.490  1.00  0.00     0.020 A 
ATOM     99  C   UNL A   1      48.775  24.291  34.762  1.00  0.00     0.054 A 
BRANCH  99 100
ATOM    100  S   UNL A   1      50.119  23.673  35.812  1.00  0.00     0.124 S 
ATOM    101  O   UNL A   1      51.031  23.088  34.832  1.00  0.00    -0.237 OA
ATOM    102  O   UNL A   1      50.596  24.886  36.470  1.00  0.00    -0.237 OA
ATOM    103  O   UNL A   1      49.454  22.715  36.693  1.00  0.00    -0.744 OA
ENDBRANCH  99 100
ENDBRANCH  73  94
ENDBRANCH  47  48
ENDBRANCH  40  42
ENDBRANCH  39  40
ENDBRANCH  38  39
ENDBRANCH  37  38
ENDBRANCH  36  37
ENDBRANCH  35  36
ENDBRANCH   1  35
TORSDOF 25
ENDMDL
