MODEL 1
REMARK VINA RESULT:      -8.8      0.000      0.000
REMARK SMILES CC[C@H]1CN(C(=O)N(CC(=O)OCCOCCOCCOC(=O)c2ccc(-c3c4nc(c(-c5ccc(S(=O)(=O)[O-])cc5)c5ccc([nH]5)c(-c5ccc(S(=O)(=O)[O-])cc5)c5nc(c(-c6ccc(S(=O)(=O)[O-])cc6)c6ccc3[nH]6)C=C5)C=C4)cc2)C(C)(C)C)CC[N@@H+]1C
REMARK SMILES IDX 16 1 15 2 14 3 13 4 12 5 10 6 11 7 9 8 8 9 6 10 7 11 5 12
REMARK SMILES IDX 3 13 4 14 90 15 89 16 91 17 88 19 2 20 1 21 84 22 85 23
REMARK SMILES IDX 86 24 87 25 17 26 18 27 19 28 20 29 21 30 22 31 23 32 24 33
REMARK SMILES IDX 25 34 83 35 26 36 82 37 27 38 28 39 29 40 76 41 30 42 81 43
REMARK SMILES IDX 75 44 77 45 31 46 80 47 74 48 73 49 32 51 62 52 43 53 61 54
REMARK SMILES IDX 44 55 47 56 60 57 78 58 45 59 46 60 59 62 79 63 48 64 33 65
REMARK SMILES IDX 34 66 42 67 35 68 41 69 36 70 37 71 38 72 39 73 40 74 63 75
REMARK SMILES IDX 64 76 72 77 65 78 71 79 66 80 67 81 68 82 69 83 70 84 49 85
REMARK SMILES IDX 50 86 58 87 51 88 57 89 52 90 53 91 54 92 55 93 56 94
REMARK H PARENT 90 18 77 50 47 61
REMARK Flexibility Score: inf
ROOT
ATOM      1  C   UNL A   1      35.795  32.220  28.106  1.00  0.00     0.188 C 
ENDROOT
BRANCH   1   2
ATOM      2  O   UNL A   1      34.724  31.356  27.737  1.00  0.00    -0.376 OA
BRANCH   2   3
ATOM      3  C   UNL A   1      34.988  29.997  27.424  1.00  0.00     0.202 C 
BRANCH   3   4
ATOM      4  C   UNL A   1      33.763  29.180  27.007  1.00  0.00     0.261 C 
BRANCH   4   5
ATOM      5  O   UNL A   1      33.204  29.557  25.734  1.00  0.00    -0.462 OA
BRANCH   5   6
ATOM      6  C   UNL A   1      33.540  28.751  24.693  1.00  0.00     0.325 C 
ATOM      7  O   UNL A   1      33.495  29.088  23.514  1.00  0.00    -0.250 OA
BRANCH   6   8
ATOM      8  C   UNL A   1      33.684  27.287  25.097  1.00  0.00     0.244 C 
BRANCH   8   9
ATOM      9  N   UNL A   1      32.870  26.162  24.602  1.00  0.00    -0.309 N 
BRANCH   9  10
ATOM     10  C   UNL A   1      33.380  25.214  23.729  1.00  0.00     0.321 C 
ATOM     11  O   UNL A   1      32.985  25.150  22.563  1.00  0.00    -0.248 OA
BRANCH  10  12
ATOM     12  N   UNL A   1      34.252  24.252  24.221  1.00  0.00    -0.313 N 
ATOM     13  C   UNL A   1      35.717  23.212  25.970  1.00  0.00     0.203 C 
ATOM     14  C   UNL A   1      34.304  23.731  25.595  1.00  0.00     0.186 C 
ATOM     15  N   UNL A   1      36.177  22.148  25.034  1.00  0.00    -0.332 N 
ATOM     16  C   UNL A   1      36.093  22.617  23.634  1.00  0.00     0.284 C 
ATOM     17  C   UNL A   1      35.430  20.904  25.222  1.00  0.00     0.333 C 
ATOM     18  H   UNL A   1      37.155  21.946  25.246  1.00  0.00     0.348 HD
ATOM     19  C   UNL A   1      34.778  23.309  23.226  1.00  0.00     0.183 C 
BRANCH  13  20
ATOM     20  C   UNL A   1      36.814  24.311  26.032  1.00  0.00     0.063 C 
ATOM     21  C   UNL A   1      38.235  23.819  26.274  1.00  0.00     0.010 C 
ENDBRANCH  13  20
ENDBRANCH  10  12
ENDBRANCH   9  10
BRANCH   9  22
ATOM     22  C   UNL A   1      31.422  26.047  24.992  1.00  0.00     0.037 C 
ATOM     23  C   UNL A   1      30.489  26.820  24.032  1.00  0.00     0.034 C 
ATOM     24  C   UNL A   1      30.998  24.557  24.974  1.00  0.00     0.034 C 
ATOM     25  C   UNL A   1      31.164  26.527  26.433  1.00  0.00     0.034 C 
ENDBRANCH   9  22
ENDBRANCH   8   9
ENDBRANCH   6   8
ENDBRANCH   5   6
ENDBRANCH   4   5
ENDBRANCH   3   4
ENDBRANCH   2   3
ENDBRANCH   1   2
BRANCH   1  26
ATOM     26  C   UNL A   1      35.524  33.391  29.059  1.00  0.00     0.188 C 
BRANCH  26  27
ATOM     27  O   UNL A   1      34.608  33.160  30.124  1.00  0.00    -0.376 OA
BRANCH  27  28
ATOM     28  C   UNL A   1      35.005  32.201  31.100  1.00  0.00     0.202 C 
BRANCH  28  29
ATOM     29  C   UNL A   1      36.421  32.422  31.632  1.00  0.00     0.261 C 
BRANCH  29  30
ATOM     30  O   UNL A   1      36.894  31.237  32.306  1.00  0.00    -0.460 OA
BRANCH  30  31
ATOM     31  C   UNL A   1      37.137  30.189  31.491  1.00  0.00     0.338 C 
ATOM     32  O   UNL A   1      36.375  29.271  31.219  1.00  0.00    -0.246 OA
BRANCH  31  33
ATOM     33  C   UNL A   1      38.463  30.323  30.870  1.00  0.00     0.060 A 
ATOM     34  C   UNL A   1      38.555  30.406  29.480  1.00  0.00     0.016 A 
ATOM     35  C   UNL A   1      39.612  30.169  31.641  1.00  0.00     0.016 A 
ATOM     36  C   UNL A   1      39.786  30.258  28.842  1.00  0.00     0.010 A 
ATOM     37  C   UNL A   1      40.852  30.062  31.004  1.00  0.00     0.010 A 
ATOM     38  C   UNL A   1      40.947  30.055  29.597  1.00  0.00    -0.014 A 
BRANCH  38  39
ATOM     39  C   UNL A   1      42.235  29.687  28.947  1.00  0.00     0.031 A 
ATOM     40  C   UNL A   1      42.399  28.295  28.393  1.00  0.00     0.074 A 
ATOM     41  C   UNL A   1      43.246  30.568  28.822  1.00  0.00     0.049 A 
ATOM     42  N   UNL A   1      43.488  27.668  28.030  1.00  0.00    -0.248 NA
ATOM     43  C   UNL A   1      41.168  27.502  28.238  1.00  0.00     0.031 C 
ATOM     44  C   UNL A   1      43.202  31.980  29.201  1.00  0.00     0.029 A 
ATOM     45  N   UNL A   1      44.521  30.392  28.337  1.00  0.00    -0.354 N 
ATOM     46  C   UNL A   1      43.084  26.387  27.672  1.00  0.00     0.074 A 
ATOM     47  C   UNL A   1      41.649  26.331  27.843  1.00  0.00     0.031 C 
ATOM     48  C   UNL A   1      44.389  32.545  28.921  1.00  0.00     0.029 A 
ATOM     49  C   UNL A   1      45.303  31.519  28.426  1.00  0.00     0.049 A 
ATOM     50  H   UNL A   1      44.842  29.540  27.962  1.00  0.00     0.167 HD
ATOM     51  C   UNL A   1      43.843  25.346  27.253  1.00  0.00     0.031 A 
ATOM     52  C   UNL A   1      46.618  31.695  28.189  1.00  0.00     0.031 A 
ATOM     53  C   UNL A   1      45.266  25.416  27.049  1.00  0.00     0.049 A 
ATOM     54  C   UNL A   1      47.459  30.514  27.786  1.00  0.00     0.074 A 
ATOM     55  C   UNL A   1      46.135  24.410  26.663  1.00  0.00     0.029 A 
ATOM     56  N   UNL A   1      46.023  26.567  27.193  1.00  0.00    -0.354 N 
ATOM     57  N   UNL A   1      47.089  29.275  27.566  1.00  0.00    -0.248 NA
ATOM     58  C   UNL A   1      48.902  30.751  27.626  1.00  0.00     0.031 C 
ATOM     59  C   UNL A   1      47.425  24.950  26.601  1.00  0.00     0.029 A 
ATOM     60  C   UNL A   1      47.350  26.299  26.909  1.00  0.00     0.049 A 
ATOM     61  H   UNL A   1      45.670  27.447  27.460  1.00  0.00     0.167 HD
ATOM     62  C   UNL A   1      48.252  28.586  27.237  1.00  0.00     0.074 A 
ATOM     63  C   UNL A   1      49.334  29.550  27.267  1.00  0.00     0.031 C 
ATOM     64  C   UNL A   1      48.412  27.272  26.943  1.00  0.00     0.031 A 
BRANCH  51  65
ATOM     65  C   UNL A   1      43.152  24.024  27.057  1.00  0.00    -0.014 A 
ATOM     66  C   UNL A   1      42.695  23.610  25.793  1.00  0.00     0.010 A 
ATOM     67  C   UNL A   1      42.958  23.180  28.166  1.00  0.00     0.010 A 
ATOM     68  C   UNL A   1      42.015  22.397  25.653  1.00  0.00     0.020 A 
ATOM     69  C   UNL A   1      42.299  21.956  28.026  1.00  0.00     0.020 A 
ATOM     70  C   UNL A   1      41.811  21.583  26.772  1.00  0.00     0.054 A 
BRANCH  70  71
ATOM     71  S   UNL A   1      40.920  20.016  26.571  1.00  0.00     0.124 S 
ATOM     72  O   UNL A   1      41.814  19.275  25.684  1.00  0.00    -0.237 OA
ATOM     73  O   UNL A   1      40.834  19.512  27.940  1.00  0.00    -0.237 OA
ATOM     74  O   UNL A   1      39.645  20.416  25.979  1.00  0.00    -0.744 OA
ENDBRANCH  70  71
ENDBRANCH  51  65
BRANCH  52  75
ATOM     75  C   UNL A   1      47.237  33.033  28.395  1.00  0.00    -0.014 A 
ATOM     76  C   UNL A   1      47.394  33.920  27.317  1.00  0.00     0.010 A 
ATOM     77  C   UNL A   1      47.665  33.429  29.675  1.00  0.00     0.010 A 
ATOM     78  C   UNL A   1      47.968  35.180  27.515  1.00  0.00     0.020 A 
ATOM     79  C   UNL A   1      48.216  34.696  29.883  1.00  0.00     0.020 A 
ATOM     80  C   UNL A   1      48.373  35.561  28.798  1.00  0.00     0.054 A 
BRANCH  80  81
ATOM     81  S   UNL A   1      49.051  37.226  29.051  1.00  0.00     0.124 S 
ATOM     82  O   UNL A   1      50.481  36.956  29.163  1.00  0.00    -0.237 OA
ATOM     83  O   UNL A   1      48.632  37.928  27.842  1.00  0.00    -0.237 OA
ATOM     84  O   UNL A   1      48.398  37.674  30.279  1.00  0.00    -0.744 OA
ENDBRANCH  80  81
ENDBRANCH  52  75
BRANCH  64  85
ATOM     85  C   UNL A   1      49.800  26.805  26.602  1.00  0.00    -0.014 A 
ATOM     86  C   UNL A   1      50.683  26.369  27.605  1.00  0.00     0.010 A 
ATOM     87  C   UNL A   1      50.206  26.758  25.257  1.00  0.00     0.010 A 
ATOM     88  C   UNL A   1      51.961  25.916  27.268  1.00  0.00     0.020 A 
ATOM     89  C   UNL A   1      51.476  26.287  24.915  1.00  0.00     0.020 A 
ATOM     90  C   UNL A   1      52.352  25.882  25.926  1.00  0.00     0.054 A 
BRANCH  90  91
ATOM     91  S   UNL A   1      53.999  25.251  25.506  1.00  0.00     0.124 S 
ATOM     92  O   UNL A   1      54.611  26.408  24.858  1.00  0.00    -0.237 OA
ATOM     93  O   UNL A   1      54.552  24.894  26.810  1.00  0.00    -0.237 OA
ATOM     94  O   UNL A   1      53.720  24.118  24.626  1.00  0.00    -0.744 OA
ENDBRANCH  90  91
ENDBRANCH  64  85
ENDBRANCH  38  39
ENDBRANCH  31  33
ENDBRANCH  30  31
ENDBRANCH  29  30
ENDBRANCH  28  29
ENDBRANCH  27  28
ENDBRANCH  26  27
ENDBRANCH   1  26
TORSDOF 25
ENDMDL
MODEL 2
REMARK VINA RESULT:      -8.5      1.922      8.093
REMARK SMILES CC[C@H]1CN(C(=O)N(CC(=O)OCCOCCOCCOC(=O)c2ccc(-c3c4nc(c(-c5ccc(S(=O)(=O)[O-])cc5)c5ccc([nH]5)c(-c5ccc(S(=O)(=O)[O-])cc5)c5nc(c(-c6ccc(S(=O)(=O)[O-])cc6)c6ccc3[nH]6)C=C5)C=C4)cc2)C(C)(C)C)CC[N@@H+]1C
REMARK SMILES IDX 16 1 15 2 14 3 13 4 12 5 10 6 11 7 9 8 8 9 6 10 7 11 5 12
REMARK SMILES IDX 3 13 4 14 90 15 89 16 91 17 88 19 2 20 1 21 84 22 85 23
REMARK SMILES IDX 86 24 87 25 17 26 18 27 19 28 20 29 21 30 22 31 23 32 24 33
REMARK SMILES IDX 25 34 83 35 26 36 82 37 27 38 28 39 29 40 76 41 30 42 81 43
REMARK SMILES IDX 75 44 77 45 31 46 80 47 74 48 73 49 32 51 62 52 43 53 61 54
REMARK SMILES IDX 44 55 47 56 60 57 78 58 45 59 46 60 59 62 79 63 48 64 33 65
REMARK SMILES IDX 34 66 42 67 35 68 41 69 36 70 37 71 38 72 39 73 40 74 63 75
REMARK SMILES IDX 64 76 72 77 65 78 71 79 66 80 67 81 68 82 69 83 70 84 49 85
REMARK SMILES IDX 50 86 58 87 51 88 57 89 52 90 53 91 54 92 55 93 56 94
REMARK H PARENT 90 18 77 50 47 61
REMARK Flexibility Score: inf
ROOT
ATOM      1  C   UNL A   1      34.990  33.563  28.024  1.00  0.00     0.188 C 
ENDROOT
BRANCH   1   2
ATOM      2  O   UNL A   1      35.094  32.313  27.348  1.00  0.00    -0.376 OA
BRANCH   2   3
ATOM      3  C   UNL A   1      34.227  31.245  27.701  1.00  0.00     0.202 C 
BRANCH   3   4
ATOM      4  C   UNL A   1      34.157  30.105  26.683  1.00  0.00     0.261 C 
BRANCH   4   5
ATOM      5  O   UNL A   1      32.830  29.593  26.455  1.00  0.00    -0.462 OA
BRANCH   5   6
ATOM      6  C   UNL A   1      32.631  29.022  25.238  1.00  0.00     0.325 C 
ATOM      7  O   UNL A   1      33.422  29.093  24.303  1.00  0.00    -0.250 OA
BRANCH   6   8
ATOM      8  C   UNL A   1      31.197  28.547  25.032  1.00  0.00     0.244 C 
BRANCH   8   9
ATOM      9  N   UNL A   1      30.759  27.151  24.848  1.00  0.00    -0.309 N 
BRANCH   9  10
ATOM     10  C   UNL A   1      31.040  26.164  25.778  1.00  0.00     0.321 C 
ATOM     11  O   UNL A   1      30.386  26.070  26.820  1.00  0.00    -0.248 OA
BRANCH  10  12
ATOM     12  N   UNL A   1      32.153  25.357  25.583  1.00  0.00    -0.313 N 
ATOM     13  C   UNL A   1      34.420  24.820  24.655  1.00  0.00     0.203 C 
ATOM     14  C   UNL A   1      33.554  25.797  25.492  1.00  0.00     0.186 C 
ATOM     15  N   UNL A   1      34.384  23.438  25.213  1.00  0.00    -0.332 N 
ATOM     16  C   UNL A   1      32.988  22.977  25.366  1.00  0.00     0.284 C 
ATOM     17  C   UNL A   1      35.114  23.349  26.478  1.00  0.00     0.333 C 
ATOM     18  H   UNL A   1      34.855  22.821  24.551  1.00  0.00     0.348 HD
ATOM     19  C   UNL A   1      32.014  23.967  26.034  1.00  0.00     0.183 C 
BRANCH  13  20
ATOM     20  C   UNL A   1      34.038  24.744  23.150  1.00  0.00     0.063 C 
ATOM     21  C   UNL A   1      33.749  26.076  22.470  1.00  0.00     0.010 C 
ENDBRANCH  13  20
ENDBRANCH  10  12
ENDBRANCH   9  10
BRANCH   9  22
ATOM     22  C   UNL A   1      30.036  26.744  23.594  1.00  0.00     0.037 C 
ATOM     23  C   UNL A   1      30.398  27.639  22.387  1.00  0.00     0.034 C 
ATOM     24  C   UNL A   1      30.405  25.283  23.235  1.00  0.00     0.034 C 
ATOM     25  C   UNL A   1      28.506  26.746  23.774  1.00  0.00     0.034 C 
ENDBRANCH   9  22
ENDBRANCH   8   9
ENDBRANCH   6   8
ENDBRANCH   5   6
ENDBRANCH   4   5
ENDBRANCH   3   4
ENDBRANCH   2   3
ENDBRANCH   1   2
BRANCH   1  26
ATOM     26  C   UNL A   1      34.485  33.597  29.471  1.00  0.00     0.188 C 
BRANCH  26  27
ATOM     27  O   UNL A   1      35.428  33.291  30.494  1.00  0.00    -0.376 OA
BRANCH  27  28
ATOM     28  C   UNL A   1      35.423  31.949  30.971  1.00  0.00     0.202 C 
BRANCH  28  29
ATOM     29  C   UNL A   1      36.795  31.462  31.439  1.00  0.00     0.261 C 
BRANCH  29  30
ATOM     30  O   UNL A   1      37.613  31.104  30.307  1.00  0.00    -0.460 OA
BRANCH  30  31
ATOM     31  C   UNL A   1      37.354  29.884  29.791  1.00  0.00     0.338 C 
ATOM     32  O   UNL A   1      36.256  29.363  29.640  1.00  0.00    -0.246 OA
BRANCH  31  33
ATOM     33  C   UNL A   1      38.598  29.248  29.336  1.00  0.00     0.060 A 
ATOM     34  C   UNL A   1      39.363  28.523  30.251  1.00  0.00     0.016 A 
ATOM     35  C   UNL A   1      39.102  29.529  28.070  1.00  0.00     0.016 A 
ATOM     36  C   UNL A   1      40.668  28.142  29.939  1.00  0.00     0.010 A 
ATOM     37  C   UNL A   1      40.394  29.110  27.740  1.00  0.00     0.010 A 
ATOM     38  C   UNL A   1      41.209  28.456  28.687  1.00  0.00    -0.014 A 
BRANCH  38  39
ATOM     39  C   UNL A   1      42.655  28.250  28.399  1.00  0.00     0.031 A 
ATOM     40  C   UNL A   1      43.630  29.344  28.752  1.00  0.00     0.074 A 
ATOM     41  C   UNL A   1      43.116  27.109  27.852  1.00  0.00     0.049 A 
ATOM     42  N   UNL A   1      44.870  29.508  28.368  1.00  0.00    -0.248 NA
ATOM     43  C   UNL A   1      43.136  30.398  29.653  1.00  0.00     0.031 C 
ATOM     44  C   UNL A   1      42.319  25.918  27.560  1.00  0.00     0.029 A 
ATOM     45  N   UNL A   1      44.384  26.772  27.440  1.00  0.00    -0.354 N 
ATOM     46  C   UNL A   1      45.279  30.716  28.921  1.00  0.00     0.074 A 
ATOM     47  C   UNL A   1      44.163  31.234  29.682  1.00  0.00     0.031 C 
ATOM     48  C   UNL A   1      43.118  24.976  27.030  1.00  0.00     0.029 A 
ATOM     49  C   UNL A   1      44.461  25.526  26.864  1.00  0.00     0.049 A 
ATOM     50  H   UNL A   1      45.161  27.367  27.546  1.00  0.00     0.167 HD
ATOM     51  C   UNL A   1      46.473  31.345  28.792  1.00  0.00     0.031 A 
ATOM     52  C   UNL A   1      45.481  24.916  26.227  1.00  0.00     0.031 A 
ATOM     53  C   UNL A   1      47.591  30.809  28.063  1.00  0.00     0.049 A 
ATOM     54  C   UNL A   1      46.778  25.653  26.037  1.00  0.00     0.074 A 
ATOM     55  C   UNL A   1      48.832  31.381  27.840  1.00  0.00     0.029 A 
ATOM     56  N   UNL A   1      47.610  29.562  27.460  1.00  0.00    -0.354 N 
ATOM     57  N   UNL A   1      47.117  26.848  26.460  1.00  0.00    -0.248 NA
ATOM     58  C   UNL A   1      47.822  24.970  25.259  1.00  0.00     0.031 C 
ATOM     59  C   UNL A   1      49.592  30.488  27.075  1.00  0.00     0.029 A 
ATOM     60  C   UNL A   1      48.838  29.345  26.860  1.00  0.00     0.049 A 
ATOM     61  H   UNL A   1      46.861  28.924  27.457  1.00  0.00     0.167 HD
ATOM     62  C   UNL A   1      48.415  27.056  26.004  1.00  0.00     0.074 A 
ATOM     63  C   UNL A   1      48.807  25.857  25.291  1.00  0.00     0.031 C 
ATOM     64  C   UNL A   1      49.209  28.145  26.156  1.00  0.00     0.031 A 
BRANCH  51  65
ATOM     65  C   UNL A   1      46.597  32.717  29.397  1.00  0.00    -0.014 A 
ATOM     66  C   UNL A   1      47.079  32.905  30.704  1.00  0.00     0.010 A 
ATOM     67  C   UNL A   1      46.223  33.839  28.635  1.00  0.00     0.010 A 
ATOM     68  C   UNL A   1      47.139  34.189  31.254  1.00  0.00     0.020 A 
ATOM     69  C   UNL A   1      46.304  35.126  29.174  1.00  0.00     0.020 A 
ATOM     70  C   UNL A   1      46.739  35.290  30.490  1.00  0.00     0.054 A 
BRANCH  70  71
ATOM     71  S   UNL A   1      46.818  36.947  31.224  1.00  0.00     0.124 S 
ATOM     72  O   UNL A   1      46.974  36.638  32.644  1.00  0.00    -0.237 OA
ATOM     73  O   UNL A   1      47.989  37.534  30.578  1.00  0.00    -0.237 OA
ATOM     74  O   UNL A   1      45.540  37.550  30.854  1.00  0.00    -0.744 OA
ENDBRANCH  70  71
ENDBRANCH  51  65
BRANCH  52  75
ATOM     75  C   UNL A   1      45.291  23.554  25.658  1.00  0.00    -0.014 A 
ATOM     76  C   UNL A   1      45.544  22.413  26.440  1.00  0.00     0.010 A 
ATOM     77  C   UNL A   1      44.848  23.391  24.334  1.00  0.00     0.010 A 
ATOM     78  C   UNL A   1      45.358  21.134  25.905  1.00  0.00     0.020 A 
ATOM     79  C   UNL A   1      44.635  22.116  23.804  1.00  0.00     0.020 A 
ATOM     80  C   UNL A   1      44.901  20.994  24.591  1.00  0.00     0.054 A 
BRANCH  80  81
ATOM     81  S   UNL A   1      44.596  19.329  23.936  1.00  0.00     0.124 S 
ATOM     82  O   UNL A   1      43.379  18.944  24.644  1.00  0.00    -0.237 OA
ATOM     83  O   UNL A   1      44.446  19.570  22.504  1.00  0.00    -0.237 OA
ATOM     84  O   UNL A   1      45.801  18.591  24.311  1.00  0.00    -0.744 OA
ENDBRANCH  80  81
ENDBRANCH  52  75
BRANCH  64  85
ATOM     85  C   UNL A   1      50.590  28.079  25.564  1.00  0.00    -0.014 A 
ATOM     86  C   UNL A   1      50.820  28.430  24.223  1.00  0.00     0.010 A 
ATOM     87  C   UNL A   1      51.676  27.707  26.377  1.00  0.00     0.010 A 
ATOM     88  C   UNL A   1      52.114  28.386  23.697  1.00  0.00     0.020 A 
ATOM     89  C   UNL A   1      52.973  27.681  25.859  1.00  0.00     0.020 A 
ATOM     90  C   UNL A   1      53.182  28.007  24.516  1.00  0.00     0.054 A 
BRANCH  90  91
ATOM     91  S   UNL A   1      54.859  27.998  23.826  1.00  0.00     0.124 S 
ATOM     92  O   UNL A   1      54.644  28.569  22.499  1.00  0.00    -0.237 OA
ATOM     93  O   UNL A   1      55.600  28.842  24.761  1.00  0.00    -0.237 OA
ATOM     94  O   UNL A   1      55.231  26.585  23.845  1.00  0.00    -0.744 OA
ENDBRANCH  90  91
ENDBRANCH  64  85
ENDBRANCH  38  39
ENDBRANCH  31  33
ENDBRANCH  30  31
ENDBRANCH  29  30
ENDBRANCH  28  29
ENDBRANCH  27  28
ENDBRANCH  26  27
ENDBRANCH   1  26
TORSDOF 25
ENDMDL
MODEL 3
REMARK VINA RESULT:      -8.0      6.269     11.566
REMARK SMILES CC[C@H]1CN(C(=O)N(CC(=O)OCCOCCOCCOC(=O)c2ccc(-c3c4nc(c(-c5ccc(S(=O)(=O)[O-])cc5)c5ccc([nH]5)c(-c5ccc(S(=O)(=O)[O-])cc5)c5nc(c(-c6ccc(S(=O)(=O)[O-])cc6)c6ccc3[nH]6)C=C5)C=C4)cc2)C(C)(C)C)CC[N@@H+]1C
REMARK SMILES IDX 16 1 15 2 14 3 13 4 12 5 10 6 11 7 9 8 8 9 6 10 7 11 5 12
REMARK SMILES IDX 3 13 4 14 90 15 89 16 91 17 88 19 2 20 1 21 84 22 85 23
REMARK SMILES IDX 86 24 87 25 17 26 18 27 19 28 20 29 21 30 22 31 23 32 24 33
REMARK SMILES IDX 25 34 83 35 26 36 82 37 27 38 28 39 29 40 76 41 30 42 81 43
REMARK SMILES IDX 75 44 77 45 31 46 80 47 74 48 73 49 32 51 62 52 43 53 61 54
REMARK SMILES IDX 44 55 47 56 60 57 78 58 45 59 46 60 59 62 79 63 48 64 33 65
REMARK SMILES IDX 34 66 42 67 35 68 41 69 36 70 37 71 38 72 39 73 40 74 63 75
REMARK SMILES IDX 64 76 72 77 65 78 71 79 66 80 67 81 68 82 69 83 70 84 49 85
REMARK SMILES IDX 50 86 58 87 51 88 57 89 52 90 53 91 54 92 55 93 56 94
REMARK H PARENT 90 18 77 50 47 61
REMARK Flexibility Score: inf
ROOT
ATOM      1  C   UNL A   1      36.768  22.480  24.261  1.00  0.00     0.188 C 
ENDROOT
BRANCH   1   2
ATOM      2  O   UNL A   1      35.345  22.485  24.339  1.00  0.00    -0.376 OA
BRANCH   2   3
ATOM      3  C   UNL A   1      34.703  22.120  25.551  1.00  0.00     0.202 C 
BRANCH   3   4
ATOM      4  C   UNL A   1      34.333  23.290  26.465  1.00  0.00     0.261 C 
BRANCH   4   5
ATOM      5  O   UNL A   1      33.430  24.243  25.873  1.00  0.00    -0.462 OA
BRANCH   5   6
ATOM      6  C   UNL A   1      32.408  24.645  26.674  1.00  0.00     0.325 C 
ATOM      7  O   UNL A   1      31.845  23.925  27.492  1.00  0.00    -0.250 OA
BRANCH   6   8
ATOM      8  C   UNL A   1      31.811  25.984  26.249  1.00  0.00     0.244 C 
BRANCH   8   9
ATOM      9  N   UNL A   1      32.564  27.188  25.855  1.00  0.00    -0.309 N 
BRANCH   9  10
ATOM     10  C   UNL A   1      33.329  27.232  24.701  1.00  0.00     0.321 C 
ATOM     11  O   UNL A   1      34.344  27.930  24.639  1.00  0.00    -0.248 OA
BRANCH  10  12
ATOM     12  N   UNL A   1      32.867  26.576  23.567  1.00  0.00    -0.313 N 
ATOM     13  C   UNL A   1      31.142  25.973  21.849  1.00  0.00     0.203 C 
ATOM     14  C   UNL A   1      31.926  27.103  22.567  1.00  0.00     0.186 C 
ATOM     15  N   UNL A   1      32.060  25.005  21.184  1.00  0.00    -0.332 N 
ATOM     16  C   UNL A   1      33.056  24.488  22.148  1.00  0.00     0.284 C 
ATOM     17  C   UNL A   1      32.712  25.596  20.015  1.00  0.00     0.333 C 
ATOM     18  H   UNL A   1      31.500  24.221  20.851  1.00  0.00     0.348 HD
ATOM     19  C   UNL A   1      33.757  25.539  23.031  1.00  0.00     0.183 C 
BRANCH  13  20
ATOM     20  C   UNL A   1      30.177  25.172  22.768  1.00  0.00     0.063 C 
ATOM     21  C   UNL A   1      29.366  25.996  23.759  1.00  0.00     0.010 C 
ENDBRANCH  13  20
ENDBRANCH  10  12
ENDBRANCH   9  10
BRANCH   9  22
ATOM     22  C   UNL A   1      32.570  28.400  26.745  1.00  0.00     0.037 C 
ATOM     23  C   UNL A   1      33.976  28.715  27.305  1.00  0.00     0.034 C 
ATOM     24  C   UNL A   1      32.089  29.634  25.941  1.00  0.00     0.034 C 
ATOM     25  C   UNL A   1      31.583  28.269  27.920  1.00  0.00     0.034 C 
ENDBRANCH   9  22
ENDBRANCH   8   9
ENDBRANCH   6   8
ENDBRANCH   5   6
ENDBRANCH   4   5
ENDBRANCH   3   4
ENDBRANCH   2   3
ENDBRANCH   1   2
BRANCH   1  26
ATOM     26  C   UNL A   1      37.561  21.415  25.029  1.00  0.00     0.188 C 
BRANCH  26  27
ATOM     27  O   UNL A   1      38.253  21.839  26.198  1.00  0.00    -0.376 OA
BRANCH  27  28
ATOM     28  C   UNL A   1      39.659  21.609  26.215  1.00  0.00     0.202 C 
BRANCH  28  29
ATOM     29  C   UNL A   1      40.475  22.837  26.619  1.00  0.00     0.261 C 
BRANCH  29  30
ATOM     30  O   UNL A   1      39.681  24.033  26.482  1.00  0.00    -0.460 OA
BRANCH  30  31
ATOM     31  C   UNL A   1      40.395  25.160  26.275  1.00  0.00     0.338 C 
ATOM     32  O   UNL A   1      40.797  25.595  25.203  1.00  0.00    -0.246 OA
BRANCH  31  33
ATOM     33  C   UNL A   1      40.580  25.886  27.539  1.00  0.00     0.060 A 
ATOM     34  C   UNL A   1      39.531  25.922  28.459  1.00  0.00     0.016 A 
ATOM     35  C   UNL A   1      41.703  26.686  27.726  1.00  0.00     0.016 A 
ATOM     36  C   UNL A   1      39.559  26.814  29.531  1.00  0.00     0.010 A 
ATOM     37  C   UNL A   1      41.751  27.551  28.824  1.00  0.00     0.010 A 
ATOM     38  C   UNL A   1      40.659  27.660  29.709  1.00  0.00    -0.014 A 
BRANCH  38  39
ATOM     39  C   UNL A   1      40.631  28.760  30.712  1.00  0.00     0.031 A 
ATOM     40  C   UNL A   1      41.627  28.740  31.843  1.00  0.00     0.074 A 
ATOM     41  C   UNL A   1      39.756  29.780  30.625  1.00  0.00     0.049 A 
ATOM     42  N   UNL A   1      41.631  29.422  32.960  1.00  0.00    -0.248 NA
ATOM     43  C   UNL A   1      42.766  27.819  31.697  1.00  0.00     0.031 C 
ATOM     44  C   UNL A   1      38.809  30.003  29.533  1.00  0.00     0.029 A 
ATOM     45  N   UNL A   1      39.523  30.826  31.487  1.00  0.00    -0.354 N 
ATOM     46  C   UNL A   1      42.729  28.962  33.678  1.00  0.00     0.074 A 
ATOM     47  C   UNL A   1      43.378  27.958  32.865  1.00  0.00     0.031 C 
ATOM     48  C   UNL A   1      38.108  31.123  29.782  1.00  0.00     0.029 A 
ATOM     49  C   UNL A   1      38.494  31.646  31.090  1.00  0.00     0.049 A 
ATOM     50  H   UNL A   1      40.043  30.972  32.310  1.00  0.00     0.167 HD
ATOM     51  C   UNL A   1      43.149  29.333  34.912  1.00  0.00     0.031 A 
ATOM     52  C   UNL A   1      37.892  32.670  31.729  1.00  0.00     0.031 A 
ATOM     53  C   UNL A   1      42.521  30.359  35.702  1.00  0.00     0.049 A 
ATOM     54  C   UNL A   1      38.329  33.028  33.124  1.00  0.00     0.074 A 
ATOM     55  C   UNL A   1      42.844  30.785  36.979  1.00  0.00     0.029 A 
ATOM     56  N   UNL A   1      41.455  31.134  35.278  1.00  0.00    -0.354 N 
ATOM     57  N   UNL A   1      39.292  32.505  33.846  1.00  0.00    -0.248 NA
ATOM     58  C   UNL A   1      37.577  34.094  33.802  1.00  0.00     0.031 C 
ATOM     59  C   UNL A   1      41.951  31.803  37.337  1.00  0.00     0.029 A 
ATOM     60  C   UNL A   1      41.102  32.036  36.266  1.00  0.00     0.049 A 
ATOM     61  H   UNL A   1      41.012  31.056  34.402  1.00  0.00     0.167 HD
ATOM     62  C   UNL A   1      39.266  33.185  35.060  1.00  0.00     0.074 A 
ATOM     63  C   UNL A   1      38.205  34.168  34.967  1.00  0.00     0.031 C 
ATOM     64  C   UNL A   1      40.044  33.007  36.156  1.00  0.00     0.031 A 
BRANCH  51  65
ATOM     65  C   UNL A   1      44.302  28.571  35.505  1.00  0.00    -0.014 A 
ATOM     66  C   UNL A   1      44.199  27.932  36.754  1.00  0.00     0.010 A 
ATOM     67  C   UNL A   1      45.513  28.495  34.794  1.00  0.00     0.010 A 
ATOM     68  C   UNL A   1      45.304  27.271  37.299  1.00  0.00     0.020 A 
ATOM     69  C   UNL A   1      46.612  27.815  35.325  1.00  0.00     0.020 A 
ATOM     70  C   UNL A   1      46.507  27.227  36.587  1.00  0.00     0.054 A 
BRANCH  70  71
ATOM     71  S   UNL A   1      47.930  26.370  37.315  1.00  0.00     0.124 S 
ATOM     72  O   UNL A   1      47.405  25.974  38.620  1.00  0.00    -0.237 OA
ATOM     73  O   UNL A   1      48.167  25.277  36.375  1.00  0.00    -0.237 OA
ATOM     74  O   UNL A   1      48.971  27.394  37.347  1.00  0.00    -0.744 OA
ENDBRANCH  70  71
ENDBRANCH  51  65
BRANCH  52  75
ATOM     75  C   UNL A   1      36.761  33.387  31.081  1.00  0.00    -0.014 A 
ATOM     76  C   UNL A   1      36.994  34.264  30.007  1.00  0.00     0.010 A 
ATOM     77  C   UNL A   1      35.442  33.188  31.529  1.00  0.00     0.010 A 
ATOM     78  C   UNL A   1      35.927  34.930  29.395  1.00  0.00     0.020 A 
ATOM     79  C   UNL A   1      34.372  33.832  30.902  1.00  0.00     0.020 A 
ATOM     80  C   UNL A   1      34.622  34.707  29.845  1.00  0.00     0.054 A 
BRANCH  80  81
ATOM     81  S   UNL A   1      33.244  35.525  28.992  1.00  0.00     0.124 S 
ATOM     82  O   UNL A   1      32.561  34.395  28.370  1.00  0.00    -0.237 OA
ATOM     83  O   UNL A   1      32.528  36.172  30.088  1.00  0.00    -0.237 OA
ATOM     84  O   UNL A   1      33.912  36.441  28.070  1.00  0.00    -0.744 OA
ENDBRANCH  80  81
ENDBRANCH  52  75
BRANCH  64  85
ATOM     85  C   UNL A   1      39.798  33.911  37.331  1.00  0.00    -0.014 A 
ATOM     86  C   UNL A   1      40.280  35.231  37.342  1.00  0.00     0.010 A 
ATOM     87  C   UNL A   1      39.032  33.447  38.415  1.00  0.00     0.010 A 
ATOM     88  C   UNL A   1      40.021  36.066  38.431  1.00  0.00     0.020 A 
ATOM     89  C   UNL A   1      38.754  34.286  39.498  1.00  0.00     0.020 A 
ATOM     90  C   UNL A   1      39.263  35.587  39.505  1.00  0.00     0.054 A 
BRANCH  90  91
ATOM     91  S   UNL A   1      38.901  36.700  40.890  1.00  0.00     0.124 S 
ATOM     92  O   UNL A   1      38.343  37.864  40.207  1.00  0.00    -0.237 OA
ATOM     93  O   UNL A   1      37.954  35.926  41.689  1.00  0.00    -0.237 OA
ATOM     94  O   UNL A   1      40.206  36.908  41.515  1.00  0.00    -0.744 OA
ENDBRANCH  90  91
ENDBRANCH  64  85
ENDBRANCH  38  39
ENDBRANCH  31  33
ENDBRANCH  30  31
ENDBRANCH  29  30
ENDBRANCH  28  29
ENDBRANCH  27  28
ENDBRANCH  26  27
ENDBRANCH   1  26
TORSDOF 25
ENDMDL
