MODEL 1
REMARK VINA RESULT:     -10.0      0.000      0.000
REMARK SMILES COCc1cc(-n2cnc(C(=O)OCCOCCOCCOC(=O)c3ccc(-c4c5nc(c(-c6ccc(S(=O)(=O)[O-])cc6)c6ccc([nH]6)c(-c6ccc(S(=O)(=O)[O-])cc6)c6nc(c(-c7ccc(S(=O)(=O)[O-])cc7)c7ccc4[nH]7)C=C6)C=C5)cc3)c2)nc(-c2cccnc2)n1
REMARK SMILES IDX 17 1 16 2 15 3 14 4 13 5 11 6 12 7 10 8 7 9 8 10 85 11 9 12
REMARK SMILES IDX 6 13 4 14 5 15 94 16 87 17 86 18 3 19 2 20 1 21 88 22 89 23
REMARK SMILES IDX 93 24 90 25 92 26 91 27 18 28 19 29 20 30 21 31 22 32 23 33
REMARK SMILES IDX 24 34 25 35 26 36 84 37 27 38 83 39 28 40 29 41 30 42 77 43
REMARK SMILES IDX 31 44 82 45 76 46 78 47 32 48 81 49 75 50 74 51 33 53 63 54
REMARK SMILES IDX 44 55 62 56 45 57 48 58 61 59 79 60 46 61 47 62 60 64 80 65
REMARK SMILES IDX 49 66 34 67 35 68 43 69 36 70 42 71 37 72 38 73 39 74 40 75
REMARK SMILES IDX 41 76 64 77 65 78 73 79 66 80 72 81 67 82 68 83 69 84 70 85
REMARK SMILES IDX 71 86 50 87 51 88 59 89 52 90 58 91 53 92 54 93 55 94 56 95
REMARK SMILES IDX 57 96
REMARK H PARENT 78 52 48 63
REMARK Flexibility Score: inf
ROOT
ATOM      1  C   UNL A   1      33.878  22.776  23.381  1.00  0.00     0.188 C 
ENDROOT
BRANCH   1   2
ATOM      2  O   UNL A   1      34.188  24.143  23.635  1.00  0.00    -0.376 OA
BRANCH   2   3
ATOM      3  C   UNL A   1      33.190  25.142  23.476  1.00  0.00     0.202 C 
BRANCH   3   4
ATOM      4  C   UNL A   1      33.518  26.624  23.758  1.00  0.00     0.261 C 
BRANCH   4   5
ATOM      5  O   UNL A   1      32.398  27.523  23.739  1.00  0.00    -0.458 OA
BRANCH   5   6
ATOM      6  C   UNL A   1      31.766  27.740  24.930  1.00  0.00     0.358 C 
ATOM      7  O   UNL A   1      31.039  26.929  25.493  1.00  0.00    -0.244 OA
BRANCH   6   8
ATOM      8  C   UNL A   1      32.174  29.010  25.533  1.00  0.00     0.166 A 
ATOM      9  N   UNL A   1      33.150  30.550  26.779  1.00  0.00    -0.289 N 
ATOM     10  C   UNL A   1      31.976  31.032  26.261  1.00  0.00     0.206 A 
ATOM     11  C   UNL A   1      33.277  29.254  26.327  1.00  0.00     0.130 A 
ATOM     12  N   UNL A   1      31.386  30.153  25.482  1.00  0.00    -0.229 NA
BRANCH   9  13
ATOM     13  C   UNL A   1      34.087  31.230  27.592  1.00  0.00     0.142 A 
ATOM     14  C   UNL A   1      36.177  31.448  28.636  1.00  0.00     0.072 A 
ATOM     15  C   UNL A   1      35.305  30.661  27.898  1.00  0.00     0.074 A 
ATOM     16  N   UNL A   1      35.807  32.649  29.143  1.00  0.00    -0.230 NA
ATOM     17  C   UNL A   1      34.570  33.079  28.847  1.00  0.00     0.163 A 
ATOM     18  N   UNL A   1      33.708  32.439  28.045  1.00  0.00    -0.210 NA
BRANCH  14  19
ATOM     19  C   UNL A   1      37.598  30.985  28.891  1.00  0.00     0.216 C 
BRANCH  19  20
ATOM     20  O   UNL A   1      37.685  29.608  29.264  1.00  0.00    -0.378 OA
ATOM     21  C   UNL A   1      39.011  29.126  29.433  1.00  0.00     0.195 C 
ENDBRANCH  19  20
ENDBRANCH  14  19
BRANCH  17  22
ATOM     22  C   UNL A   1      34.031  34.217  29.574  1.00  0.00     0.038 A 
ATOM     23  C   UNL A   1      34.397  34.459  30.907  1.00  0.00     0.015 A 
ATOM     24  C   UNL A   1      33.114  35.095  29.010  1.00  0.00     0.123 A 
ATOM     25  C   UNL A   1      33.844  35.525  31.609  1.00  0.00     0.021 A 
ATOM     26  N   UNL A   1      32.548  36.140  29.669  1.00  0.00    -0.264 NA
ATOM     27  C   UNL A   1      32.926  36.325  30.953  1.00  0.00     0.111 A 
ENDBRANCH  17  22
ENDBRANCH   9  13
ENDBRANCH   6   8
ENDBRANCH   5   6
ENDBRANCH   4   5
ENDBRANCH   3   4
ENDBRANCH   2   3
ENDBRANCH   1   2
BRANCH   1  28
ATOM     28  C   UNL A   1      34.005  21.713  24.499  1.00  0.00     0.188 C 
BRANCH  28  29
ATOM     29  O   UNL A   1      35.299  21.152  24.627  1.00  0.00    -0.376 OA
BRANCH  29  30
ATOM     30  C   UNL A   1      36.233  21.761  25.505  1.00  0.00     0.202 C 
BRANCH  30  31
ATOM     31  C   UNL A   1      37.708  21.353  25.475  1.00  0.00     0.261 C 
BRANCH  31  32
ATOM     32  O   UNL A   1      38.635  22.390  25.731  1.00  0.00    -0.460 OA
BRANCH  32  33
ATOM     33  C   UNL A   1      39.746  22.010  26.394  1.00  0.00     0.338 C 
ATOM     34  O   UNL A   1      39.881  21.005  27.071  1.00  0.00    -0.246 OA
BRANCH  33  35
ATOM     35  C   UNL A   1      40.766  23.053  26.230  1.00  0.00     0.060 A 
ATOM     36  C   UNL A   1      41.992  22.644  25.702  1.00  0.00     0.016 A 
ATOM     37  C   UNL A   1      40.608  24.289  26.877  1.00  0.00     0.016 A 
ATOM     38  C   UNL A   1      43.115  23.346  26.068  1.00  0.00     0.010 A 
ATOM     39  C   UNL A   1      41.733  24.984  27.253  1.00  0.00     0.010 A 
ATOM     40  C   UNL A   1      42.970  24.432  26.939  1.00  0.00    -0.014 A 
BRANCH  40  41
ATOM     41  C   UNL A   1      44.161  24.891  27.611  1.00  0.00     0.031 A 
ATOM     42  C   UNL A   1      44.219  24.616  29.051  1.00  0.00     0.074 A 
ATOM     43  C   UNL A   1      45.143  25.539  26.958  1.00  0.00     0.049 A 
ATOM     44  N   UNL A   1      44.074  25.465  30.010  1.00  0.00    -0.248 NA
ATOM     45  C   UNL A   1      44.324  23.216  29.473  1.00  0.00     0.031 C 
ATOM     46  C   UNL A   1      45.349  25.676  25.514  1.00  0.00     0.029 A 
ATOM     47  N   UNL A   1      46.239  26.136  27.490  1.00  0.00    -0.354 N 
ATOM     48  C   UNL A   1      44.240  24.738  31.178  1.00  0.00     0.074 A 
ATOM     49  C   UNL A   1      44.240  23.346  30.796  1.00  0.00     0.031 C 
ATOM     50  C   UNL A   1      46.611  26.109  25.293  1.00  0.00     0.029 A 
ATOM     51  C   UNL A   1      47.238  26.405  26.571  1.00  0.00     0.049 A 
ATOM     52  H   UNL A   1      46.316  26.359  28.447  1.00  0.00     0.167 HD
ATOM     53  C   UNL A   1      44.568  25.333  32.354  1.00  0.00     0.031 A 
ATOM     54  C   UNL A   1      48.512  26.757  26.865  1.00  0.00     0.031 A 
ATOM     55  C   UNL A   1      44.443  26.765  32.304  1.00  0.00     0.049 A 
ATOM     56  C   UNL A   1      48.512  27.332  28.235  1.00  0.00     0.074 A 
ATOM     57  C   UNL A   1      43.397  27.643  32.106  1.00  0.00     0.029 A 
ATOM     58  N   UNL A   1      45.594  27.492  32.101  1.00  0.00    -0.354 N 
ATOM     59  N   UNL A   1      47.935  28.463  28.531  1.00  0.00    -0.248 NA
ATOM     60  C   UNL A   1      48.767  26.458  29.371  1.00  0.00     0.031 C 
ATOM     61  C   UNL A   1      43.951  28.724  31.362  1.00  0.00     0.029 A 
ATOM     62  C   UNL A   1      45.310  28.463  31.173  1.00  0.00     0.049 A 
ATOM     63  H   UNL A   1      46.463  27.343  32.541  1.00  0.00     0.167 HD
ATOM     64  C   UNL A   1      47.372  28.266  29.785  1.00  0.00     0.074 A 
ATOM     65  C   UNL A   1      48.018  27.062  30.301  1.00  0.00     0.031 C 
ATOM     66  C   UNL A   1      46.241  28.932  30.165  1.00  0.00     0.031 A 
BRANCH  53  67
ATOM     67  C   UNL A   1      45.339  24.632  33.433  1.00  0.00    -0.014 A 
ATOM     68  C   UNL A   1      46.709  24.903  33.588  1.00  0.00     0.010 A 
ATOM     69  C   UNL A   1      44.808  23.527  34.129  1.00  0.00     0.010 A 
ATOM     70  C   UNL A   1      47.520  24.072  34.369  1.00  0.00     0.020 A 
ATOM     71  C   UNL A   1      45.597  22.721  34.946  1.00  0.00     0.020 A 
ATOM     72  C   UNL A   1      46.959  22.977  35.029  1.00  0.00     0.054 A 
BRANCH  72  73
ATOM     73  S   UNL A   1      48.036  21.834  35.926  1.00  0.00     0.124 S 
ATOM     74  O   UNL A   1      47.251  21.565  37.126  1.00  0.00    -0.237 OA
ATOM     75  O   UNL A   1      48.164  20.723  34.986  1.00  0.00    -0.237 OA
ATOM     76  O   UNL A   1      49.257  22.609  36.136  1.00  0.00    -0.744 OA
ENDBRANCH  72  73
ENDBRANCH  53  67
BRANCH  54  77
ATOM     77  C   UNL A   1      49.734  26.318  26.152  1.00  0.00    -0.014 A 
ATOM     78  C   UNL A   1      50.150  26.943  24.965  1.00  0.00     0.010 A 
ATOM     79  C   UNL A   1      50.642  25.444  26.788  1.00  0.00     0.010 A 
ATOM     80  C   UNL A   1      51.448  26.744  24.463  1.00  0.00     0.020 A 
ATOM     81  C   UNL A   1      51.930  25.232  26.290  1.00  0.00     0.020 A 
ATOM     82  C   UNL A   1      52.337  25.904  25.141  1.00  0.00     0.054 A 
BRANCH  82  83
ATOM     83  S   UNL A   1      54.063  25.794  24.592  1.00  0.00     0.124 S 
ATOM     84  O   UNL A   1      53.949  26.046  23.158  1.00  0.00    -0.237 OA
ATOM     85  O   UNL A   1      54.711  26.845  25.371  1.00  0.00    -0.237 OA
ATOM     86  O   UNL A   1      54.454  24.432  24.953  1.00  0.00    -0.744 OA
ENDBRANCH  82  83
ENDBRANCH  54  77
BRANCH  66  87
ATOM     87  C   UNL A   1      45.771  30.078  29.295  1.00  0.00    -0.014 A 
ATOM     88  C   UNL A   1      46.209  31.406  29.478  1.00  0.00     0.010 A 
ATOM     89  C   UNL A   1      44.981  29.785  28.170  1.00  0.00     0.010 A 
ATOM     90  C   UNL A   1      45.838  32.417  28.581  1.00  0.00     0.020 A 
ATOM     91  C   UNL A   1      44.622  30.786  27.261  1.00  0.00     0.020 A 
ATOM     92  C   UNL A   1      45.046  32.099  27.476  1.00  0.00     0.054 A 
BRANCH  92  93
ATOM     93  S   UNL A   1      44.618  33.402  26.287  1.00  0.00     0.124 S 
ATOM     94  O   UNL A   1      44.477  32.659  25.037  1.00  0.00    -0.237 OA
ATOM     95  O   UNL A   1      43.380  33.951  26.836  1.00  0.00    -0.237 OA
ATOM     96  O   UNL A   1      45.763  34.311  26.339  1.00  0.00    -0.744 OA
ENDBRANCH  92  93
ENDBRANCH  66  87
ENDBRANCH  40  41
ENDBRANCH  33  35
ENDBRANCH  32  33
ENDBRANCH  31  32
ENDBRANCH  30  31
ENDBRANCH  29  30
ENDBRANCH  28  29
ENDBRANCH   1  28
TORSDOF 24
ENDMDL
MODEL 2
REMARK VINA RESULT:      -9.5      3.392      9.105
REMARK SMILES COCc1cc(-n2cnc(C(=O)OCCOCCOCCOC(=O)c3ccc(-c4c5nc(c(-c6ccc(S(=O)(=O)[O-])cc6)c6ccc([nH]6)c(-c6ccc(S(=O)(=O)[O-])cc6)c6nc(c(-c7ccc(S(=O)(=O)[O-])cc7)c7ccc4[nH]7)C=C6)C=C5)cc3)c2)nc(-c2cccnc2)n1
REMARK SMILES IDX 17 1 16 2 15 3 14 4 13 5 11 6 12 7 10 8 7 9 8 10 85 11 9 12
REMARK SMILES IDX 6 13 4 14 5 15 94 16 87 17 86 18 3 19 2 20 1 21 88 22 89 23
REMARK SMILES IDX 93 24 90 25 92 26 91 27 18 28 19 29 20 30 21 31 22 32 23 33
REMARK SMILES IDX 24 34 25 35 26 36 84 37 27 38 83 39 28 40 29 41 30 42 77 43
REMARK SMILES IDX 31 44 82 45 76 46 78 47 32 48 81 49 75 50 74 51 33 53 63 54
REMARK SMILES IDX 44 55 62 56 45 57 48 58 61 59 79 60 46 61 47 62 60 64 80 65
REMARK SMILES IDX 49 66 34 67 35 68 43 69 36 70 42 71 37 72 38 73 39 74 40 75
REMARK SMILES IDX 41 76 64 77 65 78 73 79 66 80 72 81 67 82 68 83 69 84 70 85
REMARK SMILES IDX 71 86 50 87 51 88 59 89 52 90 58 91 53 92 54 93 55 94 56 95
REMARK SMILES IDX 57 96
REMARK H PARENT 78 52 48 63
REMARK Flexibility Score: inf
ROOT
ATOM      1  C   UNL A   1      36.731  34.174  34.402  1.00  0.00     0.188 C 
ENDROOT
BRANCH   1   2
ATOM      2  O   UNL A   1      35.308  34.192  34.464  1.00  0.00    -0.376 OA
BRANCH   2   3
ATOM      3  C   UNL A   1      34.543  34.256  33.268  1.00  0.00     0.202 C 
BRANCH   3   4
ATOM      4  C   UNL A   1      33.927  35.594  32.806  1.00  0.00     0.261 C 
BRANCH   4   5
ATOM      5  O   UNL A   1      32.822  35.489  31.895  1.00  0.00    -0.458 OA
BRANCH   5   6
ATOM      6  C   UNL A   1      32.952  36.134  30.698  1.00  0.00     0.358 C 
ATOM      7  O   UNL A   1      32.719  37.325  30.518  1.00  0.00    -0.244 OA
BRANCH   6   8
ATOM      8  C   UNL A   1      33.541  35.265  29.678  1.00  0.00     0.166 A 
ATOM      9  N   UNL A   1      34.421  33.546  28.608  1.00  0.00    -0.289 N 
ATOM     10  C   UNL A   1      34.738  34.717  27.968  1.00  0.00     0.206 A 
ATOM     11  C   UNL A   1      33.665  33.890  29.708  1.00  0.00     0.130 A 
ATOM     12  N   UNL A   1      34.197  35.759  28.559  1.00  0.00    -0.229 NA
BRANCH   9  13
ATOM     13  C   UNL A   1      34.757  32.226  28.224  1.00  0.00     0.142 A 
ATOM     14  C   UNL A   1      34.280  30.154  27.232  1.00  0.00     0.072 A 
ATOM     15  C   UNL A   1      33.822  31.398  27.640  1.00  0.00     0.074 A 
ATOM     16  N   UNL A   1      35.534  29.723  27.511  1.00  0.00    -0.230 NA
ATOM     17  C   UNL A   1      36.344  30.582  28.152  1.00  0.00     0.163 A 
ATOM     18  N   UNL A   1      36.022  31.842  28.475  1.00  0.00    -0.210 NA
BRANCH  14  19
ATOM     19  C   UNL A   1      33.379  29.228  26.438  1.00  0.00     0.216 C 
BRANCH  19  20
ATOM     20  O   UNL A   1      34.032  28.630  25.316  1.00  0.00    -0.378 OA
ATOM     21  C   UNL A   1      33.657  27.283  25.065  1.00  0.00     0.195 C 
ENDBRANCH  19  20
ENDBRANCH  14  19
BRANCH  17  22
ATOM     22  C   UNL A   1      37.592  30.086  28.707  1.00  0.00     0.038 A 
ATOM     23  C   UNL A   1      37.737  28.736  29.063  1.00  0.00     0.015 A 
ATOM     24  C   UNL A   1      38.683  30.913  28.945  1.00  0.00     0.123 A 
ATOM     25  C   UNL A   1      38.919  28.278  29.634  1.00  0.00     0.021 A 
ATOM     26  N   UNL A   1      39.848  30.502  29.509  1.00  0.00    -0.264 NA
ATOM     27  C   UNL A   1      39.935  29.195  29.842  1.00  0.00     0.111 A 
ENDBRANCH  17  22
ENDBRANCH   9  13
ENDBRANCH   6   8
ENDBRANCH   5   6
ENDBRANCH   4   5
ENDBRANCH   3   4
ENDBRANCH   2   3
ENDBRANCH   1   2
BRANCH   1  28
ATOM     28  C   UNL A   1      37.467  33.405  33.279  1.00  0.00     0.188 C 
BRANCH  28  29
ATOM     29  O   UNL A   1      38.192  32.273  33.724  1.00  0.00    -0.376 OA
BRANCH  29  30
ATOM     30  C   UNL A   1      37.783  31.614  34.912  1.00  0.00     0.202 C 
BRANCH  30  31
ATOM     31  C   UNL A   1      38.683  30.562  35.566  1.00  0.00     0.261 C 
BRANCH  31  32
ATOM     32  O   UNL A   1      39.750  30.088  34.766  1.00  0.00    -0.460 OA
BRANCH  32  33
ATOM     33  C   UNL A   1      40.810  29.615  35.452  1.00  0.00     0.338 C 
ATOM     34  O   UNL A   1      41.158  29.948  36.573  1.00  0.00    -0.246 OA
BRANCH  33  35
ATOM     35  C   UNL A   1      41.538  28.672  34.594  1.00  0.00     0.060 A 
ATOM     36  C   UNL A   1      42.887  28.477  34.892  1.00  0.00     0.016 A 
ATOM     37  C   UNL A   1      40.978  28.271  33.370  1.00  0.00     0.016 A 
ATOM     38  C   UNL A   1      43.729  28.137  33.861  1.00  0.00     0.010 A 
ATOM     39  C   UNL A   1      41.824  27.943  32.336  1.00  0.00     0.010 A 
ATOM     40  C   UNL A   1      43.192  27.998  32.577  1.00  0.00    -0.014 A 
BRANCH  40  41
ATOM     41  C   UNL A   1      44.121  28.038  31.474  1.00  0.00     0.031 A 
ATOM     42  C   UNL A   1      44.005  29.207  30.593  1.00  0.00     0.074 A 
ATOM     43  C   UNL A   1      45.022  27.062  31.265  1.00  0.00     0.049 A 
ATOM     44  N   UNL A   1      43.515  29.234  29.401  1.00  0.00    -0.248 NA
ATOM     45  C   UNL A   1      44.355  30.517  31.150  1.00  0.00     0.031 C 
ATOM     46  C   UNL A   1      45.424  25.977  32.164  1.00  0.00     0.029 A 
ATOM     47  N   UNL A   1      45.851  26.912  30.201  1.00  0.00    -0.354 N 
ATOM     48  C   UNL A   1      43.650  30.545  28.975  1.00  0.00     0.074 A 
ATOM     49  C   UNL A   1      44.029  31.316  30.135  1.00  0.00     0.031 C 
ATOM     50  C   UNL A   1      46.573  25.432  31.703  1.00  0.00     0.029 A 
ATOM     51  C   UNL A   1      46.899  26.036  30.421  1.00  0.00     0.049 A 
ATOM     52  H   UNL A   1      45.719  27.386  29.348  1.00  0.00     0.167 HD
ATOM     53  C   UNL A   1      43.637  30.877  27.657  1.00  0.00     0.031 A 
ATOM     54  C   UNL A   1      47.994  25.896  29.636  1.00  0.00     0.031 A 
ATOM     55  C   UNL A   1      43.200  29.795  26.817  1.00  0.00     0.049 A 
ATOM     56  C   UNL A   1      47.639  26.393  28.282  1.00  0.00     0.074 A 
ATOM     57  C   UNL A   1      42.027  29.079  26.689  1.00  0.00     0.029 A 
ATOM     58  N   UNL A   1      44.172  29.052  26.187  1.00  0.00    -0.354 N 
ATOM     59  N   UNL A   1      46.780  25.793  27.506  1.00  0.00    -0.248 NA
ATOM     60  C   UNL A   1      47.898  27.786  27.947  1.00  0.00     0.031 C 
ATOM     61  C   UNL A   1      42.434  27.747  26.387  1.00  0.00     0.029 A 
ATOM     62  C   UNL A   1      43.829  27.729  26.318  1.00  0.00     0.049 A 
ATOM     63  H   UNL A   1      44.968  29.405  25.727  1.00  0.00     0.167 HD
ATOM     64  C   UNL A   1      46.079  26.816  26.881  1.00  0.00     0.074 A 
ATOM     65  C   UNL A   1      46.890  28.011  27.097  1.00  0.00     0.031 C 
ATOM     66  C   UNL A   1      44.780  26.649  26.492  1.00  0.00     0.031 A 
BRANCH  53  67
ATOM     67  C   UNL A   1      44.361  32.073  27.113  1.00  0.00    -0.014 A 
ATOM     68  C   UNL A   1      45.648  31.911  26.570  1.00  0.00     0.010 A 
ATOM     69  C   UNL A   1      43.914  33.388  27.356  1.00  0.00     0.010 A 
ATOM     70  C   UNL A   1      46.467  33.020  26.327  1.00  0.00     0.020 A 
ATOM     71  C   UNL A   1      44.704  34.500  27.074  1.00  0.00     0.020 A 
ATOM     72  C   UNL A   1      45.993  34.305  26.596  1.00  0.00     0.054 A 
BRANCH  72  73
ATOM     73  S   UNL A   1      47.104  35.719  26.405  1.00  0.00     0.124 S 
ATOM     74  O   UNL A   1      47.471  35.999  27.789  1.00  0.00    -0.237 OA
ATOM     75  O   UNL A   1      48.165  35.170  25.564  1.00  0.00    -0.237 OA
ATOM     76  O   UNL A   1      46.266  36.729  25.762  1.00  0.00    -0.744 OA
ENDBRANCH  72  73
ENDBRANCH  53  67
BRANCH  54  77
ATOM     77  C   UNL A   1      49.383  25.666  30.095  1.00  0.00    -0.014 A 
ATOM     78  C   UNL A   1      50.471  25.787  29.215  1.00  0.00     0.010 A 
ATOM     79  C   UNL A   1      49.662  25.579  31.476  1.00  0.00     0.010 A 
ATOM     80  C   UNL A   1      51.786  25.876  29.704  1.00  0.00     0.020 A 
ATOM     81  C   UNL A   1      50.967  25.655  31.970  1.00  0.00     0.020 A 
ATOM     82  C   UNL A   1      52.023  25.828  31.081  1.00  0.00     0.054 A 
BRANCH  82  83
ATOM     83  S   UNL A   1      53.698  26.125  31.714  1.00  0.00     0.124 S 
ATOM     84  O   UNL A   1      53.437  26.843  32.958  1.00  0.00    -0.237 OA
ATOM     85  O   UNL A   1      54.225  24.771  31.863  1.00  0.00    -0.237 OA
ATOM     86  O   UNL A   1      54.330  26.918  30.661  1.00  0.00    -0.744 OA
ENDBRANCH  82  83
ENDBRANCH  54  77
BRANCH  66  87
ATOM     87  C   UNL A   1      44.209  25.247  26.521  1.00  0.00    -0.014 A 
ATOM     88  C   UNL A   1      43.806  24.611  27.713  1.00  0.00     0.010 A 
ATOM     89  C   UNL A   1      43.934  24.611  25.299  1.00  0.00     0.010 A 
ATOM     90  C   UNL A   1      43.177  23.358  27.684  1.00  0.00     0.020 A 
ATOM     91  C   UNL A   1      43.291  23.369  25.261  1.00  0.00     0.020 A 
ATOM     92  C   UNL A   1      42.924  22.745  26.455  1.00  0.00     0.054 A 
BRANCH  92  93
ATOM     93  S   UNL A   1      42.057  21.150  26.423  1.00  0.00     0.124 S 
ATOM     94  O   UNL A   1      40.691  21.537  26.082  1.00  0.00    -0.237 OA
ATOM     95  O   UNL A   1      42.778  20.409  25.390  1.00  0.00    -0.237 OA
ATOM     96  O   UNL A   1      42.233  20.630  27.779  1.00  0.00    -0.744 OA
ENDBRANCH  92  93
ENDBRANCH  66  87
ENDBRANCH  40  41
ENDBRANCH  33  35
ENDBRANCH  32  33
ENDBRANCH  31  32
ENDBRANCH  30  31
ENDBRANCH  29  30
ENDBRANCH  28  29
ENDBRANCH   1  28
TORSDOF 24
ENDMDL
MODEL 3
REMARK VINA RESULT:      -9.4      1.452      2.891
REMARK SMILES COCc1cc(-n2cnc(C(=O)OCCOCCOCCOC(=O)c3ccc(-c4c5nc(c(-c6ccc(S(=O)(=O)[O-])cc6)c6ccc([nH]6)c(-c6ccc(S(=O)(=O)[O-])cc6)c6nc(c(-c7ccc(S(=O)(=O)[O-])cc7)c7ccc4[nH]7)C=C6)C=C5)cc3)c2)nc(-c2cccnc2)n1
REMARK SMILES IDX 17 1 16 2 15 3 14 4 13 5 11 6 12 7 10 8 7 9 8 10 85 11 9 12
REMARK SMILES IDX 6 13 4 14 5 15 94 16 87 17 86 18 3 19 2 20 1 21 88 22 89 23
REMARK SMILES IDX 93 24 90 25 92 26 91 27 18 28 19 29 20 30 21 31 22 32 23 33
REMARK SMILES IDX 24 34 25 35 26 36 84 37 27 38 83 39 28 40 29 41 30 42 77 43
REMARK SMILES IDX 31 44 82 45 76 46 78 47 32 48 81 49 75 50 74 51 33 53 63 54
REMARK SMILES IDX 44 55 62 56 45 57 48 58 61 59 79 60 46 61 47 62 60 64 80 65
REMARK SMILES IDX 49 66 34 67 35 68 43 69 36 70 42 71 37 72 38 73 39 74 40 75
REMARK SMILES IDX 41 76 64 77 65 78 73 79 66 80 72 81 67 82 68 83 69 84 70 85
REMARK SMILES IDX 71 86 50 87 51 88 59 89 52 90 58 91 53 92 54 93 55 94 56 95
REMARK SMILES IDX 57 96
REMARK H PARENT 78 52 48 63
REMARK Flexibility Score: inf
ROOT
ATOM      1  C   UNL A   1      34.968  23.408  25.983  1.00  0.00     0.188 C 
ENDROOT
BRANCH   1   2
ATOM      2  O   UNL A   1      34.757  24.474  25.062  1.00  0.00    -0.376 OA
BRANCH   2   3
ATOM      3  C   UNL A   1      33.582  25.268  25.148  1.00  0.00     0.202 C 
BRANCH   3   4
ATOM      4  C   UNL A   1      33.092  26.074  23.926  1.00  0.00     0.261 C 
BRANCH   4   5
ATOM      5  O   UNL A   1      33.024  27.497  24.105  1.00  0.00    -0.458 OA
BRANCH   5   6
ATOM      6  C   UNL A   1      32.015  27.966  24.897  1.00  0.00     0.358 C 
ATOM      7  O   UNL A   1      30.935  27.408  25.057  1.00  0.00    -0.244 OA
BRANCH   6   8
ATOM      8  C   UNL A   1      32.429  29.151  25.651  1.00  0.00     0.166 A 
ATOM      9  N   UNL A   1      33.453  30.533  27.036  1.00  0.00    -0.289 N 
ATOM     10  C   UNL A   1      32.225  31.033  26.686  1.00  0.00     0.206 A 
ATOM     11  C   UNL A   1      33.585  29.325  26.385  1.00  0.00     0.130 A 
ATOM     12  N   UNL A   1      31.603  30.252  25.832  1.00  0.00    -0.229 NA
BRANCH   9  13
ATOM     13  C   UNL A   1      34.430  31.127  27.868  1.00  0.00     0.142 A 
ATOM     14  C   UNL A   1      35.205  32.812  29.306  1.00  0.00     0.072 A 
ATOM     15  C   UNL A   1      34.215  32.361  28.446  1.00  0.00     0.074 A 
ATOM     16  N   UNL A   1      36.376  32.148  29.465  1.00  0.00    -0.230 NA
ATOM     17  C   UNL A   1      36.514  30.991  28.798  1.00  0.00     0.163 A 
ATOM     18  N   UNL A   1      35.564  30.424  28.042  1.00  0.00    -0.210 NA
BRANCH  14  19
ATOM     19  C   UNL A   1      34.999  34.077  30.115  1.00  0.00     0.216 C 
BRANCH  19  20
ATOM     20  O   UNL A   1      33.638  34.290  30.494  1.00  0.00    -0.378 OA
ATOM     21  C   UNL A   1      33.156  35.604  30.249  1.00  0.00     0.195 C 
ENDBRANCH  19  20
ENDBRANCH  14  19
BRANCH  17  22
ATOM     22  C   UNL A   1      37.832  30.381  28.720  1.00  0.00     0.038 A 
ATOM     23  C   UNL A   1      38.164  29.517  27.665  1.00  0.00     0.015 A 
ATOM     24  C   UNL A   1      38.807  30.588  29.687  1.00  0.00     0.123 A 
ATOM     25  C   UNL A   1      39.411  28.903  27.621  1.00  0.00     0.021 A 
ATOM     26  N   UNL A   1      40.031  29.998  29.680  1.00  0.00    -0.264 NA
ATOM     27  C   UNL A   1      40.300  29.168  28.648  1.00  0.00     0.111 A 
ENDBRANCH  17  22
ENDBRANCH   9  13
ENDBRANCH   6   8
ENDBRANCH   5   6
ENDBRANCH   4   5
ENDBRANCH   3   4
ENDBRANCH   2   3
ENDBRANCH   1   2
BRANCH   1  28
ATOM     28  C   UNL A   1      34.563  21.958  25.624  1.00  0.00     0.188 C 
BRANCH  28  29
ATOM     29  O   UNL A   1      35.644  21.044  25.579  1.00  0.00    -0.376 OA
BRANCH  29  30
ATOM     30  C   UNL A   1      36.854  21.435  24.949  1.00  0.00     0.202 C 
BRANCH  30  31
ATOM     31  C   UNL A   1      38.057  21.876  25.787  1.00  0.00     0.261 C 
BRANCH  31  32
ATOM     32  O   UNL A   1      38.473  23.217  25.605  1.00  0.00    -0.460 OA
BRANCH  32  33
ATOM     33  C   UNL A   1      39.049  23.786  26.682  1.00  0.00     0.338 C 
ATOM     34  O   UNL A   1      38.558  23.902  27.793  1.00  0.00    -0.246 OA
BRANCH  33  35
ATOM     35  C   UNL A   1      40.356  24.323  26.283  1.00  0.00     0.060 A 
ATOM     36  C   UNL A   1      41.430  23.434  26.327  1.00  0.00     0.016 A 
ATOM     37  C   UNL A   1      40.539  25.712  26.194  1.00  0.00     0.016 A 
ATOM     38  C   UNL A   1      42.681  23.950  26.563  1.00  0.00     0.010 A 
ATOM     39  C   UNL A   1      41.790  26.227  26.443  1.00  0.00     0.010 A 
ATOM     40  C   UNL A   1      42.812  25.332  26.738  1.00  0.00    -0.014 A 
BRANCH  40  41
ATOM     41  C   UNL A   1      44.025  25.798  27.366  1.00  0.00     0.031 A 
ATOM     42  C   UNL A   1      44.076  25.653  28.825  1.00  0.00     0.074 A 
ATOM     43  C   UNL A   1      45.032  26.338  26.656  1.00  0.00     0.049 A 
ATOM     44  N   UNL A   1      43.972  26.592  29.701  1.00  0.00    -0.248 NA
ATOM     45  C   UNL A   1      44.119  24.294  29.373  1.00  0.00     0.031 C 
ATOM     46  C   UNL A   1      45.238  26.333  25.206  1.00  0.00     0.029 A 
ATOM     47  N   UNL A   1      46.155  26.932  27.132  1.00  0.00    -0.354 N 
ATOM     48  C   UNL A   1      44.110  25.968  30.931  1.00  0.00     0.074 A 
ATOM     49  C   UNL A   1      44.046  24.548  30.679  1.00  0.00     0.031 C 
ATOM     50  C   UNL A   1      46.517  26.687  24.946  1.00  0.00     0.029 A 
ATOM     51  C   UNL A   1      47.162  27.070  26.193  1.00  0.00     0.049 A 
ATOM     52  H   UNL A   1      46.246  27.238  28.064  1.00  0.00     0.167 HD
ATOM     53  C   UNL A   1      44.469  26.653  32.048  1.00  0.00     0.031 A 
ATOM     54  C   UNL A   1      48.451  27.391  26.453  1.00  0.00     0.031 A 
ATOM     55  C   UNL A   1      44.408  28.079  31.867  1.00  0.00     0.049 A 
ATOM     56  C   UNL A   1      48.482  28.088  27.765  1.00  0.00     0.074 A 
ATOM     57  C   UNL A   1      43.401  28.980  31.589  1.00  0.00     0.029 A 
ATOM     58  N   UNL A   1      45.589  28.732  31.599  1.00  0.00    -0.354 N 
ATOM     59  N   UNL A   1      47.958  29.266  27.956  1.00  0.00    -0.248 NA
ATOM     60  C   UNL A   1      48.702  27.311  28.976  1.00  0.00     0.031 C 
ATOM     61  C   UNL A   1      44.000  29.963  30.750  1.00  0.00     0.029 A 
ATOM     62  C   UNL A   1      45.345  29.626  30.585  1.00  0.00     0.049 A 
ATOM     63  H   UNL A   1      46.452  28.585  32.051  1.00  0.00     0.167 HD
ATOM     64  C   UNL A   1      47.391  29.210  29.223  1.00  0.00     0.074 A 
ATOM     65  C   UNL A   1      47.984  28.031  29.847  1.00  0.00     0.031 C 
ATOM     66  C   UNL A   1      46.292  29.958  29.540  1.00  0.00     0.031 A 
BRANCH  53  67
ATOM     67  C   UNL A   1      45.211  26.020  33.187  1.00  0.00    -0.014 A 
ATOM     68  C   UNL A   1      45.720  24.718  33.039  1.00  0.00     0.010 A 
ATOM     69  C   UNL A   1      45.198  26.573  34.484  1.00  0.00     0.010 A 
ATOM     70  C   UNL A   1      46.152  23.986  34.151  1.00  0.00     0.020 A 
ATOM     71  C   UNL A   1      45.668  25.871  35.591  1.00  0.00     0.020 A 
ATOM     72  C   UNL A   1      46.106  24.564  35.422  1.00  0.00     0.054 A 
BRANCH  72  73
ATOM     73  S   UNL A   1      46.540  23.566  36.866  1.00  0.00     0.124 S 
ATOM     74  O   UNL A   1      47.014  22.334  36.245  1.00  0.00    -0.237 OA
ATOM     75  O   UNL A   1      47.559  24.385  37.517  1.00  0.00    -0.237 OA
ATOM     76  O   UNL A   1      45.278  23.455  37.595  1.00  0.00    -0.744 OA
ENDBRANCH  72  73
ENDBRANCH  53  67
BRANCH  54  77
ATOM     77  C   UNL A   1      49.650  26.834  25.784  1.00  0.00    -0.014 A 
ATOM     78  C   UNL A   1      50.210  27.456  24.656  1.00  0.00     0.010 A 
ATOM     79  C   UNL A   1      50.404  25.823  26.419  1.00  0.00     0.010 A 
ATOM     80  C   UNL A   1      51.501  27.118  24.214  1.00  0.00     0.020 A 
ATOM     81  C   UNL A   1      51.683  25.473  25.980  1.00  0.00     0.020 A 
ATOM     82  C   UNL A   1      52.237  26.141  24.893  1.00  0.00     0.054 A 
BRANCH  82  83
ATOM     83  S   UNL A   1      53.966  25.839  24.431  1.00  0.00     0.124 S 
ATOM     84  O   UNL A   1      54.200  24.500  24.965  1.00  0.00    -0.237 OA
ATOM     85  O   UNL A   1      53.929  25.943  22.975  1.00  0.00    -0.237 OA
ATOM     86  O   UNL A   1      54.696  26.911  25.106  1.00  0.00    -0.744 OA
ENDBRANCH  82  83
ENDBRANCH  54  77
BRANCH  66  87
ATOM     87  C   UNL A   1      45.870  31.040  28.568  1.00  0.00    -0.014 A 
ATOM     88  C   UNL A   1      46.395  32.348  28.606  1.00  0.00     0.010 A 
ATOM     89  C   UNL A   1      45.033  30.687  27.496  1.00  0.00     0.010 A 
ATOM     90  C   UNL A   1      46.064  33.286  27.618  1.00  0.00     0.020 A 
ATOM     91  C   UNL A   1      44.712  31.613  26.497  1.00  0.00     0.020 A 
ATOM     92  C   UNL A   1      45.222  32.911  26.569  1.00  0.00     0.054 A 
BRANCH  92  93
ATOM     93  S   UNL A   1      44.844  34.114  25.263  1.00  0.00     0.124 S 
ATOM     94  O   UNL A   1      46.160  34.664  24.946  1.00  0.00    -0.237 OA
ATOM     95  O   UNL A   1      44.241  33.286  24.221  1.00  0.00    -0.237 OA
ATOM     96  O   UNL A   1      43.922  35.049  25.907  1.00  0.00    -0.744 OA
ENDBRANCH  92  93
ENDBRANCH  66  87
ENDBRANCH  40  41
ENDBRANCH  33  35
ENDBRANCH  32  33
ENDBRANCH  31  32
ENDBRANCH  30  31
ENDBRANCH  29  30
ENDBRANCH  28  29
ENDBRANCH   1  28
TORSDOF 24
ENDMDL
