MODEL 1
REMARK VINA RESULT:      -9.4      0.000      0.000
REMARK SMILES COc1ccc(-n2nc(C(=O)OCCOCCOCCOC(=O)c3ccc(-c4c5nc(c(-c6ccc(S(=O)(=O)[O-])cc6)c6ccc([nH]6)c(-c6ccc(S(=O)(=O)[O-])cc6)c6nc(c(-c7ccc(S(=O)(=O)[O-])cc7)c7ccc4[nH]7)C=C6)C=C5)cc3)c(=O)cc2C)cc1
REMARK SMILES IDX 17 1 16 2 15 3 14 4 13 5 12 6 10 7 11 8 9 9 7 10 8 11 87 12
REMARK SMILES IDX 86 13 88 14 84 15 85 16 6 17 3 18 4 19 90 20 5 21 89 22 2 23
REMARK SMILES IDX 1 24 18 25 19 26 20 27 21 28 22 29 23 30 24 31 25 32 83 33
REMARK SMILES IDX 26 34 82 35 27 36 28 37 29 38 76 39 30 40 81 41 75 42 77 43
REMARK SMILES IDX 31 44 80 45 74 46 73 47 32 49 62 50 43 51 61 52 44 53 47 54
REMARK SMILES IDX 60 55 78 56 45 57 46 58 59 60 79 61 48 62 33 63 34 64 42 65
REMARK SMILES IDX 35 66 41 67 36 68 37 69 38 70 39 71 40 72 63 73 64 74 72 75
REMARK SMILES IDX 65 76 71 77 66 78 67 79 68 80 69 81 70 82 49 83 50 84 58 85
REMARK SMILES IDX 51 86 57 87 52 88 53 89 54 90 55 91 56 92
REMARK H PARENT 77 48 47 59
REMARK Flexibility Score: inf
ROOT
ATOM      1  C   UNL A   1      37.900  22.546  25.704  1.00  0.00     0.188 C 
ENDROOT
BRANCH   1   2
ATOM      2  C   UNL A   1      36.679  21.620  25.506  1.00  0.00     0.188 C 
BRANCH   2   3
ATOM      3  O   UNL A   1      35.367  22.170  25.629  1.00  0.00    -0.376 OA
BRANCH   3   4
ATOM      4  C   UNL A   1      34.792  22.323  26.924  1.00  0.00     0.202 C 
BRANCH   4   5
ATOM      5  C   UNL A   1      33.411  21.708  27.183  1.00  0.00     0.261 C 
BRANCH   5   6
ATOM      6  O   UNL A   1      32.795  21.225  25.982  1.00  0.00    -0.458 OA
BRANCH   6   7
ATOM      7  C   UNL A   1      31.722  21.923  25.549  1.00  0.00     0.363 C 
ATOM      8  O   UNL A   1      30.587  21.873  25.957  1.00  0.00    -0.244 OA
BRANCH   7   9
ATOM      9  C   UNL A   1      32.154  22.882  24.457  1.00  0.00     0.216 A 
ATOM     10  N   UNL A   1      32.650  25.025  23.794  1.00  0.00    -0.237 N 
ATOM     11  N   UNL A   1      32.348  24.129  24.792  1.00  0.00    -0.156 NA
ATOM     12  C   UNL A   1      32.775  24.678  22.444  1.00  0.00     0.044 A 
ATOM     13  C   UNL A   1      32.665  23.407  22.030  1.00  0.00     0.078 A 
ATOM     14  C   UNL A   1      33.045  25.741  21.404  1.00  0.00     0.067 C 
ATOM     15  C   UNL A   1      32.339  22.402  23.046  1.00  0.00     0.215 A 
ATOM     16  O   UNL A   1      32.206  21.221  22.760  1.00  0.00    -0.287 OA
BRANCH  10  17
ATOM     17  C   UNL A   1      32.692  26.375  24.242  1.00  0.00     0.065 A 
ATOM     18  C   UNL A   1      32.720  29.010  25.236  1.00  0.00     0.119 A 
ATOM     19  C   UNL A   1      31.662  28.566  24.440  1.00  0.00     0.048 A 
ATOM     20  C   UNL A   1      33.768  28.140  25.535  1.00  0.00     0.048 A 
ATOM     21  C   UNL A   1      31.654  27.263  23.932  1.00  0.00     0.032 A 
ATOM     22  C   UNL A   1      33.753  26.830  25.038  1.00  0.00     0.032 A 
BRANCH  18  23
ATOM     23  O   UNL A   1      32.602  30.284  25.719  1.00  0.00    -0.497 OA
ATOM     24  C   UNL A   1      31.906  30.405  26.955  1.00  0.00     0.278 C 
ENDBRANCH  18  23
ENDBRANCH  10  17
ENDBRANCH   7   9
ENDBRANCH   6   7
ENDBRANCH   5   6
ENDBRANCH   4   5
ENDBRANCH   3   4
ENDBRANCH   2   3
ENDBRANCH   1   2
BRANCH   1  25
ATOM     25  O   UNL A   1      39.100  21.848  25.955  1.00  0.00    -0.376 OA
BRANCH  25  26
ATOM     26  C   UNL A   1      40.083  22.445  26.783  1.00  0.00     0.202 C 
BRANCH  26  27
ATOM     27  C   UNL A   1      41.436  22.950  26.244  1.00  0.00     0.261 C 
BRANCH  27  28
ATOM     28  O   UNL A   1      42.020  24.098  26.869  1.00  0.00    -0.460 OA
BRANCH  28  29
ATOM     29  C   UNL A   1      41.714  25.308  26.347  1.00  0.00     0.338 C 
ATOM     30  O   UNL A   1      41.546  25.580  25.173  1.00  0.00    -0.246 OA
BRANCH  29  31
ATOM     31  C   UNL A   1      41.434  26.222  27.474  1.00  0.00     0.060 A 
ATOM     32  C   UNL A   1      42.200  27.387  27.605  1.00  0.00     0.016 A 
ATOM     33  C   UNL A   1      40.416  25.937  28.389  1.00  0.00     0.016 A 
ATOM     34  C   UNL A   1      41.957  28.263  28.665  1.00  0.00     0.010 A 
ATOM     35  C   UNL A   1      40.188  26.809  29.460  1.00  0.00     0.010 A 
ATOM     36  C   UNL A   1      40.969  27.967  29.612  1.00  0.00    -0.014 A 
BRANCH  36  37
ATOM     37  C   UNL A   1      40.859  28.790  30.841  1.00  0.00     0.031 A 
ATOM     38  C   UNL A   1      39.804  29.863  30.898  1.00  0.00     0.074 A 
ATOM     39  C   UNL A   1      41.660  28.574  31.901  1.00  0.00     0.049 A 
ATOM     40  N   UNL A   1      39.549  30.725  31.846  1.00  0.00    -0.248 NA
ATOM     41  C   UNL A   1      38.917  29.970  29.728  1.00  0.00     0.031 C 
ATOM     42  C   UNL A   1      42.675  27.527  31.996  1.00  0.00     0.029 A 
ATOM     43  N   UNL A   1      41.742  29.235  33.102  1.00  0.00    -0.354 N 
ATOM     44  C   UNL A   1      38.476  31.480  31.391  1.00  0.00     0.074 A 
ATOM     45  C   UNL A   1      38.144  30.990  30.070  1.00  0.00     0.031 C 
ATOM     46  C   UNL A   1      43.289  27.624  33.190  1.00  0.00     0.029 A 
ATOM     47  C   UNL A   1      42.735  28.759  33.926  1.00  0.00     0.049 A 
ATOM     48  H   UNL A   1      41.146  29.978  33.350  1.00  0.00     0.167 HD
ATOM     49  C   UNL A   1      37.824  32.489  32.014  1.00  0.00     0.031 A 
ATOM     50  C   UNL A   1      43.165  29.206  35.122  1.00  0.00     0.031 A 
ATOM     51  C   UNL A   1      38.171  32.992  33.316  1.00  0.00     0.049 A 
ATOM     52  C   UNL A   1      42.490  30.399  35.753  1.00  0.00     0.074 A 
ATOM     53  C   UNL A   1      37.570  34.012  34.032  1.00  0.00     0.029 A 
ATOM     54  N   UNL A   1      39.217  32.520  34.094  1.00  0.00    -0.354 N 
ATOM     55  N   UNL A   1      41.468  31.095  35.316  1.00  0.00    -0.248 NA
ATOM     56  C   UNL A   1      43.026  30.862  37.041  1.00  0.00     0.031 C 
ATOM     57  C   UNL A   1      38.291  34.198  35.216  1.00  0.00     0.029 A 
ATOM     58  C   UNL A   1      39.301  33.250  35.268  1.00  0.00     0.049 A 
ATOM     59  H   UNL A   1      39.814  31.777  33.847  1.00  0.00     0.167 HD
ATOM     60  C   UNL A   1      41.222  32.061  36.288  1.00  0.00     0.074 A 
ATOM     61  C   UNL A   1      42.193  31.851  37.341  1.00  0.00     0.031 C 
ATOM     62  C   UNL A   1      40.275  33.032  36.308  1.00  0.00     0.031 A 
BRANCH  49  63
ATOM     63  C   UNL A   1      36.695  33.148  31.268  1.00  0.00    -0.014 A 
ATOM     64  C   UNL A   1      36.924  33.855  30.074  1.00  0.00     0.010 A 
ATOM     65  C   UNL A   1      35.380  33.032  31.755  1.00  0.00     0.010 A 
ATOM     66  C   UNL A   1      35.863  34.467  29.402  1.00  0.00     0.020 A 
ATOM     67  C   UNL A   1      34.313  33.622  31.073  1.00  0.00     0.020 A 
ATOM     68  C   UNL A   1      34.564  34.350  29.907  1.00  0.00     0.054 A 
BRANCH  68  69
ATOM     69  S   UNL A   1      33.203  35.141  29.007  1.00  0.00     0.124 S 
ATOM     70  O   UNL A   1      32.286  35.485  30.091  1.00  0.00    -0.237 OA
ATOM     71  O   UNL A   1      33.862  36.272  28.360  1.00  0.00    -0.237 OA
ATOM     72  O   UNL A   1      32.732  34.097  28.100  1.00  0.00    -0.744 OA
ENDBRANCH  68  69
ENDBRANCH  49  63
BRANCH  50  73
ATOM     73  C   UNL A   1      44.318  28.546  35.795  1.00  0.00    -0.014 A 
ATOM     74  C   UNL A   1      44.117  27.475  36.685  1.00  0.00     0.010 A 
ATOM     75  C   UNL A   1      45.630  28.998  35.558  1.00  0.00     0.010 A 
ATOM     76  C   UNL A   1      45.203  26.881  37.335  1.00  0.00     0.020 A 
ATOM     77  C   UNL A   1      46.720  28.388  36.185  1.00  0.00     0.020 A 
ATOM     78  C   UNL A   1      46.499  27.340  37.079  1.00  0.00     0.054 A 
BRANCH  78  79
ATOM     79  S   UNL A   1      47.896  26.523  37.901  1.00  0.00     0.124 S 
ATOM     80  O   UNL A   1      47.509  25.117  37.831  1.00  0.00    -0.237 OA
ATOM     81  O   UNL A   1      49.026  26.910  37.060  1.00  0.00    -0.237 OA
ATOM     82  O   UNL A   1      47.894  27.107  39.241  1.00  0.00    -0.744 OA
ENDBRANCH  78  79
ENDBRANCH  50  73
BRANCH  62  83
ATOM     83  C   UNL A   1      40.216  33.925  37.520  1.00  0.00    -0.014 A 
ATOM     84  C   UNL A   1      39.407  33.606  38.625  1.00  0.00     0.010 A 
ATOM     85  C   UNL A   1      41.030  35.072  37.577  1.00  0.00     0.010 A 
ATOM     86  C   UNL A   1      39.391  34.433  39.752  1.00  0.00     0.020 A 
ATOM     87  C   UNL A   1      41.038  35.886  38.713  1.00  0.00     0.020 A 
ATOM     88  C   UNL A   1      40.207  35.569  39.788  1.00  0.00     0.054 A 
BRANCH  88  89
ATOM     89  S   UNL A   1      40.201  36.602  41.280  1.00  0.00     0.124 S 
ATOM     90  O   UNL A   1      41.348  37.475  41.049  1.00  0.00    -0.237 OA
ATOM     91  O   UNL A   1      38.893  37.250  41.217  1.00  0.00    -0.237 OA
ATOM     92  O   UNL A   1      40.361  35.640  42.368  1.00  0.00    -0.744 OA
ENDBRANCH  88  89
ENDBRANCH  62  83
ENDBRANCH  36  37
ENDBRANCH  29  31
ENDBRANCH  28  29
ENDBRANCH  27  28
ENDBRANCH  26  27
ENDBRANCH  25  26
ENDBRANCH   1  25
TORSDOF 22
ENDMDL
MODEL 2
REMARK VINA RESULT:      -9.4      5.122      6.713
REMARK SMILES COc1ccc(-n2nc(C(=O)OCCOCCOCCOC(=O)c3ccc(-c4c5nc(c(-c6ccc(S(=O)(=O)[O-])cc6)c6ccc([nH]6)c(-c6ccc(S(=O)(=O)[O-])cc6)c6nc(c(-c7ccc(S(=O)(=O)[O-])cc7)c7ccc4[nH]7)C=C6)C=C5)cc3)c(=O)cc2C)cc1
REMARK SMILES IDX 17 1 16 2 15 3 14 4 13 5 12 6 10 7 11 8 9 9 7 10 8 11 87 12
REMARK SMILES IDX 86 13 88 14 84 15 85 16 6 17 3 18 4 19 90 20 5 21 89 22 2 23
REMARK SMILES IDX 1 24 18 25 19 26 20 27 21 28 22 29 23 30 24 31 25 32 83 33
REMARK SMILES IDX 26 34 82 35 27 36 28 37 29 38 76 39 30 40 81 41 75 42 77 43
REMARK SMILES IDX 31 44 80 45 74 46 73 47 32 49 62 50 43 51 61 52 44 53 47 54
REMARK SMILES IDX 60 55 78 56 45 57 46 58 59 60 79 61 48 62 33 63 34 64 42 65
REMARK SMILES IDX 35 66 41 67 36 68 37 69 38 70 39 71 40 72 63 73 64 74 72 75
REMARK SMILES IDX 65 76 71 77 66 78 67 79 68 80 69 81 70 82 49 83 50 84 58 85
REMARK SMILES IDX 51 86 57 87 52 88 53 89 54 90 55 91 56 92
REMARK H PARENT 77 48 47 59
REMARK Flexibility Score: inf
ROOT
ATOM      1  C   UNL A   1      34.388  23.409  23.102  1.00  0.00     0.188 C 
ENDROOT
BRANCH   1   2
ATOM      2  C   UNL A   1      33.459  22.242  23.508  1.00  0.00     0.188 C 
BRANCH   2   3
ATOM      3  O   UNL A   1      33.846  21.396  24.590  1.00  0.00    -0.376 OA
BRANCH   3   4
ATOM      4  C   UNL A   1      32.990  21.276  25.723  1.00  0.00     0.202 C 
BRANCH   4   5
ATOM      5  C   UNL A   1      33.358  22.044  26.999  1.00  0.00     0.261 C 
BRANCH   5   6
ATOM      6  O   UNL A   1      33.221  23.462  26.841  1.00  0.00    -0.458 OA
BRANCH   6   7
ATOM      7  C   UNL A   1      31.954  23.931  26.817  1.00  0.00     0.363 C 
ATOM      8  O   UNL A   1      30.999  23.530  27.436  1.00  0.00    -0.244 OA
BRANCH   7   9
ATOM      9  C   UNL A   1      31.885  25.140  25.903  1.00  0.00     0.216 A 
ATOM     10  N   UNL A   1      32.352  27.356  25.523  1.00  0.00    -0.237 N 
ATOM     11  N   UNL A   1      32.486  26.229  26.298  1.00  0.00    -0.156 NA
ATOM     12  C   UNL A   1      31.620  27.403  24.331  1.00  0.00     0.044 A 
ATOM     13  C   UNL A   1      31.036  26.309  23.820  1.00  0.00     0.078 A 
ATOM     14  C   UNL A   1      31.471  28.704  23.576  1.00  0.00     0.067 C 
ATOM     15  C   UNL A   1      31.139  25.073  24.601  1.00  0.00     0.215 A 
ATOM     16  O   UNL A   1      30.627  24.030  24.221  1.00  0.00    -0.287 OA
BRANCH  10  17
ATOM     17  C   UNL A   1      32.917  28.520  26.117  1.00  0.00     0.065 A 
ATOM     18  C   UNL A   1      34.005  30.775  27.406  1.00  0.00     0.119 A 
ATOM     19  C   UNL A   1      32.680  30.784  26.967  1.00  0.00     0.048 A 
ATOM     20  C   UNL A   1      34.791  29.642  27.200  1.00  0.00     0.048 A 
ATOM     21  C   UNL A   1      32.141  29.670  26.313  1.00  0.00     0.032 A 
ATOM     22  C   UNL A   1      34.248  28.522  26.557  1.00  0.00     0.032 A 
BRANCH  18  23
ATOM     23  O   UNL A   1      34.412  31.896  28.076  1.00  0.00    -0.497 OA
ATOM     24  C   UNL A   1      33.481  32.973  28.084  1.00  0.00     0.278 C 
ENDBRANCH  18  23
ENDBRANCH  10  17
ENDBRANCH   7   9
ENDBRANCH   6   7
ENDBRANCH   5   6
ENDBRANCH   4   5
ENDBRANCH   3   4
ENDBRANCH   2   3
ENDBRANCH   1   2
BRANCH   1  25
ATOM     25  O   UNL A   1      35.726  23.014  22.889  1.00  0.00    -0.376 OA
BRANCH  25  26
ATOM     26  C   UNL A   1      36.701  23.333  23.867  1.00  0.00     0.202 C 
BRANCH  26  27
ATOM     27  C   UNL A   1      36.351  23.998  25.213  1.00  0.00     0.261 C 
BRANCH  27  28
ATOM     28  O   UNL A   1      37.021  23.527  26.387  1.00  0.00    -0.460 OA
BRANCH  28  29
ATOM     29  C   UNL A   1      38.263  23.015  26.227  1.00  0.00     0.338 C 
ATOM     30  O   UNL A   1      38.559  21.958  25.702  1.00  0.00    -0.246 OA
BRANCH  29  31
ATOM     31  C   UNL A   1      39.230  24.054  26.639  1.00  0.00     0.060 A 
ATOM     32  C   UNL A   1      39.621  24.117  27.982  1.00  0.00     0.016 A 
ATOM     33  C   UNL A   1      39.755  24.953  25.706  1.00  0.00     0.016 A 
ATOM     34  C   UNL A   1      40.530  25.093  28.397  1.00  0.00     0.010 A 
ATOM     35  C   UNL A   1      40.651  25.940  26.128  1.00  0.00     0.010 A 
ATOM     36  C   UNL A   1      41.029  26.025  27.479  1.00  0.00    -0.014 A 
BRANCH  36  37
ATOM     37  C   UNL A   1      41.826  27.179  27.963  1.00  0.00     0.031 A 
ATOM     38  C   UNL A   1      41.105  28.339  28.594  1.00  0.00     0.074 A 
ATOM     39  C   UNL A   1      43.169  27.188  27.872  1.00  0.00     0.049 A 
ATOM     40  N   UNL A   1      41.587  29.465  29.051  1.00  0.00    -0.248 NA
ATOM     41  C   UNL A   1      39.645  28.207  28.731  1.00  0.00     0.031 C 
ATOM     42  C   UNL A   1      43.989  26.100  27.341  1.00  0.00     0.029 A 
ATOM     43  N   UNL A   1      44.078  28.155  28.223  1.00  0.00    -0.354 N 
ATOM     44  C   UNL A   1      40.494  30.177  29.527  1.00  0.00     0.074 A 
ATOM     45  C   UNL A   1      39.320  29.367  29.281  1.00  0.00     0.031 C 
ATOM     46  C   UNL A   1      45.283  26.466  27.392  1.00  0.00     0.029 A 
ATOM     47  C   UNL A   1      45.378  27.825  27.923  1.00  0.00     0.049 A 
ATOM     48  H   UNL A   1      43.822  29.004  28.651  1.00  0.00     0.167 HD
ATOM     49  C   UNL A   1      40.467  31.396  30.117  1.00  0.00     0.031 A 
ATOM     50  C   UNL A   1      46.511  28.547  28.038  1.00  0.00     0.031 A 
ATOM     51  C   UNL A   1      41.630  32.211  30.338  1.00  0.00     0.049 A 
ATOM     52  C   UNL A   1      46.444  29.944  28.603  1.00  0.00     0.074 A 
ATOM     53  C   UNL A   1      41.705  33.461  30.929  1.00  0.00     0.029 A 
ATOM     54  N   UNL A   1      42.921  31.865  29.970  1.00  0.00    -0.354 N 
ATOM     55  N   UNL A   1      45.404  30.600  29.062  1.00  0.00    -0.248 NA
ATOM     56  C   UNL A   1      47.705  30.696  28.670  1.00  0.00     0.031 C 
ATOM     57  C   UNL A   1      43.033  33.896  30.862  1.00  0.00     0.029 A 
ATOM     58  C   UNL A   1      43.795  32.891  30.289  1.00  0.00     0.049 A 
ATOM     59  H   UNL A   1      43.178  31.017  29.542  1.00  0.00     0.167 HD
ATOM     60  C   UNL A   1      45.891  31.830  29.495  1.00  0.00     0.074 A 
ATOM     61  C   UNL A   1      47.319  31.821  29.257  1.00  0.00     0.031 C 
ATOM     62  C   UNL A   1      45.216  32.871  30.045  1.00  0.00     0.031 A 
BRANCH  49  63
ATOM     63  C   UNL A   1      39.123  31.938  30.522  1.00  0.00    -0.014 A 
ATOM     64  C   UNL A   1      38.630  31.769  31.828  1.00  0.00     0.010 A 
ATOM     65  C   UNL A   1      38.352  32.653  29.586  1.00  0.00     0.010 A 
ATOM     66  C   UNL A   1      37.375  32.271  32.180  1.00  0.00     0.020 A 
ATOM     67  C   UNL A   1      37.107  33.179  29.942  1.00  0.00     0.020 A 
ATOM     68  C   UNL A   1      36.619  32.970  31.234  1.00  0.00     0.054 A 
BRANCH  68  69
ATOM     69  S   UNL A   1      35.000  33.626  31.722  1.00  0.00     0.124 S 
ATOM     70  O   UNL A   1      34.173  32.422  31.710  1.00  0.00    -0.237 OA
ATOM     71  O   UNL A   1      35.268  34.189  33.042  1.00  0.00    -0.237 OA
ATOM     72  O   UNL A   1      34.692  34.603  30.681  1.00  0.00    -0.744 OA
ENDBRANCH  68  69
ENDBRANCH  49  63
BRANCH  50  73
ATOM     73  C   UNL A   1      47.808  27.979  27.577  1.00  0.00    -0.014 A 
ATOM     74  C   UNL A   1      48.661  27.310  28.473  1.00  0.00     0.010 A 
ATOM     75  C   UNL A   1      48.205  28.119  26.233  1.00  0.00     0.010 A 
ATOM     76  C   UNL A   1      49.890  26.806  28.038  1.00  0.00     0.020 A 
ATOM     77  C   UNL A   1      49.421  27.592  25.790  1.00  0.00     0.020 A 
ATOM     78  C   UNL A   1      50.262  26.948  26.699  1.00  0.00     0.054 A 
BRANCH  78  79
ATOM     79  S   UNL A   1      51.843  26.246  26.149  1.00  0.00     0.124 S 
ATOM     80  O   UNL A   1      52.799  26.946  27.001  1.00  0.00    -0.237 OA
ATOM     81  O   UNL A   1      51.670  24.823  26.429  1.00  0.00    -0.237 OA
ATOM     82  O   UNL A   1      51.896  26.593  24.730  1.00  0.00    -0.744 OA
ENDBRANCH  78  79
ENDBRANCH  50  73
BRANCH  62  83
ATOM     83  C   UNL A   1      46.015  34.080  30.460  1.00  0.00    -0.014 A 
ATOM     84  C   UNL A   1      46.601  34.166  31.734  1.00  0.00     0.010 A 
ATOM     85  C   UNL A   1      46.230  35.119  29.536  1.00  0.00     0.010 A 
ATOM     86  C   UNL A   1      47.364  35.283  32.088  1.00  0.00     0.020 A 
ATOM     87  C   UNL A   1      47.015  36.225  29.876  1.00  0.00     0.020 A 
ATOM     88  C   UNL A   1      47.565  36.306  31.155  1.00  0.00     0.054 A 
BRANCH  88  89
ATOM     89  S   UNL A   1      48.595  37.725  31.623  1.00  0.00     0.124 S 
ATOM     90  O   UNL A   1      47.943  38.183  32.847  1.00  0.00    -0.237 OA
ATOM     91  O   UNL A   1      49.913  37.121  31.801  1.00  0.00    -0.237 OA
ATOM     92  O   UNL A   1      48.479  38.628  30.481  1.00  0.00    -0.744 OA
ENDBRANCH  88  89
ENDBRANCH  62  83
ENDBRANCH  36  37
ENDBRANCH  29  31
ENDBRANCH  28  29
ENDBRANCH  27  28
ENDBRANCH  26  27
ENDBRANCH  25  26
ENDBRANCH   1  25
TORSDOF 22
ENDMDL
MODEL 3
REMARK VINA RESULT:      -9.3      5.916      8.197
REMARK SMILES COc1ccc(-n2nc(C(=O)OCCOCCOCCOC(=O)c3ccc(-c4c5nc(c(-c6ccc(S(=O)(=O)[O-])cc6)c6ccc([nH]6)c(-c6ccc(S(=O)(=O)[O-])cc6)c6nc(c(-c7ccc(S(=O)(=O)[O-])cc7)c7ccc4[nH]7)C=C6)C=C5)cc3)c(=O)cc2C)cc1
REMARK SMILES IDX 17 1 16 2 15 3 14 4 13 5 12 6 10 7 11 8 9 9 7 10 8 11 87 12
REMARK SMILES IDX 86 13 88 14 84 15 85 16 6 17 3 18 4 19 90 20 5 21 89 22 2 23
REMARK SMILES IDX 1 24 18 25 19 26 20 27 21 28 22 29 23 30 24 31 25 32 83 33
REMARK SMILES IDX 26 34 82 35 27 36 28 37 29 38 76 39 30 40 81 41 75 42 77 43
REMARK SMILES IDX 31 44 80 45 74 46 73 47 32 49 62 50 43 51 61 52 44 53 47 54
REMARK SMILES IDX 60 55 78 56 45 57 46 58 59 60 79 61 48 62 33 63 34 64 42 65
REMARK SMILES IDX 35 66 41 67 36 68 37 69 38 70 39 71 40 72 63 73 64 74 72 75
REMARK SMILES IDX 65 76 71 77 66 78 67 79 68 80 69 81 70 82 49 83 50 84 58 85
REMARK SMILES IDX 51 86 57 87 52 88 53 89 54 90 55 91 56 92
REMARK H PARENT 77 48 47 59
REMARK Flexibility Score: inf
ROOT
ATOM      1  C   UNL A   1      36.909  21.673  24.487  1.00  0.00     0.188 C 
ENDROOT
BRANCH   1   2
ATOM      2  C   UNL A   1      35.410  21.312  24.588  1.00  0.00     0.188 C 
BRANCH   2   3
ATOM      3  O   UNL A   1      35.043  19.989  24.980  1.00  0.00    -0.376 OA
BRANCH   3   4
ATOM      4  C   UNL A   1      33.760  19.484  24.619  1.00  0.00     0.202 C 
BRANCH   4   5
ATOM      5  C   UNL A   1      32.533  20.006  25.377  1.00  0.00     0.261 C 
BRANCH   5   6
ATOM      6  O   UNL A   1      32.658  21.390  25.731  1.00  0.00    -0.458 OA
BRANCH   6   7
ATOM      7  C   UNL A   1      31.597  22.172  25.432  1.00  0.00     0.363 C 
ATOM      8  O   UNL A   1      30.456  22.052  25.806  1.00  0.00    -0.244 OA
BRANCH   7   9
ATOM      9  C   UNL A   1      32.055  23.327  24.563  1.00  0.00     0.216 A 
ATOM     10  N   UNL A   1      32.550  25.559  24.347  1.00  0.00    -0.237 N 
ATOM     11  N   UNL A   1      32.225  24.485  25.140  1.00  0.00    -0.156 NA
ATOM     12  C   UNL A   1      32.720  25.484  22.959  1.00  0.00     0.044 A 
ATOM     13  C   UNL A   1      32.635  24.317  22.303  1.00  0.00     0.078 A 
ATOM     14  C   UNL A   1      33.012  26.729  22.156  1.00  0.00     0.067 C 
ATOM     15  C   UNL A   1      32.288  23.132  23.092  1.00  0.00     0.215 A 
ATOM     16  O   UNL A   1      32.176  22.029  22.577  1.00  0.00    -0.287 OA
BRANCH  10  17
ATOM     17  C   UNL A   1      32.564  26.797  25.050  1.00  0.00     0.065 A 
ATOM     18  C   UNL A   1      32.508  29.197  26.522  1.00  0.00     0.119 A 
ATOM     19  C   UNL A   1      31.677  29.029  25.413  1.00  0.00     0.048 A 
ATOM     20  C   UNL A   1      33.370  28.167  26.898  1.00  0.00     0.048 A 
ATOM     21  C   UNL A   1      31.715  27.844  24.670  1.00  0.00     0.032 A 
ATOM     22  C   UNL A   1      33.398  26.975  26.163  1.00  0.00     0.032 A 
BRANCH  18  23
ATOM     23  O   UNL A   1      32.354  30.373  27.203  1.00  0.00    -0.497 OA
ATOM     24  C   UNL A   1      31.498  31.328  26.584  1.00  0.00     0.278 C 
ENDBRANCH  18  23
ENDBRANCH  10  17
ENDBRANCH   7   9
ENDBRANCH   6   7
ENDBRANCH   5   6
ENDBRANCH   4   5
ENDBRANCH   3   4
ENDBRANCH   2   3
ENDBRANCH   1   2
BRANCH   1  25
ATOM     25  O   UNL A   1      37.765  20.558  24.609  1.00  0.00    -0.376 OA
BRANCH  25  26
ATOM     26  C   UNL A   1      38.864  20.628  25.502  1.00  0.00     0.202 C 
BRANCH  26  27
ATOM     27  C   UNL A   1      39.765  19.418  25.816  1.00  0.00     0.261 C 
BRANCH  27  28
ATOM     28  O   UNL A   1      40.852  19.610  26.728  1.00  0.00    -0.460 OA
BRANCH  28  29
ATOM     29  C   UNL A   1      42.082  19.784  26.195  1.00  0.00     0.338 C 
ATOM     30  O   UNL A   1      42.680  19.017  25.463  1.00  0.00    -0.246 OA
BRANCH  29  31
ATOM     31  C   UNL A   1      42.513  21.163  26.507  1.00  0.00     0.060 A 
ATOM     32  C   UNL A   1      42.715  22.062  25.452  1.00  0.00     0.016 A 
ATOM     33  C   UNL A   1      42.707  21.569  27.831  1.00  0.00     0.016 A 
ATOM     34  C   UNL A   1      43.128  23.368  25.722  1.00  0.00     0.010 A 
ATOM     35  C   UNL A   1      43.137  22.873  28.095  1.00  0.00     0.010 A 
ATOM     36  C   UNL A   1      43.366  23.774  27.041  1.00  0.00    -0.014 A 
BRANCH  36  37
ATOM     37  C   UNL A   1      43.999  25.090  27.302  1.00  0.00     0.031 A 
ATOM     38  C   UNL A   1      43.143  26.209  27.830  1.00  0.00     0.074 A 
ATOM     39  C   UNL A   1      45.315  25.283  27.102  1.00  0.00     0.049 A 
ATOM     40  N   UNL A   1      43.468  27.448  28.094  1.00  0.00    -0.248 NA
ATOM     41  C   UNL A   1      41.733  25.883  28.102  1.00  0.00     0.031 C 
ATOM     42  C   UNL A   1      46.264  24.264  26.655  1.00  0.00     0.029 A 
ATOM     43  N   UNL A   1      46.080  26.415  27.248  1.00  0.00    -0.354 N 
ATOM     44  C   UNL A   1      42.306  28.051  28.558  1.00  0.00     0.074 A 
ATOM     45  C   UNL A   1      41.262  27.049  28.518  1.00  0.00     0.031 C 
ATOM     46  C   UNL A   1      47.484  24.821  26.552  1.00  0.00     0.029 A 
ATOM     47  C   UNL A   1      47.396  26.241  26.889  1.00  0.00     0.049 A 
ATOM     48  H   UNL A   1      45.719  27.269  27.579  1.00  0.00     0.167 HD
ATOM     49  C   UNL A   1      42.123  29.324  28.983  1.00  0.00     0.031 A 
ATOM     50  C   UNL A   1      48.405  27.131  26.816  1.00  0.00     0.031 A 
ATOM     51  C   UNL A   1      43.155  30.326  28.999  1.00  0.00     0.049 A 
ATOM     52  C   UNL A   1      48.153  28.570  27.195  1.00  0.00     0.074 A 
ATOM     53  C   UNL A   1      43.067  31.644  29.411  1.00  0.00     0.029 A 
ATOM     54  N   UNL A   1      44.460  30.125  28.577  1.00  0.00    -0.354 N 
ATOM     55  N   UNL A   1      47.052  29.124  27.646  1.00  0.00    -0.248 NA
ATOM     56  C   UNL A   1      49.282  29.501  27.059  1.00  0.00     0.031 C 
ATOM     57  C   UNL A   1      44.303  32.256  29.180  1.00  0.00     0.029 A 
ATOM     58  C   UNL A   1      45.179  31.303  28.685  1.00  0.00     0.049 A 
ATOM     59  H   UNL A   1      44.822  29.271  28.245  1.00  0.00     0.167 HD
ATOM     60  C   UNL A   1      47.364  30.461  27.872  1.00  0.00     0.074 A 
ATOM     61  C   UNL A   1      48.759  30.630  27.522  1.00  0.00     0.031 C 
ATOM     62  C   UNL A   1      46.568  31.459  28.332  1.00  0.00     0.031 A 
BRANCH  49  63
ATOM     63  C   UNL A   1      40.737  29.714  29.420  1.00  0.00    -0.014 A 
ATOM     64  C   UNL A   1      39.670  29.764  28.505  1.00  0.00     0.010 A 
ATOM     65  C   UNL A   1      40.493  30.006  30.774  1.00  0.00     0.010 A 
ATOM     66  C   UNL A   1      38.393  30.139  28.929  1.00  0.00     0.020 A 
ATOM     67  C   UNL A   1      39.211  30.356  31.208  1.00  0.00     0.020 A 
ATOM     68  C   UNL A   1      38.172  30.436  30.278  1.00  0.00     0.054 A 
BRANCH  68  69
ATOM     69  S   UNL A   1      36.501  30.903  30.806  1.00  0.00     0.124 S 
ATOM     70  O   UNL A   1      35.814  31.059  29.526  1.00  0.00    -0.237 OA
ATOM     71  O   UNL A   1      36.084  29.753  31.604  1.00  0.00    -0.237 OA
ATOM     72  O   UNL A   1      36.706  32.138  31.558  1.00  0.00    -0.744 OA
ENDBRANCH  68  69
ENDBRANCH  49  63
BRANCH  50  73
ATOM     73  C   UNL A   1      49.746  26.701  26.331  1.00  0.00    -0.014 A 
ATOM     74  C   UNL A   1      50.103  26.844  24.978  1.00  0.00     0.010 A 
ATOM     75  C   UNL A   1      50.673  26.130  27.224  1.00  0.00     0.010 A 
ATOM     76  C   UNL A   1      51.353  26.410  24.525  1.00  0.00     0.020 A 
ATOM     77  C   UNL A   1      51.934  25.721  26.780  1.00  0.00     0.020 A 
ATOM     78  C   UNL A   1      52.262  25.853  25.430  1.00  0.00     0.054 A 
BRANCH  78  79
ATOM     79  S   UNL A   1      53.895  25.339  24.827  1.00  0.00     0.124 S 
ATOM     80  O   UNL A   1      53.799  23.884  24.895  1.00  0.00    -0.237 OA
ATOM     81  O   UNL A   1      53.928  25.909  23.483  1.00  0.00    -0.237 OA
ATOM     82  O   UNL A   1      54.819  25.952  25.780  1.00  0.00    -0.744 OA
ENDBRANCH  78  79
ENDBRANCH  50  73
BRANCH  62  83
ATOM     83  C   UNL A   1      47.189  32.819  28.517  1.00  0.00    -0.014 A 
ATOM     84  C   UNL A   1      47.798  33.185  29.730  1.00  0.00     0.010 A 
ATOM     85  C   UNL A   1      47.216  33.722  27.439  1.00  0.00     0.010 A 
ATOM     86  C   UNL A   1      48.395  34.442  29.871  1.00  0.00     0.020 A 
ATOM     87  C   UNL A   1      47.837  34.968  27.566  1.00  0.00     0.020 A 
ATOM     88  C   UNL A   1      48.411  35.325  28.787  1.00  0.00     0.054 A 
BRANCH  88  89
ATOM     89  S   UNL A   1      49.231  36.932  28.980  1.00  0.00     0.124 S 
ATOM     90  O   UNL A   1      50.150  36.672  30.085  1.00  0.00    -0.237 OA
ATOM     91  O   UNL A   1      49.857  37.133  27.676  1.00  0.00    -0.237 OA
ATOM     92  O   UNL A   1      48.133  37.846  29.286  1.00  0.00    -0.744 OA
ENDBRANCH  88  89
ENDBRANCH  62  83
ENDBRANCH  36  37
ENDBRANCH  29  31
ENDBRANCH  28  29
ENDBRANCH  27  28
ENDBRANCH  26  27
ENDBRANCH  25  26
ENDBRANCH   1  25
TORSDOF 22
ENDMDL
