MODEL 1
REMARK VINA RESULT:     -10.2      0.000      0.000
REMARK SMILES Cc1ccc(F)c(O[C@H]2CC[C@]([NH2+]C(C)C)(C(=O)OCCOCCOCCOC(=O)c3ccc(-c4c5nc(c(-c6ccc(S(=O)(=O)[O-])cc6)c6ccc([nH]6)c(-c6ccc(S(=O)(=O)[O-])cc6)c6nc(c(-c7ccc(S(=O)(=O)[O-])cc7)c7ccc4[nH]7)C=C6)C=C5)cc3)C2)c1
REMARK SMILES IDX 24 1 23 2 22 3 21 4 20 5 19 6 17 7 18 8 12 9 9 10 10 11
REMARK SMILES IDX 91 12 11 13 8 14 7 15 1 16 2 17 3 18 92 19 4 20 5 21 6 22
REMARK SMILES IDX 13 23 14 26 15 27 16 28 25 29 26 30 27 31 28 32 29 33 30 34
REMARK SMILES IDX 31 35 32 36 90 37 33 38 89 39 34 40 35 41 36 42 83 43 37 44
REMARK SMILES IDX 88 45 82 46 84 47 38 48 87 49 81 50 80 51 39 53 69 54 50 55
REMARK SMILES IDX 68 56 51 57 54 58 67 59 85 60 52 61 53 62 66 64 86 65 55 66
REMARK SMILES IDX 40 67 41 68 49 69 42 70 48 71 43 72 44 73 45 74 46 75 47 76
REMARK SMILES IDX 70 77 71 78 79 79 72 80 78 81 73 82 74 83 75 84 76 85 77 86
REMARK SMILES IDX 56 87 57 88 65 89 58 90 64 91 59 92 60 93 61 94 62 95 63 96
REMARK H PARENT 13 24 13 25 84 52 54 63
REMARK Flexibility Score: inf
ROOT
ATOM      1  C   UNL A   1      37.587  22.096  25.331  1.00  0.00     0.188 C 
ENDROOT
BRANCH   1   2
ATOM      2  C   UNL A   1      36.747  21.016  24.632  1.00  0.00     0.188 C 
BRANCH   2   3
ATOM      3  O   UNL A   1      35.444  20.744  25.133  1.00  0.00    -0.376 OA
BRANCH   3   4
ATOM      4  C   UNL A   1      34.897  21.610  26.124  1.00  0.00     0.202 C 
BRANCH   4   5
ATOM      5  C   UNL A   1      33.588  22.369  25.844  1.00  0.00     0.261 C 
BRANCH   5   6
ATOM      6  O   UNL A   1      33.535  23.695  26.404  1.00  0.00    -0.459 OA
BRANCH   6   7
ATOM      7  C   UNL A   1      33.905  24.718  25.587  1.00  0.00     0.368 C 
ATOM      8  O   UNL A   1      35.076  24.976  25.319  1.00  0.00    -0.245 OA
BRANCH   7   9
ATOM      9  C   UNL A   1      32.707  25.532  25.012  1.00  0.00     0.198 C 
ATOM     10  C   UNL A   1      31.822  27.817  24.998  1.00  0.00     0.180 C 
ATOM     11  C   UNL A   1      31.050  27.079  26.079  1.00  0.00     0.052 C 
ATOM     12  C   UNL A   1      33.122  27.020  24.948  1.00  0.00     0.126 C 
ATOM     13  C   UNL A   1      31.451  25.614  25.935  1.00  0.00     0.085 C 
BRANCH  10  14
ATOM     14  O   UNL A   1      31.190  27.714  23.721  1.00  0.00    -0.487 OA
BRANCH  14  15
ATOM     15  C   UNL A   1      29.954  28.274  23.553  1.00  0.00     0.155 A 
ATOM     16  C   UNL A   1      28.787  31.894  23.216  1.00  0.00     0.044 C 
ATOM     17  C   UNL A   1      28.777  30.395  23.278  1.00  0.00    -0.047 A 
ATOM     18  C   UNL A   1      27.569  29.700  23.145  1.00  0.00     0.007 A 
ATOM     19  C   UNL A   1      29.965  29.672  23.467  1.00  0.00     0.053 A 
ATOM     20  C   UNL A   1      27.549  28.311  23.226  1.00  0.00     0.043 A 
ATOM     21  C   UNL A   1      28.732  27.608  23.440  1.00  0.00     0.165 A 
ATOM     22  F   UNL A   1      28.645  26.272  23.521  1.00  0.00    -0.203 F 
ENDBRANCH  14  15
ENDBRANCH  10  14
BRANCH   9  23
ATOM     23  N   UNL A   1      32.205  24.975  23.718  1.00  0.00    -0.330 N 
ATOM     24  H   UNL A   1      31.386  25.525  23.459  1.00  0.00     0.347 HD
ATOM     25  H   UNL A   1      32.061  23.988  23.930  1.00  0.00     0.347 HD
BRANCH  23  26
ATOM     26  C   UNL A   1      33.083  24.941  22.539  1.00  0.00     0.176 C 
ATOM     27  C   UNL A   1      33.310  23.461  22.190  1.00  0.00     0.075 C 
ATOM     28  C   UNL A   1      32.532  25.644  21.300  1.00  0.00     0.075 C 
ENDBRANCH  23  26
ENDBRANCH   9  23
ENDBRANCH   7   9
ENDBRANCH   6   7
ENDBRANCH   5   6
ENDBRANCH   4   5
ENDBRANCH   3   4
ENDBRANCH   2   3
ENDBRANCH   1   2
BRANCH   1  29
ATOM     29  O   UNL A   1      38.600  21.617  26.183  1.00  0.00    -0.376 OA
BRANCH  29  30
ATOM     30  C   UNL A   1      39.619  22.504  26.607  1.00  0.00     0.202 C 
BRANCH  30  31
ATOM     31  C   UNL A   1      41.021  22.047  27.065  1.00  0.00     0.261 C 
BRANCH  31  32
ATOM     32  O   UNL A   1      41.928  23.035  27.572  1.00  0.00    -0.460 OA
BRANCH  32  33
ATOM     33  C   UNL A   1      42.050  24.189  26.873  1.00  0.00     0.338 C 
ATOM     34  O   UNL A   1      42.151  24.304  25.662  1.00  0.00    -0.246 OA
BRANCH  33  35
ATOM     35  C   UNL A   1      41.816  25.305  27.816  1.00  0.00     0.060 A 
ATOM     36  C   UNL A   1      42.851  26.218  28.072  1.00  0.00     0.016 A 
ATOM     37  C   UNL A   1      40.567  25.474  28.414  1.00  0.00     0.016 A 
ATOM     38  C   UNL A   1      42.637  27.302  28.927  1.00  0.00     0.010 A 
ATOM     39  C   UNL A   1      40.363  26.543  29.292  1.00  0.00     0.010 A 
ATOM     40  C   UNL A   1      41.399  27.455  29.563  1.00  0.00    -0.014 A 
BRANCH  40  41
ATOM     41  C   UNL A   1      41.209  28.487  30.613  1.00  0.00     0.031 A 
ATOM     42  C   UNL A   1      42.075  28.441  31.839  1.00  0.00     0.074 A 
ATOM     43  C   UNL A   1      40.262  29.435  30.491  1.00  0.00     0.049 A 
ATOM     44  N   UNL A   1      42.018  29.168  32.924  1.00  0.00    -0.248 NA
ATOM     45  C   UNL A   1      43.148  27.434  31.842  1.00  0.00     0.031 C 
ATOM     46  C   UNL A   1      39.393  29.621  29.332  1.00  0.00     0.029 A 
ATOM     47  N   UNL A   1      39.868  30.414  31.369  1.00  0.00    -0.354 N 
ATOM     48  C   UNL A   1      43.034  28.697  33.747  1.00  0.00     0.074 A 
ATOM     49  C   UNL A   1      43.676  27.607  33.044  1.00  0.00     0.031 C 
ATOM     50  C   UNL A   1      38.560  30.649  29.573  1.00  0.00     0.029 A 
ATOM     51  C   UNL A   1      38.802  31.159  30.921  1.00  0.00     0.049 A 
ATOM     52  H   UNL A   1      40.306  30.569  32.238  1.00  0.00     0.167 HD
ATOM     53  C   UNL A   1      43.397  29.130  34.979  1.00  0.00     0.031 A 
ATOM     54  C   UNL A   1      38.084  32.118  31.540  1.00  0.00     0.031 A 
ATOM     55  C   UNL A   1      42.734  30.194  35.687  1.00  0.00     0.049 A 
ATOM     56  C   UNL A   1      38.435  32.511  32.952  1.00  0.00     0.074 A 
ATOM     57  C   UNL A   1      43.034  30.715  36.933  1.00  0.00     0.029 A 
ATOM     58  N   UNL A   1      41.624  30.885  35.221  1.00  0.00    -0.354 N 
ATOM     59  N   UNL A   1      39.414  32.078  33.710  1.00  0.00    -0.248 NA
ATOM     60  C   UNL A   1      37.578  33.520  33.594  1.00  0.00     0.031 C 
ATOM     61  C   UNL A   1      42.064  31.672  37.251  1.00  0.00     0.029 A 
ATOM     62  C   UNL A   1      41.201  31.798  36.173  1.00  0.00     0.049 A 
ATOM     63  H   UNL A   1      41.201  30.747  34.344  1.00  0.00     0.167 HD
ATOM     64  C   UNL A   1      39.301  32.773  34.912  1.00  0.00     0.074 A 
ATOM     65  C   UNL A   1      38.172  33.669  34.771  1.00  0.00     0.031 C 
ATOM     66  C   UNL A   1      40.064  32.676  36.030  1.00  0.00     0.031 A 
BRANCH  53  67
ATOM     67  C   UNL A   1      44.533  28.409  35.657  1.00  0.00    -0.014 A 
ATOM     68  C   UNL A   1      44.306  27.289  36.477  1.00  0.00     0.010 A 
ATOM     69  C   UNL A   1      45.853  28.858  35.464  1.00  0.00     0.010 A 
ATOM     70  C   UNL A   1      45.371  26.666  37.136  1.00  0.00     0.020 A 
ATOM     71  C   UNL A   1      46.924  28.218  36.096  1.00  0.00     0.020 A 
ATOM     72  C   UNL A   1      46.672  27.140  36.946  1.00  0.00     0.054 A 
BRANCH  72  73
ATOM     73  S   UNL A   1      48.032  26.318  37.820  1.00  0.00     0.124 S 
ATOM     74  O   UNL A   1      49.121  26.427  36.852  1.00  0.00    -0.237 OA
ATOM     75  O   UNL A   1      48.178  27.134  39.023  1.00  0.00    -0.237 OA
ATOM     76  O   UNL A   1      47.533  24.964  38.044  1.00  0.00    -0.744 OA
ENDBRANCH  72  73
ENDBRANCH  53  67
BRANCH  54  77
ATOM     77  C   UNL A   1      36.940  32.758  30.833  1.00  0.00    -0.014 A 
ATOM     78  C   UNL A   1      35.620  32.363  31.110  1.00  0.00     0.010 A 
ATOM     79  C   UNL A   1      37.162  33.782  29.892  1.00  0.00     0.010 A 
ATOM     80  C   UNL A   1      34.545  32.982  30.465  1.00  0.00     0.020 A 
ATOM     81  C   UNL A   1      36.089  34.422  29.266  1.00  0.00     0.020 A 
ATOM     82  C   UNL A   1      34.786  34.013  29.553  1.00  0.00     0.054 A 
BRANCH  82  83
ATOM     83  S   UNL A   1      33.368  34.851  28.791  1.00  0.00     0.124 S 
ATOM     84  O   UNL A   1      32.466  35.018  29.924  1.00  0.00    -0.237 OA
ATOM     85  O   UNL A   1      33.971  36.078  28.275  1.00  0.00    -0.237 OA
ATOM     86  O   UNL A   1      32.922  33.907  27.768  1.00  0.00    -0.744 OA
ENDBRANCH  82  83
ENDBRANCH  54  77
BRANCH  66  87
ATOM     87  C   UNL A   1      39.716  33.568  37.194  1.00  0.00    -0.014 A 
ATOM     88  C   UNL A   1      38.972  33.083  38.285  1.00  0.00     0.010 A 
ATOM     89  C   UNL A   1      40.197  34.890  37.231  1.00  0.00     0.010 A 
ATOM     90  C   UNL A   1      38.698  33.910  39.379  1.00  0.00     0.020 A 
ATOM     91  C   UNL A   1      39.951  35.710  38.336  1.00  0.00     0.020 A 
ATOM     92  C   UNL A   1      39.194  35.216  39.400  1.00  0.00     0.054 A 
BRANCH  92  93
ATOM     93  S   UNL A   1      38.873  36.247  40.859  1.00  0.00     0.124 S 
ATOM     94  O   UNL A   1      40.166  36.227  41.537  1.00  0.00    -0.237 OA
ATOM     95  O   UNL A   1      38.494  37.528  40.267  1.00  0.00    -0.237 OA
ATOM     96  O   UNL A   1      37.795  35.544  41.551  1.00  0.00    -0.744 OA
ENDBRANCH  92  93
ENDBRANCH  66  87
ENDBRANCH  40  41
ENDBRANCH  33  35
ENDBRANCH  32  33
ENDBRANCH  31  32
ENDBRANCH  30  31
ENDBRANCH  29  30
ENDBRANCH   1  29
TORSDOF 24
ENDMDL
MODEL 2
REMARK VINA RESULT:     -10.0      2.702      9.031
REMARK SMILES Cc1ccc(F)c(O[C@H]2CC[C@]([NH2+]C(C)C)(C(=O)OCCOCCOCCOC(=O)c3ccc(-c4c5nc(c(-c6ccc(S(=O)(=O)[O-])cc6)c6ccc([nH]6)c(-c6ccc(S(=O)(=O)[O-])cc6)c6nc(c(-c7ccc(S(=O)(=O)[O-])cc7)c7ccc4[nH]7)C=C6)C=C5)cc3)C2)c1
REMARK SMILES IDX 24 1 23 2 22 3 21 4 20 5 19 6 17 7 18 8 12 9 9 10 10 11
REMARK SMILES IDX 91 12 11 13 8 14 7 15 1 16 2 17 3 18 92 19 4 20 5 21 6 22
REMARK SMILES IDX 13 23 14 26 15 27 16 28 25 29 26 30 27 31 28 32 29 33 30 34
REMARK SMILES IDX 31 35 32 36 90 37 33 38 89 39 34 40 35 41 36 42 83 43 37 44
REMARK SMILES IDX 88 45 82 46 84 47 38 48 87 49 81 50 80 51 39 53 69 54 50 55
REMARK SMILES IDX 68 56 51 57 54 58 67 59 85 60 52 61 53 62 66 64 86 65 55 66
REMARK SMILES IDX 40 67 41 68 49 69 42 70 48 71 43 72 44 73 45 74 46 75 47 76
REMARK SMILES IDX 70 77 71 78 79 79 72 80 78 81 73 82 74 83 75 84 76 85 77 86
REMARK SMILES IDX 56 87 57 88 65 89 58 90 64 91 59 92 60 93 61 94 62 95 63 96
REMARK H PARENT 13 24 13 25 84 52 54 63
REMARK Flexibility Score: inf
ROOT
ATOM      1  C   UNL A   1      31.490  29.120  23.586  1.00  0.00     0.188 C 
ENDROOT
BRANCH   1   2
ATOM      2  C   UNL A   1      32.972  28.795  23.344  1.00  0.00     0.188 C 
BRANCH   2   3
ATOM      3  O   UNL A   1      33.471  27.542  23.795  1.00  0.00    -0.376 OA
BRANCH   3   4
ATOM      4  C   UNL A   1      33.995  27.450  25.117  1.00  0.00     0.202 C 
BRANCH   4   5
ATOM      5  C   UNL A   1      33.208  26.696  26.205  1.00  0.00     0.261 C 
BRANCH   5   6
ATOM      6  O   UNL A   1      32.117  25.899  25.709  1.00  0.00    -0.459 OA
BRANCH   6   7
ATOM      7  C   UNL A   1      31.904  24.704  26.324  1.00  0.00     0.368 C 
ATOM      8  O   UNL A   1      31.067  24.543  27.208  1.00  0.00    -0.245 OA
BRANCH   7   9
ATOM      9  C   UNL A   1      32.811  23.551  25.797  1.00  0.00     0.198 C 
ATOM     10  C   UNL A   1      33.124  21.136  26.065  1.00  0.00     0.180 C 
ATOM     11  C   UNL A   1      34.154  21.792  26.970  1.00  0.00     0.052 C 
ATOM     12  C   UNL A   1      32.051  22.218  25.984  1.00  0.00     0.126 C 
ATOM     13  C   UNL A   1      34.099  23.279  26.636  1.00  0.00     0.085 C 
BRANCH  10  14
ATOM     14  O   UNL A   1      33.629  20.914  24.747  1.00  0.00    -0.487 OA
BRANCH  14  15
ATOM     15  C   UNL A   1      33.453  19.683  24.176  1.00  0.00     0.155 A 
ATOM     16  C   UNL A   1      35.071  16.285  24.823  1.00  0.00     0.044 C 
ATOM     17  C   UNL A   1      34.185  17.356  24.256  1.00  0.00    -0.047 A 
ATOM     18  C   UNL A   1      33.268  17.039  23.248  1.00  0.00     0.007 A 
ATOM     19  C   UNL A   1      34.259  18.677  24.723  1.00  0.00     0.053 A 
ATOM     20  C   UNL A   1      32.460  18.032  22.700  1.00  0.00     0.043 A 
ATOM     21  C   UNL A   1      32.563  19.344  23.155  1.00  0.00     0.165 A 
ATOM     22  F   UNL A   1      31.766  20.257  22.579  1.00  0.00    -0.203 F 
ENDBRANCH  14  15
ENDBRANCH  10  14
BRANCH   9  23
ATOM     23  N   UNL A   1      33.295  23.795  24.404  1.00  0.00    -0.330 N 
ATOM     24  H   UNL A   1      34.160  23.266  24.296  1.00  0.00     0.347 HD
ATOM     25  H   UNL A   1      33.357  24.812  24.353  1.00  0.00     0.347 HD
BRANCH  23  26
ATOM     26  C   UNL A   1      32.443  23.452  23.255  1.00  0.00     0.176 C 
ATOM     27  C   UNL A   1      31.639  24.714  22.901  1.00  0.00     0.075 C 
ATOM     28  C   UNL A   1      33.194  22.999  22.004  1.00  0.00     0.075 C 
ENDBRANCH  23  26
ENDBRANCH   9  23
ENDBRANCH   7   9
ENDBRANCH   6   7
ENDBRANCH   5   6
ENDBRANCH   4   5
ENDBRANCH   3   4
ENDBRANCH   2   3
ENDBRANCH   1   2
BRANCH   1  29
ATOM     29  O   UNL A   1      31.120  29.290  24.934  1.00  0.00    -0.376 OA
BRANCH  29  30
ATOM     30  C   UNL A   1      31.739  30.312  25.693  1.00  0.00     0.202 C 
BRANCH  30  31
ATOM     31  C   UNL A   1      32.291  30.108  27.120  1.00  0.00     0.261 C 
BRANCH  31  32
ATOM     32  O   UNL A   1      33.712  30.122  27.310  1.00  0.00    -0.460 OA
BRANCH  32  33
ATOM     33  C   UNL A   1      34.271  31.273  27.756  1.00  0.00     0.338 C 
ATOM     34  O   UNL A   1      33.745  32.373  27.801  1.00  0.00    -0.246 OA
BRANCH  33  35
ATOM     35  C   UNL A   1      35.563  30.922  28.388  1.00  0.00     0.060 A 
ATOM     36  C   UNL A   1      35.661  29.743  29.144  1.00  0.00     0.016 A 
ATOM     37  C   UNL A   1      36.682  31.733  28.202  1.00  0.00     0.016 A 
ATOM     38  C   UNL A   1      36.882  29.373  29.714  1.00  0.00     0.010 A 
ATOM     39  C   UNL A   1      37.896  31.376  28.798  1.00  0.00     0.010 A 
ATOM     40  C   UNL A   1      38.000  30.203  29.567  1.00  0.00    -0.014 A 
BRANCH  40  41
ATOM     41  C   UNL A   1      39.252  29.926  30.314  1.00  0.00     0.031 A 
ATOM     42  C   UNL A   1      40.150  28.819  29.838  1.00  0.00     0.074 A 
ATOM     43  C   UNL A   1      39.575  30.629  31.415  1.00  0.00     0.049 A 
ATOM     44  N   UNL A   1      41.231  28.333  30.388  1.00  0.00    -0.248 NA
ATOM     45  C   UNL A   1      39.771  28.172  28.572  1.00  0.00     0.031 C 
ATOM     46  C   UNL A   1      38.819  31.759  31.949  1.00  0.00     0.029 A 
ATOM     47  N   UNL A   1      40.623  30.481  32.288  1.00  0.00    -0.354 N 
ATOM     48  C   UNL A   1      41.655  27.310  29.546  1.00  0.00     0.074 A 
ATOM     49  C   UNL A   1      40.699  27.233  28.462  1.00  0.00     0.031 C 
ATOM     50  C   UNL A   1      39.425  32.198  33.067  1.00  0.00     0.029 A 
ATOM     51  C   UNL A   1      40.580  31.350  33.352  1.00  0.00     0.049 A 
ATOM     52  H   UNL A   1      41.339  29.815  32.165  1.00  0.00     0.167 HD
ATOM     53  C   UNL A   1      42.738  26.506  29.668  1.00  0.00     0.031 A 
ATOM     54  C   UNL A   1      41.362  31.429  34.448  1.00  0.00     0.031 A 
ATOM     55  C   UNL A   1      43.667  26.566  30.766  1.00  0.00     0.049 A 
ATOM     56  C   UNL A   1      42.499  30.454  34.620  1.00  0.00     0.074 A 
ATOM     57  C   UNL A   1      44.803  25.803  30.975  1.00  0.00     0.029 A 
ATOM     58  N   UNL A   1      43.557  27.422  31.852  1.00  0.00    -0.354 N 
ATOM     59  N   UNL A   1      42.906  29.509  33.805  1.00  0.00    -0.248 NA
ATOM     60  C   UNL A   1      43.279  30.553  35.862  1.00  0.00     0.031 C 
ATOM     61  C   UNL A   1      45.339  26.150  32.219  1.00  0.00     0.029 A 
ATOM     62  C   UNL A   1      44.579  27.178  32.754  1.00  0.00     0.049 A 
ATOM     63  H   UNL A   1      42.856  28.103  31.964  1.00  0.00     0.167 HD
ATOM     64  C   UNL A   1      43.998  28.913  34.429  1.00  0.00     0.074 A 
ATOM     65  C   UNL A   1      44.201  29.617  35.678  1.00  0.00     0.031 C 
ATOM     66  C   UNL A   1      44.763  27.875  34.005  1.00  0.00     0.031 A 
BRANCH  53  67
ATOM     67  C   UNL A   1      42.939  25.454  28.608  1.00  0.00    -0.014 A 
ATOM     68  C   UNL A   1      43.672  25.723  27.438  1.00  0.00     0.010 A 
ATOM     69  C   UNL A   1      42.388  24.172  28.789  1.00  0.00     0.010 A 
ATOM     70  C   UNL A   1      43.804  24.747  26.445  1.00  0.00     0.020 A 
ATOM     71  C   UNL A   1      42.544  23.184  27.812  1.00  0.00     0.020 A 
ATOM     72  C   UNL A   1      43.232  23.486  26.636  1.00  0.00     0.054 A 
BRANCH  72  73
ATOM     73  S   UNL A   1      43.411  22.243  25.327  1.00  0.00     0.124 S 
ATOM     74  O   UNL A   1      44.711  21.657  25.646  1.00  0.00    -0.237 OA
ATOM     75  O   UNL A   1      42.259  21.374  25.551  1.00  0.00    -0.237 OA
ATOM     76  O   UNL A   1      43.368  23.027  24.095  1.00  0.00    -0.744 OA
ENDBRANCH  72  73
ENDBRANCH  53  67
BRANCH  54  77
ATOM     77  C   UNL A   1      41.080  32.460  35.486  1.00  0.00    -0.014 A 
ATOM     78  C   UNL A   1      40.146  32.208  36.505  1.00  0.00     0.010 A 
ATOM     79  C   UNL A   1      41.761  33.692  35.474  1.00  0.00     0.010 A 
ATOM     80  C   UNL A   1      39.899  33.166  37.494  1.00  0.00     0.020 A 
ATOM     81  C   UNL A   1      41.538  34.641  36.476  1.00  0.00     0.020 A 
ATOM     82  C   UNL A   1      40.604  34.373  37.477  1.00  0.00     0.054 A 
BRANCH  82  83
ATOM     83  S   UNL A   1      40.322  35.564  38.817  1.00  0.00     0.124 S 
ATOM     84  O   UNL A   1      38.960  35.242  39.230  1.00  0.00    -0.237 OA
ATOM     85  O   UNL A   1      41.372  35.216  39.771  1.00  0.00    -0.237 OA
ATOM     86  O   UNL A   1      40.489  36.861  38.164  1.00  0.00    -0.744 OA
ENDBRANCH  82  83
ENDBRANCH  54  77
BRANCH  66  87
ATOM     87  C   UNL A   1      45.902  27.438  34.891  1.00  0.00    -0.014 A 
ATOM     88  C   UNL A   1      45.730  26.421  35.847  1.00  0.00     0.010 A 
ATOM     89  C   UNL A   1      47.180  28.002  34.717  1.00  0.00     0.010 A 
ATOM     90  C   UNL A   1      46.809  25.994  36.629  1.00  0.00     0.020 A 
ATOM     91  C   UNL A   1      48.267  27.556  35.474  1.00  0.00     0.020 A 
ATOM     92  C   UNL A   1      48.072  26.560  36.433  1.00  0.00     0.054 A 
BRANCH  92  93
ATOM     93  S   UNL A   1      49.466  25.945  37.419  1.00  0.00     0.124 S 
ATOM     94  O   UNL A   1      50.595  26.660  36.830  1.00  0.00    -0.237 OA
ATOM     95  O   UNL A   1      49.101  26.352  38.774  1.00  0.00    -0.237 OA
ATOM     96  O   UNL A   1      49.449  24.503  37.181  1.00  0.00    -0.744 OA
ENDBRANCH  92  93
ENDBRANCH  66  87
ENDBRANCH  40  41
ENDBRANCH  33  35
ENDBRANCH  32  33
ENDBRANCH  31  32
ENDBRANCH  30  31
ENDBRANCH  29  30
ENDBRANCH   1  29
TORSDOF 24
ENDMDL
MODEL 3
REMARK VINA RESULT:      -9.2      5.405     13.149
REMARK SMILES Cc1ccc(F)c(O[C@H]2CC[C@]([NH2+]C(C)C)(C(=O)OCCOCCOCCOC(=O)c3ccc(-c4c5nc(c(-c6ccc(S(=O)(=O)[O-])cc6)c6ccc([nH]6)c(-c6ccc(S(=O)(=O)[O-])cc6)c6nc(c(-c7ccc(S(=O)(=O)[O-])cc7)c7ccc4[nH]7)C=C6)C=C5)cc3)C2)c1
REMARK SMILES IDX 24 1 23 2 22 3 21 4 20 5 19 6 17 7 18 8 12 9 9 10 10 11
REMARK SMILES IDX 91 12 11 13 8 14 7 15 1 16 2 17 3 18 92 19 4 20 5 21 6 22
REMARK SMILES IDX 13 23 14 26 15 27 16 28 25 29 26 30 27 31 28 32 29 33 30 34
REMARK SMILES IDX 31 35 32 36 90 37 33 38 89 39 34 40 35 41 36 42 83 43 37 44
REMARK SMILES IDX 88 45 82 46 84 47 38 48 87 49 81 50 80 51 39 53 69 54 50 55
REMARK SMILES IDX 68 56 51 57 54 58 67 59 85 60 52 61 53 62 66 64 86 65 55 66
REMARK SMILES IDX 40 67 41 68 49 69 42 70 48 71 43 72 44 73 45 74 46 75 47 76
REMARK SMILES IDX 70 77 71 78 79 79 72 80 78 81 73 82 74 83 75 84 76 85 77 86
REMARK SMILES IDX 56 87 57 88 65 89 58 90 64 91 59 92 60 93 61 94 62 95 63 96
REMARK H PARENT 13 24 13 25 84 52 54 63
REMARK Flexibility Score: inf
ROOT
ATOM      1  C   UNL A   1      35.956  34.235  31.887  1.00  0.00     0.188 C 
ENDROOT
BRANCH   1   2
ATOM      2  C   UNL A   1      37.250  33.430  32.076  1.00  0.00     0.188 C 
BRANCH   2   3
ATOM      3  O   UNL A   1      38.398  34.103  32.582  1.00  0.00    -0.376 OA
BRANCH   3   4
ATOM      4  C   UNL A   1      38.994  33.629  33.785  1.00  0.00     0.202 C 
BRANCH   4   5
ATOM      5  C   UNL A   1      38.321  32.497  34.584  1.00  0.00     0.261 C 
BRANCH   5   6
ATOM      6  O   UNL A   1      38.761  31.173  34.229  1.00  0.00    -0.459 OA
BRANCH   6   7
ATOM      7  C   UNL A   1      39.311  30.424  35.223  1.00  0.00     0.368 C 
ATOM      8  O   UNL A   1      38.757  30.228  36.302  1.00  0.00    -0.245 OA
BRANCH   7   9
ATOM      9  C   UNL A   1      40.705  29.826  34.866  1.00  0.00     0.198 C 
ATOM     10  C   UNL A   1      41.706  28.150  33.385  1.00  0.00     0.180 C 
ATOM     11  C   UNL A   1      41.546  27.470  34.735  1.00  0.00     0.052 C 
ATOM     12  C   UNL A   1      40.619  29.218  33.447  1.00  0.00     0.126 C 
ATOM     13  C   UNL A   1      41.128  28.576  35.699  1.00  0.00     0.085 C 
BRANCH  10  14
ATOM     14  O   UNL A   1      42.968  28.810  33.261  1.00  0.00    -0.487 OA
BRANCH  14  15
ATOM     15  C   UNL A   1      44.109  28.058  33.312  1.00  0.00     0.155 A 
ATOM     16  C   UNL A   1      44.875  24.460  32.289  1.00  0.00     0.044 C 
ATOM     17  C   UNL A   1      45.044  25.865  32.788  1.00  0.00    -0.047 A 
ATOM     18  C   UNL A   1      46.298  26.300  33.232  1.00  0.00     0.007 A 
ATOM     19  C   UNL A   1      43.960  26.755  32.820  1.00  0.00     0.053 A 
ATOM     20  C   UNL A   1      46.456  27.594  33.720  1.00  0.00     0.043 A 
ATOM     21  C   UNL A   1      45.366  28.459  33.769  1.00  0.00     0.165 A 
ATOM     22  F   UNL A   1      45.581  29.688  34.261  1.00  0.00    -0.203 F 
ENDBRANCH  14  15
ENDBRANCH  10  14
BRANCH   9  23
ATOM     23  N   UNL A   1      41.814  30.811  35.048  1.00  0.00    -0.330 N 
ATOM     24  H   UNL A   1      41.521  31.674  34.590  1.00  0.00     0.347 HD
ATOM     25  H   UNL A   1      42.623  30.326  34.661  1.00  0.00     0.347 HD
BRANCH  23  26
ATOM     26  C   UNL A   1      42.259  31.181  36.401  1.00  0.00     0.176 C 
ATOM     27  C   UNL A   1      43.554  30.399  36.676  1.00  0.00     0.075 C 
ATOM     28  C   UNL A   1      42.547  32.667  36.606  1.00  0.00     0.075 C 
ENDBRANCH  23  26
ENDBRANCH   9  23
ENDBRANCH   7   9
ENDBRANCH   6   7
ENDBRANCH   5   6
ENDBRANCH   4   5
ENDBRANCH   3   4
ENDBRANCH   2   3
ENDBRANCH   1   2
BRANCH   1  29
ATOM     29  O   UNL A   1      34.823  33.482  31.526  1.00  0.00    -0.376 OA
BRANCH  29  30
ATOM     30  C   UNL A   1      34.915  32.577  30.441  1.00  0.00     0.202 C 
BRANCH  30  31
ATOM     31  C   UNL A   1      34.195  32.777  29.091  1.00  0.00     0.261 C 
BRANCH  31  32
ATOM     32  O   UNL A   1      34.611  31.983  27.972  1.00  0.00    -0.460 OA
BRANCH  32  33
ATOM     33  C   UNL A   1      34.562  30.636  28.109  1.00  0.00     0.338 C 
ATOM     34  O   UNL A   1      33.604  29.912  27.892  1.00  0.00    -0.246 OA
BRANCH  33  35
ATOM     35  C   UNL A   1      35.944  30.165  28.357  1.00  0.00     0.060 A 
ATOM     36  C   UNL A   1      36.286  29.673  29.626  1.00  0.00     0.016 A 
ATOM     37  C   UNL A   1      36.887  30.173  27.329  1.00  0.00     0.016 A 
ATOM     38  C   UNL A   1      37.573  29.185  29.867  1.00  0.00     0.010 A 
ATOM     39  C   UNL A   1      38.182  29.712  27.580  1.00  0.00     0.010 A 
ATOM     40  C   UNL A   1      38.537  29.228  28.853  1.00  0.00    -0.014 A 
BRANCH  40  41
ATOM     41  C   UNL A   1      39.954  28.890  29.138  1.00  0.00     0.031 A 
ATOM     42  C   UNL A   1      40.839  29.939  29.751  1.00  0.00     0.074 A 
ATOM     43  C   UNL A   1      40.454  27.680  28.834  1.00  0.00     0.049 A 
ATOM     44  N   UNL A   1      42.123  29.905  29.989  1.00  0.00    -0.248 NA
ATOM     45  C   UNL A   1      40.183  31.197  30.142  1.00  0.00     0.031 C 
ATOM     46  C   UNL A   1      39.691  26.561  28.286  1.00  0.00     0.029 A 
ATOM     47  N   UNL A   1      41.736  27.198  28.932  1.00  0.00    -0.354 N 
ATOM     48  C   UNL A   1      42.437  31.141  30.542  1.00  0.00     0.074 A 
ATOM     49  C   UNL A   1      41.210  31.909  30.582  1.00  0.00     0.031 C 
ATOM     50  C   UNL A   1      40.522  25.522  28.089  1.00  0.00     0.029 A 
ATOM     51  C   UNL A   1      41.882  25.919  28.449  1.00  0.00     0.049 A 
ATOM     52  H   UNL A   1      42.480  27.718  29.314  1.00  0.00     0.167 HD
ATOM     53  C   UNL A   1      43.637  31.597  30.973  1.00  0.00     0.031 A 
ATOM     54  C   UNL A   1      42.990  25.169  28.283  1.00  0.00     0.031 A 
ATOM     55  C   UNL A   1      44.860  30.841  30.901  1.00  0.00     0.049 A 
ATOM     56  C   UNL A   1      44.333  25.735  28.668  1.00  0.00     0.074 A 
ATOM     57  C   UNL A   1      46.126  31.209  31.323  1.00  0.00     0.029 A 
ATOM     58  N   UNL A   1      44.976  29.571  30.353  1.00  0.00    -0.354 N 
ATOM     59  N   UNL A   1      44.614  26.894  29.214  1.00  0.00    -0.248 NA
ATOM     60  C   UNL A   1      45.510  24.892  28.408  1.00  0.00     0.031 C 
ATOM     61  C   UNL A   1      47.018  30.192  30.967  1.00  0.00     0.029 A 
ATOM     62  C   UNL A   1      46.298  29.159  30.387  1.00  0.00     0.049 A 
ATOM     63  H   UNL A   1      44.228  29.042  29.994  1.00  0.00     0.167 HD
ATOM     64  C   UNL A   1      45.997  26.913  29.379  1.00  0.00     0.074 A 
ATOM     65  C   UNL A   1      46.492  25.641  28.894  1.00  0.00     0.031 C 
ATOM     66  C   UNL A   1      46.784  27.895  29.886  1.00  0.00     0.031 A 
BRANCH  53  67
ATOM     67  C   UNL A   1      43.688  33.004  31.511  1.00  0.00    -0.014 A 
ATOM     68  C   UNL A   1      43.848  34.110  30.657  1.00  0.00     0.010 A 
ATOM     69  C   UNL A   1      43.570  33.222  32.896  1.00  0.00     0.010 A 
ATOM     70  C   UNL A   1      43.942  35.403  31.183  1.00  0.00     0.020 A 
ATOM     71  C   UNL A   1      43.632  34.516  33.423  1.00  0.00     0.020 A 
ATOM     72  C   UNL A   1      43.841  35.596  32.564  1.00  0.00     0.054 A 
BRANCH  72  73
ATOM     73  S   UNL A   1      43.977  37.282  33.218  1.00  0.00     0.124 S 
ATOM     74  O   UNL A   1      45.184  37.190  34.035  1.00  0.00    -0.237 OA
ATOM     75  O   UNL A   1      44.100  38.086  32.005  1.00  0.00    -0.237 OA
ATOM     76  O   UNL A   1      42.734  37.466  33.963  1.00  0.00    -0.744 OA
ENDBRANCH  72  73
ENDBRANCH  53  67
BRANCH  54  77
ATOM     77  C   UNL A   1      42.879  23.803  27.699  1.00  0.00    -0.014 A 
ATOM     78  C   UNL A   1      42.933  22.668  28.525  1.00  0.00     0.010 A 
ATOM     79  C   UNL A   1      42.697  23.630  26.313  1.00  0.00     0.010 A 
ATOM     80  C   UNL A   1      42.803  21.387  27.980  1.00  0.00     0.020 A 
ATOM     81  C   UNL A   1      42.539  22.353  25.768  1.00  0.00     0.020 A 
ATOM     82  C   UNL A   1      42.598  21.239  26.605  1.00  0.00     0.054 A 
BRANCH  82  83
ATOM     83  S   UNL A   1      42.354  19.569  25.936  1.00  0.00     0.124 S 
ATOM     84  O   UNL A   1      43.462  19.452  24.994  1.00  0.00    -0.237 OA
ATOM     85  O   UNL A   1      42.450  18.736  27.132  1.00  0.00    -0.237 OA
ATOM     86  O   UNL A   1      41.024  19.632  25.334  1.00  0.00    -0.744 OA
ENDBRANCH  82  83
ENDBRANCH  54  77
BRANCH  66  87
ATOM     87  C   UNL A   1      48.267  27.637  29.955  1.00  0.00    -0.014 A 
ATOM     88  C   UNL A   1      48.824  26.869  30.994  1.00  0.00     0.010 A 
ATOM     89  C   UNL A   1      49.108  28.108  28.930  1.00  0.00     0.010 A 
ATOM     90  C   UNL A   1      50.196  26.598  31.018  1.00  0.00     0.020 A 
ATOM     91  C   UNL A   1      50.475  27.814  28.934  1.00  0.00     0.020 A 
ATOM     92  C   UNL A   1      51.012  27.068  29.984  1.00  0.00     0.054 A 
BRANCH  92  93
ATOM     93  S   UNL A   1      52.778  26.652  30.010  1.00  0.00     0.124 S 
ATOM     94  O   UNL A   1      52.961  26.019  28.707  1.00  0.00    -0.237 OA
ATOM     95  O   UNL A   1      53.411  27.959  30.168  1.00  0.00    -0.237 OA
ATOM     96  O   UNL A   1      52.908  25.759  31.160  1.00  0.00    -0.744 OA
ENDBRANCH  92  93
ENDBRANCH  66  87
ENDBRANCH  40  41
ENDBRANCH  33  35
ENDBRANCH  32  33
ENDBRANCH  31  32
ENDBRANCH  30  31
ENDBRANCH  29  30
ENDBRANCH   1  29
TORSDOF 24
ENDMDL
