MODEL 1
REMARK VINA RESULT:      -8.3      0.000      0.000
REMARK SMILES CC(C)C[C@H](NC(=O)CNC(=O)[C@@H](NC(=O)OCc1ccccc1)C(C)C)C(=O)N[C@@H](C)C(=O)OCCOCCOCCOC(=O)c1ccc(-c2c3nc(c(-c4ccc(S(=O)(=O)[O-])cc4)c4ccc([nH]4)c(-c4ccc(S(=O)(=O)[O-])cc4)c4nc(c(-c5ccc(S(=O)(=O)[O-])cc5)c5ccc2[nH]5)C=C4)C=C3)cc1
REMARK SMILES IDX 36 1 35 2 33 3 34 4 31 5 32 6 30 7 28 8 29 9 5 11 4 12 2 13
REMARK SMILES IDX 1 14 3 15 6 16 7 17 8 19 9 20 10 21 11 22 12 24 13 25 14 26
REMARK SMILES IDX 15 27 16 29 17 30 18 31 19 32 20 33 24 34 21 35 23 36 22 37
REMARK SMILES IDX 25 38 26 39 27 40 37 41 38 42 39 43 40 44 41 45 42 46 43 47
REMARK SMILES IDX 44 48 45 49 46 50 47 51 48 52 106 53 49 54 105 55 50 56
REMARK SMILES IDX 51 57 52 58 99 59 53 60 104 61 98 62 100 63 54 64 103 65
REMARK SMILES IDX 97 66 96 67 55 69 85 70 66 71 84 72 67 73 70 74 83 75 101 76
REMARK SMILES IDX 68 77 69 78 82 80 102 81 71 82 56 83 57 84 65 85 58 86 64 87
REMARK SMILES IDX 59 88 60 89 61 90 62 91 63 92 86 93 87 94 95 95 88 96 94 97
REMARK SMILES IDX 89 98 90 99 91 100 92 101 93 102 72 103 73 104 81 105 74 106
REMARK SMILES IDX 80 107 75 108 76 109 77 110 78 111 79 112
REMARK H PARENT 30 10 6 18 10 23 14 28 100 68 70 79
REMARK Flexibility Score: inf
ROOT
ATOM      1  C   UNL A   1      31.928  27.567  27.011  1.00  0.00     0.261 C 
ENDROOT
BRANCH   1   2
ATOM      2  O   UNL A   1      30.938  27.655  25.946  1.00  0.00    -0.462 OA
BRANCH   2   3
ATOM      3  C   UNL A   1      30.130  26.565  25.817  1.00  0.00     0.328 C 
ATOM      4  O   UNL A   1      29.645  25.988  26.791  1.00  0.00    -0.250 OA
BRANCH   3   5
ATOM      5  C   UNL A   1      29.657  26.210  24.361  1.00  0.00     0.189 C 
ATOM      6  C   UNL A   1      28.135  26.097  24.351  1.00  0.00     0.043 C 
BRANCH   5   7
ATOM      7  N   UNL A   1      30.269  25.216  23.463  1.00  0.00    -0.341 N 
ATOM      8  C   UNL A   1      31.555  24.705  23.351  1.00  0.00     0.243 C 
ATOM      9  O   UNL A   1      31.685  23.773  22.541  1.00  0.00    -0.273 OA
ATOM     10  H   UNL A   1      29.638  24.837  22.808  1.00  0.00     0.164 HD
BRANCH   8  11
ATOM     11  C   UNL A   1      32.859  25.270  24.100  1.00  0.00     0.171 C 
BRANCH  11  12
ATOM     12  C   UNL A   1      34.021  25.926  23.254  1.00  0.00     0.038 C 
BRANCH  12  13
ATOM     13  C   UNL A   1      33.766  27.265  22.436  1.00  0.00    -0.015 C 
ATOM     14  C   UNL A   1      32.293  27.658  22.189  1.00  0.00     0.007 C 
ATOM     15  C   UNL A   1      34.319  28.505  23.137  1.00  0.00     0.007 C 
ENDBRANCH  12  13
ENDBRANCH  11  12
BRANCH  11  16
ATOM     16  N   UNL A   1      33.371  24.531  25.224  1.00  0.00    -0.343 N 
ATOM     17  C   UNL A   1      33.881  23.280  25.313  1.00  0.00     0.240 C 
ATOM     18  H   UNL A   1      33.345  25.020  26.078  1.00  0.00     0.164 HD
ATOM     19  O   UNL A   1      34.286  22.962  26.440  1.00  0.00    -0.273 OA
BRANCH  17  20
ATOM     20  C   UNL A   1      33.729  22.186  24.215  1.00  0.00     0.216 C 
BRANCH  20  21
ATOM     21  N   UNL A   1      34.437  20.905  24.140  1.00  0.00    -0.345 N 
ATOM     22  C   UNL A   1      34.276  19.788  24.895  1.00  0.00     0.243 C 
ATOM     23  H   UNL A   1      35.129  20.846  23.441  1.00  0.00     0.164 HD
ATOM     24  O   UNL A   1      33.418  19.738  25.770  1.00  0.00    -0.273 OA
BRANCH  22  25
ATOM     25  C   UNL A   1      35.144  18.517  24.640  1.00  0.00     0.177 C 
BRANCH  25  26
ATOM     26  N   UNL A   1      36.554  18.730  25.093  1.00  0.00    -0.309 N 
ATOM     27  C   UNL A   1      37.629  19.551  24.921  1.00  0.00     0.408 C 
ATOM     28  H   UNL A   1      36.789  18.029  25.745  1.00  0.00     0.167 HD
ATOM     29  O   UNL A   1      38.749  19.078  25.169  1.00  0.00    -0.225 OA
BRANCH  27  30
ATOM     30  O   UNL A   1      37.445  20.804  24.470  1.00  0.00    -0.445 OA
BRANCH  30  31
ATOM     31  C   UNL A   1      37.266  21.832  25.493  1.00  0.00     0.270 C 
BRANCH  31  32
ATOM     32  C   UNL A   1      38.346  22.673  26.167  1.00  0.00    -0.011 A 
ATOM     33  C   UNL A   1      39.548  22.023  26.541  1.00  0.00     0.007 A 
ATOM     34  C   UNL A   1      38.188  23.994  26.575  1.00  0.00     0.007 A 
ATOM     35  C   UNL A   1      40.564  22.686  27.238  1.00  0.00     0.000 A 
ATOM     36  C   UNL A   1      39.205  24.662  27.273  1.00  0.00     0.000 A 
ATOM     37  C   UNL A   1      40.395  24.016  27.597  1.00  0.00     0.000 A 
ENDBRANCH  31  32
ENDBRANCH  30  31
ENDBRANCH  27  30
ENDBRANCH  25  26
BRANCH  25  38
ATOM     38  C   UNL A   1      34.453  17.134  24.653  1.00  0.00     0.015 C 
ATOM     39  C   UNL A   1      34.152  16.558  23.252  1.00  0.00     0.010 C 
ATOM     40  C   UNL A   1      35.416  16.102  25.255  1.00  0.00     0.010 C 
ENDBRANCH  25  38
ENDBRANCH  22  25
ENDBRANCH  20  21
ENDBRANCH  17  20
ENDBRANCH  11  16
ENDBRANCH   8  11
ENDBRANCH   5   7
ENDBRANCH   3   5
ENDBRANCH   2   3
ENDBRANCH   1   2
BRANCH   1  41
ATOM     41  C   UNL A   1      32.560  28.911  27.406  1.00  0.00     0.202 C 
BRANCH  41  42
ATOM     42  O   UNL A   1      32.742  29.858  26.357  1.00  0.00    -0.376 OA
BRANCH  42  43
ATOM     43  C   UNL A   1      32.954  31.200  26.768  1.00  0.00     0.188 C 
BRANCH  43  44
ATOM     44  C   UNL A   1      31.725  32.099  26.937  1.00  0.00     0.188 C 
BRANCH  44  45
ATOM     45  O   UNL A   1      32.001  33.405  27.433  1.00  0.00    -0.376 OA
BRANCH  45  46
ATOM     46  C   UNL A   1      33.373  33.713  27.665  1.00  0.00     0.202 C 
BRANCH  46  47
ATOM     47  C   UNL A   1      33.864  33.407  29.081  1.00  0.00     0.261 C 
BRANCH  47  48
ATOM     48  O   UNL A   1      34.176  34.591  29.855  1.00  0.00    -0.460 OA
BRANCH  48  49
ATOM     49  C   UNL A   1      34.273  34.399  31.192  1.00  0.00     0.338 C 
ATOM     50  O   UNL A   1      33.412  34.700  32.020  1.00  0.00    -0.246 OA
BRANCH  49  51
ATOM     51  C   UNL A   1      35.537  33.731  31.595  1.00  0.00     0.060 A 
ATOM     52  C   UNL A   1      35.434  32.508  32.259  1.00  0.00     0.016 A 
ATOM     53  C   UNL A   1      36.807  34.303  31.428  1.00  0.00     0.016 A 
ATOM     54  C   UNL A   1      36.581  31.855  32.728  1.00  0.00     0.010 A 
ATOM     55  C   UNL A   1      37.962  33.645  31.920  1.00  0.00     0.010 A 
ATOM     56  C   UNL A   1      37.867  32.399  32.558  1.00  0.00    -0.014 A 
BRANCH  56  57
ATOM     57  C   UNL A   1      39.038  31.691  33.180  1.00  0.00     0.031 A 
ATOM     58  C   UNL A   1      39.858  30.790  32.297  1.00  0.00     0.074 A 
ATOM     59  C   UNL A   1      39.489  31.938  34.432  1.00  0.00     0.049 A 
ATOM     60  N   UNL A   1      41.031  30.258  32.523  1.00  0.00    -0.248 NA
ATOM     61  C   UNL A   1      39.300  30.484  30.970  1.00  0.00     0.031 C 
ATOM     62  C   UNL A   1      38.874  32.851  35.378  1.00  0.00     0.029 A 
ATOM     63  N   UNL A   1      40.623  31.519  35.102  1.00  0.00    -0.354 N 
ATOM     64  C   UNL A   1      41.390  29.631  31.341  1.00  0.00     0.074 A 
ATOM     65  C   UNL A   1      40.287  29.796  30.417  1.00  0.00     0.031 C 
ATOM     66  C   UNL A   1      39.650  32.999  36.462  1.00  0.00     0.029 A 
ATOM     67  C   UNL A   1      40.830  32.163  36.309  1.00  0.00     0.049 A 
ATOM     68  H   UNL A   1      41.227  30.825  34.753  1.00  0.00     0.167 HD
ATOM     69  C   UNL A   1      42.545  28.996  31.036  1.00  0.00     0.031 A 
ATOM     70  C   UNL A   1      41.862  32.136  37.180  1.00  0.00     0.031 A 
ATOM     71  C   UNL A   1      43.619  28.756  31.955  1.00  0.00     0.049 A 
ATOM     72  C   UNL A   1      43.040  31.251  36.884  1.00  0.00     0.074 A 
ATOM     73  C   UNL A   1      44.754  27.987  31.763  1.00  0.00     0.029 A 
ATOM     74  N   UNL A   1      43.693  29.266  33.241  1.00  0.00    -0.354 N 
ATOM     75  N   UNL A   1      43.325  30.600  35.784  1.00  0.00    -0.248 NA
ATOM     76  C   UNL A   1      44.031  31.082  37.959  1.00  0.00     0.031 C 
ATOM     77  C   UNL A   1      45.493  27.995  32.951  1.00  0.00     0.029 A 
ATOM     78  C   UNL A   1      44.842  28.807  33.864  1.00  0.00     0.049 A 
ATOM     79  H   UNL A   1      43.029  29.867  33.650  1.00  0.00     0.167 HD
ATOM     80  C   UNL A   1      44.531  29.957  36.028  1.00  0.00     0.074 A 
ATOM     81  C   UNL A   1      44.939  30.314  37.370  1.00  0.00     0.031 C 
ATOM     82  C   UNL A   1      45.231  29.137  35.209  1.00  0.00     0.031 A 
BRANCH  69  83
ATOM     83  C   UNL A   1      42.663  28.476  29.637  1.00  0.00    -0.014 A 
ATOM     84  C   UNL A   1      42.624  29.360  28.544  1.00  0.00     0.010 A 
ATOM     85  C   UNL A   1      42.796  27.096  29.414  1.00  0.00     0.010 A 
ATOM     86  C   UNL A   1      42.687  28.863  27.241  1.00  0.00     0.020 A 
ATOM     87  C   UNL A   1      42.868  26.598  28.113  1.00  0.00     0.020 A 
ATOM     88  C   UNL A   1      42.798  27.484  27.034  1.00  0.00     0.054 A 
BRANCH  88  89
ATOM     89  S   UNL A   1      42.865  26.862  25.333  1.00  0.00     0.124 S 
ATOM     90  O   UNL A   1      44.201  26.273  25.281  1.00  0.00    -0.237 OA
ATOM     91  O   UNL A   1      41.756  25.914  25.295  1.00  0.00    -0.237 OA
ATOM     92  O   UNL A   1      42.684  28.062  24.518  1.00  0.00    -0.744 OA
ENDBRANCH  88  89
ENDBRANCH  69  83
BRANCH  70  93
ATOM     93  C   UNL A   1      41.853  32.960  38.429  1.00  0.00    -0.014 A 
ATOM     94  C   UNL A   1      42.525  34.197  38.475  1.00  0.00     0.010 A 
ATOM     95  C   UNL A   1      41.239  32.483  39.602  1.00  0.00     0.010 A 
ATOM     96  C   UNL A   1      42.612  34.921  39.671  1.00  0.00     0.020 A 
ATOM     97  C   UNL A   1      41.297  33.217  40.791  1.00  0.00     0.020 A 
ATOM     98  C   UNL A   1      42.003  34.421  40.825  1.00  0.00     0.054 A 
BRANCH  98  99
ATOM     99  S   UNL A   1      42.107  35.370  42.370  1.00  0.00     0.124 S 
ATOM    100  O   UNL A   1      42.048  34.315  43.377  1.00  0.00    -0.237 OA
ATOM    101  O   UNL A   1      43.391  36.054  42.242  1.00  0.00    -0.237 OA
ATOM    102  O   UNL A   1      40.938  36.244  42.304  1.00  0.00    -0.744 OA
ENDBRANCH  98  99
ENDBRANCH  70  93
BRANCH  82 103
ATOM    103  C   UNL A   1      46.494  28.528  35.753  1.00  0.00    -0.014 A 
ATOM    104  C   UNL A   1      46.477  27.245  36.327  1.00  0.00     0.010 A 
ATOM    105  C   UNL A   1      47.717  29.212  35.635  1.00  0.00     0.010 A 
ATOM    106  C   UNL A   1      47.658  26.661  36.789  1.00  0.00     0.020 A 
ATOM    107  C   UNL A   1      48.904  28.621  36.075  1.00  0.00     0.020 A 
ATOM    108  C   UNL A   1      48.866  27.351  36.657  1.00  0.00     0.054 A 
BRANCH 108 109
ATOM    109  S   UNL A   1      50.397  26.543  37.198  1.00  0.00     0.124 S 
ATOM    110  O   UNL A   1      50.117  26.275  38.606  1.00  0.00    -0.237 OA
ATOM    111  O   UNL A   1      50.463  25.366  36.336  1.00  0.00    -0.237 OA
ATOM    112  O   UNL A   1      51.425  27.550  36.947  1.00  0.00    -0.744 OA
ENDBRANCH 108 109
ENDBRANCH  82 103
ENDBRANCH  56  57
ENDBRANCH  49  51
ENDBRANCH  48  49
ENDBRANCH  47  48
ENDBRANCH  46  47
ENDBRANCH  45  46
ENDBRANCH  44  45
ENDBRANCH  43  44
ENDBRANCH  42  43
ENDBRANCH  41  42
ENDBRANCH   1  41
TORSDOF 33
ENDMDL
MODEL 2
REMARK VINA RESULT:      -7.2      2.108      2.866
REMARK SMILES CC(C)C[C@H](NC(=O)CNC(=O)[C@@H](NC(=O)OCc1ccccc1)C(C)C)C(=O)N[C@@H](C)C(=O)OCCOCCOCCOC(=O)c1ccc(-c2c3nc(c(-c4ccc(S(=O)(=O)[O-])cc4)c4ccc([nH]4)c(-c4ccc(S(=O)(=O)[O-])cc4)c4nc(c(-c5ccc(S(=O)(=O)[O-])cc5)c5ccc2[nH]5)C=C4)C=C3)cc1
REMARK SMILES IDX 36 1 35 2 33 3 34 4 31 5 32 6 30 7 28 8 29 9 5 11 4 12 2 13
REMARK SMILES IDX 1 14 3 15 6 16 7 17 8 19 9 20 10 21 11 22 12 24 13 25 14 26
REMARK SMILES IDX 15 27 16 29 17 30 18 31 19 32 20 33 24 34 21 35 23 36 22 37
REMARK SMILES IDX 25 38 26 39 27 40 37 41 38 42 39 43 40 44 41 45 42 46 43 47
REMARK SMILES IDX 44 48 45 49 46 50 47 51 48 52 106 53 49 54 105 55 50 56
REMARK SMILES IDX 51 57 52 58 99 59 53 60 104 61 98 62 100 63 54 64 103 65
REMARK SMILES IDX 97 66 96 67 55 69 85 70 66 71 84 72 67 73 70 74 83 75 101 76
REMARK SMILES IDX 68 77 69 78 82 80 102 81 71 82 56 83 57 84 65 85 58 86 64 87
REMARK SMILES IDX 59 88 60 89 61 90 62 91 63 92 86 93 87 94 95 95 88 96 94 97
REMARK SMILES IDX 89 98 90 99 91 100 92 101 93 102 72 103 73 104 81 105 74 106
REMARK SMILES IDX 80 107 75 108 76 109 77 110 78 111 79 112
REMARK H PARENT 30 10 6 18 10 23 14 28 100 68 70 79
REMARK Flexibility Score: inf
ROOT
ATOM      1  C   UNL A   1      31.486  27.785  27.076  1.00  0.00     0.261 C 
ENDROOT
BRANCH   1   2
ATOM      2  O   UNL A   1      30.724  27.694  25.838  1.00  0.00    -0.462 OA
BRANCH   2   3
ATOM      3  C   UNL A   1      29.874  26.632  25.759  1.00  0.00     0.328 C 
ATOM      4  O   UNL A   1      29.254  26.213  26.738  1.00  0.00    -0.250 OA
BRANCH   3   5
ATOM      5  C   UNL A   1      29.541  26.103  24.317  1.00  0.00     0.189 C 
ATOM      6  C   UNL A   1      28.030  26.158  24.110  1.00  0.00     0.043 C 
BRANCH   5   7
ATOM      7  N   UNL A   1      30.124  24.917  23.666  1.00  0.00    -0.341 N 
ATOM      8  C   UNL A   1      31.279  24.182  23.896  1.00  0.00     0.243 C 
ATOM      9  O   UNL A   1      31.394  23.151  23.214  1.00  0.00    -0.273 OA
ATOM     10  H   UNL A   1      29.585  24.577  22.915  1.00  0.00     0.164 HD
BRANCH   8  11
ATOM     11  C   UNL A   1      32.478  24.600  24.880  1.00  0.00     0.171 C 
BRANCH  11  12
ATOM     12  C   UNL A   1      33.704  25.418  24.311  1.00  0.00     0.038 C 
BRANCH  12  13
ATOM     13  C   UNL A   1      33.479  26.831  23.618  1.00  0.00    -0.015 C 
ATOM     14  C   UNL A   1      34.306  28.014  24.167  1.00  0.00     0.007 C 
ATOM     15  C   UNL A   1      33.854  26.834  22.137  1.00  0.00     0.007 C 
ENDBRANCH  12  13
ENDBRANCH  11  12
BRANCH  11  16
ATOM     16  N   UNL A   1      32.888  23.659  25.889  1.00  0.00    -0.343 N 
ATOM     17  C   UNL A   1      33.524  22.467  25.794  1.00  0.00     0.240 C 
ATOM     18  H   UNL A   1      32.668  23.929  26.810  1.00  0.00     0.164 HD
ATOM     19  O   UNL A   1      33.778  21.926  26.879  1.00  0.00    -0.273 OA
BRANCH  17  20
ATOM     20  C   UNL A   1      33.681  21.656  24.475  1.00  0.00     0.216 C 
BRANCH  20  21
ATOM     21  N   UNL A   1      34.520  20.473  24.258  1.00  0.00    -0.345 N 
ATOM     22  C   UNL A   1      34.371  19.214  24.744  1.00  0.00     0.243 C 
ATOM     23  H   UNL A   1      35.304  20.612  23.678  1.00  0.00     0.164 HD
ATOM     24  O   UNL A   1      33.411  18.919  25.447  1.00  0.00    -0.273 OA
BRANCH  22  25
ATOM     25  C   UNL A   1      35.391  18.090  24.382  1.00  0.00     0.177 C 
BRANCH  25  26
ATOM     26  N   UNL A   1      36.721  18.347  25.017  1.00  0.00    -0.309 N 
ATOM     27  C   UNL A   1      37.772  19.217  25.005  1.00  0.00     0.408 C 
ATOM     28  H   UNL A   1      36.902  17.638  25.676  1.00  0.00     0.167 HD
ATOM     29  O   UNL A   1      38.871  18.783  25.383  1.00  0.00    -0.225 OA
BRANCH  27  30
ATOM     30  O   UNL A   1      37.591  20.474  24.565  1.00  0.00    -0.445 OA
BRANCH  30  31
ATOM     31  C   UNL A   1      37.440  21.497  25.597  1.00  0.00     0.270 C 
BRANCH  31  32
ATOM     32  C   UNL A   1      38.501  22.465  26.111  1.00  0.00    -0.011 A 
ATOM     33  C   UNL A   1      39.742  21.922  26.526  1.00  0.00     0.007 A 
ATOM     34  C   UNL A   1      38.296  23.823  26.339  1.00  0.00     0.007 A 
ATOM     35  C   UNL A   1      40.748  22.716  27.088  1.00  0.00     0.000 A 
ATOM     36  C   UNL A   1      39.303  24.621  26.903  1.00  0.00     0.000 A 
ATOM     37  C   UNL A   1      40.530  24.075  27.268  1.00  0.00     0.000 A 
ENDBRANCH  31  32
ENDBRANCH  30  31
ENDBRANCH  27  30
ENDBRANCH  25  26
BRANCH  25  38
ATOM     38  C   UNL A   1      34.856  16.670  24.091  1.00  0.00     0.015 C 
ATOM     39  C   UNL A   1      34.906  15.708  25.299  1.00  0.00     0.010 C 
ATOM     40  C   UNL A   1      33.356  16.757  23.777  1.00  0.00     0.010 C 
ENDBRANCH  25  38
ENDBRANCH  22  25
ENDBRANCH  20  21
ENDBRANCH  17  20
ENDBRANCH  11  16
ENDBRANCH   8  11
ENDBRANCH   5   7
ENDBRANCH   3   5
ENDBRANCH   2   3
ENDBRANCH   1   2
BRANCH   1  41
ATOM     41  C   UNL A   1      31.986  29.198  27.413  1.00  0.00     0.202 C 
BRANCH  41  42
ATOM     42  O   UNL A   1      32.338  30.026  26.308  1.00  0.00    -0.376 OA
BRANCH  42  43
ATOM     43  C   UNL A   1      32.824  31.319  26.636  1.00  0.00     0.188 C 
BRANCH  43  44
ATOM     44  C   UNL A   1      31.797  32.403  26.978  1.00  0.00     0.188 C 
BRANCH  44  45
ATOM     45  O   UNL A   1      32.346  33.601  27.520  1.00  0.00    -0.376 OA
BRANCH  45  46
ATOM     46  C   UNL A   1      33.728  33.557  27.868  1.00  0.00     0.202 C 
BRANCH  46  47
ATOM     47  C   UNL A   1      34.005  33.179  29.324  1.00  0.00     0.261 C 
BRANCH  47  48
ATOM     48  O   UNL A   1      34.805  34.156  30.033  1.00  0.00    -0.460 OA
BRANCH  48  49
ATOM     49  C   UNL A   1      34.670  34.145  31.382  1.00  0.00     0.338 C 
ATOM     50  O   UNL A   1      33.629  34.381  31.996  1.00  0.00    -0.246 OA
BRANCH  49  51
ATOM     51  C   UNL A   1      35.922  33.770  32.089  1.00  0.00     0.060 A 
ATOM     52  C   UNL A   1      35.822  32.826  33.112  1.00  0.00     0.016 A 
ATOM     53  C   UNL A   1      37.163  34.375  31.850  1.00  0.00     0.016 A 
ATOM     54  C   UNL A   1      36.949  32.475  33.867  1.00  0.00     0.010 A 
ATOM     55  C   UNL A   1      38.296  34.028  32.628  1.00  0.00     0.010 A 
ATOM     56  C   UNL A   1      38.209  33.055  33.635  1.00  0.00    -0.014 A 
BRANCH  56  57
ATOM     57  C   UNL A   1      39.345  32.705  34.554  1.00  0.00     0.031 A 
ATOM     58  C   UNL A   1      40.343  31.685  34.074  1.00  0.00     0.074 A 
ATOM     59  C   UNL A   1      39.611  33.361  35.707  1.00  0.00     0.049 A 
ATOM     60  N   UNL A   1      41.517  31.386  34.564  1.00  0.00    -0.248 NA
ATOM     61  C   UNL A   1      39.985  30.938  32.857  1.00  0.00     0.031 C 
ATOM     62  C   UNL A   1      38.808  34.434  36.263  1.00  0.00     0.029 A 
ATOM     63  N   UNL A   1      40.681  33.295  36.580  1.00  0.00    -0.354 N 
ATOM     64  C   UNL A   1      42.074  30.483  33.672  1.00  0.00     0.074 A 
ATOM     65  C   UNL A   1      41.088  30.238  32.641  1.00  0.00     0.031 C 
ATOM     66  C   UNL A   1      39.424  34.986  37.319  1.00  0.00     0.029 A 
ATOM     67  C   UNL A   1      40.679  34.286  37.546  1.00  0.00     0.049 A 
ATOM     68  H   UNL A   1      41.380  32.604  36.521  1.00  0.00     0.167 HD
ATOM     69  C   UNL A   1      43.307  29.927  33.690  1.00  0.00     0.031 A 
ATOM     70  C   UNL A   1      41.590  34.638  38.478  1.00  0.00     0.031 A 
ATOM     71  C   UNL A   1      44.271  30.096  34.737  1.00  0.00     0.049 A 
ATOM     72  C   UNL A   1      42.865  33.850  38.583  1.00  0.00     0.074 A 
ATOM     73  C   UNL A   1      45.481  29.444  34.901  1.00  0.00     0.029 A 
ATOM     74  N   UNL A   1      44.138  30.969  35.805  1.00  0.00    -0.354 N 
ATOM     75  N   UNL A   1      43.341  32.941  37.769  1.00  0.00    -0.248 NA
ATOM     76  C   UNL A   1      43.722  34.123  39.748  1.00  0.00     0.031 C 
ATOM     77  C   UNL A   1      46.059  29.888  36.094  1.00  0.00     0.029 A 
ATOM     78  C   UNL A   1      45.232  30.852  36.647  1.00  0.00     0.049 A 
ATOM     79  H   UNL A   1      43.380  31.581  35.944  1.00  0.00     0.167 HD
ATOM     80  C   UNL A   1      44.555  32.546  38.313  1.00  0.00     0.074 A 
ATOM     81  C   UNL A   1      44.757  33.328  39.514  1.00  0.00     0.031 C 
ATOM     82  C   UNL A   1      45.419  31.608  37.857  1.00  0.00     0.031 A 
BRANCH  69  83
ATOM     83  C   UNL A   1      43.645  29.035  32.536  1.00  0.00    -0.014 A 
ATOM     84  C   UNL A   1      43.371  27.657  32.598  1.00  0.00     0.010 A 
ATOM     85  C   UNL A   1      44.255  29.574  31.393  1.00  0.00     0.010 A 
ATOM     86  C   UNL A   1      43.733  26.824  31.538  1.00  0.00     0.020 A 
ATOM     87  C   UNL A   1      44.610  28.745  30.328  1.00  0.00     0.020 A 
ATOM     88  C   UNL A   1      44.360  27.373  30.414  1.00  0.00     0.054 A 
BRANCH  88  89
ATOM     89  S   UNL A   1      44.832  26.269  29.055  1.00  0.00     0.124 S 
ATOM     90  O   UNL A   1      44.639  27.128  27.890  1.00  0.00    -0.237 OA
ATOM     91  O   UNL A   1      46.218  25.942  29.375  1.00  0.00    -0.237 OA
ATOM     92  O   UNL A   1      43.890  25.158  29.170  1.00  0.00    -0.744 OA
ENDBRANCH  88  89
ENDBRANCH  69  83
BRANCH  70  93
ATOM     93  C   UNL A   1      41.355  35.788  39.406  1.00  0.00    -0.014 A 
ATOM     94  C   UNL A   1      41.771  37.088  39.058  1.00  0.00     0.010 A 
ATOM     95  C   UNL A   1      40.781  35.582  40.675  1.00  0.00     0.010 A 
ATOM     96  C   UNL A   1      41.651  38.146  39.967  1.00  0.00     0.020 A 
ATOM     97  C   UNL A   1      40.632  36.643  41.575  1.00  0.00     0.020 A 
ATOM     98  C   UNL A   1      41.089  37.914  41.224  1.00  0.00     0.054 A 
BRANCH  98  99
ATOM     99  S   UNL A   1      40.923  39.294  42.395  1.00  0.00     0.124 S 
ATOM    100  O   UNL A   1      41.723  38.829  43.523  1.00  0.00    -0.237 OA
ATOM    101  O   UNL A   1      41.475  40.419  41.646  1.00  0.00    -0.237 OA
ATOM    102  O   UNL A   1      39.482  39.361  42.628  1.00  0.00    -0.744 OA
ENDBRANCH  98  99
ENDBRANCH  70  93
BRANCH  82 103
ATOM    103  C   UNL A   1      46.648  31.340  38.681  1.00  0.00    -0.014 A 
ATOM    104  C   UNL A   1      47.822  32.084  38.472  1.00  0.00     0.010 A 
ATOM    105  C   UNL A   1      46.613  30.384  39.711  1.00  0.00     0.010 A 
ATOM    106  C   UNL A   1      48.948  31.867  39.269  1.00  0.00     0.020 A 
ATOM    107  C   UNL A   1      47.730  30.181  40.526  1.00  0.00     0.020 A 
ATOM    108  C   UNL A   1      48.894  30.918  40.294  1.00  0.00     0.054 A 
BRANCH 108 109
ATOM    109  S   UNL A   1      50.345  30.704  41.362  1.00  0.00     0.124 S 
ATOM    110  O   UNL A   1      50.096  29.392  41.953  1.00  0.00    -0.237 OA
ATOM    111  O   UNL A   1      51.456  30.766  40.415  1.00  0.00    -0.237 OA
ATOM    112  O   UNL A   1      50.260  31.831  42.288  1.00  0.00    -0.744 OA
ENDBRANCH 108 109
ENDBRANCH  82 103
ENDBRANCH  56  57
ENDBRANCH  49  51
ENDBRANCH  48  49
ENDBRANCH  47  48
ENDBRANCH  46  47
ENDBRANCH  45  46
ENDBRANCH  44  45
ENDBRANCH  43  44
ENDBRANCH  42  43
ENDBRANCH  41  42
ENDBRANCH   1  41
TORSDOF 33
ENDMDL
MODEL 3
REMARK VINA RESULT:      -6.4      8.232     15.367
REMARK SMILES CC(C)C[C@H](NC(=O)CNC(=O)[C@@H](NC(=O)OCc1ccccc1)C(C)C)C(=O)N[C@@H](C)C(=O)OCCOCCOCCOC(=O)c1ccc(-c2c3nc(c(-c4ccc(S(=O)(=O)[O-])cc4)c4ccc([nH]4)c(-c4ccc(S(=O)(=O)[O-])cc4)c4nc(c(-c5ccc(S(=O)(=O)[O-])cc5)c5ccc2[nH]5)C=C4)C=C3)cc1
REMARK SMILES IDX 36 1 35 2 33 3 34 4 31 5 32 6 30 7 28 8 29 9 5 11 4 12 2 13
REMARK SMILES IDX 1 14 3 15 6 16 7 17 8 19 9 20 10 21 11 22 12 24 13 25 14 26
REMARK SMILES IDX 15 27 16 29 17 30 18 31 19 32 20 33 24 34 21 35 23 36 22 37
REMARK SMILES IDX 25 38 26 39 27 40 37 41 38 42 39 43 40 44 41 45 42 46 43 47
REMARK SMILES IDX 44 48 45 49 46 50 47 51 48 52 106 53 49 54 105 55 50 56
REMARK SMILES IDX 51 57 52 58 99 59 53 60 104 61 98 62 100 63 54 64 103 65
REMARK SMILES IDX 97 66 96 67 55 69 85 70 66 71 84 72 67 73 70 74 83 75 101 76
REMARK SMILES IDX 68 77 69 78 82 80 102 81 71 82 56 83 57 84 65 85 58 86 64 87
REMARK SMILES IDX 59 88 60 89 61 90 62 91 63 92 86 93 87 94 95 95 88 96 94 97
REMARK SMILES IDX 89 98 90 99 91 100 92 101 93 102 72 103 73 104 81 105 74 106
REMARK SMILES IDX 80 107 75 108 76 109 77 110 78 111 79 112
REMARK H PARENT 30 10 6 18 10 23 14 28 100 68 70 79
REMARK Flexibility Score: inf
ROOT
ATOM      1  C   UNL A   1      41.948  35.282  33.323  1.00  0.00     0.261 C 
ENDROOT
BRANCH   1   2
ATOM      2  O   UNL A   1      42.403  34.814  32.021  1.00  0.00    -0.462 OA
BRANCH   2   3
ATOM      3  C   UNL A   1      41.940  33.586  31.654  1.00  0.00     0.328 C 
ATOM      4  O   UNL A   1      42.679  32.603  31.575  1.00  0.00    -0.250 OA
BRANCH   3   5
ATOM      5  C   UNL A   1      40.380  33.422  31.556  1.00  0.00     0.189 C 
ATOM      6  C   UNL A   1      39.862  34.311  30.429  1.00  0.00     0.043 C 
BRANCH   5   7
ATOM      7  N   UNL A   1      39.434  33.389  32.684  1.00  0.00    -0.341 N 
ATOM      8  C   UNL A   1      38.326  32.601  32.970  1.00  0.00     0.243 C 
ATOM      9  O   UNL A   1      37.829  32.776  34.093  1.00  0.00    -0.273 OA
ATOM     10  H   UNL A   1      39.626  34.062  33.378  1.00  0.00     0.164 HD
BRANCH   8  11
ATOM     11  C   UNL A   1      37.613  31.581  31.954  1.00  0.00     0.171 C 
BRANCH  11  12
ATOM     12  C   UNL A   1      36.549  32.126  30.921  1.00  0.00     0.038 C 
BRANCH  12  13
ATOM     13  C   UNL A   1      36.699  31.814  29.370  1.00  0.00    -0.015 C 
ATOM     14  C   UNL A   1      36.701  33.027  28.414  1.00  0.00     0.007 C 
ATOM     15  C   UNL A   1      38.021  31.129  29.026  1.00  0.00     0.007 C 
ENDBRANCH  12  13
ENDBRANCH  11  12
BRANCH  11  16
ATOM     16  N   UNL A   1      37.261  30.273  32.442  1.00  0.00    -0.343 N 
ATOM     17  C   UNL A   1      38.028  29.220  32.809  1.00  0.00     0.240 C 
ATOM     18  H   UNL A   1      36.292  30.116  32.522  1.00  0.00     0.164 HD
ATOM     19  O   UNL A   1      37.399  28.243  33.239  1.00  0.00    -0.273 OA
BRANCH  17  20
ATOM     20  C   UNL A   1      39.540  29.070  32.469  1.00  0.00     0.216 C 
BRANCH  20  21
ATOM     21  N   UNL A   1      40.470  28.066  32.995  1.00  0.00    -0.345 N 
ATOM     22  C   UNL A   1      41.713  28.234  33.515  1.00  0.00     0.243 C 
ATOM     23  H   UNL A   1      40.146  27.136  32.967  1.00  0.00     0.164 HD
ATOM     24  O   UNL A   1      42.201  29.353  33.631  1.00  0.00    -0.273 OA
BRANCH  22  25
ATOM     25  C   UNL A   1      42.540  27.013  34.025  1.00  0.00     0.177 C 
BRANCH  25  26
ATOM     26  N   UNL A   1      43.982  27.146  33.650  1.00  0.00    -0.309 N 
ATOM     27  C   UNL A   1      44.847  26.968  32.611  1.00  0.00     0.408 C 
ATOM     28  H   UNL A   1      44.484  27.481  34.428  1.00  0.00     0.167 HD
ATOM     29  O   UNL A   1      46.040  26.780  32.892  1.00  0.00    -0.225 OA
BRANCH  27  30
ATOM     30  O   UNL A   1      44.382  26.971  31.349  1.00  0.00    -0.445 OA
BRANCH  30  31
ATOM     31  C   UNL A   1      43.894  25.689  30.844  1.00  0.00     0.270 C 
BRANCH  31  32
ATOM     32  C   UNL A   1      44.005  25.145  29.424  1.00  0.00    -0.011 A 
ATOM     33  C   UNL A   1      44.942  24.108  29.188  1.00  0.00     0.007 A 
ATOM     34  C   UNL A   1      43.363  25.683  28.312  1.00  0.00     0.007 A 
ATOM     35  C   UNL A   1      45.177  23.599  27.906  1.00  0.00     0.000 A 
ATOM     36  C   UNL A   1      43.597  25.174  27.025  1.00  0.00     0.000 A 
ATOM     37  C   UNL A   1      44.494  24.128  26.821  1.00  0.00     0.000 A 
ENDBRANCH  31  32
ENDBRANCH  30  31
ENDBRANCH  27  30
ENDBRANCH  25  26
BRANCH  25  38
ATOM     38  C   UNL A   1      42.064  26.276  35.297  1.00  0.00     0.015 C 
ATOM     39  C   UNL A   1      42.848  24.985  35.619  1.00  0.00     0.010 C 
ATOM     40  C   UNL A   1      42.337  27.163  36.519  1.00  0.00     0.010 C 
ENDBRANCH  25  38
ENDBRANCH  22  25
ENDBRANCH  20  21
ENDBRANCH  17  20
ENDBRANCH  11  16
ENDBRANCH   8  11
ENDBRANCH   5   7
ENDBRANCH   3   5
ENDBRANCH   2   3
ENDBRANCH   1   2
BRANCH   1  41
ATOM     41  C   UNL A   1      42.502  34.486  34.515  1.00  0.00     0.202 C 
BRANCH  41  42
ATOM     42  O   UNL A   1      41.765  33.329  34.901  1.00  0.00    -0.376 OA
BRANCH  42  43
ATOM     43  C   UNL A   1      40.936  33.478  36.044  1.00  0.00     0.188 C 
BRANCH  43  44
ATOM     44  C   UNL A   1      41.188  34.681  36.959  1.00  0.00     0.188 C 
BRANCH  44  45
ATOM     45  O   UNL A   1      40.786  34.499  38.313  1.00  0.00    -0.376 OA
BRANCH  45  46
ATOM     46  C   UNL A   1      39.982  33.353  38.582  1.00  0.00     0.202 C 
BRANCH  46  47
ATOM     47  C   UNL A   1      38.651  33.656  39.272  1.00  0.00     0.261 C 
BRANCH  47  48
ATOM     48  O   UNL A   1      38.763  33.796  40.709  1.00  0.00    -0.460 OA
BRANCH  48  49
ATOM     49  C   UNL A   1      38.153  34.887  41.233  1.00  0.00     0.338 C 
ATOM     50  O   UNL A   1      37.050  34.893  41.779  1.00  0.00    -0.246 OA
BRANCH  49  51
ATOM     51  C   UNL A   1      38.975  36.121  41.127  1.00  0.00     0.060 A 
ATOM     52  C   UNL A   1      38.886  36.851  39.941  1.00  0.00     0.016 A 
ATOM     53  C   UNL A   1      39.891  36.532  42.105  1.00  0.00     0.016 A 
ATOM     54  C   UNL A   1      39.682  37.987  39.744  1.00  0.00     0.010 A 
ATOM     55  C   UNL A   1      40.706  37.673  41.893  1.00  0.00     0.010 A 
ATOM     56  C   UNL A   1      40.597  38.430  40.717  1.00  0.00    -0.014 A 
BRANCH  56  57
ATOM     57  C   UNL A   1      41.490  39.594  40.390  1.00  0.00     0.031 A 
ATOM     58  C   UNL A   1      40.998  40.972  40.744  1.00  0.00     0.074 A 
ATOM     59  C   UNL A   1      42.763  39.466  39.949  1.00  0.00     0.049 A 
ATOM     60  N   UNL A   1      41.659  42.099  40.782  1.00  0.00    -0.248 NA
ATOM     61  C   UNL A   1      39.587  41.082  41.148  1.00  0.00     0.031 C 
ATOM     62  C   UNL A   1      43.423  38.208  39.654  1.00  0.00     0.029 A 
ATOM     63  N   UNL A   1      43.769  40.394  39.758  1.00  0.00    -0.354 N 
ATOM     64  C   UNL A   1      40.774  43.033  41.296  1.00  0.00     0.074 A 
ATOM     65  C   UNL A   1      39.510  42.357  41.501  1.00  0.00     0.031 C 
ATOM     66  C   UNL A   1      44.726  38.408  39.401  1.00  0.00     0.029 A 
ATOM     67  C   UNL A   1      45.005  39.832  39.489  1.00  0.00     0.049 A 
ATOM     68  H   UNL A   1      43.620  41.366  39.809  1.00  0.00     0.167 HD
ATOM     69  C   UNL A   1      40.995  44.332  41.598  1.00  0.00     0.031 A 
ATOM     70  C   UNL A   1      46.236  40.375  39.374  1.00  0.00     0.031 A 
ATOM     71  C   UNL A   1      42.213  45.042  41.337  1.00  0.00     0.049 A 
ATOM     72  C   UNL A   1      46.392  41.863  39.523  1.00  0.00     0.074 A 
ATOM     73  C   UNL A   1      42.461  46.397  41.473  1.00  0.00     0.029 A 
ATOM     74  N   UNL A   1      43.384  44.465  40.874  1.00  0.00    -0.354 N 
ATOM     75  N   UNL A   1      45.517  42.745  39.937  1.00  0.00    -0.248 NA
ATOM     76  C   UNL A   1      47.702  42.433  39.171  1.00  0.00     0.031 C 
ATOM     77  C   UNL A   1      43.770  46.647  41.049  1.00  0.00     0.029 A 
ATOM     78  C   UNL A   1      44.351  45.441  40.694  1.00  0.00     0.049 A 
ATOM     79  H   UNL A   1      43.511  43.504  40.700  1.00  0.00     0.167 HD
ATOM     80  C   UNL A   1      46.172  43.968  39.908  1.00  0.00     0.074 A 
ATOM     81  C   UNL A   1      47.525  43.716  39.460  1.00  0.00     0.031 C 
ATOM     82  C   UNL A   1      45.687  45.193  40.220  1.00  0.00     0.031 A 
BRANCH  69  83
ATOM     83  C   UNL A   1      39.847  45.072  42.212  1.00  0.00    -0.014 A 
ATOM     84  C   UNL A   1      39.641  45.040  43.602  1.00  0.00     0.010 A 
ATOM     85  C   UNL A   1      38.961  45.789  41.392  1.00  0.00     0.010 A 
ATOM     86  C   UNL A   1      38.541  45.693  44.161  1.00  0.00     0.020 A 
ATOM     87  C   UNL A   1      37.866  46.450  41.949  1.00  0.00     0.020 A 
ATOM     88  C   UNL A   1      37.655  46.385  43.330  1.00  0.00     0.054 A 
BRANCH  88  89
ATOM     89  S   UNL A   1      36.227  47.214  44.077  1.00  0.00     0.124 S 
ATOM     90  O   UNL A   1      35.649  46.145  44.887  1.00  0.00    -0.237 OA
ATOM     91  O   UNL A   1      36.845  48.306  44.823  1.00  0.00    -0.237 OA
ATOM     92  O   UNL A   1      35.425  47.625  42.927  1.00  0.00    -0.744 OA
ENDBRANCH  88  89
ENDBRANCH  69  83
BRANCH  70  93
ATOM     93  C   UNL A   1      47.441  39.531  39.098  1.00  0.00    -0.014 A 
ATOM     94  C   UNL A   1      47.785  39.184  37.777  1.00  0.00     0.010 A 
ATOM     95  C   UNL A   1      48.209  39.008  40.154  1.00  0.00     0.010 A 
ATOM     96  C   UNL A   1      48.846  38.307  37.520  1.00  0.00     0.020 A 
ATOM     97  C   UNL A   1      49.290  38.156  39.901  1.00  0.00     0.020 A 
ATOM     98  C   UNL A   1      49.587  37.792  38.587  1.00  0.00     0.054 A 
BRANCH  98  99
ATOM     99  S   UNL A   1      50.972  36.666  38.247  1.00  0.00     0.124 S 
ATOM    100  O   UNL A   1      51.518  36.449  39.583  1.00  0.00    -0.237 OA
ATOM    101  O   UNL A   1      50.309  35.516  37.637  1.00  0.00    -0.237 OA
ATOM    102  O   UNL A   1      51.816  37.439  37.339  1.00  0.00    -0.744 OA
ENDBRANCH  98  99
ENDBRANCH  70  93
BRANCH  82 103
ATOM    103  C   UNL A   1      46.609  46.368  40.047  1.00  0.00    -0.014 A 
ATOM    104  C   UNL A   1      46.674  47.048  38.817  1.00  0.00     0.010 A 
ATOM    105  C   UNL A   1      47.368  46.838  41.133  1.00  0.00     0.010 A 
ATOM    106  C   UNL A   1      47.494  48.168  38.671  1.00  0.00     0.020 A 
ATOM    107  C   UNL A   1      48.172  47.972  40.997  1.00  0.00     0.020 A 
ATOM    108  C   UNL A   1      48.237  48.626  39.763  1.00  0.00     0.054 A 
BRANCH 108 109
ATOM    109  S   UNL A   1      49.241  50.125  39.570  1.00  0.00     0.124 S 
ATOM    110  O   UNL A   1      50.239  49.959  40.623  1.00  0.00    -0.237 OA
ATOM    111  O   UNL A   1      49.744  50.003  38.204  1.00  0.00    -0.237 OA
ATOM    112  O   UNL A   1      48.285  51.209  39.781  1.00  0.00    -0.744 OA
ENDBRANCH 108 109
ENDBRANCH  82 103
ENDBRANCH  56  57
ENDBRANCH  49  51
ENDBRANCH  48  49
ENDBRANCH  47  48
ENDBRANCH  46  47
ENDBRANCH  45  46
ENDBRANCH  44  45
ENDBRANCH  43  44
ENDBRANCH  42  43
ENDBRANCH  41  42
ENDBRANCH   1  41
TORSDOF 33
ENDMDL
