MODEL 1
REMARK VINA RESULT:      -7.9      0.000      0.000
REMARK SMILES CCC(CC)(CC)NC(=O)NC[C@@H]1CC[C@H](C(=O)OCCOCCOCCOC(=O)c2ccc(-c3c4nc(c(-c5ccc(S(=O)(=O)[O-])cc5)c5ccc([nH]5)c(-c5ccc(S(=O)(=O)[O-])cc5)c5nc(c(-c6ccc(S(=O)(=O)[O-])cc6)c6ccc3[nH]6)C=C5)C=C4)cc2)O1
REMARK SMILES IDX 23 1 22 2 21 3 20 4 19 5 17 6 18 7 16 8 13 9 14 10 91 11
REMARK SMILES IDX 15 12 12 13 11 14 8 15 9 16 10 18 3 20 2 21 1 22 4 23 5 24
REMARK SMILES IDX 6 25 7 26 24 27 25 28 26 29 27 30 28 31 29 32 30 33 31 34
REMARK SMILES IDX 32 35 90 36 33 37 89 38 34 39 35 40 36 41 83 42 37 43 88 44
REMARK SMILES IDX 82 45 84 46 38 47 87 48 81 49 80 50 39 52 69 53 50 54 68 55
REMARK SMILES IDX 51 56 54 57 67 58 85 59 52 60 53 61 66 63 86 64 55 65 40 66
REMARK SMILES IDX 41 67 49 68 42 69 48 70 43 71 44 72 45 73 46 74 47 75 70 76
REMARK SMILES IDX 71 77 79 78 72 79 78 80 73 81 74 82 75 83 76 84 77 85 56 86
REMARK SMILES IDX 57 87 65 88 58 89 64 90 59 91 60 92 61 93 62 94 63 95
REMARK H PARENT 8 17 11 19 84 51 54 62
REMARK Flexibility Score: inf
ROOT
ATOM      1  C   UNL A   1      35.010  31.613  28.798  1.00  0.00     0.188 C 
ENDROOT
BRANCH   1   2
ATOM      2  O   UNL A   1      35.950  30.918  28.018  1.00  0.00    -0.376 OA
BRANCH   2   3
ATOM      3  C   UNL A   1      35.515  29.712  27.401  1.00  0.00     0.202 C 
BRANCH   3   4
ATOM      4  C   UNL A   1      34.026  29.435  27.129  1.00  0.00     0.261 C 
BRANCH   4   5
ATOM      5  O   UNL A   1      33.652  29.312  25.727  1.00  0.00    -0.461 OA
BRANCH   5   6
ATOM      6  C   UNL A   1      33.091  28.124  25.359  1.00  0.00     0.335 C 
ATOM      7  O   UNL A   1      33.744  27.171  24.935  1.00  0.00    -0.249 OA
BRANCH   6   8
ATOM      8  C   UNL A   1      31.549  28.034  25.488  1.00  0.00     0.228 C 
ATOM      9  C   UNL A   1      30.612  25.944  25.010  1.00  0.00     0.138 C 
ATOM     10  C   UNL A   1      30.478  26.813  23.763  1.00  0.00     0.037 C 
ATOM     11  O   UNL A   1      31.084  26.801  26.046  1.00  0.00    -0.361 OA
ATOM     12  C   UNL A   1      30.666  28.221  24.281  1.00  0.00     0.047 C 
BRANCH   9  13
ATOM     13  C   UNL A   1      31.488  24.674  24.870  1.00  0.00     0.149 C 
BRANCH  13  14
ATOM     14  N   UNL A   1      32.558  24.739  23.882  1.00  0.00    -0.336 N 
ATOM     15  N   UNL A   1      33.987  22.803  23.771  1.00  0.00    -0.333 N 
ATOM     16  C   UNL A   1      33.436  23.919  23.311  1.00  0.00     0.315 C 
ATOM     17  H   UNL A   1      34.620  22.478  23.091  1.00  0.00     0.165 HD
ATOM     18  O   UNL A   1      33.831  24.266  22.189  1.00  0.00    -0.249 OA
ATOM     19  H   UNL A   1      32.659  25.654  23.536  1.00  0.00     0.165 HD
BRANCH  15  20
ATOM     20  C   UNL A   1      34.020  21.847  24.919  1.00  0.00     0.041 C 
BRANCH  20  21
ATOM     21  C   UNL A   1      35.016  20.687  24.748  1.00  0.00     0.025 C 
ATOM     22  C   UNL A   1      36.352  20.991  25.411  1.00  0.00     0.006 C 
ENDBRANCH  20  21
BRANCH  20  23
ATOM     23  C   UNL A   1      32.570  21.207  25.033  1.00  0.00     0.025 C 
ATOM     24  C   UNL A   1      32.510  19.674  25.086  1.00  0.00     0.006 C 
ENDBRANCH  20  23
BRANCH  20  25
ATOM     25  C   UNL A   1      34.248  22.647  26.236  1.00  0.00     0.025 C 
ATOM     26  C   UNL A   1      33.071  22.739  27.197  1.00  0.00     0.006 C 
ENDBRANCH  20  25
ENDBRANCH  15  20
ENDBRANCH  13  14
ENDBRANCH   9  13
ENDBRANCH   6   8
ENDBRANCH   5   6
ENDBRANCH   4   5
ENDBRANCH   3   4
ENDBRANCH   2   3
ENDBRANCH   1   2
BRANCH   1  27
ATOM     27  C   UNL A   1      35.450  32.974  29.318  1.00  0.00     0.188 C 
BRANCH  27  28
ATOM     28  O   UNL A   1      35.308  33.323  30.677  1.00  0.00    -0.376 OA
BRANCH  28  29
ATOM     29  C   UNL A   1      34.941  32.389  31.679  1.00  0.00     0.202 C 
BRANCH  29  30
ATOM     30  C   UNL A   1      35.929  31.477  32.435  1.00  0.00     0.261 C 
BRANCH  30  31
ATOM     31  O   UNL A   1      36.160  30.157  31.945  1.00  0.00    -0.460 OA
BRANCH  31  32
ATOM     32  C   UNL A   1      37.210  29.476  32.481  1.00  0.00     0.338 C 
ATOM     33  O   UNL A   1      37.158  28.447  33.114  1.00  0.00    -0.246 OA
BRANCH  32  34
ATOM     34  C   UNL A   1      38.446  30.070  31.886  1.00  0.00     0.060 A 
ATOM     35  C   UNL A   1      38.371  30.578  30.579  1.00  0.00     0.016 A 
ATOM     36  C   UNL A   1      39.595  30.287  32.651  1.00  0.00     0.016 A 
ATOM     37  C   UNL A   1      39.440  31.300  30.037  1.00  0.00     0.010 A 
ATOM     38  C   UNL A   1      40.676  30.982  32.095  1.00  0.00     0.010 A 
ATOM     39  C   UNL A   1      40.613  31.483  30.782  1.00  0.00    -0.014 A 
BRANCH  39  40
ATOM     40  C   UNL A   1      41.838  32.052  30.159  1.00  0.00     0.031 A 
ATOM     41  C   UNL A   1      42.733  31.123  29.383  1.00  0.00     0.074 A 
ATOM     42  C   UNL A   1      42.180  33.348  30.304  1.00  0.00     0.049 A 
ATOM     43  N   UNL A   1      43.914  31.345  28.871  1.00  0.00    -0.248 NA
ATOM     44  C   UNL A   1      42.227  29.757  29.160  1.00  0.00     0.031 C 
ATOM     45  C   UNL A   1      41.381  34.371  30.978  1.00  0.00     0.029 A 
ATOM     46  N   UNL A   1      43.312  34.019  29.905  1.00  0.00    -0.354 N 
ATOM     47  C   UNL A   1      44.306  30.144  28.292  1.00  0.00     0.074 A 
ATOM     48  C   UNL A   1      43.240  29.195  28.515  1.00  0.00     0.031 C 
ATOM     49  C   UNL A   1      42.059  35.532  30.967  1.00  0.00     0.029 A 
ATOM     50  C   UNL A   1      43.361  35.329  30.330  1.00  0.00     0.049 A 
ATOM     51  H   UNL A   1      44.023  33.603  29.366  1.00  0.00     0.167 HD
ATOM     52  C   UNL A   1      45.457  29.856  27.641  1.00  0.00     0.031 A 
ATOM     53  C   UNL A   1      44.353  36.241  30.254  1.00  0.00     0.031 A 
ATOM     54  C   UNL A   1      46.518  30.799  27.417  1.00  0.00     0.049 A 
ATOM     55  C   UNL A   1      45.665  35.859  29.606  1.00  0.00     0.074 A 
ATOM     56  C   UNL A   1      47.701  30.606  26.724  1.00  0.00     0.029 A 
ATOM     57  N   UNL A   1      46.540  32.100  27.892  1.00  0.00    -0.354 N 
ATOM     58  N   UNL A   1      45.998  34.738  29.011  1.00  0.00    -0.248 NA
ATOM     59  C   UNL A   1      46.740  36.865  29.628  1.00  0.00     0.031 C 
ATOM     60  C   UNL A   1      48.473  31.763  26.848  1.00  0.00     0.029 A 
ATOM     61  C   UNL A   1      47.740  32.702  27.555  1.00  0.00     0.049 A 
ATOM     62  H   UNL A   1      45.811  32.531  28.393  1.00  0.00     0.167 HD
ATOM     63  C   UNL A   1      47.308  34.915  28.569  1.00  0.00     0.074 A 
ATOM     64  C   UNL A   1      47.699  36.257  28.943  1.00  0.00     0.031 C 
ATOM     65  C   UNL A   1      48.118  34.042  27.921  1.00  0.00     0.031 A 
BRANCH  52  66
ATOM     66  C   UNL A   1      45.665  28.447  27.155  1.00  0.00    -0.014 A 
ATOM     67  C   UNL A   1      46.206  27.455  27.990  1.00  0.00     0.010 A 
ATOM     68  C   UNL A   1      45.210  28.093  25.871  1.00  0.00     0.010 A 
ATOM     69  C   UNL A   1      46.290  26.132  27.547  1.00  0.00     0.020 A 
ATOM     70  C   UNL A   1      45.269  26.767  25.435  1.00  0.00     0.020 A 
ATOM     71  C   UNL A   1      45.813  25.795  26.276  1.00  0.00     0.054 A 
BRANCH  71  72
ATOM     72  S   UNL A   1      45.862  24.057  25.762  1.00  0.00     0.124 S 
ATOM     73  O   UNL A   1      47.014  23.555  26.506  1.00  0.00    -0.237 OA
ATOM     74  O   UNL A   1      44.562  23.557  26.204  1.00  0.00    -0.237 OA
ATOM     75  O   UNL A   1      46.040  24.125  24.314  1.00  0.00    -0.744 OA
ENDBRANCH  71  72
ENDBRANCH  52  66
BRANCH  53  76
ATOM     76  C   UNL A   1      44.196  37.596  30.863  1.00  0.00    -0.014 A 
ATOM     77  C   UNL A   1      44.397  37.797  32.240  1.00  0.00     0.010 A 
ATOM     78  C   UNL A   1      43.768  38.683  30.076  1.00  0.00     0.010 A 
ATOM     79  C   UNL A   1      44.133  39.041  32.825  1.00  0.00     0.020 A 
ATOM     80  C   UNL A   1      43.540  39.937  30.650  1.00  0.00     0.020 A 
ATOM     81  C   UNL A   1      43.703  40.102  32.026  1.00  0.00     0.054 A 
BRANCH  81  82
ATOM     82  S   UNL A   1      43.370  41.708  32.804  1.00  0.00     0.124 S 
ATOM     83  O   UNL A   1      42.074  42.059  32.231  1.00  0.00    -0.237 OA
ATOM     84  O   UNL A   1      43.364  41.374  34.226  1.00  0.00    -0.237 OA
ATOM     85  O   UNL A   1      44.491  42.539  32.370  1.00  0.00    -0.744 OA
ENDBRANCH  81  82
ENDBRANCH  53  76
BRANCH  65  86
ATOM     86  C   UNL A   1      49.502  34.505  27.544  1.00  0.00    -0.014 A 
ATOM     87  C   UNL A   1      49.802  34.897  26.227  1.00  0.00     0.010 A 
ATOM     88  C   UNL A   1      50.490  34.638  28.539  1.00  0.00     0.010 A 
ATOM     89  C   UNL A   1      51.069  35.396  25.909  1.00  0.00     0.020 A 
ATOM     90  C   UNL A   1      51.746  35.166  28.231  1.00  0.00     0.020 A 
ATOM     91  C   UNL A   1      52.031  35.535  26.915  1.00  0.00     0.054 A 
BRANCH  91  92
ATOM     92  S   UNL A   1      53.640  36.256  26.488  1.00  0.00     0.124 S 
ATOM     93  O   UNL A   1      53.430  37.670  26.786  1.00  0.00    -0.237 OA
ATOM     94  O   UNL A   1      54.553  35.553  27.387  1.00  0.00    -0.237 OA
ATOM     95  O   UNL A   1      53.801  35.935  25.072  1.00  0.00    -0.744 OA
ENDBRANCH  91  92
ENDBRANCH  65  86
ENDBRANCH  39  40
ENDBRANCH  32  34
ENDBRANCH  31  32
ENDBRANCH  30  31
ENDBRANCH  29  30
ENDBRANCH  28  29
ENDBRANCH  27  28
ENDBRANCH   1  27
TORSDOF 26
ENDMDL
MODEL 2
REMARK VINA RESULT:      -7.9      3.482      5.038
REMARK SMILES CCC(CC)(CC)NC(=O)NC[C@@H]1CC[C@H](C(=O)OCCOCCOCCOC(=O)c2ccc(-c3c4nc(c(-c5ccc(S(=O)(=O)[O-])cc5)c5ccc([nH]5)c(-c5ccc(S(=O)(=O)[O-])cc5)c5nc(c(-c6ccc(S(=O)(=O)[O-])cc6)c6ccc3[nH]6)C=C5)C=C4)cc2)O1
REMARK SMILES IDX 23 1 22 2 21 3 20 4 19 5 17 6 18 7 16 8 13 9 14 10 91 11
REMARK SMILES IDX 15 12 12 13 11 14 8 15 9 16 10 18 3 20 2 21 1 22 4 23 5 24
REMARK SMILES IDX 6 25 7 26 24 27 25 28 26 29 27 30 28 31 29 32 30 33 31 34
REMARK SMILES IDX 32 35 90 36 33 37 89 38 34 39 35 40 36 41 83 42 37 43 88 44
REMARK SMILES IDX 82 45 84 46 38 47 87 48 81 49 80 50 39 52 69 53 50 54 68 55
REMARK SMILES IDX 51 56 54 57 67 58 85 59 52 60 53 61 66 63 86 64 55 65 40 66
REMARK SMILES IDX 41 67 49 68 42 69 48 70 43 71 44 72 45 73 46 74 47 75 70 76
REMARK SMILES IDX 71 77 79 78 72 79 78 80 73 81 74 82 75 83 76 84 77 85 56 86
REMARK SMILES IDX 57 87 65 88 58 89 64 90 59 91 60 92 61 93 62 94 63 95
REMARK H PARENT 8 17 11 19 84 51 54 62
REMARK Flexibility Score: inf
ROOT
ATOM      1  C   UNL A   1      35.617  31.483  30.051  1.00  0.00     0.188 C 
ENDROOT
BRANCH   1   2
ATOM      2  O   UNL A   1      36.425  31.553  28.902  1.00  0.00    -0.376 OA
BRANCH   2   3
ATOM      3  C   UNL A   1      36.315  30.486  27.968  1.00  0.00     0.202 C 
BRANCH   3   4
ATOM      4  C   UNL A   1      34.994  29.725  27.761  1.00  0.00     0.261 C 
BRANCH   4   5
ATOM      5  O   UNL A   1      34.033  30.357  26.868  1.00  0.00    -0.461 OA
BRANCH   5   6
ATOM      6  C   UNL A   1      33.534  29.570  25.873  1.00  0.00     0.335 C 
ATOM      7  O   UNL A   1      34.243  28.945  25.085  1.00  0.00    -0.249 OA
BRANCH   6   8
ATOM      8  C   UNL A   1      31.988  29.512  25.766  1.00  0.00     0.228 C 
ATOM      9  C   UNL A   1      31.031  27.396  26.051  1.00  0.00     0.138 C 
ATOM     10  C   UNL A   1      31.145  27.660  24.553  1.00  0.00     0.037 C 
ATOM     11  O   UNL A   1      31.375  28.618  26.699  1.00  0.00    -0.361 OA
ATOM     12  C   UNL A   1      31.321  29.158  24.462  1.00  0.00     0.047 C 
BRANCH   9  13
ATOM     13  C   UNL A   1      31.849  26.202  26.602  1.00  0.00     0.149 C 
BRANCH  13  14
ATOM     14  N   UNL A   1      31.097  24.985  26.884  1.00  0.00    -0.336 N 
ATOM     15  N   UNL A   1      31.860  23.005  25.745  1.00  0.00    -0.333 N 
ATOM     16  C   UNL A   1      31.216  23.675  26.692  1.00  0.00     0.315 C 
ATOM     17  H   UNL A   1      31.703  22.045  25.896  1.00  0.00     0.165 HD
ATOM     18  O   UNL A   1      30.603  22.964  27.502  1.00  0.00    -0.249 OA
ATOM     19  H   UNL A   1      30.258  25.195  27.353  1.00  0.00     0.165 HD
BRANCH  15  20
ATOM     20  C   UNL A   1      32.732  23.141  24.538  1.00  0.00     0.041 C 
BRANCH  20  21
ATOM     21  C   UNL A   1      32.112  23.971  23.401  1.00  0.00     0.025 C 
ATOM     22  C   UNL A   1      30.617  23.720  23.271  1.00  0.00     0.006 C 
ENDBRANCH  20  21
BRANCH  20  23
ATOM     23  C   UNL A   1      32.973  21.676  23.973  1.00  0.00     0.025 C 
ATOM     24  C   UNL A   1      32.242  20.540  24.704  1.00  0.00     0.006 C 
ENDBRANCH  20  23
BRANCH  20  25
ATOM     25  C   UNL A   1      34.128  23.673  24.981  1.00  0.00     0.025 C 
ATOM     26  C   UNL A   1      34.544  25.036  24.449  1.00  0.00     0.006 C 
ENDBRANCH  20  25
ENDBRANCH  15  20
ENDBRANCH  13  14
ENDBRANCH   9  13
ENDBRANCH   6   8
ENDBRANCH   5   6
ENDBRANCH   4   5
ENDBRANCH   3   4
ENDBRANCH   2   3
ENDBRANCH   1   2
BRANCH   1  27
ATOM     27  C   UNL A   1      35.757  32.633  31.037  1.00  0.00     0.188 C 
BRANCH  27  28
ATOM     28  O   UNL A   1      36.336  32.446  32.309  1.00  0.00    -0.376 OA
BRANCH  28  29
ATOM     29  C   UNL A   1      36.816  31.190  32.760  1.00  0.00     0.202 C 
BRANCH  29  30
ATOM     30  C   UNL A   1      38.178  30.578  32.371  1.00  0.00     0.261 C 
BRANCH  30  31
ATOM     31  O   UNL A   1      38.242  29.700  31.248  1.00  0.00    -0.460 OA
BRANCH  31  32
ATOM     32  C   UNL A   1      38.855  28.500  31.438  1.00  0.00     0.338 C 
ATOM     33  O   UNL A   1      38.356  27.494  31.886  1.00  0.00    -0.246 OA
BRANCH  32  34
ATOM     34  C   UNL A   1      40.162  28.574  30.715  1.00  0.00     0.060 A 
ATOM     35  C   UNL A   1      40.164  29.091  29.409  1.00  0.00     0.016 A 
ATOM     36  C   UNL A   1      41.373  28.316  31.362  1.00  0.00     0.016 A 
ATOM     37  C   UNL A   1      41.372  29.348  28.751  1.00  0.00     0.010 A 
ATOM     38  C   UNL A   1      42.580  28.544  30.690  1.00  0.00     0.010 A 
ATOM     39  C   UNL A   1      42.590  29.049  29.377  1.00  0.00    -0.014 A 
BRANCH  39  40
ATOM     40  C   UNL A   1      43.873  29.106  28.627  1.00  0.00     0.031 A 
ATOM     41  C   UNL A   1      44.311  27.873  27.883  1.00  0.00     0.074 A 
ATOM     42  C   UNL A   1      44.659  30.201  28.633  1.00  0.00     0.049 A 
ATOM     43  N   UNL A   1      45.443  27.629  27.277  1.00  0.00    -0.248 NA
ATOM     44  C   UNL A   1      43.341  26.766  27.817  1.00  0.00     0.031 C 
ATOM     45  C   UNL A   1      44.333  31.481  29.262  1.00  0.00     0.029 A 
ATOM     46  N   UNL A   1      45.912  30.400  28.102  1.00  0.00    -0.354 N 
ATOM     47  C   UNL A   1      45.335  26.334  26.784  1.00  0.00     0.074 A 
ATOM     48  C   UNL A   1      44.029  25.841  27.160  1.00  0.00     0.031 C 
ATOM     49  C   UNL A   1      45.371  32.322  29.103  1.00  0.00     0.029 A 
ATOM     50  C   UNL A   1      46.455  31.630  28.404  1.00  0.00     0.049 A 
ATOM     51  H   UNL A   1      46.380  29.726  27.559  1.00  0.00     0.167 HD
ATOM     52  C   UNL A   1      46.247  25.615  26.089  1.00  0.00     0.031 A 
ATOM     53  C   UNL A   1      47.692  32.123  28.182  1.00  0.00     0.031 A 
ATOM     54  C   UNL A   1      47.546  26.104  25.713  1.00  0.00     0.049 A 
ATOM     55  C   UNL A   1      48.721  31.260  27.488  1.00  0.00     0.074 A 
ATOM     56  C   UNL A   1      48.517  25.460  24.965  1.00  0.00     0.029 A 
ATOM     57  N   UNL A   1      48.065  27.338  26.066  1.00  0.00    -0.354 N 
ATOM     58  N   UNL A   1      48.585  30.060  26.976  1.00  0.00    -0.248 NA
ATOM     59  C   UNL A   1      50.078  31.817  27.349  1.00  0.00     0.031 C 
ATOM     60  C   UNL A   1      49.653  26.272  24.934  1.00  0.00     0.029 A 
ATOM     61  C   UNL A   1      49.363  27.452  25.600  1.00  0.00     0.049 A 
ATOM     62  H   UNL A   1      47.582  28.030  26.573  1.00  0.00     0.167 HD
ATOM     63  C   UNL A   1      49.828  29.732  26.436  1.00  0.00     0.074 A 
ATOM     64  C   UNL A   1      50.696  30.867  26.661  1.00  0.00     0.031 C 
ATOM     65  C   UNL A   1      50.217  28.590  25.818  1.00  0.00     0.031 A 
BRANCH  52  66
ATOM     66  C   UNL A   1      45.904  24.197  25.720  1.00  0.00    -0.014 A 
ATOM     67  C   UNL A   1      45.902  23.170  26.677  1.00  0.00     0.010 A 
ATOM     68  C   UNL A   1      45.474  23.918  24.409  1.00  0.00     0.010 A 
ATOM     69  C   UNL A   1      45.477  21.884  26.328  1.00  0.00     0.020 A 
ATOM     70  C   UNL A   1      45.025  22.641  24.063  1.00  0.00     0.020 A 
ATOM     71  C   UNL A   1      45.033  21.631  25.026  1.00  0.00     0.054 A 
BRANCH  71  72
ATOM     72  S   UNL A   1      44.413  19.975  24.626  1.00  0.00     0.124 S 
ATOM     73  O   UNL A   1      43.076  20.003  25.214  1.00  0.00    -0.237 OA
ATOM     74  O   UNL A   1      44.456  19.962  23.166  1.00  0.00    -0.237 OA
ATOM     75  O   UNL A   1      45.361  19.078  25.282  1.00  0.00    -0.744 OA
ENDBRANCH  71  72
ENDBRANCH  52  66
BRANCH  53  76
ATOM     76  C   UNL A   1      48.075  33.480  28.676  1.00  0.00    -0.014 A 
ATOM     77  C   UNL A   1      48.562  33.663  29.982  1.00  0.00     0.010 A 
ATOM     78  C   UNL A   1      47.882  34.612  27.860  1.00  0.00     0.010 A 
ATOM     79  C   UNL A   1      48.807  34.949  30.478  1.00  0.00     0.020 A 
ATOM     80  C   UNL A   1      48.162  35.895  28.339  1.00  0.00     0.020 A 
ATOM     81  C   UNL A   1      48.602  36.057  29.653  1.00  0.00     0.054 A 
BRANCH  81  82
ATOM     82  S   UNL A   1      48.928  37.715  30.316  1.00  0.00     0.124 S 
ATOM     83  O   UNL A   1      47.756  38.459  29.864  1.00  0.00    -0.237 OA
ATOM     84  O   UNL A   1      49.008  37.471  31.754  1.00  0.00    -0.237 OA
ATOM     85  O   UNL A   1      50.191  38.094  29.684  1.00  0.00    -0.744 OA
ENDBRANCH  81  82
ENDBRANCH  53  76
BRANCH  65  86
ATOM     86  C   UNL A   1      51.635  28.506  25.313  1.00  0.00    -0.014 A 
ATOM     87  C   UNL A   1      52.652  27.931  26.097  1.00  0.00     0.010 A 
ATOM     88  C   UNL A   1      51.936  28.921  24.001  1.00  0.00     0.010 A 
ATOM     89  C   UNL A   1      53.945  27.790  25.585  1.00  0.00     0.020 A 
ATOM     90  C   UNL A   1      53.219  28.753  23.476  1.00  0.00     0.020 A 
ATOM     91  C   UNL A   1      54.219  28.195  24.274  1.00  0.00     0.054 A 
BRANCH  91  92
ATOM     92  S   UNL A   1      55.887  27.931  23.611  1.00  0.00     0.124 S 
ATOM     93  O   UNL A   1      56.113  29.160  22.855  1.00  0.00    -0.237 OA
ATOM     94  O   UNL A   1      56.692  27.782  24.822  1.00  0.00    -0.237 OA
ATOM     95  O   UNL A   1      55.754  26.721  22.805  1.00  0.00    -0.744 OA
ENDBRANCH  91  92
ENDBRANCH  65  86
ENDBRANCH  39  40
ENDBRANCH  32  34
ENDBRANCH  31  32
ENDBRANCH  30  31
ENDBRANCH  29  30
ENDBRANCH  28  29
ENDBRANCH  27  28
ENDBRANCH   1  27
TORSDOF 26
ENDMDL
MODEL 3
REMARK VINA RESULT:      -7.6      5.123     13.928
REMARK SMILES CCC(CC)(CC)NC(=O)NC[C@@H]1CC[C@H](C(=O)OCCOCCOCCOC(=O)c2ccc(-c3c4nc(c(-c5ccc(S(=O)(=O)[O-])cc5)c5ccc([nH]5)c(-c5ccc(S(=O)(=O)[O-])cc5)c5nc(c(-c6ccc(S(=O)(=O)[O-])cc6)c6ccc3[nH]6)C=C5)C=C4)cc2)O1
REMARK SMILES IDX 23 1 22 2 21 3 20 4 19 5 17 6 18 7 16 8 13 9 14 10 91 11
REMARK SMILES IDX 15 12 12 13 11 14 8 15 9 16 10 18 3 20 2 21 1 22 4 23 5 24
REMARK SMILES IDX 6 25 7 26 24 27 25 28 26 29 27 30 28 31 29 32 30 33 31 34
REMARK SMILES IDX 32 35 90 36 33 37 89 38 34 39 35 40 36 41 83 42 37 43 88 44
REMARK SMILES IDX 82 45 84 46 38 47 87 48 81 49 80 50 39 52 69 53 50 54 68 55
REMARK SMILES IDX 51 56 54 57 67 58 85 59 52 60 53 61 66 63 86 64 55 65 40 66
REMARK SMILES IDX 41 67 49 68 42 69 48 70 43 71 44 72 45 73 46 74 47 75 70 76
REMARK SMILES IDX 71 77 79 78 72 79 78 80 73 81 74 82 75 83 76 84 77 85 56 86
REMARK SMILES IDX 57 87 65 88 58 89 64 90 59 91 60 92 61 93 62 94 63 95
REMARK H PARENT 8 17 11 19 84 51 54 62
REMARK Flexibility Score: inf
ROOT
ATOM      1  C   UNL A   1      40.499  34.788  29.534  1.00  0.00     0.188 C 
ENDROOT
BRANCH   1   2
ATOM      2  O   UNL A   1      40.804  35.845  28.659  1.00  0.00    -0.376 OA
BRANCH   2   3
ATOM      3  C   UNL A   1      42.176  36.191  28.514  1.00  0.00     0.202 C 
BRANCH   3   4
ATOM      4  C   UNL A   1      42.655  37.651  28.600  1.00  0.00     0.261 C 
BRANCH   4   5
ATOM      5  O   UNL A   1      43.936  37.934  27.970  1.00  0.00    -0.461 OA
BRANCH   5   6
ATOM      6  C   UNL A   1      44.110  39.207  27.514  1.00  0.00     0.335 C 
ATOM      7  O   UNL A   1      44.316  39.480  26.331  1.00  0.00    -0.249 OA
BRANCH   6   8
ATOM      8  C   UNL A   1      44.055  40.325  28.586  1.00  0.00     0.228 C 
ATOM      9  C   UNL A   1      44.742  42.446  27.878  1.00  0.00     0.138 C 
ATOM     10  C   UNL A   1      45.918  41.789  28.595  1.00  0.00     0.037 C 
ATOM     11  O   UNL A   1      43.620  41.592  28.083  1.00  0.00    -0.361 OA
ATOM     12  C   UNL A   1      45.278  40.677  29.394  1.00  0.00     0.047 C 
BRANCH   9  13
ATOM     13  C   UNL A   1      44.949  42.774  26.378  1.00  0.00     0.149 C 
BRANCH  13  14
ATOM     14  N   UNL A   1      43.794  42.574  25.513  1.00  0.00    -0.336 N 
ATOM     15  N   UNL A   1      44.213  42.803  23.152  1.00  0.00    -0.333 N 
ATOM     16  C   UNL A   1      43.537  42.398  24.220  1.00  0.00     0.315 C 
ATOM     17  H   UNL A   1      43.709  42.522  22.353  1.00  0.00     0.165 HD
ATOM     18  O   UNL A   1      42.487  41.790  23.967  1.00  0.00    -0.249 OA
ATOM     19  H   UNL A   1      42.961  42.568  26.037  1.00  0.00     0.165 HD
BRANCH  15  20
ATOM     20  C   UNL A   1      45.440  43.518  22.689  1.00  0.00     0.041 C 
BRANCH  20  21
ATOM     21  C   UNL A   1      45.592  44.942  23.251  1.00  0.00     0.025 C 
ATOM     22  C   UNL A   1      45.568  45.988  22.146  1.00  0.00     0.006 C 
ENDBRANCH  20  21
BRANCH  20  23
ATOM     23  C   UNL A   1      45.334  43.647  21.108  1.00  0.00     0.025 C 
ATOM     24  C   UNL A   1      44.035  43.128  20.474  1.00  0.00     0.006 C 
ENDBRANCH  20  23
BRANCH  20  25
ATOM     25  C   UNL A   1      46.684  42.623  22.971  1.00  0.00     0.025 C 
ATOM     26  C   UNL A   1      46.992  41.535  21.953  1.00  0.00     0.006 C 
ENDBRANCH  20  25
ENDBRANCH  15  20
ENDBRANCH  13  14
ENDBRANCH   9  13
ENDBRANCH   6   8
ENDBRANCH   5   6
ENDBRANCH   4   5
ENDBRANCH   3   4
ENDBRANCH   2   3
ENDBRANCH   1   2
BRANCH   1  27
ATOM     27  C   UNL A   1      39.158  34.103  29.313  1.00  0.00     0.188 C 
BRANCH  27  28
ATOM     28  O   UNL A   1      38.083  34.283  30.208  1.00  0.00    -0.376 OA
BRANCH  28  29
ATOM     29  C   UNL A   1      37.610  33.253  31.060  1.00  0.00     0.202 C 
BRANCH  29  30
ATOM     30  C   UNL A   1      36.632  32.139  30.634  1.00  0.00     0.261 C 
BRANCH  30  31
ATOM     31  O   UNL A   1      36.963  30.783  30.929  1.00  0.00    -0.460 OA
BRANCH  31  32
ATOM     32  C   UNL A   1      36.916  29.897  29.896  1.00  0.00     0.338 C 
ATOM     33  O   UNL A   1      35.945  29.601  29.240  1.00  0.00    -0.246 OA
BRANCH  32  34
ATOM     34  C   UNL A   1      38.335  29.593  29.536  1.00  0.00     0.060 A 
ATOM     35  C   UNL A   1      39.161  29.033  30.524  1.00  0.00     0.016 A 
ATOM     36  C   UNL A   1      38.792  29.685  28.219  1.00  0.00     0.016 A 
ATOM     37  C   UNL A   1      40.440  28.567  30.197  1.00  0.00     0.010 A 
ATOM     38  C   UNL A   1      40.083  29.247  27.901  1.00  0.00     0.010 A 
ATOM     39  C   UNL A   1      40.921  28.697  28.888  1.00  0.00    -0.014 A 
BRANCH  39  40
ATOM     40  C   UNL A   1      42.344  28.413  28.561  1.00  0.00     0.031 A 
ATOM     41  C   UNL A   1      43.330  29.547  28.656  1.00  0.00     0.074 A 
ATOM     42  C   UNL A   1      42.756  27.198  28.150  1.00  0.00     0.049 A 
ATOM     43  N   UNL A   1      44.585  29.587  28.293  1.00  0.00    -0.248 NA
ATOM     44  C   UNL A   1      42.830  30.806  29.235  1.00  0.00     0.031 C 
ATOM     45  C   UNL A   1      41.925  25.998  28.068  1.00  0.00     0.029 A 
ATOM     46  N   UNL A   1      43.989  26.780  27.702  1.00  0.00    -0.354 N 
ATOM     47  C   UNL A   1      45.017  30.878  28.571  1.00  0.00     0.074 A 
ATOM     48  C   UNL A   1      43.892  31.593  29.131  1.00  0.00     0.031 C 
ATOM     49  C   UNL A   1      42.663  24.987  27.574  1.00  0.00     0.029 A 
ATOM     50  C   UNL A   1      44.006  25.476  27.259  1.00  0.00     0.049 A 
ATOM     51  H   UNL A   1      44.784  27.360  27.697  1.00  0.00     0.167 HD
ATOM     52  C   UNL A   1      46.238  31.423  28.366  1.00  0.00     0.031 A 
ATOM     53  C   UNL A   1      44.975  24.773  26.633  1.00  0.00     0.031 A 
ATOM     54  C   UNL A   1      47.358  30.714  27.810  1.00  0.00     0.049 A 
ATOM     55  C   UNL A   1      46.298  25.440  26.332  1.00  0.00     0.074 A 
ATOM     56  C   UNL A   1      48.649  31.174  27.613  1.00  0.00     0.029 A 
ATOM     57  N   UNL A   1      47.323  29.409  27.346  1.00  0.00    -0.354 N 
ATOM     58  N   UNL A   1      46.711  26.643  26.654  1.00  0.00    -0.248 NA
ATOM     59  C   UNL A   1      47.285  24.654  25.572  1.00  0.00     0.031 C 
ATOM     60  C   UNL A   1      49.372  30.176  26.956  1.00  0.00     0.029 A 
ATOM     61  C   UNL A   1      48.553  29.069  26.811  1.00  0.00     0.049 A 
ATOM     62  H   UNL A   1      46.540  28.815  27.391  1.00  0.00     0.167 HD
ATOM     63  C   UNL A   1      48.009  26.746  26.158  1.00  0.00     0.074 A 
ATOM     64  C   UNL A   1      48.324  25.479  25.536  1.00  0.00     0.031 C 
ATOM     65  C   UNL A   1      48.861  27.800  26.204  1.00  0.00     0.031 A 
BRANCH  52  66
ATOM     66  C   UNL A   1      46.434  32.877  28.701  1.00  0.00    -0.014 A 
ATOM     67  C   UNL A   1      47.105  33.278  29.868  1.00  0.00     0.010 A 
ATOM     68  C   UNL A   1      46.028  33.853  27.771  1.00  0.00     0.010 A 
ATOM     69  C   UNL A   1      47.364  34.632  30.100  1.00  0.00     0.020 A 
ATOM     70  C   UNL A   1      46.308  35.204  27.988  1.00  0.00     0.020 A 
ATOM     71  C   UNL A   1      46.972  35.585  29.154  1.00  0.00     0.054 A 
BRANCH  71  72
ATOM     72  S   UNL A   1      47.394  37.324  29.447  1.00  0.00     0.124 S 
ATOM     73  O   UNL A   1      48.769  37.224  29.930  1.00  0.00    -0.237 OA
ATOM     74  O   UNL A   1      47.236  37.917  28.121  1.00  0.00    -0.237 OA
ATOM     75  O   UNL A   1      46.416  37.759  30.440  1.00  0.00    -0.744 OA
ENDBRANCH  71  72
ENDBRANCH  52  66
BRANCH  53  76
ATOM     76  C   UNL A   1      44.730  23.373  26.175  1.00  0.00    -0.014 A 
ATOM     77  C   UNL A   1      45.677  22.360  26.410  1.00  0.00     0.010 A 
ATOM     78  C   UNL A   1      43.577  23.061  25.429  1.00  0.00     0.010 A 
ATOM     79  C   UNL A   1      45.497  21.079  25.876  1.00  0.00     0.020 A 
ATOM     80  C   UNL A   1      43.375  21.773  24.926  1.00  0.00     0.020 A 
ATOM     81  C   UNL A   1      44.348  20.795  25.134  1.00  0.00     0.054 A 
BRANCH  81  82
ATOM     82  S   UNL A   1      44.135  19.126  24.453  1.00  0.00     0.124 S 
ATOM     83  O   UNL A   1      44.421  19.337  23.037  1.00  0.00    -0.237 OA
ATOM     84  O   UNL A   1      45.130  18.353  25.192  1.00  0.00    -0.237 OA
ATOM     85  O   UNL A   1      42.744  18.802  24.768  1.00  0.00    -0.744 OA
ENDBRANCH  81  82
ENDBRANCH  53  76
BRANCH  65  86
ATOM     86  C   UNL A   1      50.229  27.633  25.593  1.00  0.00    -0.014 A 
ATOM     87  C   UNL A   1      51.312  27.159  26.356  1.00  0.00     0.010 A 
ATOM     88  C   UNL A   1      50.413  27.863  24.216  1.00  0.00     0.010 A 
ATOM     89  C   UNL A   1      52.555  26.936  25.758  1.00  0.00     0.020 A 
ATOM     90  C   UNL A   1      51.646  27.612  23.609  1.00  0.00     0.020 A 
ATOM     91  C   UNL A   1      52.712  27.157  24.386  1.00  0.00     0.054 A 
BRANCH  91  92
ATOM     92  S   UNL A   1      54.316  26.788  23.622  1.00  0.00     0.124 S 
ATOM     93  O   UNL A   1      54.760  25.628  24.389  1.00  0.00    -0.237 OA
ATOM     94  O   UNL A   1      53.954  26.520  22.232  1.00  0.00    -0.237 OA
ATOM     95  O   UNL A   1      55.092  28.007  23.834  1.00  0.00    -0.744 OA
ENDBRANCH  91  92
ENDBRANCH  65  86
ENDBRANCH  39  40
ENDBRANCH  32  34
ENDBRANCH  31  32
ENDBRANCH  30  31
ENDBRANCH  29  30
ENDBRANCH  28  29
ENDBRANCH  27  28
ENDBRANCH   1  27
TORSDOF 26
ENDMDL
