MODEL 1
REMARK VINA RESULT:      -9.7      0.000      0.000
REMARK SMILES Cn1ncc(C(=O)OCCOCCOCCOC(=O)c2ccc(-c3c4nc(c(-c5ccc(S(=O)(=O)[O-])cc5)c5ccc([nH]5)c(-c5ccc(S(=O)(=O)[O-])cc5)c5nc(c(-c6ccc(S(=O)(=O)[O-])cc6)c6ccc3[nH]6)C=C5)C=C4)cc2)c1C(=O)Nc1ccccn1
REMARK SMILES IDX 13 1 12 2 11 3 10 4 9 5 8 6 6 7 7 8 5 9 1 10 2 11 3 12 80 13
REMARK SMILES IDX 4 14 81 15 82 16 83 17 84 19 85 20 89 21 86 22 88 23 87 24
REMARK SMILES IDX 14 25 15 26 16 27 17 28 18 29 19 30 20 31 21 32 79 33 22 34
REMARK SMILES IDX 78 35 23 36 24 37 25 38 72 39 26 40 77 41 71 42 73 43 27 44
REMARK SMILES IDX 76 45 70 46 69 47 28 49 58 50 39 51 57 52 40 53 43 54 56 55
REMARK SMILES IDX 74 56 41 57 42 58 55 60 75 61 44 62 29 63 30 64 38 65 31 66
REMARK SMILES IDX 37 67 32 68 33 69 34 70 35 71 36 72 59 73 60 74 68 75 61 76
REMARK SMILES IDX 67 77 62 78 63 79 64 80 65 81 66 82 45 83 46 84 54 85 47 86
REMARK SMILES IDX 53 87 48 88 49 89 50 90 51 91 52 92
REMARK H PARENT 83 18 73 48 43 59
REMARK Flexibility Score: inf
ROOT
ATOM      1  C   UNL A   1      40.270  21.659  26.363  1.00  0.00     0.188 C 
ENDROOT
BRANCH   1   2
ATOM      2  C   UNL A   1      38.818  22.106  26.078  1.00  0.00     0.188 C 
BRANCH   2   3
ATOM      3  O   UNL A   1      38.058  21.537  25.027  1.00  0.00    -0.376 OA
BRANCH   3   4
ATOM      4  C   UNL A   1      36.737  21.062  25.237  1.00  0.00     0.202 C 
BRANCH   4   5
ATOM      5  C   UNL A   1      35.706  21.890  26.006  1.00  0.00     0.261 C 
BRANCH   5   6
ATOM      6  O   UNL A   1      34.422  21.268  26.063  1.00  0.00    -0.460 OA
BRANCH   6   7
ATOM      7  C   UNL A   1      33.403  22.098  26.430  1.00  0.00     0.342 C 
ATOM      8  O   UNL A   1      33.329  22.689  27.490  1.00  0.00    -0.246 OA
BRANCH   7   9
ATOM      9  C   UNL A   1      32.479  22.357  25.344  1.00  0.00     0.111 A 
ATOM     10  C   UNL A   1      30.702  24.471  23.204  1.00  0.00     0.174 C 
ATOM     11  N   UNL A   1      31.117  23.314  23.966  1.00  0.00    -0.262 N 
ATOM     12  N   UNL A   1      31.654  22.309  23.241  1.00  0.00    -0.180 NA
ATOM     13  C   UNL A   1      31.349  23.187  25.323  1.00  0.00     0.140 A 
ATOM     14  C   UNL A   1      32.598  21.833  24.045  1.00  0.00     0.151 A 
BRANCH  13  15
ATOM     15  C   UNL A   1      30.804  23.880  26.476  1.00  0.00     0.275 C 
ATOM     16  O   UNL A   1      30.031  23.299  27.247  1.00  0.00    -0.267 OA
ATOM     17  N   UNL A   1      31.145  25.140  26.877  1.00  0.00    -0.305 N 
ATOM     18  H   UNL A   1      30.798  25.355  27.771  1.00  0.00     0.171 HD
BRANCH  17  19
ATOM     19  C   UNL A   1      31.860  26.186  26.326  1.00  0.00     0.132 A 
ATOM     20  C   UNL A   1      33.242  26.233  26.248  1.00  0.00     0.047 A 
ATOM     21  N   UNL A   1      31.064  27.183  25.888  1.00  0.00    -0.239 NA
ATOM     22  C   UNL A   1      33.830  27.410  25.777  1.00  0.00     0.005 A 
ATOM     23  C   UNL A   1      31.657  28.324  25.481  1.00  0.00     0.113 A 
ATOM     24  C   UNL A   1      33.026  28.489  25.420  1.00  0.00     0.020 A 
ENDBRANCH  17  19
ENDBRANCH  13  15
ENDBRANCH   7   9
ENDBRANCH   6   7
ENDBRANCH   5   6
ENDBRANCH   4   5
ENDBRANCH   3   4
ENDBRANCH   2   3
ENDBRANCH   1   2
BRANCH   1  25
ATOM     25  O   UNL A   1      41.236  22.580  26.838  1.00  0.00    -0.376 OA
BRANCH  25  26
ATOM     26  C   UNL A   1      42.548  22.539  26.301  1.00  0.00     0.202 C 
BRANCH  26  27
ATOM     27  C   UNL A   1      42.954  23.591  25.271  1.00  0.00     0.261 C 
BRANCH  27  28
ATOM     28  O   UNL A   1      43.289  24.853  25.868  1.00  0.00    -0.460 OA
BRANCH  28  29
ATOM     29  C   UNL A   1      42.265  25.736  25.944  1.00  0.00     0.338 C 
ATOM     30  O   UNL A   1      41.381  25.914  25.124  1.00  0.00    -0.246 OA
BRANCH  29  31
ATOM     31  C   UNL A   1      42.257  26.373  27.273  1.00  0.00     0.060 A 
ATOM     32  C   UNL A   1      41.301  25.937  28.200  1.00  0.00     0.016 A 
ATOM     33  C   UNL A   1      43.121  27.424  27.582  1.00  0.00     0.016 A 
ATOM     34  C   UNL A   1      41.178  26.583  29.428  1.00  0.00     0.010 A 
ATOM     35  C   UNL A   1      42.983  28.084  28.807  1.00  0.00     0.010 A 
ATOM     36  C   UNL A   1      41.990  27.688  29.719  1.00  0.00    -0.014 A 
BRANCH  36  37
ATOM     37  C   UNL A   1      41.689  28.524  30.904  1.00  0.00     0.031 A 
ATOM     38  C   UNL A   1      40.529  29.479  30.839  1.00  0.00     0.074 A 
ATOM     39  C   UNL A   1      42.424  28.425  32.026  1.00  0.00     0.049 A 
ATOM     40  N   UNL A   1      40.098  30.320  31.743  1.00  0.00    -0.248 NA
ATOM     41  C   UNL A   1      39.750  29.484  29.589  1.00  0.00     0.031 C 
ATOM     42  C   UNL A   1      43.544  27.508  32.227  1.00  0.00     0.029 A 
ATOM     43  N   UNL A   1      42.335  29.115  33.209  1.00  0.00    -0.354 N 
ATOM     44  C   UNL A   1      39.000  30.954  31.174  1.00  0.00     0.074 A 
ATOM     45  C   UNL A   1      38.844  30.419  29.838  1.00  0.00     0.031 C 
ATOM     46  C   UNL A   1      44.049  27.702  33.458  1.00  0.00     0.029 A 
ATOM     47  C   UNL A   1      43.304  28.772  34.119  1.00  0.00     0.049 A 
ATOM     48  H   UNL A   1      41.643  29.792  33.387  1.00  0.00     0.167 HD
ATOM     49  C   UNL A   1      38.190  31.894  31.715  1.00  0.00     0.031 A 
ATOM     50  C   UNL A   1      43.572  29.279  35.339  1.00  0.00     0.031 A 
ATOM     51  C   UNL A   1      38.359  32.447  33.031  1.00  0.00     0.049 A 
ATOM     52  C   UNL A   1      42.709  30.386  35.887  1.00  0.00     0.074 A 
ATOM     53  C   UNL A   1      37.586  33.401  33.671  1.00  0.00     0.029 A 
ATOM     54  N   UNL A   1      39.377  32.103  33.907  1.00  0.00    -0.354 N 
ATOM     55  N   UNL A   1      41.657  30.956  35.347  1.00  0.00    -0.248 NA
ATOM     56  C   UNL A   1      43.069  30.916  37.210  1.00  0.00     0.031 C 
ATOM     57  C   UNL A   1      38.167  33.668  34.915  1.00  0.00     0.029 A 
ATOM     58  C   UNL A   1      39.270  32.845  35.071  1.00  0.00     0.049 A 
ATOM     59  H   UNL A   1      40.073  31.430  33.728  1.00  0.00     0.167 HD
ATOM     60  C   UNL A   1      41.217  31.895  36.276  1.00  0.00     0.074 A 
ATOM     61  C   UNL A   1      42.109  31.808  37.414  1.00  0.00     0.031 C 
ATOM     62  C   UNL A   1      40.167  32.749  36.193  1.00  0.00     0.031 A 
BRANCH  49  63
ATOM     63  C   UNL A   1      37.065  32.409  30.860  1.00  0.00    -0.014 A 
ATOM     64  C   UNL A   1      35.767  31.883  30.979  1.00  0.00     0.010 A 
ATOM     65  C   UNL A   1      37.305  33.449  29.944  1.00  0.00     0.010 A 
ATOM     66  C   UNL A   1      34.734  32.364  30.170  1.00  0.00     0.020 A 
ATOM     67  C   UNL A   1      36.270  33.946  29.148  1.00  0.00     0.020 A 
ATOM     68  C   UNL A   1      34.994  33.389  29.254  1.00  0.00     0.054 A 
BRANCH  68  69
ATOM     69  S   UNL A   1      33.633  34.006  28.225  1.00  0.00     0.124 S 
ATOM     70  O   UNL A   1      32.772  34.646  29.217  1.00  0.00    -0.237 OA
ATOM     71  O   UNL A   1      34.312  34.914  27.304  1.00  0.00    -0.237 OA
ATOM     72  O   UNL A   1      33.087  32.797  27.613  1.00  0.00    -0.744 OA
ENDBRANCH  68  69
ENDBRANCH  49  63
BRANCH  50  73
ATOM     73  C   UNL A   1      44.727  28.764  36.122  1.00  0.00    -0.014 A 
ATOM     74  C   UNL A   1      44.606  27.598  36.896  1.00  0.00     0.010 A 
ATOM     75  C   UNL A   1      45.955  29.450  36.103  1.00  0.00     0.010 A 
ATOM     76  C   UNL A   1      45.687  27.136  37.653  1.00  0.00     0.020 A 
ATOM     77  C   UNL A   1      47.045  28.978  36.840  1.00  0.00     0.020 A 
ATOM     78  C   UNL A   1      46.899  27.830  37.621  1.00  0.00     0.054 A 
BRANCH  78  79
ATOM     79  S   UNL A   1      48.304  27.192  38.577  1.00  0.00     0.124 S 
ATOM     80  O   UNL A   1      48.562  25.915  37.918  1.00  0.00    -0.237 OA
ATOM     81  O   UNL A   1      49.318  28.223  38.380  1.00  0.00    -0.237 OA
ATOM     82  O   UNL A   1      47.777  27.099  39.937  1.00  0.00    -0.744 OA
ENDBRANCH  78  79
ENDBRANCH  50  73
BRANCH  62  83
ATOM     83  C   UNL A   1      39.905  33.644  37.375  1.00  0.00    -0.014 A 
ATOM     84  C   UNL A   1      40.388  34.965  37.408  1.00  0.00     0.010 A 
ATOM     85  C   UNL A   1      39.113  33.175  38.439  1.00  0.00     0.010 A 
ATOM     86  C   UNL A   1      40.103  35.793  38.496  1.00  0.00     0.020 A 
ATOM     87  C   UNL A   1      38.808  34.009  39.518  1.00  0.00     0.020 A 
ATOM     88  C   UNL A   1      39.315  35.309  39.546  1.00  0.00     0.054 A 
BRANCH  88  89
ATOM     89  S   UNL A   1      38.916  36.418  40.926  1.00  0.00     0.124 S 
ATOM     90  O   UNL A   1      37.871  35.673  41.622  1.00  0.00    -0.237 OA
ATOM     91  O   UNL A   1      40.190  36.524  41.634  1.00  0.00    -0.237 OA
ATOM     92  O   UNL A   1      38.474  37.645  40.265  1.00  0.00    -0.744 OA
ENDBRANCH  88  89
ENDBRANCH  62  83
ENDBRANCH  36  37
ENDBRANCH  29  31
ENDBRANCH  28  29
ENDBRANCH  27  28
ENDBRANCH  26  27
ENDBRANCH  25  26
ENDBRANCH   1  25
TORSDOF 22
ENDMDL
MODEL 2
REMARK VINA RESULT:      -9.6      1.835      8.474
REMARK SMILES Cn1ncc(C(=O)OCCOCCOCCOC(=O)c2ccc(-c3c4nc(c(-c5ccc(S(=O)(=O)[O-])cc5)c5ccc([nH]5)c(-c5ccc(S(=O)(=O)[O-])cc5)c5nc(c(-c6ccc(S(=O)(=O)[O-])cc6)c6ccc3[nH]6)C=C5)C=C4)cc2)c1C(=O)Nc1ccccn1
REMARK SMILES IDX 13 1 12 2 11 3 10 4 9 5 8 6 6 7 7 8 5 9 1 10 2 11 3 12 80 13
REMARK SMILES IDX 4 14 81 15 82 16 83 17 84 19 85 20 89 21 86 22 88 23 87 24
REMARK SMILES IDX 14 25 15 26 16 27 17 28 18 29 19 30 20 31 21 32 79 33 22 34
REMARK SMILES IDX 78 35 23 36 24 37 25 38 72 39 26 40 77 41 71 42 73 43 27 44
REMARK SMILES IDX 76 45 70 46 69 47 28 49 58 50 39 51 57 52 40 53 43 54 56 55
REMARK SMILES IDX 74 56 41 57 42 58 55 60 75 61 44 62 29 63 30 64 38 65 31 66
REMARK SMILES IDX 37 67 32 68 33 69 34 70 35 71 36 72 59 73 60 74 68 75 61 76
REMARK SMILES IDX 67 77 62 78 63 79 64 80 65 81 66 82 45 83 46 84 54 85 47 86
REMARK SMILES IDX 53 87 48 88 49 89 50 90 51 91 52 92
REMARK H PARENT 83 18 73 48 43 59
REMARK Flexibility Score: inf
ROOT
ATOM      1  C   UNL A   1      35.161  22.505  24.223  1.00  0.00     0.188 C 
ENDROOT
BRANCH   1   2
ATOM      2  C   UNL A   1      34.240  21.579  25.050  1.00  0.00     0.188 C 
BRANCH   2   3
ATOM      3  O   UNL A   1      32.883  21.376  24.700  1.00  0.00    -0.376 OA
BRANCH   3   4
ATOM      4  C   UNL A   1      31.825  21.823  25.534  1.00  0.00     0.202 C 
BRANCH   4   5
ATOM      5  C   UNL A   1      31.027  23.084  25.201  1.00  0.00     0.261 C 
BRANCH   5   6
ATOM      6  O   UNL A   1      31.817  24.097  24.580  1.00  0.00    -0.460 OA
BRANCH   6   7
ATOM      7  C   UNL A   1      31.133  24.905  23.719  1.00  0.00     0.342 C 
ATOM      8  O   UNL A   1      29.934  25.104  23.749  1.00  0.00    -0.246 OA
BRANCH   7   9
ATOM      9  C   UNL A   1      32.012  25.660  22.849  1.00  0.00     0.111 A 
ATOM     10  C   UNL A   1      34.117  28.353  22.127  1.00  0.00     0.174 C 
ATOM     11  N   UNL A   1      33.228  27.222  21.982  1.00  0.00    -0.262 N 
ATOM     12  N   UNL A   1      33.810  26.085  21.546  1.00  0.00    -0.180 NA
ATOM     13  C   UNL A   1      31.965  27.019  22.507  1.00  0.00     0.140 A 
ATOM     14  C   UNL A   1      33.153  25.141  22.211  1.00  0.00     0.151 A 
BRANCH  13  15
ATOM     15  C   UNL A   1      30.905  27.936  22.886  1.00  0.00     0.275 C 
ATOM     16  O   UNL A   1      29.952  28.138  22.125  1.00  0.00    -0.267 OA
ATOM     17  N   UNL A   1      30.792  28.558  24.097  1.00  0.00    -0.305 N 
ATOM     18  H   UNL A   1      29.918  28.995  24.212  1.00  0.00     0.171 HD
BRANCH  17  19
ATOM     19  C   UNL A   1      31.610  28.723  25.197  1.00  0.00     0.132 A 
ATOM     20  C   UNL A   1      32.749  29.509  25.213  1.00  0.00     0.047 A 
ATOM     21  N   UNL A   1      31.194  28.009  26.263  1.00  0.00    -0.239 NA
ATOM     22  C   UNL A   1      33.546  29.482  26.361  1.00  0.00     0.005 A 
ATOM     23  C   UNL A   1      32.003  27.964  27.341  1.00  0.00     0.113 A 
ATOM     24  C   UNL A   1      33.187  28.668  27.432  1.00  0.00     0.020 A 
ENDBRANCH  17  19
ENDBRANCH  13  15
ENDBRANCH   7   9
ENDBRANCH   6   7
ENDBRANCH   5   6
ENDBRANCH   4   5
ENDBRANCH   3   4
ENDBRANCH   2   3
ENDBRANCH   1   2
BRANCH   1  25
ATOM     25  O   UNL A   1      36.551  22.576  24.488  1.00  0.00    -0.376 OA
BRANCH  25  26
ATOM     26  C   UNL A   1      36.988  23.088  25.736  1.00  0.00     0.202 C 
BRANCH  26  27
ATOM     27  C   UNL A   1      38.472  23.400  25.925  1.00  0.00     0.261 C 
BRANCH  27  28
ATOM     28  O   UNL A   1      38.695  24.609  26.666  1.00  0.00    -0.460 OA
BRANCH  28  29
ATOM     29  C   UNL A   1      39.986  25.014  26.719  1.00  0.00     0.338 C 
ATOM     30  O   UNL A   1      40.849  24.840  25.876  1.00  0.00    -0.246 OA
BRANCH  29  31
ATOM     31  C   UNL A   1      40.188  25.873  27.900  1.00  0.00     0.060 A 
ATOM     32  C   UNL A   1      39.269  25.764  28.951  1.00  0.00     0.016 A 
ATOM     33  C   UNL A   1      41.216  26.816  27.946  1.00  0.00     0.016 A 
ATOM     34  C   UNL A   1      39.350  26.631  30.038  1.00  0.00     0.010 A 
ATOM     35  C   UNL A   1      41.283  27.698  29.029  1.00  0.00     0.010 A 
ATOM     36  C   UNL A   1      40.331  27.631  30.061  1.00  0.00    -0.014 A 
BRANCH  36  37
ATOM     37  C   UNL A   1      40.260  28.702  31.082  1.00  0.00     0.031 A 
ATOM     38  C   UNL A   1      41.172  28.624  32.275  1.00  0.00     0.074 A 
ATOM     39  C   UNL A   1      39.413  29.736  30.942  1.00  0.00     0.049 A 
ATOM     40  N   UNL A   1      41.266  29.433  33.299  1.00  0.00    -0.248 NA
ATOM     41  C   UNL A   1      42.103  27.483  32.320  1.00  0.00     0.031 C 
ATOM     42  C   UNL A   1      38.512  29.947  29.811  1.00  0.00     0.029 A 
ATOM     43  N   UNL A   1      39.172  30.804  31.770  1.00  0.00    -0.354 N 
ATOM     44  C   UNL A   1      42.264  28.902  34.108  1.00  0.00     0.074 A 
ATOM     45  C   UNL A   1      42.728  27.688  33.470  1.00  0.00     0.031 C 
ATOM     46  C   UNL A   1      37.803  31.070  30.022  1.00  0.00     0.029 A 
ATOM     47  C   UNL A   1      38.184  31.641  31.314  1.00  0.00     0.049 A 
ATOM     48  H   UNL A   1      39.660  30.955  32.612  1.00  0.00     0.167 HD
ATOM     49  C   UNL A   1      42.753  29.382  35.275  1.00  0.00     0.031 A 
ATOM     50  C   UNL A   1      37.635  32.733  31.882  1.00  0.00     0.031 A 
ATOM     51  C   UNL A   1      42.276  30.572  35.924  1.00  0.00     0.049 A 
ATOM     52  C   UNL A   1      38.137  33.201  33.224  1.00  0.00     0.074 A 
ATOM     53  C   UNL A   1      42.712  31.143  37.107  1.00  0.00     0.029 A 
ATOM     54  N   UNL A   1      41.245  31.371  35.450  1.00  0.00    -0.354 N 
ATOM     55  N   UNL A   1      39.100  32.703  33.964  1.00  0.00    -0.248 NA
ATOM     56  C   UNL A   1      37.480  34.380  33.805  1.00  0.00     0.031 C 
ATOM     57  C   UNL A   1      41.912  32.260  37.372  1.00  0.00     0.029 A 
ATOM     58  C   UNL A   1      41.013  32.413  36.330  1.00  0.00     0.049 A 
ATOM     59  H   UNL A   1      40.753  31.218  34.612  1.00  0.00     0.167 HD
ATOM     60  C   UNL A   1      39.178  33.522  35.086  1.00  0.00     0.074 A 
ATOM     61  C   UNL A   1      38.174  34.553  34.922  1.00  0.00     0.031 C 
ATOM     62  C   UNL A   1      40.008  33.430  36.154  1.00  0.00     0.031 A 
BRANCH  49  63
ATOM     63  C   UNL A   1      43.844  28.591  35.942  1.00  0.00    -0.014 A 
ATOM     64  C   UNL A   1      45.199  28.885  35.706  1.00  0.00     0.010 A 
ATOM     65  C   UNL A   1      43.511  27.556  36.835  1.00  0.00     0.010 A 
ATOM     66  C   UNL A   1      46.202  28.133  36.324  1.00  0.00     0.020 A 
ATOM     67  C   UNL A   1      44.511  26.817  37.470  1.00  0.00     0.020 A 
ATOM     68  C   UNL A   1      45.851  27.099  37.199  1.00  0.00     0.054 A 
BRANCH  68  69
ATOM     69  S   UNL A   1      47.171  26.148  38.000  1.00  0.00     0.124 S 
ATOM     70  O   UNL A   1      47.451  25.120  36.999  1.00  0.00    -0.237 OA
ATOM     71  O   UNL A   1      48.222  27.146  38.184  1.00  0.00    -0.237 OA
ATOM     72  O   UNL A   1      46.552  25.666  39.232  1.00  0.00    -0.744 OA
ENDBRANCH  68  69
ENDBRANCH  49  63
BRANCH  50  73
ATOM     73  C   UNL A   1      36.526  33.450  31.199  1.00  0.00    -0.014 A 
ATOM     74  C   UNL A   1      35.230  33.450  31.741  1.00  0.00     0.010 A 
ATOM     75  C   UNL A   1      36.763  34.129  29.990  1.00  0.00     0.010 A 
ATOM     76  C   UNL A   1      34.185  34.102  31.078  1.00  0.00     0.020 A 
ATOM     77  C   UNL A   1      35.727  34.802  29.336  1.00  0.00     0.020 A 
ATOM     78  C   UNL A   1      34.441  34.773  29.878  1.00  0.00     0.054 A 
BRANCH  78  79
ATOM     79  S   UNL A   1      33.082  35.649  29.054  1.00  0.00     0.124 S 
ATOM     80  O   UNL A   1      33.802  36.590  28.202  1.00  0.00    -0.237 OA
ATOM     81  O   UNL A   1      32.383  34.571  28.360  1.00  0.00    -0.237 OA
ATOM     82  O   UNL A   1      32.341  36.248  30.162  1.00  0.00    -0.744 OA
ENDBRANCH  78  79
ENDBRANCH  50  73
BRANCH  62  83
ATOM     83  C   UNL A   1      39.887  34.485  37.221  1.00  0.00    -0.014 A 
ATOM     84  C   UNL A   1      39.134  34.257  38.386  1.00  0.00     0.010 A 
ATOM     85  C   UNL A   1      40.588  35.697  37.081  1.00  0.00     0.010 A 
ATOM     86  C   UNL A   1      39.064  35.233  39.383  1.00  0.00     0.020 A 
ATOM     87  C   UNL A   1      40.538  36.666  38.087  1.00  0.00     0.020 A 
ATOM     88  C   UNL A   1      39.767  36.433  39.227  1.00  0.00     0.054 A 
BRANCH  88  89
ATOM     89  S   UNL A   1      39.702  37.667  40.556  1.00  0.00     0.124 S 
ATOM     90  O   UNL A   1      38.976  38.762  39.920  1.00  0.00    -0.237 OA
ATOM     91  O   UNL A   1      38.979  36.964  41.614  1.00  0.00    -0.237 OA
ATOM     92  O   UNL A   1      41.109  37.936  40.845  1.00  0.00    -0.744 OA
ENDBRANCH  88  89
ENDBRANCH  62  83
ENDBRANCH  36  37
ENDBRANCH  29  31
ENDBRANCH  28  29
ENDBRANCH  27  28
ENDBRANCH  26  27
ENDBRANCH  25  26
ENDBRANCH   1  25
TORSDOF 22
ENDMDL
MODEL 3
REMARK VINA RESULT:      -9.5      5.935     11.582
REMARK SMILES Cn1ncc(C(=O)OCCOCCOCCOC(=O)c2ccc(-c3c4nc(c(-c5ccc(S(=O)(=O)[O-])cc5)c5ccc([nH]5)c(-c5ccc(S(=O)(=O)[O-])cc5)c5nc(c(-c6ccc(S(=O)(=O)[O-])cc6)c6ccc3[nH]6)C=C5)C=C4)cc2)c1C(=O)Nc1ccccn1
REMARK SMILES IDX 13 1 12 2 11 3 10 4 9 5 8 6 6 7 7 8 5 9 1 10 2 11 3 12 80 13
REMARK SMILES IDX 4 14 81 15 82 16 83 17 84 19 85 20 89 21 86 22 88 23 87 24
REMARK SMILES IDX 14 25 15 26 16 27 17 28 18 29 19 30 20 31 21 32 79 33 22 34
REMARK SMILES IDX 78 35 23 36 24 37 25 38 72 39 26 40 77 41 71 42 73 43 27 44
REMARK SMILES IDX 76 45 70 46 69 47 28 49 58 50 39 51 57 52 40 53 43 54 56 55
REMARK SMILES IDX 74 56 41 57 42 58 55 60 75 61 44 62 29 63 30 64 38 65 31 66
REMARK SMILES IDX 37 67 32 68 33 69 34 70 35 71 36 72 59 73 60 74 68 75 61 76
REMARK SMILES IDX 67 77 62 78 63 79 64 80 65 81 66 82 45 83 46 84 54 85 47 86
REMARK SMILES IDX 53 87 48 88 49 89 50 90 51 91 52 92
REMARK H PARENT 83 18 73 48 43 59
REMARK Flexibility Score: inf
ROOT
ATOM      1  C   UNL A   1      34.939  30.818  27.867  1.00  0.00     0.188 C 
ENDROOT
BRANCH   1   2
ATOM      2  C   UNL A   1      34.060  29.666  27.328  1.00  0.00     0.188 C 
BRANCH   2   3
ATOM      3  O   UNL A   1      34.421  28.935  26.170  1.00  0.00    -0.376 OA
BRANCH   3   4
ATOM      4  C   UNL A   1      33.717  27.766  25.779  1.00  0.00     0.202 C 
BRANCH   4   5
ATOM      5  C   UNL A   1      32.456  27.311  26.515  1.00  0.00     0.261 C 
BRANCH   5   6
ATOM      6  O   UNL A   1      32.282  25.895  26.500  1.00  0.00    -0.460 OA
BRANCH   6   7
ATOM      7  C   UNL A   1      31.058  25.476  26.068  1.00  0.00     0.342 C 
ATOM      8  O   UNL A   1      30.089  26.194  25.906  1.00  0.00    -0.246 OA
BRANCH   7   9
ATOM      9  C   UNL A   1      31.062  24.091  25.641  1.00  0.00     0.111 A 
ATOM     10  C   UNL A   1      32.647  21.177  24.543  1.00  0.00     0.174 C 
ATOM     11  N   UNL A   1      31.641  22.180  24.815  1.00  0.00    -0.262 N 
ATOM     12  N   UNL A   1      30.752  21.857  25.778  1.00  0.00    -0.180 NA
ATOM     13  C   UNL A   1      31.621  23.523  24.488  1.00  0.00     0.140 A 
ATOM     14  C   UNL A   1      30.528  23.020  26.379  1.00  0.00     0.151 A 
BRANCH  13  15
ATOM     15  C   UNL A   1      32.222  24.271  23.398  1.00  0.00     0.275 C 
ATOM     16  O   UNL A   1      31.509  24.845  22.567  1.00  0.00    -0.267 OA
ATOM     17  N   UNL A   1      33.558  24.503  23.239  1.00  0.00    -0.305 N 
ATOM     18  H   UNL A   1      33.741  25.173  22.542  1.00  0.00     0.171 HD
BRANCH  17  19
ATOM     19  C   UNL A   1      34.715  24.021  23.820  1.00  0.00     0.132 A 
ATOM     20  C   UNL A   1      35.130  24.326  25.105  1.00  0.00     0.047 A 
ATOM     21  N   UNL A   1      35.423  23.230  22.987  1.00  0.00    -0.239 NA
ATOM     22  C   UNL A   1      36.384  23.865  25.514  1.00  0.00     0.005 A 
ATOM     23  C   UNL A   1      36.648  22.835  23.389  1.00  0.00     0.113 A 
ATOM     24  C   UNL A   1      37.173  23.136  24.630  1.00  0.00     0.020 A 
ENDBRANCH  17  19
ENDBRANCH  13  15
ENDBRANCH   7   9
ENDBRANCH   6   7
ENDBRANCH   5   6
ENDBRANCH   4   5
ENDBRANCH   3   4
ENDBRANCH   2   3
ENDBRANCH   1   2
BRANCH   1  25
ATOM     25  O   UNL A   1      34.418  31.765  28.783  1.00  0.00    -0.376 OA
BRANCH  25  26
ATOM     26  C   UNL A   1      35.086  33.006  28.944  1.00  0.00     0.202 C 
BRANCH  26  27
ATOM     27  C   UNL A   1      35.648  33.365  30.318  1.00  0.00     0.261 C 
BRANCH  27  28
ATOM     28  O   UNL A   1      37.011  32.950  30.486  1.00  0.00    -0.460 OA
BRANCH  28  29
ATOM     29  C   UNL A   1      37.172  31.776  31.142  1.00  0.00     0.338 C 
ATOM     30  O   UNL A   1      36.430  31.290  31.978  1.00  0.00    -0.246 OA
BRANCH  29  31
ATOM     31  C   UNL A   1      38.323  31.047  30.580  1.00  0.00     0.060 A 
ATOM     32  C   UNL A   1      39.391  30.751  31.437  1.00  0.00     0.016 A 
ATOM     33  C   UNL A   1      38.387  30.724  29.224  1.00  0.00     0.016 A 
ATOM     34  C   UNL A   1      40.548  30.164  30.930  1.00  0.00     0.010 A 
ATOM     35  C   UNL A   1      39.558  30.154  28.713  1.00  0.00     0.010 A 
ATOM     36  C   UNL A   1      40.653  29.904  29.557  1.00  0.00    -0.014 A 
BRANCH  36  37
ATOM     37  C   UNL A   1      41.965  29.521  28.984  1.00  0.00     0.031 A 
ATOM     38  C   UNL A   1      42.164  28.104  28.521  1.00  0.00     0.074 A 
ATOM     39  C   UNL A   1      42.956  30.421  28.861  1.00  0.00     0.049 A 
ATOM     40  N   UNL A   1      43.230  27.543  28.010  1.00  0.00    -0.248 NA
ATOM     41  C   UNL A   1      41.008  27.200  28.647  1.00  0.00     0.031 C 
ATOM     42  C   UNL A   1      42.870  31.832  29.233  1.00  0.00     0.029 A 
ATOM     43  N   UNL A   1      44.236  30.272  28.391  1.00  0.00    -0.354 N 
ATOM     44  C   UNL A   1      42.875  26.224  27.755  1.00  0.00     0.074 A 
ATOM     45  C   UNL A   1      41.504  26.061  28.188  1.00  0.00     0.031 C 
ATOM     46  C   UNL A   1      44.055  32.419  28.989  1.00  0.00     0.029 A 
ATOM     47  C   UNL A   1      44.987  31.419  28.468  1.00  0.00     0.049 A 
ATOM     48  H   UNL A   1      44.583  29.423  28.032  1.00  0.00     0.167 HD
ATOM     49  C   UNL A   1      43.621  25.237  27.205  1.00  0.00     0.031 A 
ATOM     50  C   UNL A   1      46.284  31.633  28.173  1.00  0.00     0.031 A 
ATOM     51  C   UNL A   1      44.991  25.390  26.799  1.00  0.00     0.049 A 
ATOM     52  C   UNL A   1      47.120  30.497  27.642  1.00  0.00     0.074 A 
ATOM     53  C   UNL A   1      45.830  24.449  26.226  1.00  0.00     0.029 A 
ATOM     54  N   UNL A   1      45.729  26.556  26.932  1.00  0.00    -0.354 N 
ATOM     55  N   UNL A   1      46.762  29.262  27.380  1.00  0.00    -0.248 NA
ATOM     56  C   UNL A   1      48.534  30.786  27.364  1.00  0.00     0.031 C 
ATOM     57  C   UNL A   1      47.090  25.034  26.058  1.00  0.00     0.029 A 
ATOM     58  C   UNL A   1      47.020  26.353  26.478  1.00  0.00     0.049 A 
ATOM     59  H   UNL A   1      45.384  27.404  27.294  1.00  0.00     0.167 HD
ATOM     60  C   UNL A   1      47.901  28.634  26.885  1.00  0.00     0.074 A 
ATOM     61  C   UNL A   1      48.956  29.627  26.874  1.00  0.00     0.031 C 
ATOM     62  C   UNL A   1      48.059  27.351  26.476  1.00  0.00     0.031 A 
BRANCH  49  63
ATOM     63  C   UNL A   1      42.971  23.891  27.045  1.00  0.00    -0.014 A 
ATOM     64  C   UNL A   1      42.408  23.499  25.818  1.00  0.00     0.010 A 
ATOM     65  C   UNL A   1      42.946  22.995  28.130  1.00  0.00     0.010 A 
ATOM     66  C   UNL A   1      41.798  22.249  25.688  1.00  0.00     0.020 A 
ATOM     67  C   UNL A   1      42.355  21.736  27.997  1.00  0.00     0.020 A 
ATOM     68  C   UNL A   1      41.770  21.377  26.782  1.00  0.00     0.054 A 
BRANCH  68  69
ATOM     69  S   UNL A   1      40.985  19.754  26.584  1.00  0.00     0.124 S 
ATOM     70  O   UNL A   1      41.945  19.057  25.730  1.00  0.00    -0.237 OA
ATOM     71  O   UNL A   1      40.901  19.267  27.958  1.00  0.00    -0.237 OA
ATOM     72  O   UNL A   1      39.703  20.064  25.957  1.00  0.00    -0.744 OA
ENDBRANCH  68  69
ENDBRANCH  49  63
BRANCH  50  73
ATOM     73  C   UNL A   1      46.887  32.974  28.394  1.00  0.00    -0.014 A 
ATOM     74  C   UNL A   1      47.508  33.290  29.614  1.00  0.00     0.010 A 
ATOM     75  C   UNL A   1      46.831  33.950  27.382  1.00  0.00     0.010 A 
ATOM     76  C   UNL A   1      48.046  34.563  29.826  1.00  0.00     0.020 A 
ATOM     77  C   UNL A   1      47.389  35.215  27.581  1.00  0.00     0.020 A 
ATOM     78  C   UNL A   1      47.982  35.518  28.808  1.00  0.00     0.054 A 
BRANCH  78  79
ATOM     79  S   UNL A   1      48.724  37.151  29.086  1.00  0.00     0.124 S 
ATOM     80  O   UNL A   1      50.142  36.824  29.190  1.00  0.00    -0.237 OA
ATOM     81  O   UNL A   1      48.329  37.888  27.888  1.00  0.00    -0.237 OA
ATOM     82  O   UNL A   1      48.093  37.605  30.323  1.00  0.00    -0.744 OA
ENDBRANCH  78  79
ENDBRANCH  50  73
BRANCH  62  83
ATOM     83  C   UNL A   1      49.413  26.949  25.954  1.00  0.00    -0.014 A 
ATOM     84  C   UNL A   1      49.802  27.250  24.637  1.00  0.00     0.010 A 
ATOM     85  C   UNL A   1      50.329  26.316  26.814  1.00  0.00     0.010 A 
ATOM     86  C   UNL A   1      51.076  26.903  24.181  1.00  0.00     0.020 A 
ATOM     87  C   UNL A   1      51.612  25.988  26.369  1.00  0.00     0.020 A 
ATOM     88  C   UNL A   1      51.974  26.273  25.051  1.00  0.00     0.054 A 
BRANCH  88  89
ATOM     89  S   UNL A   1      53.641  25.876  24.453  1.00  0.00     0.124 S 
ATOM     90  O   UNL A   1      53.897  24.592  25.098  1.00  0.00    -0.237 OA
ATOM     91  O   UNL A   1      53.461  25.827  23.004  1.00  0.00    -0.237 OA
ATOM     92  O   UNL A   1      54.454  26.991  24.935  1.00  0.00    -0.744 OA
ENDBRANCH  88  89
ENDBRANCH  62  83
ENDBRANCH  36  37
ENDBRANCH  29  31
ENDBRANCH  28  29
ENDBRANCH  27  28
ENDBRANCH  26  27
ENDBRANCH  25  26
ENDBRANCH   1  25
TORSDOF 22
ENDMDL
