MODEL 1
REMARK VINA RESULT:      -8.1      0.000      0.000
REMARK SMILES Cc1cccc(C)c1Nc1ccccc1CC(=O)OCCOCCOCCOC(=O)c1ccc(-c2c3nc(c(-c4ccc(S(=O)(=O)[O-])cc4)c4ccc([nH]4)c(-c4ccc(S(=O)(=O)[O-])cc4)c4nc(c(-c5ccc(S(=O)(=O)[O-])cc5)c5ccc2[nH]5)C=C4)C=C3)cc1
REMARK SMILES IDX 23 1 22 2 21 3 20 4 19 5 17 6 18 7 16 8 15 9 10 10 11 11
REMARK SMILES IDX 12 12 14 13 13 14 9 15 8 17 1 18 2 19 3 20 4 21 6 22 5 23
REMARK SMILES IDX 7 24 24 25 25 26 26 27 27 28 28 29 29 30 30 31 31 32 32 33
REMARK SMILES IDX 90 34 33 35 89 36 34 37 35 38 36 39 83 40 37 41 88 42 82 43
REMARK SMILES IDX 84 44 38 45 87 46 81 47 80 48 39 50 69 51 50 52 68 53 51 54
REMARK SMILES IDX 54 55 67 56 85 57 52 58 53 59 66 61 86 62 55 63 40 64 41 65
REMARK SMILES IDX 49 66 42 67 48 68 43 69 44 70 45 71 46 72 47 73 70 74 71 75
REMARK SMILES IDX 79 76 72 77 78 78 73 79 74 80 75 81 76 82 77 83 56 84 57 85
REMARK SMILES IDX 65 86 58 87 64 88 59 89 60 90 61 91 62 92 63 93
REMARK H PARENT 9 16 84 49 54 60
REMARK Flexibility Score: inf
ROOT
ATOM      1  C   UNL A   1      43.564  22.798  24.997  1.00  0.00     0.188 C 
ENDROOT
BRANCH   1   2
ATOM      2  O   UNL A   1      44.348  23.821  25.606  1.00  0.00    -0.376 OA
BRANCH   2   3
ATOM      3  C   UNL A   1      44.407  25.096  24.979  1.00  0.00     0.202 C 
BRANCH   3   4
ATOM      4  C   UNL A   1      45.600  25.971  25.379  1.00  0.00     0.261 C 
BRANCH   4   5
ATOM      5  O   UNL A   1      45.257  27.370  25.410  1.00  0.00    -0.463 OA
BRANCH   5   6
ATOM      6  C   UNL A   1      46.255  28.245  25.127  1.00  0.00     0.310 C 
ATOM      7  O   UNL A   1      46.632  28.491  23.985  1.00  0.00    -0.252 OA
BRANCH   6   8
ATOM      8  C   UNL A   1      46.694  29.058  26.328  1.00  0.00     0.160 C 
BRANCH   8   9
ATOM      9  C   UNL A   1      45.659  29.738  27.213  1.00  0.00    -0.013 A 
ATOM     10  C   UNL A   1      44.750  29.056  28.042  1.00  0.00     0.042 A 
ATOM     11  C   UNL A   1      43.770  29.787  28.752  1.00  0.00     0.026 A 
ATOM     12  C   UNL A   1      43.765  31.180  28.756  1.00  0.00     0.002 A 
ATOM     13  C   UNL A   1      45.678  31.143  27.299  1.00  0.00     0.006 A 
ATOM     14  C   UNL A   1      44.750  31.859  28.059  1.00  0.00     0.000 A 
BRANCH  10  15
ATOM     15  N   UNL A   1      44.883  27.700  28.383  1.00  0.00    -0.355 N 
ATOM     16  H   UNL A   1      44.867  27.082  27.616  1.00  0.00     0.167 HD
BRANCH  15  17
ATOM     17  C   UNL A   1      45.037  27.070  29.642  1.00  0.00     0.044 A 
ATOM     18  C   UNL A   1      43.305  25.375  28.851  1.00  0.00     0.046 C 
ATOM     19  C   UNL A   1      44.314  25.869  29.855  1.00  0.00    -0.027 A 
ATOM     20  C   UNL A   1      44.575  25.085  30.987  1.00  0.00     0.005 A 
ATOM     21  C   UNL A   1      45.532  25.475  31.915  1.00  0.00     0.001 A 
ATOM     22  C   UNL A   1      45.943  27.509  30.644  1.00  0.00    -0.027 A 
ATOM     23  C   UNL A   1      46.202  26.680  31.749  1.00  0.00     0.005 A 
ATOM     24  C   UNL A   1      46.713  28.806  30.600  1.00  0.00     0.046 C 
ENDBRANCH  15  17
ENDBRANCH  10  15
ENDBRANCH   8   9
ENDBRANCH   6   8
ENDBRANCH   5   6
ENDBRANCH   4   5
ENDBRANCH   3   4
ENDBRANCH   2   3
ENDBRANCH   1   2
BRANCH   1  25
ATOM     25  C   UNL A   1      42.735  21.856  25.879  1.00  0.00     0.188 C 
BRANCH  25  26
ATOM     26  O   UNL A   1      41.362  22.218  25.905  1.00  0.00    -0.376 OA
BRANCH  26  27
ATOM     27  C   UNL A   1      41.053  23.138  26.941  1.00  0.00     0.202 C 
BRANCH  27  28
ATOM     28  C   UNL A   1      39.541  23.367  26.942  1.00  0.00     0.261 C 
BRANCH  28  29
ATOM     29  O   UNL A   1      39.143  24.715  26.609  1.00  0.00    -0.460 OA
BRANCH  29  30
ATOM     30  C   UNL A   1      40.117  25.645  26.576  1.00  0.00     0.338 C 
ATOM     31  O   UNL A   1      40.959  25.787  25.689  1.00  0.00    -0.246 OA
BRANCH  30  32
ATOM     32  C   UNL A   1      39.921  26.605  27.682  1.00  0.00     0.060 A 
ATOM     33  C   UNL A   1      40.415  27.908  27.542  1.00  0.00     0.016 A 
ATOM     34  C   UNL A   1      39.295  26.223  28.870  1.00  0.00     0.016 A 
ATOM     35  C   UNL A   1      40.304  28.827  28.588  1.00  0.00     0.010 A 
ATOM     36  C   UNL A   1      39.209  27.136  29.930  1.00  0.00     0.010 A 
ATOM     37  C   UNL A   1      39.735  28.435  29.806  1.00  0.00    -0.014 A 
BRANCH  37  38
ATOM     38  C   UNL A   1      39.853  29.306  31.005  1.00  0.00     0.031 A 
ATOM     39  C   UNL A   1      41.021  29.094  31.934  1.00  0.00     0.074 A 
ATOM     40  C   UNL A   1      38.961  30.280  31.263  1.00  0.00     0.049 A 
ATOM     41  N   UNL A   1      41.269  29.642  33.095  1.00  0.00    -0.248 NA
ATOM     42  C   UNL A   1      42.047  28.136  31.488  1.00  0.00     0.031 C 
ATOM     43  C   UNL A   1      37.834  30.652  30.410  1.00  0.00     0.029 A 
ATOM     44  N   UNL A   1      38.864  31.135  32.335  1.00  0.00    -0.354 N 
ATOM     45  C   UNL A   1      42.469  29.086  33.526  1.00  0.00     0.074 A 
ATOM     46  C   UNL A   1      42.887  28.143  32.512  1.00  0.00     0.031 C 
ATOM     47  C   UNL A   1      37.154  31.654  30.995  1.00  0.00     0.029 A 
ATOM     48  C   UNL A   1      37.765  31.962  32.287  1.00  0.00     0.049 A 
ATOM     49  H   UNL A   1      39.521  31.156  33.069  1.00  0.00     0.167 HD
ATOM     50  C   UNL A   1      43.164  29.340  34.661  1.00  0.00     0.031 A 
ATOM     51  C   UNL A   1      37.290  32.840  33.195  1.00  0.00     0.031 A 
ATOM     52  C   UNL A   1      42.743  30.269  35.675  1.00  0.00     0.049 A 
ATOM     53  C   UNL A   1      38.019  33.019  34.504  1.00  0.00     0.074 A 
ATOM     54  C   UNL A   1      43.368  30.578  36.873  1.00  0.00     0.029 A 
ATOM     55  N   UNL A   1      41.596  31.045  35.612  1.00  0.00    -0.354 N 
ATOM     56  N   UNL A   1      39.137  32.465  34.912  1.00  0.00    -0.248 NA
ATOM     57  C   UNL A   1      37.417  33.942  35.480  1.00  0.00     0.031 C 
ATOM     58  C   UNL A   1      42.571  31.502  37.555  1.00  0.00     0.029 A 
ATOM     59  C   UNL A   1      41.484  31.817  36.756  1.00  0.00     0.049 A 
ATOM     60  H   UNL A   1      40.955  31.045  34.865  1.00  0.00     0.167 HD
ATOM     61  C   UNL A   1      39.389  33.001  36.173  1.00  0.00     0.074 A 
ATOM     62  C   UNL A   1      38.314  33.930  36.455  1.00  0.00     0.031 C 
ATOM     63  C   UNL A   1      40.417  32.748  37.020  1.00  0.00     0.031 A 
BRANCH  50  64
ATOM     64  C   UNL A   1      44.441  28.574  34.881  1.00  0.00    -0.014 A 
ATOM     65  C   UNL A   1      45.695  29.174  34.665  1.00  0.00     0.010 A 
ATOM     66  C   UNL A   1      44.388  27.250  35.353  1.00  0.00     0.010 A 
ATOM     67  C   UNL A   1      46.871  28.452  34.887  1.00  0.00     0.020 A 
ATOM     68  C   UNL A   1      45.561  26.534  35.602  1.00  0.00     0.020 A 
ATOM     69  C   UNL A   1      46.797  27.136  35.354  1.00  0.00     0.054 A 
BRANCH  69  70
ATOM     70  S   UNL A   1      48.340  26.235  35.660  1.00  0.00     0.124 S 
ATOM     71  O   UNL A   1      48.976  26.269  34.344  1.00  0.00    -0.237 OA
ATOM     72  O   UNL A   1      48.985  27.046  36.690  1.00  0.00    -0.237 OA
ATOM     73  O   UNL A   1      47.891  24.916  36.100  1.00  0.00    -0.744 OA
ENDBRANCH  69  70
ENDBRANCH  50  64
BRANCH  51  74
ATOM     74  C   UNL A   1      36.033  33.597  32.930  1.00  0.00    -0.014 A 
ATOM     75  C   UNL A   1      36.076  34.884  32.365  1.00  0.00     0.010 A 
ATOM     76  C   UNL A   1      34.785  33.053  33.287  1.00  0.00     0.010 A 
ATOM     77  C   UNL A   1      34.902  35.625  32.194  1.00  0.00     0.020 A 
ATOM     78  C   UNL A   1      33.606  33.777  33.087  1.00  0.00     0.020 A 
ATOM     79  C   UNL A   1      33.674  35.067  32.559  1.00  0.00     0.054 A 
BRANCH  79  80
ATOM     80  S   UNL A   1      32.161  36.039  32.312  1.00  0.00     0.124 S 
ATOM     81  O   UNL A   1      32.353  37.141  33.249  1.00  0.00    -0.237 OA
ATOM     82  O   UNL A   1      32.239  36.391  30.896  1.00  0.00    -0.237 OA
ATOM     83  O   UNL A   1      31.094  35.102  32.656  1.00  0.00    -0.744 OA
ENDBRANCH  79  80
ENDBRANCH  51  74
BRANCH  63  84
ATOM     84  C   UNL A   1      40.467  33.524  38.311  1.00  0.00    -0.014 A 
ATOM     85  C   UNL A   1      41.411  34.545  38.517  1.00  0.00     0.010 A 
ATOM     86  C   UNL A   1      39.514  33.262  39.313  1.00  0.00     0.010 A 
ATOM     87  C   UNL A   1      41.420  35.269  39.713  1.00  0.00     0.020 A 
ATOM     88  C   UNL A   1      39.501  34.003  40.497  1.00  0.00     0.020 A 
ATOM     89  C   UNL A   1      40.464  34.994  40.696  1.00  0.00     0.054 A 
BRANCH  89  90
ATOM     90  S   UNL A   1      40.468  35.976  42.221  1.00  0.00     0.124 S 
ATOM     91  O   UNL A   1      39.196  36.687  42.129  1.00  0.00    -0.237 OA
ATOM     92  O   UNL A   1      40.542  34.953  43.261  1.00  0.00    -0.237 OA
ATOM     93  O   UNL A   1      41.659  36.812  42.093  1.00  0.00    -0.744 OA
ENDBRANCH  89  90
ENDBRANCH  63  84
ENDBRANCH  37  38
ENDBRANCH  30  32
ENDBRANCH  29  30
ENDBRANCH  28  29
ENDBRANCH  27  28
ENDBRANCH  26  27
ENDBRANCH  25  26
ENDBRANCH   1  25
TORSDOF 23
ENDMDL
MODEL 2
REMARK VINA RESULT:      -8.0      3.914     12.910
REMARK SMILES Cc1cccc(C)c1Nc1ccccc1CC(=O)OCCOCCOCCOC(=O)c1ccc(-c2c3nc(c(-c4ccc(S(=O)(=O)[O-])cc4)c4ccc([nH]4)c(-c4ccc(S(=O)(=O)[O-])cc4)c4nc(c(-c5ccc(S(=O)(=O)[O-])cc5)c5ccc2[nH]5)C=C4)C=C3)cc1
REMARK SMILES IDX 23 1 22 2 21 3 20 4 19 5 17 6 18 7 16 8 15 9 10 10 11 11
REMARK SMILES IDX 12 12 14 13 13 14 9 15 8 17 1 18 2 19 3 20 4 21 6 22 5 23
REMARK SMILES IDX 7 24 24 25 25 26 26 27 27 28 28 29 29 30 30 31 31 32 32 33
REMARK SMILES IDX 90 34 33 35 89 36 34 37 35 38 36 39 83 40 37 41 88 42 82 43
REMARK SMILES IDX 84 44 38 45 87 46 81 47 80 48 39 50 69 51 50 52 68 53 51 54
REMARK SMILES IDX 54 55 67 56 85 57 52 58 53 59 66 61 86 62 55 63 40 64 41 65
REMARK SMILES IDX 49 66 42 67 48 68 43 69 44 70 45 71 46 72 47 73 70 74 71 75
REMARK SMILES IDX 79 76 72 77 78 78 73 79 74 80 75 81 76 82 77 83 56 84 57 85
REMARK SMILES IDX 65 86 58 87 64 88 59 89 60 90 61 91 62 92 63 93
REMARK H PARENT 9 16 84 49 54 60
REMARK Flexibility Score: inf
ROOT
ATOM      1  C   UNL A   1      34.647  35.353  33.465  1.00  0.00     0.188 C 
ENDROOT
BRANCH   1   2
ATOM      2  O   UNL A   1      34.449  36.112  32.275  1.00  0.00    -0.376 OA
BRANCH   2   3
ATOM      3  C   UNL A   1      33.131  36.234  31.758  1.00  0.00     0.202 C 
BRANCH   3   4
ATOM      4  C   UNL A   1      32.931  35.700  30.335  1.00  0.00     0.261 C 
BRANCH   4   5
ATOM      5  O   UNL A   1      33.282  34.307  30.227  1.00  0.00    -0.463 OA
BRANCH   5   6
ATOM      6  C   UNL A   1      34.065  33.958  29.174  1.00  0.00     0.310 C 
ATOM      7  O   UNL A   1      34.236  34.678  28.195  1.00  0.00    -0.252 OA
BRANCH   6   8
ATOM      8  C   UNL A   1      34.888  32.712  29.429  1.00  0.00     0.160 C 
BRANCH   8   9
ATOM      9  C   UNL A   1      36.142  32.784  30.290  1.00  0.00    -0.013 A 
ATOM     10  C   UNL A   1      36.767  31.671  30.880  1.00  0.00     0.042 A 
ATOM     11  C   UNL A   1      37.875  31.866  31.735  1.00  0.00     0.026 A 
ATOM     12  C   UNL A   1      38.449  33.124  31.906  1.00  0.00     0.002 A 
ATOM     13  C   UNL A   1      36.789  34.027  30.417  1.00  0.00     0.006 A 
ATOM     14  C   UNL A   1      37.927  34.201  31.210  1.00  0.00     0.000 A 
BRANCH  10  15
ATOM     15  N   UNL A   1      36.495  30.344  30.506  1.00  0.00    -0.355 N 
ATOM     16  H   UNL A   1      35.541  30.099  30.533  1.00  0.00     0.167 HD
BRANCH  15  17
ATOM     17  C   UNL A   1      37.359  29.299  30.097  1.00  0.00     0.044 A 
ATOM     18  C   UNL A   1      36.919  30.057  27.703  1.00  0.00     0.046 C 
ATOM     19  C   UNL A   1      37.637  29.197  28.711  1.00  0.00    -0.027 A 
ATOM     20  C   UNL A   1      38.638  28.327  28.258  1.00  0.00     0.005 A 
ATOM     21  C   UNL A   1      39.361  27.550  29.155  1.00  0.00     0.001 A 
ATOM     22  C   UNL A   1      38.036  28.432  30.996  1.00  0.00    -0.027 A 
ATOM     23  C   UNL A   1      39.055  27.596  30.509  1.00  0.00     0.005 A 
ATOM     24  C   UNL A   1      37.780  28.361  32.482  1.00  0.00     0.046 C 
ENDBRANCH  15  17
ENDBRANCH  10  15
ENDBRANCH   8   9
ENDBRANCH   6   8
ENDBRANCH   5   6
ENDBRANCH   4   5
ENDBRANCH   3   4
ENDBRANCH   2   3
ENDBRANCH   1   2
BRANCH   1  25
ATOM     25  C   UNL A   1      34.454  33.831  33.430  1.00  0.00     0.188 C 
BRANCH  25  26
ATOM     26  O   UNL A   1      35.398  33.154  34.247  1.00  0.00    -0.376 OA
BRANCH  26  27
ATOM     27  C   UNL A   1      36.475  33.986  34.651  1.00  0.00     0.202 C 
BRANCH  27  28
ATOM     28  C   UNL A   1      36.519  34.003  36.180  1.00  0.00     0.261 C 
BRANCH  28  29
ATOM     29  O   UNL A   1      36.939  32.757  36.777  1.00  0.00    -0.460 OA
BRANCH  29  30
ATOM     30  C   UNL A   1      38.134  32.755  37.402  1.00  0.00     0.338 C 
ATOM     31  O   UNL A   1      38.350  33.108  38.561  1.00  0.00    -0.246 OA
BRANCH  30  32
ATOM     32  C   UNL A   1      39.136  32.087  36.545  1.00  0.00     0.060 A 
ATOM     33  C   UNL A   1      40.494  32.352  36.763  1.00  0.00     0.016 A 
ATOM     34  C   UNL A   1      38.751  31.239  35.505  1.00  0.00     0.016 A 
ATOM     35  C   UNL A   1      41.470  31.788  35.938  1.00  0.00     0.010 A 
ATOM     36  C   UNL A   1      39.727  30.698  34.659  1.00  0.00     0.010 A 
ATOM     37  C   UNL A   1      41.090  30.988  34.853  1.00  0.00    -0.014 A 
BRANCH  37  38
ATOM     38  C   UNL A   1      42.085  30.607  33.817  1.00  0.00     0.031 A 
ATOM     39  C   UNL A   1      42.383  31.589  32.711  1.00  0.00     0.074 A 
ATOM     40  C   UNL A   1      42.732  29.428  33.855  1.00  0.00     0.049 A 
ATOM     41  N   UNL A   1      43.114  31.435  31.638  1.00  0.00    -0.248 NA
ATOM     42  C   UNL A   1      41.773  32.923  32.840  1.00  0.00     0.031 C 
ATOM     43  C   UNL A   1      42.608  28.422  34.908  1.00  0.00     0.029 A 
ATOM     44  N   UNL A   1      43.628  28.876  32.969  1.00  0.00    -0.354 N 
ATOM     45  C   UNL A   1      43.041  32.646  30.957  1.00  0.00     0.074 A 
ATOM     46  C   UNL A   1      42.178  33.515  31.726  1.00  0.00     0.031 C 
ATOM     47  C   UNL A   1      43.390  27.371  34.603  1.00  0.00     0.029 A 
ATOM     48  C   UNL A   1      44.032  27.605  33.311  1.00  0.00     0.049 A 
ATOM     49  H   UNL A   1      43.950  29.345  32.166  1.00  0.00     0.167 HD
ATOM     50  C   UNL A   1      43.642  33.005  29.796  1.00  0.00     0.031 A 
ATOM     51  C   UNL A   1      44.803  26.723  32.641  1.00  0.00     0.031 A 
ATOM     52  C   UNL A   1      44.492  32.138  29.025  1.00  0.00     0.049 A 
ATOM     53  C   UNL A   1      45.366  27.104  31.294  1.00  0.00     0.074 A 
ATOM     54  C   UNL A   1      45.128  32.403  27.823  1.00  0.00     0.029 A 
ATOM     55  N   UNL A   1      44.831  30.841  29.379  1.00  0.00    -0.354 N 
ATOM     56  N   UNL A   1      45.265  28.242  30.646  1.00  0.00    -0.248 NA
ATOM     57  C   UNL A   1      46.145  26.077  30.584  1.00  0.00     0.031 C 
ATOM     58  C   UNL A   1      45.809  31.248  27.426  1.00  0.00     0.029 A 
ATOM     59  C   UNL A   1      45.651  30.286  28.411  1.00  0.00     0.049 A 
ATOM     60  H   UNL A   1      44.532  30.382  30.196  1.00  0.00     0.167 HD
ATOM     61  C   UNL A   1      45.998  28.077  29.473  1.00  0.00     0.074 A 
ATOM     62  C   UNL A   1      46.545  26.737  29.506  1.00  0.00     0.031 C 
ATOM     63  C   UNL A   1      46.201  28.956  28.460  1.00  0.00     0.031 A 
BRANCH  50  64
ATOM     64  C   UNL A   1      43.373  34.391  29.274  1.00  0.00    -0.014 A 
ATOM     65  C   UNL A   1      44.277  35.443  29.506  1.00  0.00     0.010 A 
ATOM     66  C   UNL A   1      42.223  34.634  28.501  1.00  0.00     0.010 A 
ATOM     67  C   UNL A   1      44.018  36.721  29.001  1.00  0.00     0.020 A 
ATOM     68  C   UNL A   1      41.974  35.903  27.972  1.00  0.00     0.020 A 
ATOM     69  C   UNL A   1      42.868  36.942  28.238  1.00  0.00     0.054 A 
BRANCH  69  70
ATOM     70  S   UNL A   1      42.574  38.604  27.573  1.00  0.00     0.124 S 
ATOM     71  O   UNL A   1      43.859  38.911  26.950  1.00  0.00    -0.237 OA
ATOM     72  O   UNL A   1      41.463  38.385  26.649  1.00  0.00    -0.237 OA
ATOM     73  O   UNL A   1      42.249  39.399  28.755  1.00  0.00    -0.744 OA
ENDBRANCH  69  70
ENDBRANCH  50  64
BRANCH  51  74
ATOM     74  C   UNL A   1      45.065  25.368  33.204  1.00  0.00    -0.014 A 
ATOM     75  C   UNL A   1      44.164  24.311  32.980  1.00  0.00     0.010 A 
ATOM     76  C   UNL A   1      46.194  25.137  34.011  1.00  0.00     0.010 A 
ATOM     77  C   UNL A   1      44.369  23.063  33.577  1.00  0.00     0.020 A 
ATOM     78  C   UNL A   1      46.422  23.882  34.584  1.00  0.00     0.020 A 
ATOM     79  C   UNL A   1      45.496  22.857  34.378  1.00  0.00     0.054 A 
BRANCH  79  80
ATOM     80  S   UNL A   1      45.753  21.225  35.129  1.00  0.00     0.124 S 
ATOM     81  O   UNL A   1      45.904  21.561  36.541  1.00  0.00    -0.237 OA
ATOM     82  O   UNL A   1      44.525  20.518  34.774  1.00  0.00    -0.237 OA
ATOM     83  O   UNL A   1      46.959  20.732  34.469  1.00  0.00    -0.744 OA
ENDBRANCH  79  80
ENDBRANCH  51  74
BRANCH  63  84
ATOM     84  C   UNL A   1      47.095  28.524  27.327  1.00  0.00    -0.014 A 
ATOM     85  C   UNL A   1      48.485  28.733  27.369  1.00  0.00     0.010 A 
ATOM     86  C   UNL A   1      46.539  27.845  26.227  1.00  0.00     0.010 A 
ATOM     87  C   UNL A   1      49.297  28.299  26.316  1.00  0.00     0.020 A 
ATOM     88  C   UNL A   1      47.350  27.384  25.187  1.00  0.00     0.020 A 
ATOM     89  C   UNL A   1      48.724  27.626  25.232  1.00  0.00     0.054 A 
BRANCH  89  90
ATOM     90  S   UNL A   1      49.804  27.033  23.901  1.00  0.00     0.124 S 
ATOM     91  O   UNL A   1      48.892  26.210  23.112  1.00  0.00    -0.237 OA
ATOM     92  O   UNL A   1      50.240  28.275  23.265  1.00  0.00    -0.237 OA
ATOM     93  O   UNL A   1      50.853  26.300  24.605  1.00  0.00    -0.744 OA
ENDBRANCH  89  90
ENDBRANCH  63  84
ENDBRANCH  37  38
ENDBRANCH  30  32
ENDBRANCH  29  30
ENDBRANCH  28  29
ENDBRANCH  27  28
ENDBRANCH  26  27
ENDBRANCH  25  26
ENDBRANCH   1  25
TORSDOF 23
ENDMDL
MODEL 3
REMARK VINA RESULT:      -8.0      3.683      5.088
REMARK SMILES Cc1cccc(C)c1Nc1ccccc1CC(=O)OCCOCCOCCOC(=O)c1ccc(-c2c3nc(c(-c4ccc(S(=O)(=O)[O-])cc4)c4ccc([nH]4)c(-c4ccc(S(=O)(=O)[O-])cc4)c4nc(c(-c5ccc(S(=O)(=O)[O-])cc5)c5ccc2[nH]5)C=C4)C=C3)cc1
REMARK SMILES IDX 23 1 22 2 21 3 20 4 19 5 17 6 18 7 16 8 15 9 10 10 11 11
REMARK SMILES IDX 12 12 14 13 13 14 9 15 8 17 1 18 2 19 3 20 4 21 6 22 5 23
REMARK SMILES IDX 7 24 24 25 25 26 26 27 27 28 28 29 29 30 30 31 31 32 32 33
REMARK SMILES IDX 90 34 33 35 89 36 34 37 35 38 36 39 83 40 37 41 88 42 82 43
REMARK SMILES IDX 84 44 38 45 87 46 81 47 80 48 39 50 69 51 50 52 68 53 51 54
REMARK SMILES IDX 54 55 67 56 85 57 52 58 53 59 66 61 86 62 55 63 40 64 41 65
REMARK SMILES IDX 49 66 42 67 48 68 43 69 44 70 45 71 46 72 47 73 70 74 71 75
REMARK SMILES IDX 79 76 72 77 78 78 73 79 74 80 75 81 76 82 77 83 56 84 57 85
REMARK SMILES IDX 65 86 58 87 64 88 59 89 60 90 61 91 62 92 63 93
REMARK H PARENT 9 16 84 49 54 60
REMARK Flexibility Score: inf
ROOT
ATOM      1  C   UNL A   1      44.862  20.043  24.388  1.00  0.00     0.188 C 
ENDROOT
BRANCH   1   2
ATOM      2  O   UNL A   1      45.654  21.061  24.996  1.00  0.00    -0.376 OA
BRANCH   2   3
ATOM      3  C   UNL A   1      45.706  22.340  24.378  1.00  0.00     0.202 C 
BRANCH   3   4
ATOM      4  C   UNL A   1      44.351  22.928  23.966  1.00  0.00     0.261 C 
BRANCH   4   5
ATOM      5  O   UNL A   1      43.535  23.254  25.108  1.00  0.00    -0.463 OA
BRANCH   5   6
ATOM      6  C   UNL A   1      43.987  24.252  25.911  1.00  0.00     0.310 C 
ATOM      7  O   UNL A   1      44.457  24.058  27.028  1.00  0.00    -0.252 OA
BRANCH   6   8
ATOM      8  C   UNL A   1      44.072  25.591  25.206  1.00  0.00     0.160 C 
BRANCH   8   9
ATOM      9  C   UNL A   1      44.754  26.772  25.884  1.00  0.00    -0.013 A 
ATOM     10  C   UNL A   1      46.146  26.902  26.043  1.00  0.00     0.042 A 
ATOM     11  C   UNL A   1      46.665  27.997  26.769  1.00  0.00     0.026 A 
ATOM     12  C   UNL A   1      45.840  29.025  27.222  1.00  0.00     0.002 A 
ATOM     13  C   UNL A   1      43.957  27.860  26.282  1.00  0.00     0.006 A 
ATOM     14  C   UNL A   1      44.485  28.974  26.940  1.00  0.00     0.000 A 
BRANCH  10  15
ATOM     15  N   UNL A   1      47.080  26.124  25.338  1.00  0.00    -0.355 N 
ATOM     16  H   UNL A   1      46.684  25.513  24.675  1.00  0.00     0.167 HD
BRANCH  15  17
ATOM     17  C   UNL A   1      48.492  26.068  25.421  1.00  0.00     0.044 A 
ATOM     18  C   UNL A   1      48.533  27.192  23.133  1.00  0.00     0.046 C 
ATOM     19  C   UNL A   1      49.224  26.666  24.364  1.00  0.00    -0.027 A 
ATOM     20  C   UNL A   1      50.611  26.834  24.479  1.00  0.00     0.005 A 
ATOM     21  C   UNL A   1      51.285  26.410  25.617  1.00  0.00     0.001 A 
ATOM     22  C   UNL A   1      49.202  25.551  26.537  1.00  0.00    -0.027 A 
ATOM     23  C   UNL A   1      50.588  25.766  26.632  1.00  0.00     0.005 A 
ATOM     24  C   UNL A   1      48.571  24.810  27.691  1.00  0.00     0.046 C 
ENDBRANCH  15  17
ENDBRANCH  10  15
ENDBRANCH   8   9
ENDBRANCH   6   8
ENDBRANCH   5   6
ENDBRANCH   4   5
ENDBRANCH   3   4
ENDBRANCH   2   3
ENDBRANCH   1   2
BRANCH   1  25
ATOM     25  C   UNL A   1      44.046  19.093  25.273  1.00  0.00     0.188 C 
BRANCH  25  26
ATOM     26  O   UNL A   1      42.649  19.318  25.154  1.00  0.00    -0.376 OA
BRANCH  26  27
ATOM     27  C   UNL A   1      41.964  19.211  26.393  1.00  0.00     0.202 C 
BRANCH  27  28
ATOM     28  C   UNL A   1      40.632  19.951  26.269  1.00  0.00     0.261 C 
BRANCH  28  29
ATOM     29  O   UNL A   1      40.759  21.367  26.013  1.00  0.00    -0.460 OA
BRANCH  29  30
ATOM     30  C   UNL A   1      39.640  22.109  26.132  1.00  0.00     0.338 C 
ATOM     31  O   UNL A   1      38.512  21.791  25.754  1.00  0.00    -0.246 OA
BRANCH  30  32
ATOM     32  C   UNL A   1      39.924  23.302  26.956  1.00  0.00     0.060 A 
ATOM     33  C   UNL A   1      39.099  24.426  26.824  1.00  0.00     0.016 A 
ATOM     34  C   UNL A   1      41.017  23.340  27.823  1.00  0.00     0.016 A 
ATOM     35  C   UNL A   1      39.369  25.594  27.540  1.00  0.00     0.010 A 
ATOM     36  C   UNL A   1      41.306  24.521  28.519  1.00  0.00     0.010 A 
ATOM     37  C   UNL A   1      40.500  25.663  28.363  1.00  0.00    -0.014 A 
BRANCH  37  38
ATOM     38  C   UNL A   1      40.949  26.969  28.914  1.00  0.00     0.031 A 
ATOM     39  C   UNL A   1      42.355  27.079  29.446  1.00  0.00     0.074 A 
ATOM     40  C   UNL A   1      40.143  28.047  28.929  1.00  0.00     0.049 A 
ATOM     41  N   UNL A   1      42.929  28.068  30.079  1.00  0.00    -0.248 NA
ATOM     42  C   UNL A   1      43.229  25.914  29.228  1.00  0.00     0.031 C 
ATOM     43  C   UNL A   1      38.793  28.109  28.372  1.00  0.00     0.029 A 
ATOM     44  N   UNL A   1      40.350  29.305  29.443  1.00  0.00    -0.354 N 
ATOM     45  C   UNL A   1      44.225  27.642  30.350  1.00  0.00     0.074 A 
ATOM     46  C   UNL A   1      44.346  26.297  29.831  1.00  0.00     0.031 C 
ATOM     47  C   UNL A   1      38.288  29.337  28.583  1.00  0.00     0.029 A 
ATOM     48  C   UNL A   1      39.257  30.135  29.333  1.00  0.00     0.049 A 
ATOM     49  H   UNL A   1      41.200  29.587  29.852  1.00  0.00     0.167 HD
ATOM     50  C   UNL A   1      45.228  28.309  30.970  1.00  0.00     0.031 A 
ATOM     51  C   UNL A   1      39.053  31.380  29.811  1.00  0.00     0.031 A 
ATOM     52  C   UNL A   1      45.106  29.642  31.497  1.00  0.00     0.049 A 
ATOM     53  C   UNL A   1      40.145  32.058  30.602  1.00  0.00     0.074 A 
ATOM     54  C   UNL A   1      46.058  30.395  32.164  1.00  0.00     0.029 A 
ATOM     55  N   UNL A   1      43.965  30.426  31.412  1.00  0.00    -0.354 N 
ATOM     56  N   UNL A   1      41.356  31.632  30.877  1.00  0.00    -0.248 NA
ATOM     57  C   UNL A   1      39.839  33.389  31.152  1.00  0.00     0.031 C 
ATOM     58  C   UNL A   1      45.476  31.613  32.527  1.00  0.00     0.029 A 
ATOM     59  C   UNL A   1      44.183  31.645  32.031  1.00  0.00     0.049 A 
ATOM     60  H   UNL A   1      43.125  30.155  30.978  1.00  0.00     0.167 HD
ATOM     61  C   UNL A   1      41.965  32.656  31.598  1.00  0.00     0.074 A 
ATOM     62  C   UNL A   1      40.995  33.726  31.707  1.00  0.00     0.031 C 
ATOM     63  C   UNL A   1      43.214  32.708  32.122  1.00  0.00     0.031 A 
BRANCH  50  64
ATOM     64  C   UNL A   1      46.540  27.591  31.143  1.00  0.00    -0.014 A 
ATOM     65  C   UNL A   1      47.580  27.744  30.208  1.00  0.00     0.010 A 
ATOM     66  C   UNL A   1      46.751  26.788  32.278  1.00  0.00     0.010 A 
ATOM     67  C   UNL A   1      48.796  27.081  30.391  1.00  0.00     0.020 A 
ATOM     68  C   UNL A   1      47.976  26.144  32.478  1.00  0.00     0.020 A 
ATOM     69  C   UNL A   1      48.986  26.285  31.525  1.00  0.00     0.054 A 
BRANCH  69  70
ATOM     70  S   UNL A   1      50.586  25.459  31.748  1.00  0.00     0.124 S 
ATOM     71  O   UNL A   1      51.257  25.754  30.484  1.00  0.00    -0.237 OA
ATOM     72  O   UNL A   1      51.133  26.137  32.922  1.00  0.00    -0.237 OA
ATOM     73  O   UNL A   1      50.228  24.058  31.952  1.00  0.00    -0.744 OA
ENDBRANCH  69  70
ENDBRANCH  50  64
BRANCH  51  74
ATOM     74  C   UNL A   1      37.747  32.066  29.600  1.00  0.00    -0.014 A 
ATOM     75  C   UNL A   1      37.565  32.947  28.518  1.00  0.00     0.010 A 
ATOM     76  C   UNL A   1      36.689  31.882  30.510  1.00  0.00     0.010 A 
ATOM     77  C   UNL A   1      36.367  33.652  28.369  1.00  0.00     0.020 A 
ATOM     78  C   UNL A   1      35.477  32.560  30.347  1.00  0.00     0.020 A 
ATOM     79  C   UNL A   1      35.331  33.457  29.286  1.00  0.00     0.054 A 
BRANCH  79  80
ATOM     80  S   UNL A   1      33.778  34.369  29.064  1.00  0.00     0.124 S 
ATOM     81  O   UNL A   1      34.246  35.629  28.495  1.00  0.00    -0.237 OA
ATOM     82  O   UNL A   1      33.030  33.504  28.155  1.00  0.00    -0.237 OA
ATOM     83  O   UNL A   1      33.236  34.456  30.418  1.00  0.00    -0.744 OA
ENDBRANCH  79  80
ENDBRANCH  51  74
BRANCH  63  84
ATOM     84  C   UNL A   1      43.632  33.980  32.813  1.00  0.00    -0.014 A 
ATOM     85  C   UNL A   1      43.421  34.170  34.190  1.00  0.00     0.010 A 
ATOM     86  C   UNL A   1      44.301  34.978  32.080  1.00  0.00     0.010 A 
ATOM     87  C   UNL A   1      43.844  35.348  34.814  1.00  0.00     0.020 A 
ATOM     88  C   UNL A   1      44.749  36.144  32.705  1.00  0.00     0.020 A 
ATOM     89  C   UNL A   1      44.505  36.328  34.067  1.00  0.00     0.054 A 
BRANCH  89  90
ATOM     90  S   UNL A   1      45.082  37.828  34.908  1.00  0.00     0.124 S 
ATOM     91  O   UNL A   1      45.896  37.278  35.989  1.00  0.00    -0.237 OA
ATOM     92  O   UNL A   1      45.822  38.521  33.855  1.00  0.00    -0.237 OA
ATOM     93  O   UNL A   1      43.849  38.486  35.330  1.00  0.00    -0.744 OA
ENDBRANCH  89  90
ENDBRANCH  63  84
ENDBRANCH  37  38
ENDBRANCH  30  32
ENDBRANCH  29  30
ENDBRANCH  28  29
ENDBRANCH  27  28
ENDBRANCH  26  27
ENDBRANCH  25  26
ENDBRANCH   1  25
TORSDOF 23
ENDMDL
