MODEL 1
REMARK VINA RESULT:     -12.2      0.000      0.000
REMARK SMILES Cc1ccccc1OC1(C(=O)OCCOCCOCCOC(=O)c2ccc(-c3c4nc(c(-c5ccc(S(=O)(=O)[O-])cc5)c5ccc([nH]5)c(-c5ccc(S(=O)(=O)[O-])cc5)c5nc(c(-c6ccc(S(=O)(=O)[O-])cc6)c6ccc3[nH]6)C=C5)C=C4)cc2)CCN(C(=O)[C@H]2CCCCO2)CC1
REMARK SMILES IDX 17 1 16 2 15 3 14 4 13 5 12 6 10 7 11 8 9 9 84 10 96 11
REMARK SMILES IDX 85 12 95 13 86 14 87 15 88 16 8 17 7 18 1 19 2 20 3 21 4 22
REMARK SMILES IDX 6 23 5 24 89 25 90 26 94 27 91 28 93 29 92 30 18 31 19 32
REMARK SMILES IDX 20 33 21 34 22 35 23 36 24 37 25 38 83 39 26 40 82 41 27 42
REMARK SMILES IDX 28 43 29 44 76 45 30 46 81 47 75 48 77 49 31 50 80 51 74 52
REMARK SMILES IDX 73 53 32 55 62 56 43 57 61 58 44 59 47 60 60 61 78 62 45 63
REMARK SMILES IDX 46 64 59 66 79 67 48 68 33 69 34 70 42 71 35 72 41 73 36 74
REMARK SMILES IDX 37 75 38 76 39 77 40 78 63 79 64 80 72 81 65 82 71 83 66 84
REMARK SMILES IDX 67 85 68 86 69 87 70 88 49 89 50 90 58 91 51 92 57 93 52 94
REMARK SMILES IDX 53 95 54 96 55 97 56 98
REMARK H PARENT 77 54 47 65
REMARK Flexibility Score: inf
ROOT
ATOM      1  C   UNL A   1      34.251  31.281  27.458  1.00  0.00     0.188 C 
ENDROOT
BRANCH   1   2
ATOM      2  C   UNL A   1      32.813  31.283  26.915  1.00  0.00     0.188 C 
BRANCH   2   3
ATOM      3  O   UNL A   1      31.932  30.139  26.971  1.00  0.00    -0.376 OA
BRANCH   3   4
ATOM      4  C   UNL A   1      32.338  28.760  26.939  1.00  0.00     0.202 C 
BRANCH   4   5
ATOM      5  C   UNL A   1      31.485  27.338  27.448  1.00  0.00     0.261 C 
BRANCH   5   6
ATOM      6  O   UNL A   1      31.583  25.606  27.005  1.00  0.00    -0.460 OA
BRANCH   6   7
ATOM      7  C   UNL A   1      31.132  24.617  25.975  1.00  0.00     0.350 C 
ATOM      8  O   UNL A   1      30.010  24.099  25.875  1.00  0.00    -0.247 OA
BRANCH   7   9
ATOM      9  C   UNL A   1      32.102  23.976  24.967  1.00  0.00     0.209 C 
ATOM     10  C   UNL A   1      33.463  23.962  25.605  1.00  0.00     0.082 C 
ATOM     11  C   UNL A   1      31.408  22.638  24.604  1.00  0.00     0.082 C 
ATOM     12  C   UNL A   1      34.244  22.703  25.383  1.00  0.00     0.124 C 
ATOM     13  C   UNL A   1      32.049  21.440  25.255  1.00  0.00     0.124 C 
ATOM     14  N   UNL A   1      33.507  21.457  25.229  1.00  0.00    -0.340 N 
ATOM     15  C   UNL A   1      34.308  20.323  25.122  1.00  0.00     0.251 C 
ATOM     16  O   UNL A   1      35.527  20.398  25.322  1.00  0.00    -0.272 OA
BRANCH   9  17
ATOM     17  O   UNL A   1      32.109  24.917  23.837  1.00  0.00    -0.475 OA
BRANCH  17  18
ATOM     18  C   UNL A   1      32.171  26.287  23.787  1.00  0.00     0.123 A 
ATOM     19  C   UNL A   1      29.676  26.971  23.651  1.00  0.00     0.048 C 
ATOM     20  C   UNL A   1      31.144  27.236  23.635  1.00  0.00    -0.009 A 
ATOM     21  C   UNL A   1      31.472  28.590  23.345  1.00  0.00     0.007 A 
ATOM     22  C   UNL A   1      32.785  29.025  23.229  1.00  0.00     0.001 A 
ATOM     23  C   UNL A   1      33.497  26.767  23.696  1.00  0.00     0.047 A 
ATOM     24  C   UNL A   1      33.804  28.111  23.423  1.00  0.00     0.004 A 
ENDBRANCH  17  18
ENDBRANCH   9  17
BRANCH  15  25
ATOM     25  C   UNL A   1      33.667  19.017  24.628  1.00  0.00     0.207 C 
ATOM     26  C   UNL A   1      34.819  18.078  24.232  1.00  0.00     0.042 C 
ATOM     27  O   UNL A   1      32.891  18.468  25.697  1.00  0.00    -0.368 OA
ATOM     28  C   UNL A   1      34.362  16.641  24.032  1.00  0.00     0.006 C 
ATOM     29  C   UNL A   1      32.346  17.196  25.382  1.00  0.00     0.161 C 
ATOM     30  C   UNL A   1      33.473  16.196  25.184  1.00  0.00     0.029 C 
ENDBRANCH  15  25
ENDBRANCH   7   9
ENDBRANCH   6   7
ENDBRANCH   5   6
ENDBRANCH   4   5
ENDBRANCH   3   4
ENDBRANCH   2   3
ENDBRANCH   1   2
BRANCH   1  31
ATOM     31  O   UNL A   1      34.298  31.687  28.814  1.00  0.00    -0.376 OA
BRANCH  31  32
ATOM     32  C   UNL A   1      34.589  33.052  29.061  1.00  0.00     0.202 C 
BRANCH  32  33
ATOM     33  C   UNL A   1      34.392  33.522  30.521  1.00  0.00     0.261 C 
BRANCH  33  34
ATOM     34  O   UNL A   1      35.324  32.947  31.476  1.00  0.00    -0.460 OA
BRANCH  34  35
ATOM     35  C   UNL A   1      36.650  33.385  31.481  1.00  0.00     0.338 C 
ATOM     36  O   UNL A   1      36.958  34.485  31.834  1.00  0.00    -0.246 OA
BRANCH  35  37
ATOM     37  C   UNL A   1      37.589  32.225  31.269  1.00  0.00     0.060 A 
ATOM     38  C   UNL A   1      37.737  31.010  31.948  1.00  0.00     0.016 A 
ATOM     39  C   UNL A   1      38.482  32.432  30.290  1.00  0.00     0.016 A 
ATOM     40  C   UNL A   1      38.918  30.141  31.785  1.00  0.00     0.010 A 
ATOM     41  C   UNL A   1      39.662  31.712  30.347  1.00  0.00     0.010 A 
ATOM     42  C   UNL A   1      40.020  30.492  30.996  1.00  0.00    -0.014 A 
BRANCH  42  43
ATOM     43  C   UNL A   1      41.516  29.612  30.798  1.00  0.00     0.031 A 
ATOM     44  C   UNL A   1      41.929  28.077  29.975  1.00  0.00     0.074 A 
ATOM     45  C   UNL A   1      42.540  30.036  31.569  1.00  0.00     0.049 A 
ATOM     46  N   UNL A   1      42.917  27.250  30.287  1.00  0.00    -0.248 NA
ATOM     47  C   UNL A   1      41.195  27.357  28.849  1.00  0.00     0.031 C 
ATOM     48  C   UNL A   1      43.933  29.610  31.524  1.00  0.00     0.029 A 
ATOM     49  N   UNL A   1      42.461  30.843  32.702  1.00  0.00    -0.354 N 
ATOM     50  C   UNL A   1      42.934  26.153  29.386  1.00  0.00     0.074 A 
ATOM     51  C   UNL A   1      41.736  26.179  28.679  1.00  0.00     0.031 C 
ATOM     52  C   UNL A   1      44.506  29.911  32.699  1.00  0.00     0.029 A 
ATOM     53  C   UNL A   1      43.460  30.407  33.576  1.00  0.00     0.049 A 
ATOM     54  H   UNL A   1      41.824  31.579  32.856  1.00  0.00     0.167 HD
ATOM     55  C   UNL A   1      43.979  25.315  29.138  1.00  0.00     0.031 A 
ATOM     56  C   UNL A   1      43.139  29.906  34.801  1.00  0.00     0.031 A 
ATOM     57  C   UNL A   1      44.925  25.458  30.205  1.00  0.00     0.049 A 
ATOM     58  C   UNL A   1      43.647  28.496  35.012  1.00  0.00     0.074 A 
ATOM     59  C   UNL A   1      46.022  26.274  30.385  1.00  0.00     0.029 A 
ATOM     60  N   UNL A   1      44.510  25.040  31.457  1.00  0.00    -0.354 N 
ATOM     61  N   UNL A   1      44.077  27.708  34.060  1.00  0.00    -0.248 NA
ATOM     62  C   UNL A   1      43.726  27.865  36.326  1.00  0.00     0.031 C 
ATOM     63  C   UNL A   1      46.160  26.476  31.789  1.00  0.00     0.029 A 
ATOM     64  C   UNL A   1      45.201  25.716  32.441  1.00  0.00     0.049 A 
ATOM     65  H   UNL A   1      43.821  24.357  31.623  1.00  0.00     0.167 HD
ATOM     66  C   UNL A   1      44.440  26.498  34.589  1.00  0.00     0.074 A 
ATOM     67  C   UNL A   1      44.233  26.660  36.017  1.00  0.00     0.031 C 
ATOM     68  C   UNL A   1      44.867  25.447  33.830  1.00  0.00     0.031 A 
BRANCH  55  69
ATOM     69  C   UNL A   1      44.194  24.551  27.807  1.00  0.00    -0.014 A 
ATOM     70  C   UNL A   1      43.209  23.646  27.363  1.00  0.00     0.010 A 
ATOM     71  C   UNL A   1      45.365  24.559  27.004  1.00  0.00     0.010 A 
ATOM     72  C   UNL A   1      43.421  22.761  26.274  1.00  0.00     0.020 A 
ATOM     73  C   UNL A   1      45.608  23.670  25.941  1.00  0.00     0.020 A 
ATOM     74  C   UNL A   1      44.634  22.757  25.587  1.00  0.00     0.054 A 
BRANCH  74  75
ATOM     75  S   UNL A   1      44.957  21.556  24.266  1.00  0.00     0.124 S 
ATOM     76  O   UNL A   1      44.126  20.421  24.660  1.00  0.00    -0.237 OA
ATOM     77  O   UNL A   1      44.522  22.276  23.074  1.00  0.00    -0.237 OA
ATOM     78  O   UNL A   1      46.398  21.318  24.353  1.00  0.00    -0.744 OA
ENDBRANCH  74  75
ENDBRANCH  55  69
BRANCH  56  79
ATOM     79  C   UNL A   1      41.954  30.564  35.444  1.00  0.00    -0.014 A 
ATOM     80  C   UNL A   1      42.188  31.803  36.091  1.00  0.00     0.010 A 
ATOM     81  C   UNL A   1      40.623  30.217  35.154  1.00  0.00     0.010 A 
ATOM     82  C   UNL A   1      41.161  32.729  36.296  1.00  0.00     0.020 A 
ATOM     83  C   UNL A   1      39.575  31.139  35.392  1.00  0.00     0.020 A 
ATOM     84  C   UNL A   1      39.865  32.410  35.906  1.00  0.00     0.054 A 
BRANCH  84  85
ATOM     85  S   UNL A   1      38.636  33.757  35.915  1.00  0.00     0.124 S 
ATOM     86  O   UNL A   1      38.035  33.630  37.238  1.00  0.00    -0.237 OA
ATOM     87  O   UNL A   1      39.480  34.937  35.725  1.00  0.00    -0.237 OA
ATOM     88  O   UNL A   1      37.761  33.424  34.794  1.00  0.00    -0.744 OA
ENDBRANCH  84  85
ENDBRANCH  56  79
BRANCH  68  89
ATOM     89  C   UNL A   1      45.025  24.026  34.322  1.00  0.00    -0.014 A 
ATOM     90  C   UNL A   1      43.957  23.136  34.496  1.00  0.00     0.010 A 
ATOM     91  C   UNL A   1      46.332  23.499  34.478  1.00  0.00     0.010 A 
ATOM     92  C   UNL A   1      44.173  21.811  34.894  1.00  0.00     0.020 A 
ATOM     93  C   UNL A   1      46.561  22.163  34.811  1.00  0.00     0.020 A 
ATOM     94  C   UNL A   1      45.474  21.335  35.056  1.00  0.00     0.054 A 
BRANCH  94  95
ATOM     95  S   UNL A   1      45.761  19.618  35.544  1.00  0.00     0.124 S 
ATOM     96  O   UNL A   1      46.958  19.286  34.774  1.00  0.00    -0.237 OA
ATOM     97  O   UNL A   1      45.953  19.707  36.989  1.00  0.00    -0.237 OA
ATOM     98  O   UNL A   1      44.537  18.941  35.125  1.00  0.00    -0.744 OA
ENDBRANCH  94  95
ENDBRANCH  68  89
ENDBRANCH  42  43
ENDBRANCH  35  37
ENDBRANCH  34  35
ENDBRANCH  33  34
ENDBRANCH  32  33
ENDBRANCH  31  32
ENDBRANCH   1  31
TORSDOF 23
ENDMDL
MODEL 2
REMARK VINA RESULT:     -11.1      6.624     12.679
REMARK SMILES Cc1ccccc1OC1(C(=O)OCCOCCOCCOC(=O)c2ccc(-c3c4nc(c(-c5ccc(S(=O)(=O)[O-])cc5)c5ccc([nH]5)c(-c5ccc(S(=O)(=O)[O-])cc5)c5nc(c(-c6ccc(S(=O)(=O)[O-])cc6)c6ccc3[nH]6)C=C5)C=C4)cc2)CCN(C(=O)[C@H]2CCCCO2)CC1
REMARK SMILES IDX 17 1 16 2 15 3 14 4 13 5 12 6 10 7 11 8 9 9 84 10 96 11
REMARK SMILES IDX 85 12 95 13 86 14 87 15 88 16 8 17 7 18 1 19 2 20 3 21 4 22
REMARK SMILES IDX 6 23 5 24 89 25 90 26 94 27 91 28 93 29 92 30 18 31 19 32
REMARK SMILES IDX 20 33 21 34 22 35 23 36 24 37 25 38 83 39 26 40 82 41 27 42
REMARK SMILES IDX 28 43 29 44 76 45 30 46 81 47 75 48 77 49 31 50 80 51 74 52
REMARK SMILES IDX 73 53 32 55 62 56 43 57 61 58 44 59 47 60 60 61 78 62 45 63
REMARK SMILES IDX 46 64 59 66 79 67 48 68 33 69 34 70 42 71 35 72 41 73 36 74
REMARK SMILES IDX 37 75 38 76 39 77 40 78 63 79 64 80 72 81 65 82 71 83 66 84
REMARK SMILES IDX 67 85 68 86 69 87 70 88 49 89 50 90 58 91 51 92 57 93 52 94
REMARK SMILES IDX 53 95 54 96 55 97 56 98
REMARK H PARENT 77 54 47 65
REMARK Flexibility Score: inf
ROOT
ATOM      1  C   UNL A   1      34.997  33.751  31.296  1.00  0.00     0.188 C 
ENDROOT
BRANCH   1   2
ATOM      2  C   UNL A   1      34.467  33.834  29.856  1.00  0.00     0.188 C 
BRANCH   2   3
ATOM      3  O   UNL A   1      34.640  32.786  28.876  1.00  0.00    -0.376 OA
BRANCH   3   4
ATOM      4  C   UNL A   1      33.691  32.416  27.861  1.00  0.00     0.202 C 
BRANCH   4   5
ATOM      5  C   UNL A   1      33.081  30.851  27.427  1.00  0.00     0.261 C 
BRANCH   5   6
ATOM      6  O   UNL A   1      33.484  29.675  26.138  1.00  0.00    -0.460 OA
BRANCH   6   7
ATOM      7  C   UNL A   1      33.444  28.215  25.809  1.00  0.00     0.350 C 
ATOM      8  O   UNL A   1      34.084  27.306  26.357  1.00  0.00    -0.247 OA
BRANCH   7   9
ATOM      9  C   UNL A   1      32.687  27.666  24.586  1.00  0.00     0.209 C 
ATOM     10  C   UNL A   1      31.682  26.671  25.093  1.00  0.00     0.082 C 
ATOM     11  C   UNL A   1      32.203  28.948  23.861  1.00  0.00     0.082 C 
ATOM     12  C   UNL A   1      30.342  26.742  24.427  1.00  0.00     0.124 C 
ATOM     13  C   UNL A   1      30.733  29.218  24.049  1.00  0.00     0.124 C 
ATOM     14  N   UNL A   1      29.890  28.034  23.932  1.00  0.00    -0.340 N 
ATOM     15  C   UNL A   1      28.597  28.033  23.413  1.00  0.00     0.251 C 
ATOM     16  O   UNL A   1      27.873  27.039  23.545  1.00  0.00    -0.272 OA
BRANCH   9  17
ATOM     17  O   UNL A   1      33.723  26.958  23.820  1.00  0.00    -0.475 OA
BRANCH  17  18
ATOM     18  C   UNL A   1      33.757  25.701  23.270  1.00  0.00     0.123 A 
ATOM     19  C   UNL A   1      32.159  25.916  21.243  1.00  0.00     0.048 C 
ATOM     20  C   UNL A   1      33.041  25.167  22.184  1.00  0.00    -0.009 A 
ATOM     21  C   UNL A   1      33.043  23.761  21.960  1.00  0.00     0.007 A 
ATOM     22  C   UNL A   1      33.756  22.884  22.767  1.00  0.00     0.001 A 
ATOM     23  C   UNL A   1      34.499  24.787  24.052  1.00  0.00     0.047 A 
ATOM     24  C   UNL A   1      34.503  23.403  23.808  1.00  0.00     0.004 A 
ENDBRANCH  17  18
ENDBRANCH   9  17
BRANCH  15  25
ATOM     25  C   UNL A   1      28.145  29.235  22.571  1.00  0.00     0.207 C 
ATOM     26  C   UNL A   1      27.745  30.344  23.559  1.00  0.00     0.042 C 
ATOM     27  O   UNL A   1      29.241  29.641  21.747  1.00  0.00    -0.368 OA
ATOM     28  C   UNL A   1      27.585  31.699  22.887  1.00  0.00     0.006 C 
ATOM     29  C   UNL A   1      28.965  30.822  21.010  1.00  0.00     0.161 C 
ATOM     30  C   UNL A   1      28.765  31.984  21.968  1.00  0.00     0.029 C 
ENDBRANCH  15  25
ENDBRANCH   7   9
ENDBRANCH   6   7
ENDBRANCH   5   6
ENDBRANCH   4   5
ENDBRANCH   3   4
ENDBRANCH   2   3
ENDBRANCH   1   2
BRANCH   1  31
ATOM     31  O   UNL A   1      34.192  32.909  32.102  1.00  0.00    -0.376 OA
BRANCH  31  32
ATOM     32  C   UNL A   1      34.017  33.298  33.454  1.00  0.00     0.202 C 
BRANCH  32  33
ATOM     33  C   UNL A   1      35.262  33.913  34.137  1.00  0.00     0.261 C 
BRANCH  33  34
ATOM     34  O   UNL A   1      36.307  32.960  34.468  1.00  0.00    -0.460 OA
BRANCH  34  35
ATOM     35  C   UNL A   1      37.101  33.184  35.594  1.00  0.00     0.338 C 
ATOM     36  O   UNL A   1      36.693  33.020  36.706  1.00  0.00    -0.246 OA
BRANCH  35  37
ATOM     37  C   UNL A   1      38.543  33.364  35.196  1.00  0.00     0.060 A 
ATOM     38  C   UNL A   1      39.737  33.136  35.890  1.00  0.00     0.016 A 
ATOM     39  C   UNL A   1      38.698  33.899  33.976  1.00  0.00     0.016 A 
ATOM     40  C   UNL A   1      41.038  33.666  35.440  1.00  0.00     0.010 A 
ATOM     41  C   UNL A   1      39.884  34.565  33.723  1.00  0.00     0.010 A 
ATOM     42  C   UNL A   1      41.177  34.500  34.325  1.00  0.00    -0.014 A 
BRANCH  42  43
ATOM     43  C   UNL A   1      42.631  35.276  33.745  1.00  0.00     0.031 A 
ATOM     44  C   UNL A   1      43.216  36.967  33.798  1.00  0.00     0.074 A 
ATOM     45  C   UNL A   1      43.392  34.528  32.918  1.00  0.00     0.049 A 
ATOM     46  N   UNL A   1      44.036  37.550  32.935  1.00  0.00    -0.248 NA
ATOM     47  C   UNL A   1      42.828  38.094  34.748  1.00  0.00     0.031 C 
ATOM     48  C   UNL A   1      44.718  34.835  32.397  1.00  0.00     0.029 A 
ATOM     49  N   UNL A   1      43.006  33.380  32.231  1.00  0.00    -0.354 N 
ATOM     50  C   UNL A   1      44.282  38.891  33.330  1.00  0.00     0.074 A 
ATOM     51  C   UNL A   1      43.352  39.210  34.314  1.00  0.00     0.031 C 
ATOM     52  C   UNL A   1      44.924  34.092  31.298  1.00  0.00     0.029 A 
ATOM     53  C   UNL A   1      43.682  33.399  31.007  1.00  0.00     0.049 A 
ATOM     54  H   UNL A   1      42.380  32.688  32.546  1.00  0.00     0.167 HD
ATOM     55  C   UNL A   1      45.322  39.680  32.942  1.00  0.00     0.031 A 
ATOM     56  C   UNL A   1      42.991  33.455  29.834  1.00  0.00     0.031 A 
ATOM     57  C   UNL A   1      45.910  39.095  31.773  1.00  0.00     0.049 A 
ATOM     58  C   UNL A   1      43.362  34.654  28.989  1.00  0.00     0.074 A 
ATOM     59  C   UNL A   1      46.931  38.187  31.589  1.00  0.00     0.029 A 
ATOM     60  N   UNL A   1      45.125  39.071  30.634  1.00  0.00    -0.354 N 
ATOM     61  N   UNL A   1      44.028  35.693  29.421  1.00  0.00    -0.248 NA
ATOM     62  C   UNL A   1      43.020  34.768  27.574  1.00  0.00     0.031 C 
ATOM     63  C   UNL A   1      46.649  37.489  30.379  1.00  0.00     0.029 A 
ATOM     64  C   UNL A   1      45.513  38.039  29.806  1.00  0.00     0.049 A 
ATOM     65  H   UNL A   1      44.393  39.701  30.440  1.00  0.00     0.167 HD
ATOM     66  C   UNL A   1      44.172  36.604  28.409  1.00  0.00     0.074 A 
ATOM     67  C   UNL A   1      43.553  35.961  27.263  1.00  0.00     0.031 C 
ATOM     68  C   UNL A   1      44.769  37.821  28.576  1.00  0.00     0.031 A 
BRANCH  55  69
ATOM     69  C   UNL A   1      45.898  40.849  33.781  1.00  0.00    -0.014 A 
ATOM     70  C   UNL A   1      46.874  40.580  34.761  1.00  0.00     0.010 A 
ATOM     71  C   UNL A   1      45.459  42.200  33.767  1.00  0.00     0.010 A 
ATOM     72  C   UNL A   1      47.296  41.553  35.703  1.00  0.00     0.020 A 
ATOM     73  C   UNL A   1      45.840  43.170  34.711  1.00  0.00     0.020 A 
ATOM     74  C   UNL A   1      46.752  42.837  35.692  1.00  0.00     0.054 A 
BRANCH  74  75
ATOM     75  S   UNL A   1      47.203  44.055  36.960  1.00  0.00     0.124 S 
ATOM     76  O   UNL A   1      45.916  44.351  37.586  1.00  0.00    -0.237 OA
ATOM     77  O   UNL A   1      48.153  43.315  37.782  1.00  0.00    -0.237 OA
ATOM     78  O   UNL A   1      47.778  45.161  36.194  1.00  0.00    -0.744 OA
ENDBRANCH  74  75
ENDBRANCH  55  69
BRANCH  56  79
ATOM     79  C   UNL A   1      41.692  32.703  29.849  1.00  0.00    -0.014 A 
ATOM     80  C   UNL A   1      41.773  31.290  29.775  1.00  0.00     0.010 A 
ATOM     81  C   UNL A   1      40.475  33.268  30.267  1.00  0.00     0.010 A 
ATOM     82  C   UNL A   1      40.745  30.470  30.248  1.00  0.00     0.020 A 
ATOM     83  C   UNL A   1      39.418  32.439  30.715  1.00  0.00     0.020 A 
ATOM     84  C   UNL A   1      39.589  31.050  30.757  1.00  0.00     0.054 A 
BRANCH  84  85
ATOM     85  S   UNL A   1      38.423  29.954  31.633  1.00  0.00     0.124 S 
ATOM     86  O   UNL A   1      37.587  29.449  30.550  1.00  0.00    -0.237 OA
ATOM     87  O   UNL A   1      39.325  28.972  32.234  1.00  0.00    -0.237 OA
ATOM     88  O   UNL A   1      37.756  30.852  32.573  1.00  0.00    -0.744 OA
ENDBRANCH  84  85
ENDBRANCH  56  79
BRANCH  68  89
ATOM     89  C   UNL A   1      44.721  38.957  27.579  1.00  0.00    -0.014 A 
ATOM     90  C   UNL A   1      45.744  39.235  26.663  1.00  0.00     0.010 A 
ATOM     91  C   UNL A   1      43.521  39.699  27.447  1.00  0.00     0.010 A 
ATOM     92  C   UNL A   1      45.615  40.261  25.719  1.00  0.00     0.020 A 
ATOM     93  C   UNL A   1      43.357  40.681  26.469  1.00  0.00     0.020 A 
ATOM     94  C   UNL A   1      44.424  40.984  25.634  1.00  0.00     0.054 A 
BRANCH  94  95
ATOM     95  S   UNL A   1      44.241  42.293  24.401  1.00  0.00     0.124 S 
ATOM     96  O   UNL A   1      45.430  42.093  23.575  1.00  0.00    -0.237 OA
ATOM     97  O   UNL A   1      42.971  41.969  23.754  1.00  0.00    -0.237 OA
ATOM     98  O   UNL A   1      44.230  43.512  25.204  1.00  0.00    -0.744 OA
ENDBRANCH  94  95
ENDBRANCH  68  89
ENDBRANCH  42  43
ENDBRANCH  35  37
ENDBRANCH  34  35
ENDBRANCH  33  34
ENDBRANCH  32  33
ENDBRANCH  31  32
ENDBRANCH   1  31
TORSDOF 23
ENDMDL
MODEL 3
REMARK VINA RESULT:     -11.1      6.654     12.379
REMARK SMILES Cc1ccccc1OC1(C(=O)OCCOCCOCCOC(=O)c2ccc(-c3c4nc(c(-c5ccc(S(=O)(=O)[O-])cc5)c5ccc([nH]5)c(-c5ccc(S(=O)(=O)[O-])cc5)c5nc(c(-c6ccc(S(=O)(=O)[O-])cc6)c6ccc3[nH]6)C=C5)C=C4)cc2)CCN(C(=O)[C@H]2CCCCO2)CC1
REMARK SMILES IDX 17 1 16 2 15 3 14 4 13 5 12 6 10 7 11 8 9 9 84 10 96 11
REMARK SMILES IDX 85 12 95 13 86 14 87 15 88 16 8 17 7 18 1 19 2 20 3 21 4 22
REMARK SMILES IDX 6 23 5 24 89 25 90 26 94 27 91 28 93 29 92 30 18 31 19 32
REMARK SMILES IDX 20 33 21 34 22 35 23 36 24 37 25 38 83 39 26 40 82 41 27 42
REMARK SMILES IDX 28 43 29 44 76 45 30 46 81 47 75 48 77 49 31 50 80 51 74 52
REMARK SMILES IDX 73 53 32 55 62 56 43 57 61 58 44 59 47 60 60 61 78 62 45 63
REMARK SMILES IDX 46 64 59 66 79 67 48 68 33 69 34 70 42 71 35 72 41 73 36 74
REMARK SMILES IDX 37 75 38 76 39 77 40 78 63 79 64 80 72 81 65 82 71 83 66 84
REMARK SMILES IDX 67 85 68 86 69 87 70 88 49 89 50 90 58 91 51 92 57 93 52 94
REMARK SMILES IDX 53 95 54 96 55 97 56 98
REMARK H PARENT 77 54 47 65
REMARK Flexibility Score: inf
ROOT
ATOM      1  C   UNL A   1      35.098  34.170  31.632  1.00  0.00     0.188 C 
ENDROOT
BRANCH   1   2
ATOM      2  C   UNL A   1      34.281  34.462  30.363  1.00  0.00     0.188 C 
BRANCH   2   3
ATOM      3  O   UNL A   1      34.526  33.828  29.088  1.00  0.00    -0.376 OA
BRANCH   3   4
ATOM      4  C   UNL A   1      33.532  33.516  28.097  1.00  0.00     0.202 C 
BRANCH   4   5
ATOM      5  C   UNL A   1      32.934  31.975  27.570  1.00  0.00     0.261 C 
BRANCH   5   6
ATOM      6  O   UNL A   1      33.580  30.692  26.500  1.00  0.00    -0.460 OA
BRANCH   6   7
ATOM      7  C   UNL A   1      33.850  29.221  26.441  1.00  0.00     0.350 C 
ATOM      8  O   UNL A   1      34.820  28.618  26.923  1.00  0.00    -0.247 OA
BRANCH   7   9
ATOM      9  C   UNL A   1      32.996  28.259  25.596  1.00  0.00     0.209 C 
ATOM     10  C   UNL A   1      33.598  28.220  24.220  1.00  0.00     0.082 C 
ATOM     11  C   UNL A   1      32.954  26.969  26.455  1.00  0.00     0.082 C 
ATOM     12  C   UNL A   1      33.652  26.857  23.600  1.00  0.00     0.124 C 
ATOM     13  C   UNL A   1      33.847  25.876  25.929  1.00  0.00     0.124 C 
ATOM     14  N   UNL A   1      33.793  25.708  24.482  1.00  0.00    -0.340 N 
ATOM     15  C   UNL A   1      33.931  24.488  23.822  1.00  0.00     0.251 C 
ATOM     16  O   UNL A   1      34.089  24.456  22.596  1.00  0.00    -0.272 OA
BRANCH   9  17
ATOM     17  O   UNL A   1      31.684  28.919  25.530  1.00  0.00    -0.475 OA
BRANCH  17  18
ATOM     18  C   UNL A   1      30.659  28.831  24.620  1.00  0.00     0.123 A 
ATOM     19  C   UNL A   1      30.146  26.292  24.576  1.00  0.00     0.048 C 
ATOM     20  C   UNL A   1      29.993  27.702  24.111  1.00  0.00    -0.009 A 
ATOM     21  C   UNL A   1      29.142  27.836  22.979  1.00  0.00     0.007 A 
ATOM     22  C   UNL A   1      28.917  29.059  22.361  1.00  0.00     0.001 A 
ATOM     23  C   UNL A   1      30.384  30.067  23.992  1.00  0.00     0.047 A 
ATOM     24  C   UNL A   1      29.529  30.184  22.883  1.00  0.00     0.004 A 
ENDBRANCH  17  18
ENDBRANCH   9  17
BRANCH  15  25
ATOM     25  C   UNL A   1      33.753  23.195  24.631  1.00  0.00     0.207 C 
ATOM     26  C   UNL A   1      32.252  22.862  24.613  1.00  0.00     0.042 C 
ATOM     27  O   UNL A   1      34.523  22.166  24.003  1.00  0.00    -0.368 OA
ATOM     28  C   UNL A   1      31.958  21.448  25.090  1.00  0.00     0.006 C 
ATOM     29  C   UNL A   1      34.337  20.895  24.608  1.00  0.00     0.161 C 
ATOM     30  C   UNL A   1      32.896  20.452  24.422  1.00  0.00     0.029 C 
ENDBRANCH  15  25
ENDBRANCH   7   9
ENDBRANCH   6   7
ENDBRANCH   5   6
ENDBRANCH   4   5
ENDBRANCH   3   4
ENDBRANCH   2   3
ENDBRANCH   1   2
BRANCH   1  31
ATOM     31  O   UNL A   1      34.373  33.371  32.549  1.00  0.00    -0.376 OA
BRANCH  31  32
ATOM     32  C   UNL A   1      34.419  33.763  33.911  1.00  0.00     0.202 C 
BRANCH  32  33
ATOM     33  C   UNL A   1      35.797  34.245  34.419  1.00  0.00     0.261 C 
BRANCH  33  34
ATOM     34  O   UNL A   1      36.616  33.212  35.031  1.00  0.00    -0.460 OA
BRANCH  34  35
ATOM     35  C   UNL A   1      37.332  33.509  36.192  1.00  0.00     0.338 C 
ATOM     36  O   UNL A   1      36.906  33.270  37.283  1.00  0.00    -0.246 OA
BRANCH  35  37
ATOM     37  C   UNL A   1      38.754  33.878  35.854  1.00  0.00     0.060 A 
ATOM     38  C   UNL A   1      39.779  34.440  36.625  1.00  0.00     0.016 A 
ATOM     39  C   UNL A   1      39.064  33.689  34.564  1.00  0.00     0.016 A 
ATOM     40  C   UNL A   1      41.002  35.013  36.034  1.00  0.00     0.010 A 
ATOM     41  C   UNL A   1      40.104  34.441  34.046  1.00  0.00     0.010 A 
ATOM     42  C   UNL A   1      41.209  35.111  34.653  1.00  0.00    -0.014 A 
BRANCH  42  43
ATOM     43  C   UNL A   1      42.555  35.854  33.824  1.00  0.00     0.031 A 
ATOM     44  C   UNL A   1      43.120  37.547  33.689  1.00  0.00     0.074 A 
ATOM     45  C   UNL A   1      43.197  35.059  32.943  1.00  0.00     0.049 A 
ATOM     46  N   UNL A   1      43.799  38.079  32.682  1.00  0.00    -0.248 NA
ATOM     47  C   UNL A   1      42.859  38.730  34.614  1.00  0.00     0.031 C 
ATOM     48  C   UNL A   1      44.431  35.337  32.218  1.00  0.00     0.029 A 
ATOM     49  N   UNL A   1      42.731  33.869  32.389  1.00  0.00    -0.354 N 
ATOM     50  C   UNL A   1      44.084  39.443  32.955  1.00  0.00     0.074 A 
ATOM     51  C   UNL A   1      43.301  39.818  34.043  1.00  0.00     0.031 C 
ATOM     52  C   UNL A   1      44.486  34.529  31.148  1.00  0.00     0.029 A 
ATOM     53  C   UNL A   1      43.223  33.815  31.082  1.00  0.00     0.049 A 
ATOM     54  H   UNL A   1      42.165  33.196  32.833  1.00  0.00     0.167 HD
ATOM     55  C   UNL A   1      45.047  40.209  32.374  1.00  0.00     0.031 A 
ATOM     56  C   UNL A   1      42.370  33.795  30.020  1.00  0.00     0.031 A 
ATOM     57  C   UNL A   1      45.468  39.555  31.170  1.00  0.00     0.049 A 
ATOM     58  C   UNL A   1      42.600  34.941  29.058  1.00  0.00     0.074 A 
ATOM     59  C   UNL A   1      46.463  38.641  30.896  1.00  0.00     0.029 A 
ATOM     60  N   UNL A   1      44.527  39.458  30.160  1.00  0.00    -0.354 N 
ATOM     61  N   UNL A   1      43.310  36.007  29.326  1.00  0.00    -0.248 NA
ATOM     62  C   UNL A   1      42.057  34.966  27.703  1.00  0.00     0.031 C 
ATOM     63  C   UNL A   1      46.019  37.868  29.784  1.00  0.00     0.029 A 
ATOM     64  C   UNL A   1      44.805  38.378  29.349  1.00  0.00     0.049 A 
ATOM     65  H   UNL A   1      43.767  40.072  30.036  1.00  0.00     0.167 HD
ATOM     66  C   UNL A   1      43.295  36.855  28.250  1.00  0.00     0.074 A 
ATOM     67  C   UNL A   1      42.525  36.140  27.247  1.00  0.00     0.031 C 
ATOM     68  C   UNL A   1      43.894  38.081  28.255  1.00  0.00     0.031 A 
BRANCH  55  69
ATOM     69  C   UNL A   1      45.723  41.430  33.048  1.00  0.00    -0.014 A 
ATOM     70  C   UNL A   1      47.058  41.325  33.486  1.00  0.00     0.010 A 
ATOM     71  C   UNL A   1      45.100  42.656  33.403  1.00  0.00     0.010 A 
ATOM     72  C   UNL A   1      47.677  42.316  34.291  1.00  0.00     0.020 A 
ATOM     73  C   UNL A   1      45.684  43.637  34.225  1.00  0.00     0.020 A 
ATOM     74  C   UNL A   1      46.973  43.455  34.683  1.00  0.00     0.054 A 
BRANCH  74  75
ATOM     75  S   UNL A   1      47.717  44.675  35.802  1.00  0.00     0.124 S 
ATOM     76  O   UNL A   1      47.981  43.885  37.001  1.00  0.00    -0.237 OA
ATOM     77  O   UNL A   1      48.894  45.109  35.056  1.00  0.00    -0.237 OA
ATOM     78  O   UNL A   1      46.675  45.690  35.956  1.00  0.00    -0.744 OA
ENDBRANCH  74  75
ENDBRANCH  55  69
BRANCH  56  79
ATOM     79  C   UNL A   1      41.096  33.042  30.268  1.00  0.00    -0.014 A 
ATOM     80  C   UNL A   1      39.890  33.780  30.164  1.00  0.00     0.010 A 
ATOM     81  C   UNL A   1      41.008  31.639  30.249  1.00  0.00     0.010 A 
ATOM     82  C   UNL A   1      38.669  33.157  29.892  1.00  0.00     0.020 A 
ATOM     83  C   UNL A   1      39.767  31.002  30.009  1.00  0.00     0.020 A 
ATOM     84  C   UNL A   1      38.621  31.772  29.773  1.00  0.00     0.054 A 
BRANCH  84  85
ATOM     85  S   UNL A   1      37.080  31.045  29.122  1.00  0.00     0.124 S 
ATOM     86  O   UNL A   1      37.483  29.678  28.807  1.00  0.00    -0.237 OA
ATOM     87  O   UNL A   1      36.176  31.180  30.265  1.00  0.00    -0.237 OA
ATOM     88  O   UNL A   1      36.768  31.888  27.971  1.00  0.00    -0.744 OA
ENDBRANCH  84  85
ENDBRANCH  56  79
BRANCH  68  89
ATOM     89  C   UNL A   1      43.690  39.153  27.208  1.00  0.00    -0.014 A 
ATOM     90  C   UNL A   1      42.456  39.765  26.948  1.00  0.00     0.010 A 
ATOM     91  C   UNL A   1      44.825  39.689  26.549  1.00  0.00     0.010 A 
ATOM     92  C   UNL A   1      42.342  40.799  26.011  1.00  0.00     0.020 A 
ATOM     93  C   UNL A   1      44.732  40.762  25.662  1.00  0.00     0.020 A 
ATOM     94  C   UNL A   1      43.480  41.285  25.367  1.00  0.00     0.054 A 
BRANCH  94  95
ATOM     95  S   UNL A   1      43.343  42.638  24.175  1.00  0.00     0.124 S 
ATOM     96  O   UNL A   1      43.822  43.775  24.959  1.00  0.00    -0.237 OA
ATOM     97  O   UNL A   1      44.222  42.216  23.087  1.00  0.00    -0.237 OA
ATOM     98  O   UNL A   1      41.921  42.654  23.847  1.00  0.00    -0.744 OA
ENDBRANCH  94  95
ENDBRANCH  68  89
ENDBRANCH  42  43
ENDBRANCH  35  37
ENDBRANCH  34  35
ENDBRANCH  33  34
ENDBRANCH  32  33
ENDBRANCH  31  32
ENDBRANCH   1  31
TORSDOF 23
ENDMDL
