MODEL 1
REMARK VINA RESULT:      -9.2      0.000      0.000
REMARK SMILES O=C(CCCc1nc(-c2ccc(Cl)c(Cl)c2)c(-c2ccccc2)o1)OCCOCCOCCOC(=O)c1ccc(-c2c3nc(c(-c4ccc(S(=O)(=O)[O-])cc4)c4ccc([nH]4)c(-c4ccc(S(=O)(=O)[O-])cc4)c4nc(c(-c5ccc(S(=O)(=O)[O-])cc5)c5ccc2[nH]5)C=C4)C=C3)cc1
REMARK SMILES IDX 29 1 28 2 27 3 26 4 25 5 2 6 1 7 3 8 4 9 5 10 6 11 7 12
REMARK SMILES IDX 24 13 8 14 17 15 9 16 10 17 16 18 11 19 14 20 12 21 15 22
REMARK SMILES IDX 13 23 18 24 19 25 23 26 20 27 22 28 21 29 30 30 31 31 32 32
REMARK SMILES IDX 33 33 34 34 35 35 36 36 37 37 38 38 96 39 39 40 95 41 40 42
REMARK SMILES IDX 41 43 42 44 89 45 43 46 94 47 88 48 90 49 44 50 93 51 87 52
REMARK SMILES IDX 86 53 45 55 75 56 56 57 74 58 57 59 60 60 73 61 91 62 58 63
REMARK SMILES IDX 59 64 72 66 92 67 61 68 46 69 47 70 55 71 48 72 54 73 49 74
REMARK SMILES IDX 50 75 51 76 52 77 53 78 76 79 77 80 85 81 78 82 84 83 79 84
REMARK SMILES IDX 80 85 81 86 82 87 83 88 62 89 63 90 71 91 64 92 70 93 65 94
REMARK SMILES IDX 66 95 67 96 68 97 69 98
REMARK H PARENT 90 54 60 65
REMARK Flexibility Score: inf
ROOT
ATOM      1  C   UNL A   1      31.796  30.758  26.526  1.00  0.00     0.188 C 
ENDROOT
BRANCH   1   2
ATOM      2  O   UNL A   1      31.743  29.756  27.546  1.00  0.00    -0.376 OA
BRANCH   2   3
ATOM      3  C   UNL A   1      32.100  28.463  27.092  1.00  0.00     0.202 C 
BRANCH   3   4
ATOM      4  C   UNL A   1      31.709  28.088  25.679  1.00  0.00     0.261 C 
BRANCH   4   5
ATOM      5  O   UNL A   1      32.728  28.060  24.678  1.00  0.00    -0.463 OA
BRANCH   5   6
ATOM      6  C   UNL A   1      32.663  28.588  23.445  1.00  0.00     0.305 C 
ATOM      7  O   UNL A   1      33.665  29.148  22.997  1.00  0.00    -0.252 OA
BRANCH   6   8
ATOM      8  C   UNL A   1      31.408  28.473  22.603  1.00  0.00     0.123 C 
BRANCH   8   9
ATOM      9  C   UNL A   1      30.839  27.098  22.269  1.00  0.00     0.021 C 
BRANCH   9  10
ATOM     10  C   UNL A   1      31.713  26.049  21.572  1.00  0.00     0.098 C 
BRANCH  10  11
ATOM     11  C   UNL A   1      32.335  25.013  22.455  1.00  0.00     0.195 A 
ATOM     12  N   UNL A   1      31.839  23.823  22.714  1.00  0.00    -0.213 NA
ATOM     13  O   UNL A   1      33.637  25.192  22.904  1.00  0.00    -0.440 OA
ATOM     14  C   UNL A   1      32.847  23.180  23.376  1.00  0.00     0.117 A 
ATOM     15  C   UNL A   1      33.965  23.986  23.500  1.00  0.00     0.162 A 
BRANCH  14  16
ATOM     16  C   UNL A   1      32.742  21.804  23.786  1.00  0.00     0.006 A 
ATOM     17  C   UNL A   1      32.845  21.503  25.149  1.00  0.00     0.012 A 
ATOM     18  C   UNL A   1      32.519  20.786  22.855  1.00  0.00     0.032 A 
ATOM     19  C   UNL A   1      32.704  20.188  25.585  1.00  0.00     0.023 A 
ATOM     20  C   UNL A   1      32.392  19.465  23.291  1.00  0.00     0.060 A 
ATOM     21  C   UNL A   1      32.478  19.165  24.658  1.00  0.00     0.059 A 
ATOM     22  Cl  UNL A   1      32.117  18.249  22.095  1.00  0.00    -0.083 Cl
ATOM     23  Cl  UNL A   1      32.308  17.560  25.272  1.00  0.00    -0.083 Cl
ENDBRANCH  14  16
BRANCH  15  24
ATOM     24  C   UNL A   1      35.292  23.790  24.103  1.00  0.00     0.020 A 
ATOM     25  C   UNL A   1      35.596  24.233  25.394  1.00  0.00     0.012 A 
ATOM     26  C   UNL A   1      36.243  22.972  23.469  1.00  0.00     0.012 A 
ATOM     27  C   UNL A   1      36.711  23.743  26.090  1.00  0.00     0.001 A 
ATOM     28  C   UNL A   1      37.375  22.502  24.148  1.00  0.00     0.001 A 
ATOM     29  C   UNL A   1      37.586  22.855  25.474  1.00  0.00     0.000 A 
ENDBRANCH  15  24
ENDBRANCH  10  11
ENDBRANCH   9  10
ENDBRANCH   8   9
ENDBRANCH   6   8
ENDBRANCH   5   6
ENDBRANCH   4   5
ENDBRANCH   3   4
ENDBRANCH   2   3
ENDBRANCH   1   2
BRANCH   1  30
ATOM     30  C   UNL A   1      31.387  32.182  26.956  1.00  0.00     0.188 C 
BRANCH  30  31
ATOM     31  O   UNL A   1      32.440  33.132  26.885  1.00  0.00    -0.376 OA
BRANCH  31  32
ATOM     32  C   UNL A   1      33.182  33.410  28.067  1.00  0.00     0.202 C 
BRANCH  32  33
ATOM     33  C   UNL A   1      34.547  32.749  28.322  1.00  0.00     0.261 C 
BRANCH  33  34
ATOM     34  O   UNL A   1      34.540  31.406  28.796  1.00  0.00    -0.460 OA
BRANCH  34  35
ATOM     35  C   UNL A   1      35.358  30.546  28.173  1.00  0.00     0.338 C 
ATOM     36  O   UNL A   1      35.204  30.014  27.083  1.00  0.00    -0.246 OA
BRANCH  35  37
ATOM     37  C   UNL A   1      36.551  30.459  29.010  1.00  0.00     0.060 A 
ATOM     38  C   UNL A   1      37.699  31.163  28.633  1.00  0.00     0.016 A 
ATOM     39  C   UNL A   1      36.521  29.667  30.161  1.00  0.00     0.016 A 
ATOM     40  C   UNL A   1      38.857  31.019  29.375  1.00  0.00     0.010 A 
ATOM     41  C   UNL A   1      37.691  29.506  30.895  1.00  0.00     0.010 A 
ATOM     42  C   UNL A   1      38.869  30.133  30.461  1.00  0.00    -0.014 A 
BRANCH  42  43
ATOM     43  C   UNL A   1      40.182  29.651  30.920  1.00  0.00     0.031 A 
ATOM     44  C   UNL A   1      40.742  30.268  32.173  1.00  0.00     0.074 A 
ATOM     45  C   UNL A   1      40.784  28.625  30.301  1.00  0.00     0.049 A 
ATOM     46  N   UNL A   1      41.824  29.959  32.835  1.00  0.00    -0.248 NA
ATOM     47  C   UNL A   1      39.969  31.374  32.768  1.00  0.00     0.031 C 
ATOM     48  C   UNL A   1      40.269  27.930  29.121  1.00  0.00     0.029 A 
ATOM     49  N   UNL A   1      41.950  27.975  30.597  1.00  0.00    -0.354 N 
ATOM     50  C   UNL A   1      41.864  30.837  33.913  1.00  0.00     0.074 A 
ATOM     51  C   UNL A   1      40.720  31.710  33.804  1.00  0.00     0.031 C 
ATOM     52  C   UNL A   1      41.116  26.937  28.800  1.00  0.00     0.029 A 
ATOM     53  C   UNL A   1      42.240  26.950  29.733  1.00  0.00     0.049 A 
ATOM     54  H   UNL A   1      42.526  28.219  31.358  1.00  0.00     0.167 HD
ATOM     55  C   UNL A   1      42.777  30.902  34.908  1.00  0.00     0.031 A 
ATOM     56  C   UNL A   1      43.301  26.123  29.706  1.00  0.00     0.031 A 
ATOM     57  C   UNL A   1      43.919  30.031  34.983  1.00  0.00     0.049 A 
ATOM     58  C   UNL A   1      44.339  26.259  30.789  1.00  0.00     0.074 A 
ATOM     59  C   UNL A   1      44.916  29.997  35.937  1.00  0.00     0.029 A 
ATOM     60  N   UNL A   1      44.213  29.042  34.054  1.00  0.00    -0.354 N 
ATOM     61  N   UNL A   1      44.365  27.086  31.809  1.00  0.00    -0.248 NA
ATOM     62  C   UNL A   1      45.480  25.338  30.727  1.00  0.00     0.031 C 
ATOM     63  C   UNL A   1      45.851  29.031  35.549  1.00  0.00     0.029 A 
ATOM     64  C   UNL A   1      45.392  28.408  34.398  1.00  0.00     0.049 A 
ATOM     65  H   UNL A   1      43.664  28.824  33.266  1.00  0.00     0.167 HD
ATOM     66  C   UNL A   1      45.505  26.757  32.536  1.00  0.00     0.074 A 
ATOM     67  C   UNL A   1      46.131  25.650  31.840  1.00  0.00     0.031 C 
ATOM     68  C   UNL A   1      45.988  27.310  33.678  1.00  0.00     0.031 A 
BRANCH  55  69
ATOM     69  C   UNL A   1      42.604  31.981  35.945  1.00  0.00    -0.014 A 
ATOM     70  C   UNL A   1      43.175  33.257  35.788  1.00  0.00     0.010 A 
ATOM     71  C   UNL A   1      41.843  31.712  37.098  1.00  0.00     0.010 A 
ATOM     72  C   UNL A   1      43.020  34.231  36.780  1.00  0.00     0.020 A 
ATOM     73  C   UNL A   1      41.659  32.691  38.077  1.00  0.00     0.020 A 
ATOM     74  C   UNL A   1      42.261  33.941  37.918  1.00  0.00     0.054 A 
BRANCH  74  75
ATOM     75  S   UNL A   1      42.050  35.231  39.177  1.00  0.00     0.124 S 
ATOM     76  O   UNL A   1      41.842  36.422  38.357  1.00  0.00    -0.237 OA
ATOM     77  O   UNL A   1      40.880  34.765  39.916  1.00  0.00    -0.237 OA
ATOM     78  O   UNL A   1      43.306  35.199  39.921  1.00  0.00    -0.744 OA
ENDBRANCH  74  75
ENDBRANCH  55  69
BRANCH  56  79
ATOM     79  C   UNL A   1      43.426  25.104  28.628  1.00  0.00    -0.014 A 
ATOM     80  C   UNL A   1      44.173  25.366  27.467  1.00  0.00     0.010 A 
ATOM     81  C   UNL A   1      42.796  23.853  28.765  1.00  0.00     0.010 A 
ATOM     82  C   UNL A   1      44.271  24.406  26.455  1.00  0.00     0.020 A 
ATOM     83  C   UNL A   1      42.916  22.879  27.770  1.00  0.00     0.020 A 
ATOM     84  C   UNL A   1      43.643  23.167  26.614  1.00  0.00     0.054 A 
BRANCH  84  85
ATOM     85  S   UNL A   1      43.814  21.923  25.305  1.00  0.00     0.124 S 
ATOM     86  O   UNL A   1      43.654  22.728  24.098  1.00  0.00    -0.237 OA
ATOM     87  O   UNL A   1      45.157  21.399  25.543  1.00  0.00    -0.237 OA
ATOM     88  O   UNL A   1      42.729  20.984  25.580  1.00  0.00    -0.744 OA
ENDBRANCH  84  85
ENDBRANCH  56  79
BRANCH  68  89
ATOM     89  C   UNL A   1      47.223  26.683  34.272  1.00  0.00    -0.014 A 
ATOM     90  C   UNL A   1      48.512  27.137  33.946  1.00  0.00     0.010 A 
ATOM     91  C   UNL A   1      47.077  25.637  35.202  1.00  0.00     0.010 A 
ATOM     92  C   UNL A   1      49.636  26.517  34.497  1.00  0.00     0.020 A 
ATOM     93  C   UNL A   1      48.196  25.041  35.784  1.00  0.00     0.020 A 
ATOM     94  C   UNL A   1      49.469  25.470  35.410  1.00  0.00     0.054 A 
BRANCH  94  95
ATOM     95  S   UNL A   1      50.943  24.688  36.118  1.00  0.00     0.124 S 
ATOM     96  O   UNL A   1      51.294  23.715  35.088  1.00  0.00    -0.237 OA
ATOM     97  O   UNL A   1      51.864  25.812  36.262  1.00  0.00    -0.237 OA
ATOM     98  O   UNL A   1      50.463  24.119  37.376  1.00  0.00    -0.744 OA
ENDBRANCH  94  95
ENDBRANCH  68  89
ENDBRANCH  42  43
ENDBRANCH  35  37
ENDBRANCH  34  35
ENDBRANCH  33  34
ENDBRANCH  32  33
ENDBRANCH  31  32
ENDBRANCH  30  31
ENDBRANCH   1  30
TORSDOF 25
ENDMDL
MODEL 2
REMARK VINA RESULT:      -9.0      3.829      4.477
REMARK SMILES O=C(CCCc1nc(-c2ccc(Cl)c(Cl)c2)c(-c2ccccc2)o1)OCCOCCOCCOC(=O)c1ccc(-c2c3nc(c(-c4ccc(S(=O)(=O)[O-])cc4)c4ccc([nH]4)c(-c4ccc(S(=O)(=O)[O-])cc4)c4nc(c(-c5ccc(S(=O)(=O)[O-])cc5)c5ccc2[nH]5)C=C4)C=C3)cc1
REMARK SMILES IDX 29 1 28 2 27 3 26 4 25 5 2 6 1 7 3 8 4 9 5 10 6 11 7 12
REMARK SMILES IDX 24 13 8 14 17 15 9 16 10 17 16 18 11 19 14 20 12 21 15 22
REMARK SMILES IDX 13 23 18 24 19 25 23 26 20 27 22 28 21 29 30 30 31 31 32 32
REMARK SMILES IDX 33 33 34 34 35 35 36 36 37 37 38 38 96 39 39 40 95 41 40 42
REMARK SMILES IDX 41 43 42 44 89 45 43 46 94 47 88 48 90 49 44 50 93 51 87 52
REMARK SMILES IDX 86 53 45 55 75 56 56 57 74 58 57 59 60 60 73 61 91 62 58 63
REMARK SMILES IDX 59 64 72 66 92 67 61 68 46 69 47 70 55 71 48 72 54 73 49 74
REMARK SMILES IDX 50 75 51 76 52 77 53 78 76 79 77 80 85 81 78 82 84 83 79 84
REMARK SMILES IDX 80 85 81 86 82 87 83 88 62 89 63 90 71 91 64 92 70 93 65 94
REMARK SMILES IDX 66 95 67 96 68 97 69 98
REMARK H PARENT 90 54 60 65
REMARK Flexibility Score: inf
ROOT
ATOM      1  C   UNL A   1      31.801  31.074  26.593  1.00  0.00     0.188 C 
ENDROOT
BRANCH   1   2
ATOM      2  O   UNL A   1      32.563  30.114  27.331  1.00  0.00    -0.376 OA
BRANCH   2   3
ATOM      3  C   UNL A   1      33.764  29.725  26.689  1.00  0.00     0.202 C 
BRANCH   3   4
ATOM      4  C   UNL A   1      34.004  28.243  26.501  1.00  0.00     0.261 C 
BRANCH   4   5
ATOM      5  O   UNL A   1      33.652  27.653  25.249  1.00  0.00    -0.463 OA
BRANCH   5   6
ATOM      6  C   UNL A   1      32.481  27.771  24.602  1.00  0.00     0.305 C 
ATOM      7  O   UNL A   1      32.504  27.953  23.384  1.00  0.00    -0.252 OA
BRANCH   6   8
ATOM      8  C   UNL A   1      31.159  27.649  25.334  1.00  0.00     0.123 C 
BRANCH   8   9
ATOM      9  C   UNL A   1      30.217  26.493  25.017  1.00  0.00     0.021 C 
BRANCH   9  10
ATOM     10  C   UNL A   1      30.055  25.335  26.008  1.00  0.00     0.098 C 
BRANCH  10  11
ATOM     11  C   UNL A   1      31.035  24.211  25.880  1.00  0.00     0.195 A 
ATOM     12  N   UNL A   1      30.788  23.030  25.355  1.00  0.00    -0.213 NA
ATOM     13  O   UNL A   1      32.379  24.445  26.139  1.00  0.00    -0.440 OA
ATOM     14  C   UNL A   1      32.019  22.443  25.269  1.00  0.00     0.117 A 
ATOM     15  C   UNL A   1      33.015  23.285  25.731  1.00  0.00     0.162 A 
BRANCH  14  16
ATOM     16  C   UNL A   1      32.212  21.146  24.675  1.00  0.00     0.006 A 
ATOM     17  C   UNL A   1      32.269  21.052  23.279  1.00  0.00     0.012 A 
ATOM     18  C   UNL A   1      32.364  20.003  25.464  1.00  0.00     0.032 A 
ATOM     19  C   UNL A   1      32.498  19.821  22.672  1.00  0.00     0.023 A 
ATOM     20  C   UNL A   1      32.581  18.765  24.853  1.00  0.00     0.060 A 
ATOM     21  C   UNL A   1      32.654  18.673  23.456  1.00  0.00     0.059 A 
ATOM     22  Cl  UNL A   1      32.762  17.386  25.879  1.00  0.00    -0.083 Cl
ATOM     23  Cl  UNL A   1      32.941  17.182  22.634  1.00  0.00    -0.083 Cl
ENDBRANCH  14  16
BRANCH  15  24
ATOM     24  C   UNL A   1      34.475  23.156  25.850  1.00  0.00     0.020 A 
ATOM     25  C   UNL A   1      35.093  21.937  26.145  1.00  0.00     0.012 A 
ATOM     26  C   UNL A   1      35.313  24.222  25.476  1.00  0.00     0.012 A 
ATOM     27  C   UNL A   1      36.462  21.736  25.909  1.00  0.00     0.001 A 
ATOM     28  C   UNL A   1      36.686  24.036  25.267  1.00  0.00     0.001 A 
ATOM     29  C   UNL A   1      37.252  22.780  25.443  1.00  0.00     0.000 A 
ENDBRANCH  15  24
ENDBRANCH  10  11
ENDBRANCH   9  10
ENDBRANCH   8   9
ENDBRANCH   6   8
ENDBRANCH   5   6
ENDBRANCH   4   5
ENDBRANCH   3   4
ENDBRANCH   2   3
ENDBRANCH   1   2
BRANCH   1  30
ATOM     30  C   UNL A   1      31.814  32.514  27.144  1.00  0.00     0.188 C 
BRANCH  30  31
ATOM     31  O   UNL A   1      33.112  33.079  27.257  1.00  0.00    -0.376 OA
BRANCH  31  32
ATOM     32  C   UNL A   1      33.477  33.697  28.486  1.00  0.00     0.202 C 
BRANCH  32  33
ATOM     33  C   UNL A   1      34.946  33.759  28.938  1.00  0.00     0.261 C 
BRANCH  33  34
ATOM     34  O   UNL A   1      35.191  33.836  30.340  1.00  0.00    -0.460 OA
BRANCH  34  35
ATOM     35  C   UNL A   1      35.043  32.701  31.038  1.00  0.00     0.338 C 
ATOM     36  O   UNL A   1      34.103  32.368  31.745  1.00  0.00    -0.246 OA
BRANCH  35  37
ATOM     37  C   UNL A   1      36.190  31.868  30.685  1.00  0.00     0.060 A 
ATOM     38  C   UNL A   1      37.049  31.431  31.698  1.00  0.00     0.016 A 
ATOM     39  C   UNL A   1      36.407  31.539  29.344  1.00  0.00     0.016 A 
ATOM     40  C   UNL A   1      38.182  30.712  31.360  1.00  0.00     0.010 A 
ATOM     41  C   UNL A   1      37.557  30.835  29.004  1.00  0.00     0.010 A 
ATOM     42  C   UNL A   1      38.471  30.481  30.009  1.00  0.00    -0.014 A 
BRANCH  42  43
ATOM     43  C   UNL A   1      39.864  30.151  29.666  1.00  0.00     0.031 A 
ATOM     44  C   UNL A   1      40.901  31.214  29.901  1.00  0.00     0.074 A 
ATOM     45  C   UNL A   1      40.191  28.911  29.273  1.00  0.00     0.049 A 
ATOM     46  N   UNL A   1      42.199  31.147  29.772  1.00  0.00    -0.248 NA
ATOM     47  C   UNL A   1      40.410  32.529  30.355  1.00  0.00     0.031 C 
ATOM     48  C   UNL A   1      39.249  27.806  29.089  1.00  0.00     0.029 A 
ATOM     49  N   UNL A   1      41.412  28.369  28.981  1.00  0.00    -0.354 N 
ATOM     50  C   UNL A   1      42.673  32.407  30.119  1.00  0.00     0.074 A 
ATOM     51  C   UNL A   1      41.529  33.229  30.434  1.00  0.00     0.031 C 
ATOM     52  C   UNL A   1      39.935  26.709  28.724  1.00  0.00     0.029 A 
ATOM     53  C   UNL A   1      41.353  27.046  28.623  1.00  0.00     0.049 A 
ATOM     54  H   UNL A   1      42.253  28.880  29.024  1.00  0.00     0.167 HD
ATOM     55  C   UNL A   1      43.955  32.836  30.173  1.00  0.00     0.031 A 
ATOM     56  C   UNL A   1      42.341  26.212  28.252  1.00  0.00     0.031 A 
ATOM     57  C   UNL A   1      45.075  32.001  29.835  1.00  0.00     0.049 A 
ATOM     58  C   UNL A   1      43.754  26.733  28.256  1.00  0.00     0.074 A 
ATOM     59  C   UNL A   1      46.419  32.316  29.846  1.00  0.00     0.029 A 
ATOM     60  N   UNL A   1      44.972  30.681  29.417  1.00  0.00    -0.354 N 
ATOM     61  N   UNL A   1      44.195  27.923  28.594  1.00  0.00    -0.248 NA
ATOM     62  C   UNL A   1      44.804  25.792  27.848  1.00  0.00     0.031 C 
ATOM     63  C   UNL A   1      47.126  31.207  29.370  1.00  0.00     0.029 A 
ATOM     64  C   UNL A   1      46.228  30.174  29.142  1.00  0.00     0.049 A 
ATOM     65  H   UNL A   1      44.129  30.180  29.329  1.00  0.00     0.167 HD
ATOM     66  C   UNL A   1      45.580  27.863  28.479  1.00  0.00     0.074 A 
ATOM     67  C   UNL A   1      45.898  26.514  28.051  1.00  0.00     0.031 C 
ATOM     68  C   UNL A   1      46.507  28.826  28.714  1.00  0.00     0.031 A 
BRANCH  55  69
ATOM     69  C   UNL A   1      44.194  34.275  30.549  1.00  0.00    -0.014 A 
ATOM     70  C   UNL A   1      44.513  34.653  31.867  1.00  0.00     0.010 A 
ATOM     71  C   UNL A   1      44.109  35.269  29.558  1.00  0.00     0.010 A 
ATOM     72  C   UNL A   1      44.703  35.999  32.192  1.00  0.00     0.020 A 
ATOM     73  C   UNL A   1      44.329  36.612  29.871  1.00  0.00     0.020 A 
ATOM     74  C   UNL A   1      44.611  36.971  31.190  1.00  0.00     0.054 A 
BRANCH  74  75
ATOM     75  S   UNL A   1      44.892  38.708  31.633  1.00  0.00     0.124 S 
ATOM     76  O   UNL A   1      44.027  38.867  32.799  1.00  0.00    -0.237 OA
ATOM     77  O   UNL A   1      46.327  38.738  31.907  1.00  0.00    -0.237 OA
ATOM     78  O   UNL A   1      44.473  39.442  30.442  1.00  0.00    -0.744 OA
ENDBRANCH  74  75
ENDBRANCH  55  69
BRANCH  56  79
ATOM     79  C   UNL A   1      42.026  24.812  27.855  1.00  0.00    -0.014 A 
ATOM     80  C   UNL A   1      41.602  24.508  26.550  1.00  0.00     0.010 A 
ATOM     81  C   UNL A   1      42.156  23.768  28.790  1.00  0.00     0.010 A 
ATOM     82  C   UNL A   1      41.295  23.190  26.194  1.00  0.00     0.020 A 
ATOM     83  C   UNL A   1      41.880  22.447  28.429  1.00  0.00     0.020 A 
ATOM     84  C   UNL A   1      41.437  22.168  27.136  1.00  0.00     0.054 A 
BRANCH  84  85
ATOM     85  S   UNL A   1      41.070  20.462  26.640  1.00  0.00     0.124 S 
ATOM     86  O   UNL A   1      39.770  20.608  25.991  1.00  0.00    -0.237 OA
ATOM     87  O   UNL A   1      42.187  20.144  25.754  1.00  0.00    -0.237 OA
ATOM     88  O   UNL A   1      41.059  19.732  27.906  1.00  0.00    -0.744 OA
ENDBRANCH  84  85
ENDBRANCH  56  79
BRANCH  68  89
ATOM     89  C   UNL A   1      47.954  28.433  28.566  1.00  0.00    -0.014 A 
ATOM     90  C   UNL A   1      48.622  28.518  27.333  1.00  0.00     0.010 A 
ATOM     91  C   UNL A   1      48.662  28.000  29.703  1.00  0.00     0.010 A 
ATOM     92  C   UNL A   1      49.957  28.123  27.227  1.00  0.00     0.020 A 
ATOM     93  C   UNL A   1      50.007  27.642  29.609  1.00  0.00     0.020 A 
ATOM     94  C   UNL A   1      50.640  27.683  28.366  1.00  0.00     0.054 A 
BRANCH  94  95
ATOM     95  S   UNL A   1      52.375  27.184  28.205  1.00  0.00     0.124 S 
ATOM     96  O   UNL A   1      52.328  26.295  27.048  1.00  0.00    -0.237 OA
ATOM     97  O   UNL A   1      53.055  28.459  27.992  1.00  0.00    -0.237 OA
ATOM     98  O   UNL A   1      52.668  26.533  29.480  1.00  0.00    -0.744 OA
ENDBRANCH  94  95
ENDBRANCH  68  89
ENDBRANCH  42  43
ENDBRANCH  35  37
ENDBRANCH  34  35
ENDBRANCH  33  34
ENDBRANCH  32  33
ENDBRANCH  31  32
ENDBRANCH  30  31
ENDBRANCH   1  30
TORSDOF 25
ENDMDL
MODEL 3
REMARK VINA RESULT:      -8.7      2.765      4.141
REMARK SMILES O=C(CCCc1nc(-c2ccc(Cl)c(Cl)c2)c(-c2ccccc2)o1)OCCOCCOCCOC(=O)c1ccc(-c2c3nc(c(-c4ccc(S(=O)(=O)[O-])cc4)c4ccc([nH]4)c(-c4ccc(S(=O)(=O)[O-])cc4)c4nc(c(-c5ccc(S(=O)(=O)[O-])cc5)c5ccc2[nH]5)C=C4)C=C3)cc1
REMARK SMILES IDX 29 1 28 2 27 3 26 4 25 5 2 6 1 7 3 8 4 9 5 10 6 11 7 12
REMARK SMILES IDX 24 13 8 14 17 15 9 16 10 17 16 18 11 19 14 20 12 21 15 22
REMARK SMILES IDX 13 23 18 24 19 25 23 26 20 27 22 28 21 29 30 30 31 31 32 32
REMARK SMILES IDX 33 33 34 34 35 35 36 36 37 37 38 38 96 39 39 40 95 41 40 42
REMARK SMILES IDX 41 43 42 44 89 45 43 46 94 47 88 48 90 49 44 50 93 51 87 52
REMARK SMILES IDX 86 53 45 55 75 56 56 57 74 58 57 59 60 60 73 61 91 62 58 63
REMARK SMILES IDX 59 64 72 66 92 67 61 68 46 69 47 70 55 71 48 72 54 73 49 74
REMARK SMILES IDX 50 75 51 76 52 77 53 78 76 79 77 80 85 81 78 82 84 83 79 84
REMARK SMILES IDX 80 85 81 86 82 87 83 88 62 89 63 90 71 91 64 92 70 93 65 94
REMARK SMILES IDX 66 95 67 96 68 97 69 98
REMARK H PARENT 90 54 60 65
REMARK Flexibility Score: inf
ROOT
ATOM      1  C   UNL A   1      31.825  31.361  26.497  1.00  0.00     0.188 C 
ENDROOT
BRANCH   1   2
ATOM      2  O   UNL A   1      32.487  30.359  27.274  1.00  0.00    -0.376 OA
BRANCH   2   3
ATOM      3  C   UNL A   1      33.713  29.924  26.716  1.00  0.00     0.202 C 
BRANCH   3   4
ATOM      4  C   UNL A   1      33.831  28.461  26.347  1.00  0.00     0.261 C 
BRANCH   4   5
ATOM      5  O   UNL A   1      33.573  28.080  24.995  1.00  0.00    -0.463 OA
BRANCH   5   6
ATOM      6  C   UNL A   1      32.583  28.527  24.204  1.00  0.00     0.305 C 
ATOM      7  O   UNL A   1      32.859  29.358  23.338  1.00  0.00    -0.252 OA
BRANCH   6   8
ATOM      8  C   UNL A   1      31.167  28.004  24.342  1.00  0.00     0.123 C 
BRANCH   8   9
ATOM      9  C   UNL A   1      30.613  27.027  23.310  1.00  0.00     0.021 C 
BRANCH   9  10
ATOM     10  C   UNL A   1      30.058  25.669  23.753  1.00  0.00     0.098 C 
BRANCH  10  11
ATOM     11  C   UNL A   1      31.068  24.601  24.036  1.00  0.00     0.195 A 
ATOM     12  N   UNL A   1      30.851  23.304  23.997  1.00  0.00    -0.213 NA
ATOM     13  O   UNL A   1      32.408  24.945  24.161  1.00  0.00    -0.440 OA
ATOM     14  C   UNL A   1      32.097  22.755  24.113  1.00  0.00     0.117 A 
ATOM     15  C   UNL A   1      33.073  23.731  24.206  1.00  0.00     0.162 A 
BRANCH  14  16
ATOM     16  C   UNL A   1      32.320  21.335  24.044  1.00  0.00     0.006 A 
ATOM     17  C   UNL A   1      32.676  20.656  25.216  1.00  0.00     0.012 A 
ATOM     18  C   UNL A   1      32.164  20.635  22.845  1.00  0.00     0.032 A 
ATOM     19  C   UNL A   1      32.856  19.276  25.195  1.00  0.00     0.023 A 
ATOM     20  C   UNL A   1      32.358  19.251  22.822  1.00  0.00     0.060 A 
ATOM     21  C   UNL A   1      32.699  18.569  23.998  1.00  0.00     0.059 A 
ATOM     22  Cl  UNL A   1      32.152  18.438  21.311  1.00  0.00    -0.083 Cl
ATOM     23  Cl  UNL A   1      32.933  16.859  24.049  1.00  0.00    -0.083 Cl
ENDBRANCH  14  16
BRANCH  15  24
ATOM     24  C   UNL A   1      34.537  23.689  24.336  1.00  0.00     0.020 A 
ATOM     25  C   UNL A   1      35.192  24.085  25.507  1.00  0.00     0.012 A 
ATOM     26  C   UNL A   1      35.318  23.060  23.350  1.00  0.00     0.012 A 
ATOM     27  C   UNL A   1      36.522  23.716  25.759  1.00  0.00     0.001 A 
ATOM     28  C   UNL A   1      36.655  22.714  23.584  1.00  0.00     0.001 A 
ATOM     29  C   UNL A   1      37.244  23.006  24.807  1.00  0.00     0.000 A 
ENDBRANCH  15  24
ENDBRANCH  10  11
ENDBRANCH   9  10
ENDBRANCH   8   9
ENDBRANCH   6   8
ENDBRANCH   5   6
ENDBRANCH   4   5
ENDBRANCH   3   4
ENDBRANCH   2   3
ENDBRANCH   1   2
BRANCH   1  30
ATOM     30  C   UNL A   1      32.114  32.824  26.893  1.00  0.00     0.188 C 
BRANCH  30  31
ATOM     31  O   UNL A   1      33.308  32.994  27.642  1.00  0.00    -0.376 OA
BRANCH  31  32
ATOM     32  C   UNL A   1      33.488  34.207  28.364  1.00  0.00     0.202 C 
BRANCH  32  33
ATOM     33  C   UNL A   1      34.037  34.202  29.801  1.00  0.00     0.261 C 
BRANCH  33  34
ATOM     34  O   UNL A   1      33.730  35.329  30.617  1.00  0.00    -0.460 OA
BRANCH  34  35
ATOM     35  C   UNL A   1      33.288  35.069  31.856  1.00  0.00     0.338 C 
ATOM     36  O   UNL A   1      32.133  35.068  32.259  1.00  0.00    -0.246 OA
BRANCH  35  37
ATOM     37  C   UNL A   1      34.464  34.659  32.618  1.00  0.00     0.060 A 
ATOM     38  C   UNL A   1      35.673  35.331  32.416  1.00  0.00     0.016 A 
ATOM     39  C   UNL A   1      34.355  33.598  33.521  1.00  0.00     0.016 A 
ATOM     40  C   UNL A   1      36.809  34.894  33.073  1.00  0.00     0.010 A 
ATOM     41  C   UNL A   1      35.502  33.145  34.165  1.00  0.00     0.010 A 
ATOM     42  C   UNL A   1      36.734  33.756  33.888  1.00  0.00    -0.014 A 
BRANCH  42  43
ATOM     43  C   UNL A   1      37.995  33.055  34.180  1.00  0.00     0.031 A 
ATOM     44  C   UNL A   1      38.693  33.400  35.467  1.00  0.00     0.074 A 
ATOM     45  C   UNL A   1      38.427  32.071  33.378  1.00  0.00     0.049 A 
ATOM     46  N   UNL A   1      39.758  32.865  36.001  1.00  0.00    -0.248 NA
ATOM     47  C   UNL A   1      38.101  34.487  36.269  1.00  0.00     0.031 C 
ATOM     48  C   UNL A   1      37.767  31.632  32.147  1.00  0.00     0.029 A 
ATOM     49  N   UNL A   1      39.512  31.247  33.494  1.00  0.00    -0.354 N 
ATOM     50  C   UNL A   1      39.966  33.555  37.189  1.00  0.00     0.074 A 
ATOM     51  C   UNL A   1      38.941  34.566  37.288  1.00  0.00     0.031 C 
ATOM     52  C   UNL A   1      38.461  30.605  31.626  1.00  0.00     0.029 A 
ATOM     53  C   UNL A   1      39.622  30.339  32.471  1.00  0.00     0.049 A 
ATOM     54  H   UNL A   1      40.152  31.300  34.240  1.00  0.00     0.167 HD
ATOM     55  C   UNL A   1      40.929  33.356  38.118  1.00  0.00     0.031 A 
ATOM     56  C   UNL A   1      40.565  29.404  32.251  1.00  0.00     0.031 A 
ATOM     57  C   UNL A   1      41.950  32.353  37.985  1.00  0.00     0.049 A 
ATOM     58  C   UNL A   1      41.665  29.247  33.267  1.00  0.00     0.074 A 
ATOM     59  C   UNL A   1      42.982  32.053  38.852  1.00  0.00     0.029 A 
ATOM     60  N   UNL A   1      42.066  31.490  36.903  1.00  0.00    -0.354 N 
ATOM     61  N   UNL A   1      41.849  29.898  34.392  1.00  0.00    -0.248 NA
ATOM     62  C   UNL A   1      42.672  28.215  32.992  1.00  0.00     0.031 C 
ATOM     63  C   UNL A   1      43.763  31.053  38.264  1.00  0.00     0.029 A 
ATOM     64  C   UNL A   1      43.169  30.673  37.068  1.00  0.00     0.049 A 
ATOM     65  H   UNL A   1      41.454  31.464  36.133  1.00  0.00     0.167 HD
ATOM     66  C   UNL A   1      42.972  29.327  34.983  1.00  0.00     0.074 A 
ATOM     67  C   UNL A   1      43.413  28.271  34.091  1.00  0.00     0.031 C 
ATOM     68  C   UNL A   1      43.580  29.634  36.157  1.00  0.00     0.031 A 
BRANCH  55  69
ATOM     69  C   UNL A   1      40.950  34.276  39.310  1.00  0.00    -0.014 A 
ATOM     70  C   UNL A   1      40.655  33.816  40.607  1.00  0.00     0.010 A 
ATOM     71  C   UNL A   1      41.283  35.631  39.128  1.00  0.00     0.010 A 
ATOM     72  C   UNL A   1      40.656  34.700  41.690  1.00  0.00     0.020 A 
ATOM     73  C   UNL A   1      41.317  36.511  40.212  1.00  0.00     0.020 A 
ATOM     74  C   UNL A   1      40.989  36.042  41.485  1.00  0.00     0.054 A 
BRANCH  74  75
ATOM     75  S   UNL A   1      41.012  37.162  42.913  1.00  0.00     0.124 S 
ATOM     76  O   UNL A   1      40.634  36.269  44.005  1.00  0.00    -0.237 OA
ATOM     77  O   UNL A   1      42.398  37.625  42.932  1.00  0.00    -0.237 OA
ATOM     78  O   UNL A   1      40.023  38.182  42.572  1.00  0.00    -0.744 OA
ENDBRANCH  74  75
ENDBRANCH  55  69
BRANCH  56  79
ATOM     79  C   UNL A   1      40.501  28.555  31.030  1.00  0.00    -0.014 A 
ATOM     80  C   UNL A   1      39.360  27.788  30.740  1.00  0.00     0.010 A 
ATOM     81  C   UNL A   1      41.592  28.517  30.141  1.00  0.00     0.010 A 
ATOM     82  C   UNL A   1      39.318  26.983  29.596  1.00  0.00     0.020 A 
ATOM     83  C   UNL A   1      41.542  27.738  28.981  1.00  0.00     0.020 A 
ATOM     84  C   UNL A   1      40.410  26.965  28.723  1.00  0.00     0.054 A 
BRANCH  84  85
ATOM     85  S   UNL A   1      40.318  25.943  27.227  1.00  0.00     0.124 S 
ATOM     86  O   UNL A   1      41.221  24.844  27.555  1.00  0.00    -0.237 OA
ATOM     87  O   UNL A   1      38.899  25.601  27.166  1.00  0.00    -0.237 OA
ATOM     88  O   UNL A   1      40.781  26.840  26.171  1.00  0.00    -0.744 OA
ENDBRANCH  84  85
ENDBRANCH  56  79
BRANCH  68  89
ATOM     89  C   UNL A   1      44.751  28.780  36.565  1.00  0.00    -0.014 A 
ATOM     90  C   UNL A   1      44.600  27.683  37.430  1.00  0.00     0.010 A 
ATOM     91  C   UNL A   1      46.024  29.070  36.039  1.00  0.00     0.010 A 
ATOM     92  C   UNL A   1      45.711  26.926  37.808  1.00  0.00     0.020 A 
ATOM     93  C   UNL A   1      47.130  28.292  36.383  1.00  0.00     0.020 A 
ATOM     94  C   UNL A   1      46.970  27.239  37.284  1.00  0.00     0.054 A 
BRANCH  94  95
ATOM     95  S   UNL A   1      48.396  26.236  37.781  1.00  0.00     0.124 S 
ATOM     96  O   UNL A   1      47.800  25.326  38.757  1.00  0.00    -0.237 OA
ATOM     97  O   UNL A   1      48.811  25.624  36.522  1.00  0.00    -0.237 OA
ATOM     98  O   UNL A   1      49.332  27.213  38.332  1.00  0.00    -0.744 OA
ENDBRANCH  94  95
ENDBRANCH  68  89
ENDBRANCH  42  43
ENDBRANCH  35  37
ENDBRANCH  34  35
ENDBRANCH  33  34
ENDBRANCH  32  33
ENDBRANCH  31  32
ENDBRANCH  30  31
ENDBRANCH   1  30
TORSDOF 25
ENDMDL
