MODEL 1
REMARK VINA RESULT:     -11.0      0.000      0.000
REMARK SMILES CCOc1ccc(-c2cc(Cl)cc3c2O[C@H](C(F)(F)F)C(C(=O)OCCOCCOCCOC(=O)c2ccc(-c4c5nc(c(-c6ccc(S(=O)(=O)[O-])cc6)c6ccc([nH]6)c(-c6ccc(S(=O)(=O)[O-])cc6)c6nc(c(-c7ccc(S(=O)(=O)[O-])cc7)c7ccc4[nH]7)C=C6)C=C5)cc2)=C3)cc1
REMARK SMILES IDX 28 1 27 2 26 3 25 4 24 5 22 6 23 7 21 8 8 9 9 10 14 11 10 12
REMARK SMILES IDX 13 13 15 14 11 15 12 16 96 17 16 18 7 19 4 20 5 21 98 22
REMARK SMILES IDX 6 23 97 24 3 25 2 26 1 27 17 28 18 29 19 30 20 31 29 32
REMARK SMILES IDX 30 33 31 34 32 35 33 36 34 37 35 38 36 39 37 40 95 41 38 42
REMARK SMILES IDX 94 43 39 44 40 45 41 46 88 47 42 48 93 49 87 50 89 51 43 52
REMARK SMILES IDX 92 53 86 54 85 55 44 57 74 58 55 59 73 60 56 61 59 62 72 63
REMARK SMILES IDX 90 64 57 65 58 66 71 68 91 69 60 70 45 71 46 72 54 73 47 74
REMARK SMILES IDX 53 75 48 76 49 77 50 78 51 79 52 80 75 81 76 82 84 83 77 84
REMARK SMILES IDX 83 85 78 86 79 87 80 88 81 89 82 90 61 91 62 92 70 93 63 94
REMARK SMILES IDX 69 95 64 96 65 97 66 98 67 99 68 100
REMARK H PARENT 89 56 59 67
REMARK Flexibility Score: inf
ROOT
ATOM      1  C   UNL A   1      37.488  22.105  25.749  1.00  0.00     0.188 C 
ENDROOT
BRANCH   1   2
ATOM      2  O   UNL A   1      37.286  23.257  24.946  1.00  0.00    -0.376 OA
BRANCH   2   3
ATOM      3  C   UNL A   1      36.047  23.932  25.141  1.00  0.00     0.202 C 
BRANCH   3   4
ATOM      4  C   UNL A   1      35.167  23.335  26.249  1.00  0.00     0.261 C 
BRANCH   4   5
ATOM      5  O   UNL A   1      34.073  22.547  25.707  1.00  0.00    -0.460 OA
BRANCH   5   6
ATOM      6  C   UNL A   1      32.841  22.957  26.082  1.00  0.00     0.338 C 
ATOM      7  O   UNL A   1      32.495  23.106  27.247  1.00  0.00    -0.246 OA
BRANCH   6   8
ATOM      8  C   UNL A   1      31.969  23.319  24.929  1.00  0.00     0.087 C 
ATOM      9  C   UNL A   1      30.829  27.192  24.017  1.00  0.00     0.026 A 
ATOM     10  C   UNL A   1      31.077  27.873  25.228  1.00  0.00     0.033 A 
ATOM     11  C   UNL A   1      30.951  25.796  24.098  1.00  0.00     0.135 A 
ATOM     12  C   UNL A   1      31.193  27.227  26.459  1.00  0.00     0.042 A 
ATOM     13  C   UNL A   1      30.814  25.165  25.352  1.00  0.00     0.019 A 
ATOM     14  O   UNL A   1      31.450  24.973  23.078  1.00  0.00    -0.475 OA
ATOM     15  Cl  UNL A   1      31.548  28.103  27.889  1.00  0.00    -0.084 Cl
ATOM     16  C   UNL A   1      30.967  25.870  26.536  1.00  0.00     0.032 A 
ATOM     17  C   UNL A   1      30.754  23.688  25.365  1.00  0.00     0.027 C 
ATOM     18  C   UNL A   1      32.452  23.975  23.636  1.00  0.00     0.316 C 
BRANCH   9  19
ATOM     19  C   UNL A   1      30.053  28.018  23.034  1.00  0.00    -0.014 A 
ATOM     20  C   UNL A   1      28.531  30.153  21.822  1.00  0.00     0.119 A 
ATOM     21  C   UNL A   1      29.908  30.059  21.643  1.00  0.00     0.047 A 
ATOM     22  C   UNL A   1      27.909  29.186  22.603  1.00  0.00     0.047 A 
ATOM     23  C   UNL A   1      30.648  29.009  22.233  1.00  0.00     0.013 A 
ATOM     24  C   UNL A   1      28.657  28.140  23.196  1.00  0.00     0.013 A 
BRANCH  20  25
ATOM     25  O   UNL A   1      27.866  31.053  21.038  1.00  0.00    -0.494 OA
BRANCH  25  26
ATOM     26  C   UNL A   1      28.164  32.449  21.151  1.00  0.00     0.226 C 
ATOM     27  C   UNL A   1      28.497  32.893  22.567  1.00  0.00     0.049 C 
ENDBRANCH  25  26
ENDBRANCH  20  25
ENDBRANCH   9  19
BRANCH  18  28
ATOM     28  C   UNL A   1      32.807  22.857  22.646  1.00  0.00     0.430 C 
ATOM     29  F   UNL A   1      31.908  21.848  22.667  1.00  0.00    -0.167 F 
ATOM     30  F   UNL A   1      32.902  23.306  21.376  1.00  0.00    -0.167 F 
ATOM     31  F   UNL A   1      34.015  22.311  22.953  1.00  0.00    -0.167 F 
ENDBRANCH  18  28
ENDBRANCH   6   8
ENDBRANCH   5   6
ENDBRANCH   4   5
ENDBRANCH   3   4
ENDBRANCH   2   3
ENDBRANCH   1   2
BRANCH   1  32
ATOM     32  C   UNL A   1      38.939  21.576  25.769  1.00  0.00     0.188 C 
BRANCH  32  33
ATOM     33  O   UNL A   1      39.703  21.576  26.966  1.00  0.00    -0.376 OA
BRANCH  33  34
ATOM     34  C   UNL A   1      41.108  21.757  26.902  1.00  0.00     0.202 C 
BRANCH  34  35
ATOM     35  C   UNL A   1      41.690  23.104  26.445  1.00  0.00     0.261 C 
BRANCH  35  36
ATOM     36  O   UNL A   1      40.758  24.193  26.323  1.00  0.00    -0.460 OA
BRANCH  36  37
ATOM     37  C   UNL A   1      41.306  25.408  26.078  1.00  0.00     0.338 C 
ATOM     38  O   UNL A   1      41.863  25.766  25.047  1.00  0.00    -0.246 OA
BRANCH  37  39
ATOM     39  C   UNL A   1      40.994  26.348  27.176  1.00  0.00     0.060 A 
ATOM     40  C   UNL A   1      41.648  27.582  27.192  1.00  0.00     0.016 A 
ATOM     41  C   UNL A   1      40.142  26.000  28.228  1.00  0.00     0.016 A 
ATOM     42  C   UNL A   1      41.462  28.453  28.267  1.00  0.00     0.010 A 
ATOM     43  C   UNL A   1      39.965  26.881  29.310  1.00  0.00     0.010 A 
ATOM     44  C   UNL A   1      40.630  28.116  29.347  1.00  0.00    -0.014 A 
BRANCH  44  45
ATOM     45  C   UNL A   1      40.616  28.988  30.563  1.00  0.00     0.031 A 
ATOM     46  C   UNL A   1      39.503  29.986  30.716  1.00  0.00     0.074 A 
ATOM     47  C   UNL A   1      41.541  28.880  31.539  1.00  0.00     0.049 A 
ATOM     48  N   UNL A   1      39.264  30.805  31.705  1.00  0.00    -0.248 NA
ATOM     49  C   UNL A   1      38.562  30.102  29.590  1.00  0.00     0.031 C 
ATOM     50  C   UNL A   1      42.695  27.997  31.485  1.00  0.00     0.029 A 
ATOM     51  N   UNL A   1      41.640  29.460  32.786  1.00  0.00    -0.354 N 
ATOM     52  C   UNL A   1      38.188  31.582  31.295  1.00  0.00     0.074 A 
ATOM     53  C   UNL A   1      37.794  31.107  29.987  1.00  0.00     0.031 C 
ATOM     54  C   UNL A   1      43.291  27.963  32.692  1.00  0.00     0.029 A 
ATOM     55  C   UNL A   1      42.631  28.913  33.581  1.00  0.00     0.049 A 
ATOM     56  H   UNL A   1      41.058  30.196  33.083  1.00  0.00     0.167 HD
ATOM     57  C   UNL A   1      37.616  32.630  31.933  1.00  0.00     0.031 A 
ATOM     58  C   UNL A   1      42.964  29.150  34.872  1.00  0.00     0.031 A 
ATOM     59  C   UNL A   1      38.035  33.120  33.219  1.00  0.00     0.049 A 
ATOM     60  C   UNL A   1      42.242  30.274  35.590  1.00  0.00     0.074 A 
ATOM     61  C   UNL A   1      37.563  34.220  33.914  1.00  0.00     0.029 A 
ATOM     62  N   UNL A   1      39.016  32.540  34.008  1.00  0.00    -0.354 N 
ATOM     63  N   UNL A   1      41.222  30.995  35.188  1.00  0.00    -0.248 NA
ATOM     64  C   UNL A   1      42.739  30.642  36.926  1.00  0.00     0.031 C 
ATOM     65  C   UNL A   1      38.293  34.334  35.100  1.00  0.00     0.029 A 
ATOM     66  C   UNL A   1      39.171  33.266  35.178  1.00  0.00     0.049 A 
ATOM     67  H   UNL A   1      39.528  31.734  33.772  1.00  0.00     0.167 HD
ATOM     68  C   UNL A   1      40.969  31.906  36.211  1.00  0.00     0.074 A 
ATOM     69  C   UNL A   1      41.893  31.598  37.281  1.00  0.00     0.031 C 
ATOM     70  C   UNL A   1      40.081  32.931  36.247  1.00  0.00     0.031 A 
BRANCH  57  71
ATOM     71  C   UNL A   1      36.525  33.372  31.207  1.00  0.00    -0.014 A 
ATOM     72  C   UNL A   1      36.800  34.153  30.073  1.00  0.00     0.010 A 
ATOM     73  C   UNL A   1      35.194  33.243  31.648  1.00  0.00     0.010 A 
ATOM     74  C   UNL A   1      35.763  34.806  29.400  1.00  0.00     0.020 A 
ATOM     75  C   UNL A   1      34.152  33.872  30.963  1.00  0.00     0.020 A 
ATOM     76  C   UNL A   1      34.446  34.658  29.847  1.00  0.00     0.054 A 
BRANCH  76  77
ATOM     77  S   UNL A   1      33.117  35.476  28.923  1.00  0.00     0.124 S 
ATOM     78  O   UNL A   1      32.563  34.369  28.146  1.00  0.00    -0.237 OA
ATOM     79  O   UNL A   1      32.259  35.988  29.987  1.00  0.00    -0.237 OA
ATOM     80  O   UNL A   1      33.812  36.496  28.142  1.00  0.00    -0.744 OA
ENDBRANCH  76  77
ENDBRANCH  57  71
BRANCH  58  81
ATOM     81  C   UNL A   1      44.016  28.351  35.594  1.00  0.00    -0.014 A 
ATOM     82  C   UNL A   1      45.372  28.729  35.513  1.00  0.00     0.010 A 
ATOM     83  C   UNL A   1      43.714  27.181  36.312  1.00  0.00     0.010 A 
ATOM     84  C   UNL A   1      46.393  27.959  36.078  1.00  0.00     0.020 A 
ATOM     85  C   UNL A   1      44.728  26.420  36.919  1.00  0.00     0.020 A 
ATOM     86  C   UNL A   1      46.064  26.801  36.775  1.00  0.00     0.054 A 
BRANCH  86  87
ATOM     87  S   UNL A   1      47.403  25.810  37.494  1.00  0.00     0.124 S 
ATOM     88  O   UNL A   1      48.204  26.829  38.166  1.00  0.00    -0.237 OA
ATOM     89  O   UNL A   1      46.681  24.892  38.375  1.00  0.00    -0.237 OA
ATOM     90  O   UNL A   1      48.025  25.186  36.330  1.00  0.00    -0.744 OA
ENDBRANCH  86  87
ENDBRANCH  58  81
BRANCH  70  91
ATOM     91  C   UNL A   1      40.047  33.799  37.482  1.00  0.00    -0.014 A 
ATOM     92  C   UNL A   1      40.813  34.976  37.567  1.00  0.00     0.010 A 
ATOM     93  C   UNL A   1      39.168  33.482  38.535  1.00  0.00     0.010 A 
ATOM     94  C   UNL A   1      40.727  35.800  38.693  1.00  0.00     0.020 A 
ATOM     95  C   UNL A   1      39.055  34.320  39.649  1.00  0.00     0.020 A 
ATOM     96  C   UNL A   1      39.846  35.468  39.727  1.00  0.00     0.054 A 
BRANCH  96  97
ATOM     97  S   UNL A   1      39.717  36.582  41.153  1.00  0.00     0.124 S 
ATOM     98  O   UNL A   1      40.988  36.353  41.835  1.00  0.00    -0.237 OA
ATOM     99  O   UNL A   1      39.569  37.892  40.523  1.00  0.00    -0.237 OA
ATOM    100  O   UNL A   1      38.534  36.102  41.864  1.00  0.00    -0.744 OA
ENDBRANCH  96  97
ENDBRANCH  70  91
ENDBRANCH  44  45
ENDBRANCH  37  39
ENDBRANCH  36  37
ENDBRANCH  35  36
ENDBRANCH  34  35
ENDBRANCH  33  34
ENDBRANCH  32  33
ENDBRANCH   1  32
TORSDOF 24
ENDMDL
MODEL 2
REMARK VINA RESULT:     -10.6      6.315     10.427
REMARK SMILES CCOc1ccc(-c2cc(Cl)cc3c2O[C@H](C(F)(F)F)C(C(=O)OCCOCCOCCOC(=O)c2ccc(-c4c5nc(c(-c6ccc(S(=O)(=O)[O-])cc6)c6ccc([nH]6)c(-c6ccc(S(=O)(=O)[O-])cc6)c6nc(c(-c7ccc(S(=O)(=O)[O-])cc7)c7ccc4[nH]7)C=C6)C=C5)cc2)=C3)cc1
REMARK SMILES IDX 28 1 27 2 26 3 25 4 24 5 22 6 23 7 21 8 8 9 9 10 14 11 10 12
REMARK SMILES IDX 13 13 15 14 11 15 12 16 96 17 16 18 7 19 4 20 5 21 98 22
REMARK SMILES IDX 6 23 97 24 3 25 2 26 1 27 17 28 18 29 19 30 20 31 29 32
REMARK SMILES IDX 30 33 31 34 32 35 33 36 34 37 35 38 36 39 37 40 95 41 38 42
REMARK SMILES IDX 94 43 39 44 40 45 41 46 88 47 42 48 93 49 87 50 89 51 43 52
REMARK SMILES IDX 92 53 86 54 85 55 44 57 74 58 55 59 73 60 56 61 59 62 72 63
REMARK SMILES IDX 90 64 57 65 58 66 71 68 91 69 60 70 45 71 46 72 54 73 47 74
REMARK SMILES IDX 53 75 48 76 49 77 50 78 51 79 52 80 75 81 76 82 84 83 77 84
REMARK SMILES IDX 83 85 78 86 79 87 80 88 81 89 82 90 61 91 62 92 70 93 63 94
REMARK SMILES IDX 69 95 64 96 65 97 66 98 67 99 68 100
REMARK H PARENT 89 56 59 67
REMARK Flexibility Score: inf
ROOT
ATOM      1  C   UNL A   1      37.807  19.929  24.600  1.00  0.00     0.188 C 
ENDROOT
BRANCH   1   2
ATOM      2  O   UNL A   1      36.451  19.912  25.017  1.00  0.00    -0.376 OA
BRANCH   2   3
ATOM      3  C   UNL A   1      35.799  21.178  25.039  1.00  0.00     0.202 C 
BRANCH   3   4
ATOM      4  C   UNL A   1      34.920  21.417  26.276  1.00  0.00     0.261 C 
BRANCH   4   5
ATOM      5  O   UNL A   1      33.529  21.640  25.918  1.00  0.00    -0.460 OA
BRANCH   5   6
ATOM      6  C   UNL A   1      33.140  22.934  25.943  1.00  0.00     0.338 C 
ATOM      7  O   UNL A   1      33.487  23.736  26.800  1.00  0.00    -0.246 OA
BRANCH   6   8
ATOM      8  C   UNL A   1      32.327  23.323  24.756  1.00  0.00     0.087 C 
ATOM      9  C   UNL A   1      31.060  27.188  23.988  1.00  0.00     0.026 A 
ATOM     10  C   UNL A   1      31.195  27.807  25.249  1.00  0.00     0.033 A 
ATOM     11  C   UNL A   1      31.244  25.796  23.998  1.00  0.00     0.135 A 
ATOM     12  C   UNL A   1      31.264  27.096  26.446  1.00  0.00     0.042 A 
ATOM     13  C   UNL A   1      31.058  25.087  25.203  1.00  0.00     0.019 A 
ATOM     14  O   UNL A   1      31.847  25.059  22.970  1.00  0.00    -0.475 OA
ATOM     15  Cl  UNL A   1      31.483  27.901  27.944  1.00  0.00    -0.084 Cl
ATOM     16  C   UNL A   1      31.100  25.728  26.433  1.00  0.00     0.032 A 
ATOM     17  C   UNL A   1      31.070  23.611  25.130  1.00  0.00     0.027 C 
ATOM     18  C   UNL A   1      32.859  24.076  23.537  1.00  0.00     0.316 C 
BRANCH   9  19
ATOM     19  C   UNL A   1      30.308  28.035  23.003  1.00  0.00    -0.014 A 
ATOM     20  C   UNL A   1      28.883  30.225  21.774  1.00  0.00     0.119 A 
ATOM     21  C   UNL A   1      30.248  30.046  21.565  1.00  0.00     0.047 A 
ATOM     22  C   UNL A   1      28.226  29.315  22.593  1.00  0.00     0.047 A 
ATOM     23  C   UNL A   1      30.940  28.970  22.163  1.00  0.00     0.013 A 
ATOM     24  C   UNL A   1      28.926  28.241  23.194  1.00  0.00     0.013 A 
BRANCH  20  25
ATOM     25  O   UNL A   1      28.252  31.144  20.983  1.00  0.00    -0.494 OA
BRANCH  25  26
ATOM     26  C   UNL A   1      27.832  32.393  21.543  1.00  0.00     0.226 C 
ATOM     27  C   UNL A   1      28.777  32.939  22.603  1.00  0.00     0.049 C 
ENDBRANCH  25  26
ENDBRANCH  20  25
ENDBRANCH   9  19
BRANCH  18  28
ATOM     28  C   UNL A   1      33.331  23.035  22.513  1.00  0.00     0.430 C 
ATOM     29  F   UNL A   1      32.842  21.802  22.770  1.00  0.00    -0.167 F 
ATOM     30  F   UNL A   1      32.988  23.366  21.249  1.00  0.00    -0.167 F 
ATOM     31  F   UNL A   1      34.688  22.929  22.528  1.00  0.00    -0.167 F 
ENDBRANCH  18  28
ENDBRANCH   6   8
ENDBRANCH   5   6
ENDBRANCH   4   5
ENDBRANCH   3   4
ENDBRANCH   2   3
ENDBRANCH   1   2
BRANCH   1  32
ATOM     32  C   UNL A   1      38.837  19.810  25.746  1.00  0.00     0.188 C 
BRANCH  32  33
ATOM     33  O   UNL A   1      40.109  19.220  25.529  1.00  0.00    -0.376 OA
BRANCH  33  34
ATOM     34  C   UNL A   1      41.184  19.528  26.400  1.00  0.00     0.202 C 
BRANCH  34  35
ATOM     35  C   UNL A   1      42.623  19.155  26.010  1.00  0.00     0.261 C 
BRANCH  35  36
ATOM     36  O   UNL A   1      43.046  19.543  24.691  1.00  0.00    -0.460 OA
BRANCH  36  37
ATOM     37  C   UNL A   1      44.384  19.676  24.519  1.00  0.00     0.338 C 
ATOM     38  O   UNL A   1      45.148  18.842  24.048  1.00  0.00    -0.246 OA
BRANCH  37  39
ATOM     39  C   UNL A   1      44.810  21.059  24.820  1.00  0.00     0.060 A 
ATOM     40  C   UNL A   1      45.423  21.306  26.051  1.00  0.00     0.016 A 
ATOM     41  C   UNL A   1      44.536  22.122  23.955  1.00  0.00     0.016 A 
ATOM     42  C   UNL A   1      45.743  22.615  26.417  1.00  0.00     0.010 A 
ATOM     43  C   UNL A   1      44.856  23.438  24.336  1.00  0.00     0.010 A 
ATOM     44  C   UNL A   1      45.458  23.702  25.576  1.00  0.00    -0.014 A 
BRANCH  44  45
ATOM     45  C   UNL A   1      45.635  25.096  26.090  1.00  0.00     0.031 A 
ATOM     46  C   UNL A   1      46.949  25.784  25.855  1.00  0.00     0.074 A 
ATOM     47  C   UNL A   1      44.646  25.764  26.719  1.00  0.00     0.049 A 
ATOM     48  N   UNL A   1      47.307  27.001  26.166  1.00  0.00    -0.248 NA
ATOM     49  C   UNL A   1      48.009  24.983  25.222  1.00  0.00     0.031 C 
ATOM     50  C   UNL A   1      43.352  25.193  27.058  1.00  0.00     0.029 A 
ATOM     51  N   UNL A   1      44.537  27.074  27.137  1.00  0.00    -0.354 N 
ATOM     52  C   UNL A   1      48.652  27.093  25.831  1.00  0.00     0.074 A 
ATOM     53  C   UNL A   1      49.034  25.823  25.252  1.00  0.00     0.031 C 
ATOM     54  C   UNL A   1      42.525  26.170  27.473  1.00  0.00     0.029 A 
ATOM     55  C   UNL A   1      43.263  27.428  27.543  1.00  0.00     0.049 A 
ATOM     56  H   UNL A   1      45.296  27.700  27.144  1.00  0.00     0.167 HD
ATOM     57  C   UNL A   1      49.502  28.127  26.036  1.00  0.00     0.031 A 
ATOM     58  C   UNL A   1      42.753  28.623  27.924  1.00  0.00     0.031 A 
ATOM     59  C   UNL A   1      49.123  29.375  26.644  1.00  0.00     0.049 A 
ATOM     60  C   UNL A   1      43.715  29.787  28.059  1.00  0.00     0.074 A 
ATOM     61  C   UNL A   1      49.930  30.455  26.958  1.00  0.00     0.029 A 
ATOM     62  N   UNL A   1      47.834  29.715  27.022  1.00  0.00    -0.354 N 
ATOM     63  N   UNL A   1      44.984  29.856  27.733  1.00  0.00    -0.248 NA
ATOM     64  C   UNL A   1      43.186  31.028  28.650  1.00  0.00     0.031 C 
ATOM     65  C   UNL A   1      49.137  31.428  27.572  1.00  0.00     0.029 A 
ATOM     66  C   UNL A   1      47.824  30.985  27.576  1.00  0.00     0.049 A 
ATOM     67  H   UNL A   1      47.043  29.139  26.915  1.00  0.00     0.167 HD
ATOM     68  C   UNL A   1      45.404  31.136  28.090  1.00  0.00     0.074 A 
ATOM     69  C   UNL A   1      44.238  31.832  28.590  1.00  0.00     0.031 C 
ATOM     70  C   UNL A   1      46.648  31.674  28.048  1.00  0.00     0.031 A 
BRANCH  57  71
ATOM     71  C   UNL A   1      50.947  27.918  25.673  1.00  0.00    -0.014 A 
ATOM     72  C   UNL A   1      51.448  28.291  24.415  1.00  0.00     0.010 A 
ATOM     73  C   UNL A   1      51.827  27.380  26.632  1.00  0.00     0.010 A 
ATOM     74  C   UNL A   1      52.802  28.113  24.116  1.00  0.00     0.020 A 
ATOM     75  C   UNL A   1      53.186  27.227  26.347  1.00  0.00     0.020 A 
ATOM     76  C   UNL A   1      53.663  27.587  25.085  1.00  0.00     0.054 A 
BRANCH  76  77
ATOM     77  S   UNL A   1      55.423  27.417  24.685  1.00  0.00     0.124 S 
ATOM     78  O   UNL A   1      55.382  26.574  23.492  1.00  0.00    -0.237 OA
ATOM     79  O   UNL A   1      55.833  28.801  24.462  1.00  0.00    -0.237 OA
ATOM     80  O   UNL A   1      55.992  26.786  25.872  1.00  0.00    -0.744 OA
ENDBRANCH  76  77
ENDBRANCH  57  71
BRANCH  58  81
ATOM     81  C   UNL A   1      41.290  28.819  28.220  1.00  0.00    -0.014 A 
ATOM     82  C   UNL A   1      40.379  29.047  27.167  1.00  0.00     0.010 A 
ATOM     83  C   UNL A   1      40.783  28.851  29.530  1.00  0.00     0.010 A 
ATOM     84  C   UNL A   1      39.033  29.340  27.401  1.00  0.00     0.020 A 
ATOM     85  C   UNL A   1      39.422  29.103  29.776  1.00  0.00     0.020 A 
ATOM     86  C   UNL A   1      38.561  29.372  28.710  1.00  0.00     0.054 A 
BRANCH  86  87
ATOM     87  S   UNL A   1      36.812  29.761  28.993  1.00  0.00     0.124 S 
ATOM     88  O   UNL A   1      36.177  29.162  27.823  1.00  0.00    -0.237 OA
ATOM     89  O   UNL A   1      36.542  29.097  30.268  1.00  0.00    -0.237 OA
ATOM     90  O   UNL A   1      36.793  31.220  29.043  1.00  0.00    -0.744 OA
ENDBRANCH  86  87
ENDBRANCH  58  81
BRANCH  70  91
ATOM     91  C   UNL A   1      46.827  33.089  28.544  1.00  0.00    -0.014 A 
ATOM     92  C   UNL A   1      47.210  33.353  29.872  1.00  0.00     0.010 A 
ATOM     93  C   UNL A   1      46.701  34.166  27.647  1.00  0.00     0.010 A 
ATOM     94  C   UNL A   1      47.429  34.665  30.302  1.00  0.00     0.020 A 
ATOM     95  C   UNL A   1      46.950  35.478  28.064  1.00  0.00     0.020 A 
ATOM     96  C   UNL A   1      47.300  35.720  29.393  1.00  0.00     0.054 A 
BRANCH  96  97
ATOM     97  S   UNL A   1      47.640  37.408  29.965  1.00  0.00     0.124 S 
ATOM     98  O   UNL A   1      46.303  37.995  29.993  1.00  0.00    -0.237 OA
ATOM     99  O   UNL A   1      48.255  37.185  31.271  1.00  0.00    -0.237 OA
ATOM    100  O   UNL A   1      48.536  37.947  28.945  1.00  0.00    -0.744 OA
ENDBRANCH  96  97
ENDBRANCH  70  91
ENDBRANCH  44  45
ENDBRANCH  37  39
ENDBRANCH  36  37
ENDBRANCH  35  36
ENDBRANCH  34  35
ENDBRANCH  33  34
ENDBRANCH  32  33
ENDBRANCH   1  32
TORSDOF 24
ENDMDL
MODEL 3
REMARK VINA RESULT:     -10.3      0.951      7.774
REMARK SMILES CCOc1ccc(-c2cc(Cl)cc3c2O[C@H](C(F)(F)F)C(C(=O)OCCOCCOCCOC(=O)c2ccc(-c4c5nc(c(-c6ccc(S(=O)(=O)[O-])cc6)c6ccc([nH]6)c(-c6ccc(S(=O)(=O)[O-])cc6)c6nc(c(-c7ccc(S(=O)(=O)[O-])cc7)c7ccc4[nH]7)C=C6)C=C5)cc2)=C3)cc1
REMARK SMILES IDX 28 1 27 2 26 3 25 4 24 5 22 6 23 7 21 8 8 9 9 10 14 11 10 12
REMARK SMILES IDX 13 13 15 14 11 15 12 16 96 17 16 18 7 19 4 20 5 21 98 22
REMARK SMILES IDX 6 23 97 24 3 25 2 26 1 27 17 28 18 29 19 30 20 31 29 32
REMARK SMILES IDX 30 33 31 34 32 35 33 36 34 37 35 38 36 39 37 40 95 41 38 42
REMARK SMILES IDX 94 43 39 44 40 45 41 46 88 47 42 48 93 49 87 50 89 51 43 52
REMARK SMILES IDX 92 53 86 54 85 55 44 57 74 58 55 59 73 60 56 61 59 62 72 63
REMARK SMILES IDX 90 64 57 65 58 66 71 68 91 69 60 70 45 71 46 72 54 73 47 74
REMARK SMILES IDX 53 75 48 76 49 77 50 78 51 79 52 80 75 81 76 82 84 83 77 84
REMARK SMILES IDX 83 85 78 86 79 87 80 88 81 89 82 90 61 91 62 92 70 93 63 94
REMARK SMILES IDX 69 95 64 96 65 97 66 98 67 99 68 100
REMARK H PARENT 89 56 59 67
REMARK Flexibility Score: inf
ROOT
ATOM      1  C   UNL A   1      38.152  20.042  25.265  1.00  0.00     0.188 C 
ENDROOT
BRANCH   1   2
ATOM      2  O   UNL A   1      37.734  21.256  24.663  1.00  0.00    -0.376 OA
BRANCH   2   3
ATOM      3  C   UNL A   1      36.999  22.138  25.507  1.00  0.00     0.202 C 
BRANCH   3   4
ATOM      4  C   UNL A   1      35.502  21.810  25.617  1.00  0.00     0.261 C 
BRANCH   4   5
ATOM      5  O   UNL A   1      34.674  22.992  25.442  1.00  0.00    -0.460 OA
BRANCH   5   6
ATOM      6  C   UNL A   1      33.450  22.912  26.009  1.00  0.00     0.338 C 
ATOM      7  O   UNL A   1      33.259  22.690  27.198  1.00  0.00    -0.246 OA
BRANCH   6   8
ATOM      8  C   UNL A   1      32.345  23.233  25.062  1.00  0.00     0.087 C 
ATOM      9  C   UNL A   1      31.214  27.083  24.045  1.00  0.00     0.026 A 
ATOM     10  C   UNL A   1      31.780  27.849  25.087  1.00  0.00     0.033 A 
ATOM     11  C   UNL A   1      31.282  25.694  24.240  1.00  0.00     0.135 A 
ATOM     12  C   UNL A   1      32.157  27.308  26.316  1.00  0.00     0.042 A 
ATOM     13  C   UNL A   1      31.420  25.189  25.549  1.00  0.00     0.019 A 
ATOM     14  O   UNL A   1      31.478  24.750  23.223  1.00  0.00    -0.475 OA
ATOM     15  Cl  UNL A   1      32.889  28.280  27.524  1.00  0.00    -0.084 Cl
ATOM     16  C   UNL A   1      31.888  25.984  26.585  1.00  0.00     0.032 A 
ATOM     17  C   UNL A   1      31.291  23.728  25.730  1.00  0.00     0.027 C 
ATOM     18  C   UNL A   1      32.534  23.735  23.630  1.00  0.00     0.316 C 
BRANCH   9  19
ATOM     19  C   UNL A   1      30.266  27.873  23.192  1.00  0.00    -0.014 A 
ATOM     20  C   UNL A   1      28.325  29.818  22.301  1.00  0.00     0.119 A 
ATOM     21  C   UNL A   1      29.690  30.024  22.114  1.00  0.00     0.047 A 
ATOM     22  C   UNL A   1      27.925  28.645  22.930  1.00  0.00     0.047 A 
ATOM     23  C   UNL A   1      30.635  29.067  22.546  1.00  0.00     0.013 A 
ATOM     24  C   UNL A   1      28.878  27.692  23.365  1.00  0.00     0.013 A 
BRANCH  20  25
ATOM     25  O   UNL A   1      27.477  30.673  21.656  1.00  0.00    -0.494 OA
BRANCH  25  26
ATOM     26  C   UNL A   1      27.847  32.046  21.486  1.00  0.00     0.226 C 
ATOM     27  C   UNL A   1      28.118  32.434  20.040  1.00  0.00     0.049 C 
ENDBRANCH  25  26
ENDBRANCH  20  25
ENDBRANCH   9  19
BRANCH  18  28
ATOM     28  C   UNL A   1      32.585  22.510  22.707  1.00  0.00     0.430 C 
ATOM     29  F   UNL A   1      31.352  22.050  22.396  1.00  0.00    -0.167 F 
ATOM     30  F   UNL A   1      33.240  22.762  21.553  1.00  0.00    -0.167 F 
ATOM     31  F   UNL A   1      33.245  21.483  23.308  1.00  0.00    -0.167 F 
ENDBRANCH  18  28
ENDBRANCH   6   8
ENDBRANCH   5   6
ENDBRANCH   4   5
ENDBRANCH   3   4
ENDBRANCH   2   3
ENDBRANCH   1   2
BRANCH   1  32
ATOM     32  C   UNL A   1      39.640  20.006  25.681  1.00  0.00     0.188 C 
BRANCH  32  33
ATOM     33  O   UNL A   1      40.141  20.870  26.689  1.00  0.00    -0.376 OA
BRANCH  33  34
ATOM     34  C   UNL A   1      41.339  21.593  26.462  1.00  0.00     0.202 C 
BRANCH  34  35
ATOM     35  C   UNL A   1      41.279  23.075  26.057  1.00  0.00     0.261 C 
BRANCH  35  36
ATOM     36  O   UNL A   1      42.353  23.908  26.527  1.00  0.00    -0.460 OA
BRANCH  36  37
ATOM     37  C   UNL A   1      42.256  25.223  26.213  1.00  0.00     0.338 C 
ATOM     38  O   UNL A   1      42.093  25.698  25.095  1.00  0.00    -0.246 OA
BRANCH  37  39
ATOM     39  C   UNL A   1      42.198  26.046  27.439  1.00  0.00     0.060 A 
ATOM     40  C   UNL A   1      41.362  25.625  28.475  1.00  0.00     0.016 A 
ATOM     41  C   UNL A   1      42.877  27.262  27.546  1.00  0.00     0.016 A 
ATOM     42  C   UNL A   1      41.196  26.429  29.605  1.00  0.00     0.010 A 
ATOM     43  C   UNL A   1      42.700  28.069  28.685  1.00  0.00     0.010 A 
ATOM     44  C   UNL A   1      41.850  27.665  29.726  1.00  0.00    -0.014 A 
BRANCH  44  45
ATOM     45  C   UNL A   1      41.491  28.579  30.855  1.00  0.00     0.031 A 
ATOM     46  C   UNL A   1      42.443  28.697  32.011  1.00  0.00     0.074 A 
ATOM     47  C   UNL A   1      40.367  29.325  30.850  1.00  0.00     0.049 A 
ATOM     48  N   UNL A   1      42.362  29.459  33.069  1.00  0.00    -0.248 NA
ATOM     49  C   UNL A   1      43.619  27.810  31.991  1.00  0.00     0.031 C 
ATOM     50  C   UNL A   1      39.341  29.261  29.823  1.00  0.00     0.029 A 
ATOM     51  N   UNL A   1      39.916  30.321  31.691  1.00  0.00    -0.354 N 
ATOM     52  C   UNL A   1      43.435  29.099  33.873  1.00  0.00     0.074 A 
ATOM     53  C   UNL A   1      44.178  28.081  33.162  1.00  0.00     0.031 C 
ATOM     54  C   UNL A   1      38.473  30.275  29.991  1.00  0.00     0.029 A 
ATOM     55  C   UNL A   1      38.811  31.000  31.212  1.00  0.00     0.049 A 
ATOM     56  H   UNL A   1      40.343  30.530  32.553  1.00  0.00     0.167 HD
ATOM     57  C   UNL A   1      43.743  29.542  35.115  1.00  0.00     0.031 A 
ATOM     58  C   UNL A   1      38.152  32.078  31.699  1.00  0.00     0.031 A 
ATOM     59  C   UNL A   1      42.980  30.531  35.832  1.00  0.00     0.049 A 
ATOM     60  C   UNL A   1      38.577  32.610  33.054  1.00  0.00     0.074 A 
ATOM     61  C   UNL A   1      43.173  30.992  37.122  1.00  0.00     0.029 A 
ATOM     62  N   UNL A   1      41.888  31.215  35.321  1.00  0.00    -0.354 N 
ATOM     63  N   UNL A   1      39.600  32.259  33.799  1.00  0.00    -0.248 NA
ATOM     64  C   UNL A   1      37.738  33.660  33.655  1.00  0.00     0.031 C 
ATOM     65  C   UNL A   1      42.166  31.918  37.409  1.00  0.00     0.029 A 
ATOM     66  C   UNL A   1      41.390  32.087  36.274  1.00  0.00     0.049 A 
ATOM     67  H   UNL A   1      41.521  31.097  34.415  1.00  0.00     0.167 HD
ATOM     68  C   UNL A   1      39.516  33.032  34.955  1.00  0.00     0.074 A 
ATOM     69  C   UNL A   1      38.387  33.921  34.781  1.00  0.00     0.031 C 
ATOM     70  C   UNL A   1      40.278  32.984  36.076  1.00  0.00     0.031 A 
BRANCH  57  71
ATOM     71  C   UNL A   1      44.911  28.898  35.812  1.00  0.00    -0.014 A 
ATOM     72  C   UNL A   1      44.762  27.710  36.546  1.00  0.00     0.010 A 
ATOM     73  C   UNL A   1      46.190  29.474  35.688  1.00  0.00     0.010 A 
ATOM     74  C   UNL A   1      45.870  27.117  37.158  1.00  0.00     0.020 A 
ATOM     75  C   UNL A   1      47.304  28.870  36.274  1.00  0.00     0.020 A 
ATOM     76  C   UNL A   1      47.135  27.698  37.014  1.00  0.00     0.054 A 
BRANCH  76  77
ATOM     77  S   UNL A   1      48.560  26.877  37.776  1.00  0.00     0.124 S 
ATOM     78  O   UNL A   1      49.290  28.007  38.347  1.00  0.00    -0.237 OA
ATOM     79  O   UNL A   1      47.932  25.982  38.744  1.00  0.00    -0.237 OA
ATOM     80  O   UNL A   1      49.221  26.213  36.656  1.00  0.00    -0.744 OA
ENDBRANCH  76  77
ENDBRANCH  57  71
BRANCH  58  81
ATOM     81  C   UNL A   1      37.027  32.743  30.951  1.00  0.00    -0.014 A 
ATOM     82  C   UNL A   1      35.691  32.364  31.200  1.00  0.00     0.010 A 
ATOM     83  C   UNL A   1      37.250  33.701  29.948  1.00  0.00     0.010 A 
ATOM     84  C   UNL A   1      34.624  32.877  30.456  1.00  0.00     0.020 A 
ATOM     85  C   UNL A   1      36.181  34.254  29.222  1.00  0.00     0.020 A 
ATOM     86  C   UNL A   1      34.877  33.818  29.464  1.00  0.00     0.054 A 
BRANCH  86  87
ATOM     87  S   UNL A   1      33.480  34.465  28.505  1.00  0.00     0.124 S 
ATOM     88  O   UNL A   1      32.550  34.864  29.557  1.00  0.00    -0.237 OA
ATOM     89  O   UNL A   1      34.091  35.561  27.754  1.00  0.00    -0.237 OA
ATOM     90  O   UNL A   1      33.065  33.322  27.697  1.00  0.00    -0.744 OA
ENDBRANCH  86  87
ENDBRANCH  58  81
BRANCH  70  91
ATOM     91  C   UNL A   1      39.934  33.921  37.209  1.00  0.00    -0.014 A 
ATOM     92  C   UNL A   1      39.019  33.548  38.211  1.00  0.00     0.010 A 
ATOM     93  C   UNL A   1      40.603  35.154  37.325  1.00  0.00     0.010 A 
ATOM     94  C   UNL A   1      38.753  34.403  39.285  1.00  0.00     0.020 A 
ATOM     95  C   UNL A   1      40.365  35.998  38.414  1.00  0.00     0.020 A 
ATOM     96  C   UNL A   1      39.431  35.622  39.381  1.00  0.00     0.054 A 
BRANCH  96  97
ATOM     97  S   UNL A   1      39.105  36.689  40.813  1.00  0.00     0.124 S 
ATOM     98  O   UNL A   1      38.357  37.788  40.210  1.00  0.00    -0.237 OA
ATOM     99  O   UNL A   1      38.335  35.814  41.695  1.00  0.00    -0.237 OA
ATOM    100  O   UNL A   1      40.439  37.035  41.300  1.00  0.00    -0.744 OA
ENDBRANCH  96  97
ENDBRANCH  70  91
ENDBRANCH  44  45
ENDBRANCH  37  39
ENDBRANCH  36  37
ENDBRANCH  35  36
ENDBRANCH  34  35
ENDBRANCH  33  34
ENDBRANCH  32  33
ENDBRANCH   1  32
TORSDOF 24
ENDMDL
