MODEL 1
REMARK VINA RESULT:      -9.5      0.000      0.000
REMARK SMILES CC1(C)C(C(=O)Nc2ccc(CC(=O)OCCOCCOCCOC(=O)c3ccc(-c4c5nc(c(-c6ccc(S(=O)(=O)[O-])cc6)c6ccc([nH]6)c(-c6ccc(S(=O)(=O)[O-])cc6)c6nc(c(-c7ccc(S(=O)(=O)[O-])cc7)c7ccc4[nH]7)C=C6)C=C5)cc3)cc2)C1(C)C
REMARK SMILES IDX 19 1 18 2 17 3 16 4 15 5 13 6 14 7 12 8 11 9 8 10 9 11 88 12
REMARK SMILES IDX 10 13 87 14 7 15 5 16 6 17 4 19 1 20 2 21 3 22 89 23 90 24
REMARK SMILES IDX 91 25 20 26 21 27 22 28 23 29 24 30 25 31 26 32 27 33 28 34
REMARK SMILES IDX 86 35 29 36 85 37 30 38 31 39 32 40 79 41 33 42 84 43 78 44
REMARK SMILES IDX 80 45 34 46 83 47 77 48 76 49 35 51 65 52 46 53 64 54 47 55
REMARK SMILES IDX 50 56 63 57 81 58 48 59 49 60 62 62 82 63 51 64 36 65 37 66
REMARK SMILES IDX 45 67 38 68 44 69 39 70 40 71 41 72 42 73 43 74 66 75 67 76
REMARK SMILES IDX 75 77 68 78 74 79 69 80 70 81 71 82 72 83 73 84 52 85 53 86
REMARK SMILES IDX 61 87 54 88 60 89 55 90 56 91 57 92 58 93 59 94
REMARK H PARENT 7 18 80 50 50 61
REMARK Flexibility Score: inf
ROOT
ATOM      1  C   UNL A   1      33.555  35.123  29.170  1.00  0.00     0.188 C 
ENDROOT
BRANCH   1   2
ATOM      2  O   UNL A   1      32.563  34.282  28.582  1.00  0.00    -0.376 OA
BRANCH   2   3
ATOM      3  C   UNL A   1      32.962  33.363  27.575  1.00  0.00     0.202 C 
BRANCH   3   4
ATOM      4  C   UNL A   1      33.558  32.055  28.095  1.00  0.00     0.261 C 
BRANCH   4   5
ATOM      5  O   UNL A   1      34.224  31.319  27.054  1.00  0.00    -0.463 OA
BRANCH   5   6
ATOM      6  C   UNL A   1      34.294  29.979  27.233  1.00  0.00     0.310 C 
ATOM      7  O   UNL A   1      35.311  29.374  27.561  1.00  0.00    -0.252 OA
BRANCH   6   8
ATOM      8  C   UNL A   1      33.005  29.247  26.978  1.00  0.00     0.158 C 
BRANCH   8   9
ATOM      9  C   UNL A   1      32.648  28.757  25.589  1.00  0.00    -0.037 A 
ATOM     10  C   UNL A   1      32.210  27.121  23.361  1.00  0.00     0.041 A 
ATOM     11  C   UNL A   1      31.146  27.420  24.207  1.00  0.00     0.026 A 
ATOM     12  C   UNL A   1      33.395  27.843  23.472  1.00  0.00     0.026 A 
ATOM     13  C   UNL A   1      31.384  28.193  25.350  1.00  0.00     0.006 A 
ATOM     14  C   UNL A   1      33.617  28.662  24.585  1.00  0.00     0.006 A 
BRANCH  10  15
ATOM     15  N   UNL A   1      32.080  26.003  22.515  1.00  0.00    -0.326 N 
ATOM     16  C   UNL A   1      32.917  24.907  22.488  1.00  0.00     0.228 C 
ATOM     17  O   UNL A   1      33.545  24.646  21.462  1.00  0.00    -0.274 OA
ATOM     18  H   UNL A   1      31.322  26.004  21.886  1.00  0.00     0.169 HD
BRANCH  16  19
ATOM     19  C   UNL A   1      32.831  23.822  23.544  1.00  0.00     0.091 C 
ATOM     20  C   UNL A   1      33.870  21.495  24.289  1.00  0.00     0.012 C 
ATOM     21  C   UNL A   1      33.991  22.995  24.107  1.00  0.00    -0.017 C 
ATOM     22  C   UNL A   1      35.376  23.349  23.614  1.00  0.00     0.012 C 
ATOM     23  C   UNL A   1      33.119  23.889  25.036  1.00  0.00    -0.017 C 
ATOM     24  C   UNL A   1      32.024  23.287  25.909  1.00  0.00     0.012 C 
ATOM     25  C   UNL A   1      33.742  25.047  25.758  1.00  0.00     0.012 C 
ENDBRANCH  16  19
ENDBRANCH  10  15
ENDBRANCH   8   9
ENDBRANCH   6   8
ENDBRANCH   5   6
ENDBRANCH   4   5
ENDBRANCH   3   4
ENDBRANCH   2   3
ENDBRANCH   1   2
BRANCH   1  26
ATOM     26  C   UNL A   1      34.045  34.815  30.592  1.00  0.00     0.188 C 
BRANCH  26  27
ATOM     27  O   UNL A   1      35.168  33.938  30.569  1.00  0.00    -0.376 OA
BRANCH  27  28
ATOM     28  C   UNL A   1      35.893  33.930  31.792  1.00  0.00     0.202 C 
BRANCH  28  29
ATOM     29  C   UNL A   1      35.670  32.588  32.492  1.00  0.00     0.261 C 
BRANCH  29  30
ATOM     30  O   UNL A   1      36.748  31.646  32.314  1.00  0.00    -0.460 OA
BRANCH  30  31
ATOM     31  C   UNL A   1      36.757  30.955  31.156  1.00  0.00     0.338 C 
ATOM     32  O   UNL A   1      35.782  30.646  30.482  1.00  0.00    -0.246 OA
BRANCH  31  33
ATOM     33  C   UNL A   1      38.154  30.743  30.725  1.00  0.00     0.060 A 
ATOM     34  C   UNL A   1      38.437  30.720  29.355  1.00  0.00     0.016 A 
ATOM     35  C   UNL A   1      39.173  30.509  31.651  1.00  0.00     0.016 A 
ATOM     36  C   UNL A   1      39.727  30.433  28.900  1.00  0.00     0.010 A 
ATOM     37  C   UNL A   1      40.462  30.209  31.196  1.00  0.00     0.010 A 
ATOM     38  C   UNL A   1      40.742  30.138  29.819  1.00  0.00    -0.014 A 
BRANCH  38  39
ATOM     39  C   UNL A   1      42.051  29.606  29.355  1.00  0.00     0.031 A 
ATOM     40  C   UNL A   1      43.220  30.552  29.247  1.00  0.00     0.074 A 
ATOM     41  C   UNL A   1      42.208  28.311  29.022  1.00  0.00     0.049 A 
ATOM     42  N   UNL A   1      44.414  30.343  28.757  1.00  0.00    -0.248 NA
ATOM     43  C   UNL A   1      43.011  31.919  29.756  1.00  0.00     0.031 C 
ATOM     44  C   UNL A   1      41.178  27.277  29.124  1.00  0.00     0.029 A 
ATOM     45  N   UNL A   1      43.298  27.648  28.512  1.00  0.00    -0.354 N 
ATOM     46  C   UNL A   1      45.086  31.556  28.863  1.00  0.00     0.074 A 
ATOM     47  C   UNL A   1      44.167  32.498  29.464  1.00  0.00     0.031 C 
ATOM     48  C   UNL A   1      41.681  26.114  28.671  1.00  0.00     0.029 A 
ATOM     49  C   UNL A   1      43.050  26.330  28.206  1.00  0.00     0.049 A 
ATOM     50  H   UNL A   1      44.174  28.077  28.376  1.00  0.00     0.167 HD
ATOM     51  C   UNL A   1      46.351  31.861  28.487  1.00  0.00     0.031 A 
ATOM     52  C   UNL A   1      43.822  25.413  27.585  1.00  0.00     0.031 A 
ATOM     53  C   UNL A   1      47.272  30.922  27.905  1.00  0.00     0.049 A 
ATOM     54  C   UNL A   1      45.209  25.794  27.129  1.00  0.00     0.074 A 
ATOM     55  C   UNL A   1      48.588  31.133  27.531  1.00  0.00     0.029 A 
ATOM     56  N   UNL A   1      46.978  29.603  27.604  1.00  0.00    -0.354 N 
ATOM     57  N   UNL A   1      45.838  26.938  27.264  1.00  0.00    -0.248 NA
ATOM     58  C   UNL A   1      45.990  24.759  26.434  1.00  0.00     0.031 C 
ATOM     59  C   UNL A   1      49.072  29.957  26.951  1.00  0.00     0.029 A 
ATOM     60  C   UNL A   1      48.076  28.997  27.020  1.00  0.00     0.049 A 
ATOM     61  H   UNL A   1      46.115  29.162  27.780  1.00  0.00     0.167 HD
ATOM     62  C   UNL A   1      47.097  26.746  26.698  1.00  0.00     0.074 A 
ATOM     63  C   UNL A   1      47.146  25.377  26.234  1.00  0.00     0.031 C 
ATOM     64  C   UNL A   1      48.120  27.628  26.574  1.00  0.00     0.031 A 
BRANCH  51  65
ATOM     65  C   UNL A   1      46.810  33.284  28.650  1.00  0.00    -0.014 A 
ATOM     66  C   UNL A   1      46.565  34.253  27.661  1.00  0.00     0.010 A 
ATOM     67  C   UNL A   1      47.429  33.672  29.853  1.00  0.00     0.010 A 
ATOM     68  C   UNL A   1      46.951  35.581  27.865  1.00  0.00     0.020 A 
ATOM     69  C   UNL A   1      47.794  35.003  30.069  1.00  0.00     0.020 A 
ATOM     70  C   UNL A   1      47.561  35.947  29.069  1.00  0.00     0.054 A 
BRANCH  70  71
ATOM     71  S   UNL A   1      48.003  37.688  29.329  1.00  0.00     0.124 S 
ATOM     72  O   UNL A   1      49.167  37.573  30.205  1.00  0.00    -0.237 OA
ATOM     73  O   UNL A   1      48.284  38.152  27.972  1.00  0.00    -0.237 OA
ATOM     74  O   UNL A   1      46.812  38.262  29.947  1.00  0.00    -0.744 OA
ENDBRANCH  70  71
ENDBRANCH  51  65
BRANCH  52  75
ATOM     75  C   UNL A   1      43.291  24.048  27.302  1.00  0.00    -0.014 A 
ATOM     76  C   UNL A   1      43.436  23.009  28.239  1.00  0.00     0.010 A 
ATOM     77  C   UNL A   1      42.679  23.771  26.066  1.00  0.00     0.010 A 
ATOM     78  C   UNL A   1      43.011  21.712  27.930  1.00  0.00     0.020 A 
ATOM     79  C   UNL A   1      42.224  22.484  25.766  1.00  0.00     0.020 A 
ATOM     80  C   UNL A   1      42.411  21.458  26.694  1.00  0.00     0.054 A 
BRANCH  80  81
ATOM     81  S   UNL A   1      41.852  19.773  26.318  1.00  0.00     0.124 S 
ATOM     82  O   UNL A   1      40.418  19.965  26.125  1.00  0.00    -0.237 OA
ATOM     83  O   UNL A   1      42.615  19.446  25.117  1.00  0.00    -0.237 OA
ATOM     84  O   UNL A   1      42.227  19.015  27.511  1.00  0.00    -0.744 OA
ENDBRANCH  80  81
ENDBRANCH  52  75
BRANCH  64  85
ATOM     85  C   UNL A   1      49.402  27.133  25.957  1.00  0.00    -0.014 A 
ATOM     86  C   UNL A   1      49.600  27.148  24.565  1.00  0.00     0.010 A 
ATOM     87  C   UNL A   1      50.450  26.705  26.792  1.00  0.00     0.010 A 
ATOM     88  C   UNL A   1      50.812  26.716  24.018  1.00  0.00     0.020 A 
ATOM     89  C   UNL A   1      51.673  26.298  26.251  1.00  0.00     0.020 A 
ATOM     90  C   UNL A   1      51.841  26.292  24.866  1.00  0.00     0.054 A 
BRANCH  90  91
ATOM     91  S   UNL A   1      53.420  25.778  24.137  1.00  0.00     0.124 S 
ATOM     92  O   UNL A   1      53.541  24.402  24.611  1.00  0.00    -0.237 OA
ATOM     93  O   UNL A   1      53.178  25.929  22.704  1.00  0.00    -0.237 OA
ATOM     94  O   UNL A   1      54.386  26.718  24.701  1.00  0.00    -0.744 OA
ENDBRANCH  90  91
ENDBRANCH  64  85
ENDBRANCH  38  39
ENDBRANCH  31  33
ENDBRANCH  30  31
ENDBRANCH  29  30
ENDBRANCH  28  29
ENDBRANCH  27  28
ENDBRANCH  26  27
ENDBRANCH   1  26
TORSDOF 23
ENDMDL
MODEL 2
REMARK VINA RESULT:      -9.1      6.184      8.503
REMARK SMILES CC1(C)C(C(=O)Nc2ccc(CC(=O)OCCOCCOCCOC(=O)c3ccc(-c4c5nc(c(-c6ccc(S(=O)(=O)[O-])cc6)c6ccc([nH]6)c(-c6ccc(S(=O)(=O)[O-])cc6)c6nc(c(-c7ccc(S(=O)(=O)[O-])cc7)c7ccc4[nH]7)C=C6)C=C5)cc3)cc2)C1(C)C
REMARK SMILES IDX 19 1 18 2 17 3 16 4 15 5 13 6 14 7 12 8 11 9 8 10 9 11 88 12
REMARK SMILES IDX 10 13 87 14 7 15 5 16 6 17 4 19 1 20 2 21 3 22 89 23 90 24
REMARK SMILES IDX 91 25 20 26 21 27 22 28 23 29 24 30 25 31 26 32 27 33 28 34
REMARK SMILES IDX 86 35 29 36 85 37 30 38 31 39 32 40 79 41 33 42 84 43 78 44
REMARK SMILES IDX 80 45 34 46 83 47 77 48 76 49 35 51 65 52 46 53 64 54 47 55
REMARK SMILES IDX 50 56 63 57 81 58 48 59 49 60 62 62 82 63 51 64 36 65 37 66
REMARK SMILES IDX 45 67 38 68 44 69 39 70 40 71 41 72 42 73 43 74 66 75 67 76
REMARK SMILES IDX 75 77 68 78 74 79 69 80 70 81 71 82 72 83 73 84 52 85 53 86
REMARK SMILES IDX 61 87 54 88 60 89 55 90 56 91 57 92 58 93 59 94
REMARK H PARENT 7 18 80 50 50 61
REMARK Flexibility Score: inf
ROOT
ATOM      1  C   UNL A   1      35.471  31.354  27.845  1.00  0.00     0.188 C 
ENDROOT
BRANCH   1   2
ATOM      2  O   UNL A   1      34.583  30.261  27.611  1.00  0.00    -0.376 OA
BRANCH   2   3
ATOM      3  C   UNL A   1      33.351  30.516  26.951  1.00  0.00     0.202 C 
BRANCH   3   4
ATOM      4  C   UNL A   1      33.053  29.599  25.766  1.00  0.00     0.261 C 
BRANCH   4   5
ATOM      5  O   UNL A   1      31.679  29.173  25.749  1.00  0.00    -0.463 OA
BRANCH   5   6
ATOM      6  C   UNL A   1      31.054  29.248  24.551  1.00  0.00     0.310 C 
ATOM      7  O   UNL A   1      30.284  30.145  24.223  1.00  0.00    -0.252 OA
BRANCH   6   8
ATOM      8  C   UNL A   1      31.358  28.107  23.617  1.00  0.00     0.158 C 
BRANCH   8   9
ATOM      9  C   UNL A   1      31.097  26.673  24.027  1.00  0.00    -0.037 A 
ATOM     10  C   UNL A   1      31.411  23.940  24.546  1.00  0.00     0.041 A 
ATOM     11  C   UNL A   1      31.604  24.856  25.576  1.00  0.00     0.026 A 
ATOM     12  C   UNL A   1      30.809  24.359  23.363  1.00  0.00     0.026 A 
ATOM     13  C   UNL A   1      31.501  26.224  25.295  1.00  0.00     0.006 A 
ATOM     14  C   UNL A   1      30.650  25.726  23.100  1.00  0.00     0.006 A 
BRANCH  10  15
ATOM     15  N   UNL A   1      31.958  22.653  24.703  1.00  0.00    -0.326 N 
ATOM     16  C   UNL A   1      33.025  22.136  23.998  1.00  0.00     0.228 C 
ATOM     17  O   UNL A   1      32.863  21.144  23.289  1.00  0.00    -0.274 OA
ATOM     18  H   UNL A   1      31.542  22.069  25.377  1.00  0.00     0.169 HD
BRANCH  16  19
ATOM     19  C   UNL A   1      34.453  22.527  24.329  1.00  0.00     0.091 C 
ATOM     20  C   UNL A   1      35.941  23.857  26.080  1.00  0.00     0.012 C 
ATOM     21  C   UNL A   1      35.066  22.672  25.726  1.00  0.00    -0.017 C 
ATOM     22  C   UNL A   1      34.175  22.316  26.895  1.00  0.00     0.012 C 
ATOM     23  C   UNL A   1      35.642  21.653  24.699  1.00  0.00    -0.017 C 
ATOM     24  C   UNL A   1      36.909  21.960  23.911  1.00  0.00     0.012 C 
ATOM     25  C   UNL A   1      35.591  20.184  24.998  1.00  0.00     0.012 C 
ENDBRANCH  16  19
ENDBRANCH  10  15
ENDBRANCH   8   9
ENDBRANCH   6   8
ENDBRANCH   5   6
ENDBRANCH   4   5
ENDBRANCH   3   4
ENDBRANCH   2   3
ENDBRANCH   1   2
BRANCH   1  26
ATOM     26  C   UNL A   1      35.035  32.476  28.797  1.00  0.00     0.188 C 
BRANCH  26  27
ATOM     27  O   UNL A   1      34.094  33.344  28.170  1.00  0.00    -0.376 OA
BRANCH  27  28
ATOM     28  C   UNL A   1      34.427  34.720  28.309  1.00  0.00     0.202 C 
BRANCH  28  29
ATOM     29  C   UNL A   1      33.248  35.453  28.952  1.00  0.00     0.261 C 
BRANCH  29  30
ATOM     30  O   UNL A   1      32.749  34.825  30.150  1.00  0.00    -0.460 OA
BRANCH  30  31
ATOM     31  C   UNL A   1      32.991  35.467  31.311  1.00  0.00     0.338 C 
ATOM     32  O   UNL A   1      32.337  36.388  31.787  1.00  0.00    -0.246 OA
BRANCH  31  33
ATOM     33  C   UNL A   1      34.097  34.792  32.021  1.00  0.00     0.060 A 
ATOM     34  C   UNL A   1      35.375  35.360  31.964  1.00  0.00     0.016 A 
ATOM     35  C   UNL A   1      33.901  33.582  32.688  1.00  0.00     0.016 A 
ATOM     36  C   UNL A   1      36.467  34.709  32.544  1.00  0.00     0.010 A 
ATOM     37  C   UNL A   1      34.998  32.923  33.257  1.00  0.00     0.010 A 
ATOM     38  C   UNL A   1      36.292  33.465  33.162  1.00  0.00    -0.014 A 
BRANCH  38  39
ATOM     39  C   UNL A   1      37.468  32.653  33.576  1.00  0.00     0.031 A 
ATOM     40  C   UNL A   1      38.160  32.989  34.872  1.00  0.00     0.074 A 
ATOM     41  C   UNL A   1      37.927  31.640  32.817  1.00  0.00     0.049 A 
ATOM     42  N   UNL A   1      39.266  32.502  35.373  1.00  0.00    -0.248 NA
ATOM     43  C   UNL A   1      37.522  34.018  35.714  1.00  0.00     0.031 C 
ATOM     44  C   UNL A   1      37.326  31.175  31.567  1.00  0.00     0.029 A 
ATOM     45  N   UNL A   1      39.023  30.828  32.984  1.00  0.00    -0.354 N 
ATOM     46  C   UNL A   1      39.477  33.187  36.565  1.00  0.00     0.074 A 
ATOM     47  C   UNL A   1      38.385  34.124  36.714  1.00  0.00     0.031 C 
ATOM     48  C   UNL A   1      38.074  30.173  31.070  1.00  0.00     0.029 A 
ATOM     49  C   UNL A   1      39.228  29.956  31.940  1.00  0.00     0.049 A 
ATOM     50  H   UNL A   1      39.608  30.869  33.775  1.00  0.00     0.167 HD
ATOM     51  C   UNL A   1      40.491  33.053  37.452  1.00  0.00     0.031 A 
ATOM     52  C   UNL A   1      40.249  29.107  31.694  1.00  0.00     0.031 A 
ATOM     53  C   UNL A   1      41.569  32.111  37.315  1.00  0.00     0.049 A 
ATOM     54  C   UNL A   1      41.394  29.015  32.672  1.00  0.00     0.074 A 
ATOM     55  C   UNL A   1      42.619  31.877  38.187  1.00  0.00     0.029 A 
ATOM     56  N   UNL A   1      41.743  31.254  36.241  1.00  0.00    -0.354 N 
ATOM     57  N   UNL A   1      41.562  29.650  33.809  1.00  0.00    -0.248 NA
ATOM     58  C   UNL A   1      42.488  28.094  32.333  1.00  0.00     0.031 C 
ATOM     59  C   UNL A   1      43.459  30.919  37.612  1.00  0.00     0.029 A 
ATOM     60  C   UNL A   1      42.900  30.513  36.411  1.00  0.00     0.049 A 
ATOM     61  H   UNL A   1      41.134  31.182  35.470  1.00  0.00     0.167 HD
ATOM     62  C   UNL A   1      42.764  29.179  34.331  1.00  0.00     0.074 A 
ATOM     63  C   UNL A   1      43.274  28.199  33.397  1.00  0.00     0.031 C 
ATOM     64  C   UNL A   1      43.391  29.529  35.482  1.00  0.00     0.031 A 
BRANCH  51  65
ATOM     65  C   UNL A   1      40.517  33.979  38.637  1.00  0.00    -0.014 A 
ATOM     66  C   UNL A   1      41.081  35.264  38.554  1.00  0.00     0.010 A 
ATOM     67  C   UNL A   1      39.893  33.579  39.833  1.00  0.00     0.010 A 
ATOM     68  C   UNL A   1      41.038  36.125  39.655  1.00  0.00     0.020 A 
ATOM     69  C   UNL A   1      39.827  34.446  40.927  1.00  0.00     0.020 A 
ATOM     70  C   UNL A   1      40.409  35.711  40.833  1.00  0.00     0.054 A 
BRANCH  70  71
ATOM     71  S   UNL A   1      40.321  36.868  42.228  1.00  0.00     0.124 S 
ATOM     72  O   UNL A   1      39.823  36.008  43.299  1.00  0.00    -0.237 OA
ATOM     73  O   UNL A   1      41.708  37.305  42.369  1.00  0.00    -0.237 OA
ATOM     74  O   UNL A   1      39.390  37.896  41.771  1.00  0.00    -0.744 OA
ENDBRANCH  70  71
ENDBRANCH  51  65
BRANCH  52  75
ATOM     75  C   UNL A   1      40.275  28.305  30.437  1.00  0.00    -0.014 A 
ATOM     76  C   UNL A   1      39.463  27.166  30.291  1.00  0.00     0.010 A 
ATOM     77  C   UNL A   1      41.153  28.654  29.394  1.00  0.00     0.010 A 
ATOM     78  C   UNL A   1      39.556  26.371  29.143  1.00  0.00     0.020 A 
ATOM     79  C   UNL A   1      41.226  27.881  28.233  1.00  0.00     0.020 A 
ATOM     80  C   UNL A   1      40.440  26.732  28.123  1.00  0.00     0.054 A 
BRANCH  80  81
ATOM     81  S   UNL A   1      40.535  25.698  26.635  1.00  0.00     0.124 S 
ATOM     82  O   UNL A   1      41.576  24.741  26.998  1.00  0.00    -0.237 OA
ATOM     83  O   UNL A   1      39.182  25.156  26.539  1.00  0.00    -0.237 OA
ATOM     84  O   UNL A   1      40.895  26.646  25.583  1.00  0.00    -0.744 OA
ENDBRANCH  80  81
ENDBRANCH  52  75
BRANCH  64  85
ATOM     85  C   UNL A   1      44.672  28.816  35.828  1.00  0.00    -0.014 A 
ATOM     86  C   UNL A   1      44.668  27.604  36.541  1.00  0.00     0.010 A 
ATOM     87  C   UNL A   1      45.897  29.339  35.376  1.00  0.00     0.010 A 
ATOM     88  C   UNL A   1      45.869  26.944  36.821  1.00  0.00     0.020 A 
ATOM     89  C   UNL A   1      47.097  28.669  35.630  1.00  0.00     0.020 A 
ATOM     90  C   UNL A   1      47.076  27.482  36.364  1.00  0.00     0.054 A 
BRANCH  90  91
ATOM     91  S   UNL A   1      48.617  26.586  36.699  1.00  0.00     0.124 S 
ATOM     92  O   UNL A   1      49.283  27.471  37.651  1.00  0.00    -0.237 OA
ATOM     93  O   UNL A   1      48.140  25.318  37.248  1.00  0.00    -0.237 OA
ATOM     94  O   UNL A   1      49.255  26.488  35.388  1.00  0.00    -0.744 OA
ENDBRANCH  90  91
ENDBRANCH  64  85
ENDBRANCH  38  39
ENDBRANCH  31  33
ENDBRANCH  30  31
ENDBRANCH  29  30
ENDBRANCH  28  29
ENDBRANCH  27  28
ENDBRANCH  26  27
ENDBRANCH   1  26
TORSDOF 23
ENDMDL
MODEL 3
REMARK VINA RESULT:      -8.2      7.131     11.363
REMARK SMILES CC1(C)C(C(=O)Nc2ccc(CC(=O)OCCOCCOCCOC(=O)c3ccc(-c4c5nc(c(-c6ccc(S(=O)(=O)[O-])cc6)c6ccc([nH]6)c(-c6ccc(S(=O)(=O)[O-])cc6)c6nc(c(-c7ccc(S(=O)(=O)[O-])cc7)c7ccc4[nH]7)C=C6)C=C5)cc3)cc2)C1(C)C
REMARK SMILES IDX 19 1 18 2 17 3 16 4 15 5 13 6 14 7 12 8 11 9 8 10 9 11 88 12
REMARK SMILES IDX 10 13 87 14 7 15 5 16 6 17 4 19 1 20 2 21 3 22 89 23 90 24
REMARK SMILES IDX 91 25 20 26 21 27 22 28 23 29 24 30 25 31 26 32 27 33 28 34
REMARK SMILES IDX 86 35 29 36 85 37 30 38 31 39 32 40 79 41 33 42 84 43 78 44
REMARK SMILES IDX 80 45 34 46 83 47 77 48 76 49 35 51 65 52 46 53 64 54 47 55
REMARK SMILES IDX 50 56 63 57 81 58 48 59 49 60 62 62 82 63 51 64 36 65 37 66
REMARK SMILES IDX 45 67 38 68 44 69 39 70 40 71 41 72 42 73 43 74 66 75 67 76
REMARK SMILES IDX 75 77 68 78 74 79 69 80 70 81 71 82 72 83 73 84 52 85 53 86
REMARK SMILES IDX 61 87 54 88 60 89 55 90 56 91 57 92 58 93 59 94
REMARK H PARENT 7 18 80 50 50 61
REMARK Flexibility Score: inf
ROOT
ATOM      1  C   UNL A   1      33.968  29.117  27.021  1.00  0.00     0.188 C 
ENDROOT
BRANCH   1   2
ATOM      2  O   UNL A   1      32.790  29.878  27.286  1.00  0.00    -0.376 OA
BRANCH   2   3
ATOM      3  C   UNL A   1      32.052  30.392  26.186  1.00  0.00     0.202 C 
BRANCH   3   4
ATOM      4  C   UNL A   1      31.943  29.452  24.987  1.00  0.00     0.261 C 
BRANCH   4   5
ATOM      5  O   UNL A   1      30.692  29.608  24.295  1.00  0.00    -0.463 OA
BRANCH   5   6
ATOM      6  C   UNL A   1      30.399  28.650  23.385  1.00  0.00     0.310 C 
ATOM      7  O   UNL A   1      30.090  28.871  22.218  1.00  0.00    -0.252 OA
BRANCH   6   8
ATOM      8  C   UNL A   1      30.457  27.243  23.918  1.00  0.00     0.158 C 
BRANCH   8   9
ATOM      9  C   UNL A   1      31.252  26.171  23.202  1.00  0.00    -0.037 A 
ATOM     10  C   UNL A   1      33.050  24.100  22.641  1.00  0.00     0.041 A 
ATOM     11  C   UNL A   1      31.730  23.791  22.956  1.00  0.00     0.026 A 
ATOM     12  C   UNL A   1      33.390  25.417  22.345  1.00  0.00     0.026 A 
ATOM     13  C   UNL A   1      30.850  24.828  23.291  1.00  0.00     0.006 A 
ATOM     14  C   UNL A   1      32.493  26.455  22.624  1.00  0.00     0.006 A 
BRANCH  10  15
ATOM     15  N   UNL A   1      34.011  23.079  22.767  1.00  0.00    -0.326 N 
ATOM     16  C   UNL A   1      35.311  23.241  23.196  1.00  0.00     0.228 C 
ATOM     17  O   UNL A   1      36.241  22.967  22.438  1.00  0.00    -0.274 OA
ATOM     18  H   UNL A   1      33.728  22.167  22.528  1.00  0.00     0.169 HD
BRANCH  16  19
ATOM     19  C   UNL A   1      35.643  23.411  24.667  1.00  0.00     0.091 C 
ATOM     20  C   UNL A   1      34.738  22.935  27.117  1.00  0.00     0.012 C 
ATOM     21  C   UNL A   1      35.305  22.439  25.802  1.00  0.00    -0.017 C 
ATOM     22  C   UNL A   1      34.638  21.141  25.405  1.00  0.00     0.012 C 
ATOM     23  C   UNL A   1      36.780  22.819  25.484  1.00  0.00    -0.017 C 
ATOM     24  C   UNL A   1      37.533  23.836  26.332  1.00  0.00     0.012 C 
ATOM     25  C   UNL A   1      37.739  21.763  25.017  1.00  0.00     0.012 C 
ENDBRANCH  16  19
ENDBRANCH  10  15
ENDBRANCH   8   9
ENDBRANCH   6   8
ENDBRANCH   5   6
ENDBRANCH   4   5
ENDBRANCH   3   4
ENDBRANCH   2   3
ENDBRANCH   1   2
BRANCH   1  26
ATOM     26  C   UNL A   1      35.305  29.587  27.610  1.00  0.00     0.188 C 
BRANCH  26  27
ATOM     27  O   UNL A   1      35.430  31.005  27.531  1.00  0.00    -0.376 OA
BRANCH  27  28
ATOM     28  C   UNL A   1      35.661  31.615  28.795  1.00  0.00     0.202 C 
BRANCH  28  29
ATOM     29  C   UNL A   1      34.394  32.358  29.225  1.00  0.00     0.261 C 
BRANCH  29  30
ATOM     30  O   UNL A   1      34.296  32.576  30.647  1.00  0.00    -0.460 OA
BRANCH  30  31
ATOM     31  C   UNL A   1      34.712  33.776  31.102  1.00  0.00     0.338 C 
ATOM     32  O   UNL A   1      34.229  34.868  30.829  1.00  0.00    -0.246 OA
BRANCH  31  33
ATOM     33  C   UNL A   1      35.766  33.574  32.118  1.00  0.00     0.060 A 
ATOM     34  C   UNL A   1      36.768  34.543  32.246  1.00  0.00     0.016 A 
ATOM     35  C   UNL A   1      35.810  32.419  32.901  1.00  0.00     0.016 A 
ATOM     36  C   UNL A   1      37.833  34.351  33.130  1.00  0.00     0.010 A 
ATOM     37  C   UNL A   1      36.884  32.220  33.776  1.00  0.00     0.010 A 
ATOM     38  C   UNL A   1      37.918  33.168  33.875  1.00  0.00    -0.014 A 
BRANCH  38  39
ATOM     39  C   UNL A   1      39.152  32.842  34.639  1.00  0.00     0.031 A 
ATOM     40  C   UNL A   1      40.212  31.998  33.979  1.00  0.00     0.074 A 
ATOM     41  C   UNL A   1      39.332  33.275  35.902  1.00  0.00     0.049 A 
ATOM     42  N   UNL A   1      41.305  31.492  34.488  1.00  0.00    -0.248 NA
ATOM     43  C   UNL A   1      40.007  31.677  32.555  1.00  0.00     0.031 C 
ATOM     44  C   UNL A   1      38.414  34.137  36.645  1.00  0.00     0.029 A 
ATOM     45  N   UNL A   1      40.352  33.027  36.790  1.00  0.00    -0.354 N 
ATOM     46  C   UNL A   1      41.899  30.764  33.462  1.00  0.00     0.074 A 
ATOM     47  C   UNL A   1      41.046  30.894  32.302  1.00  0.00     0.031 C 
ATOM     48  C   UNL A   1      38.902  34.331  37.883  1.00  0.00     0.029 A 
ATOM     49  C   UNL A   1      40.142  33.572  38.036  1.00  0.00     0.049 A 
ATOM     50  H   UNL A   1      41.156  32.508  36.557  1.00  0.00     0.167 HD
ATOM     51  C   UNL A   1      43.048  30.047  33.486  1.00  0.00     0.031 A 
ATOM     52  C   UNL A   1      40.847  33.441  39.180  1.00  0.00     0.031 A 
ATOM     53  C   UNL A   1      43.906  29.930  34.634  1.00  0.00     0.049 A 
ATOM     54  C   UNL A   1      42.095  32.592  39.194  1.00  0.00     0.074 A 
ATOM     55  C   UNL A   1      45.113  29.258  34.737  1.00  0.00     0.029 A 
ATOM     56  N   UNL A   1      43.653  30.488  35.876  1.00  0.00    -0.354 N 
ATOM     57  N   UNL A   1      42.657  31.935  38.207  1.00  0.00    -0.248 NA
ATOM     58  C   UNL A   1      42.802  32.467  40.477  1.00  0.00     0.031 C 
ATOM     59  C   UNL A   1      45.559  29.360  36.057  1.00  0.00     0.029 A 
ATOM     60  C   UNL A   1      44.663  30.149  36.760  1.00  0.00     0.049 A 
ATOM     61  H   UNL A   1      42.871  31.044  36.097  1.00  0.00     0.167 HD
ATOM     62  C   UNL A   1      43.799  31.346  38.746  1.00  0.00     0.074 A 
ATOM     63  C   UNL A   1      43.855  31.735  40.138  1.00  0.00     0.031 C 
ATOM     64  C   UNL A   1      44.717  30.553  38.141  1.00  0.00     0.031 A 
BRANCH  51  65
ATOM     65  C   UNL A   1      43.430  29.288  32.245  1.00  0.00    -0.014 A 
ATOM     66  C   UNL A   1      44.247  29.860  31.255  1.00  0.00     0.010 A 
ATOM     67  C   UNL A   1      43.024  27.947  32.110  1.00  0.00     0.010 A 
ATOM     68  C   UNL A   1      44.634  29.111  30.140  1.00  0.00     0.020 A 
ATOM     69  C   UNL A   1      43.429  27.188  31.009  1.00  0.00     0.020 A 
ATOM     70  C   UNL A   1      44.224  27.779  30.026  1.00  0.00     0.054 A 
BRANCH  70  71
ATOM     71  S   UNL A   1      44.785  26.813  28.595  1.00  0.00     0.124 S 
ATOM     72  O   UNL A   1      46.231  27.015  28.646  1.00  0.00    -0.237 OA
ATOM     73  O   UNL A   1      44.327  25.465  28.922  1.00  0.00    -0.237 OA
ATOM     74  O   UNL A   1      44.108  27.441  27.464  1.00  0.00    -0.744 OA
ENDBRANCH  70  71
ENDBRANCH  51  65
BRANCH  52  75
ATOM     75  C   UNL A   1      40.368  34.084  40.437  1.00  0.00    -0.014 A 
ATOM     76  C   UNL A   1      40.819  35.363  40.811  1.00  0.00     0.010 A 
ATOM     77  C   UNL A   1      39.491  33.394  41.294  1.00  0.00     0.010 A 
ATOM     78  C   UNL A   1      40.431  35.923  42.033  1.00  0.00     0.020 A 
ATOM     79  C   UNL A   1      39.076  33.962  42.502  1.00  0.00     0.020 A 
ATOM     80  C   UNL A   1      39.564  35.217  42.872  1.00  0.00     0.054 A 
BRANCH  80  81
ATOM     81  S   UNL A   1      39.060  35.966  44.446  1.00  0.00     0.124 S 
ATOM     82  O   UNL A   1      37.626  35.696  44.464  1.00  0.00    -0.237 OA
ATOM     83  O   UNL A   1      39.857  35.225  45.420  1.00  0.00    -0.237 OA
ATOM     84  O   UNL A   1      39.431  37.372  44.289  1.00  0.00    -0.744 OA
ENDBRANCH  80  81
ENDBRANCH  52  75
BRANCH  64  85
ATOM     85  C   UNL A   1      45.893  30.089  38.960  1.00  0.00    -0.014 A 
ATOM     86  C   UNL A   1      47.066  30.857  39.062  1.00  0.00     0.010 A 
ATOM     87  C   UNL A   1      45.794  28.891  39.693  1.00  0.00     0.010 A 
ATOM     88  C   UNL A   1      48.131  30.421  39.857  1.00  0.00     0.020 A 
ATOM     89  C   UNL A   1      46.845  28.466  40.510  1.00  0.00     0.020 A 
ATOM     90  C   UNL A   1      48.013  29.227  40.575  1.00  0.00     0.054 A 
BRANCH  90  91
ATOM     91  S   UNL A   1      49.389  28.704  41.635  1.00  0.00     0.124 S 
ATOM     92  O   UNL A   1      49.458  29.793  42.605  1.00  0.00    -0.237 OA
ATOM     93  O   UNL A   1      48.922  27.423  42.161  1.00  0.00    -0.237 OA
ATOM     94  O   UNL A   1      50.522  28.616  40.716  1.00  0.00    -0.744 OA
ENDBRANCH  90  91
ENDBRANCH  64  85
ENDBRANCH  38  39
ENDBRANCH  31  33
ENDBRANCH  30  31
ENDBRANCH  29  30
ENDBRANCH  28  29
ENDBRANCH  27  28
ENDBRANCH  26  27
ENDBRANCH   1  26
TORSDOF 23
ENDMDL
