MODEL 1
REMARK VINA RESULT:      -9.0      0.000      0.000
REMARK SMILES CSCC[C@H](NC(=O)N[C@@H]1CCCCC1(C)C)C(=O)OCCOCCOCCOC(=O)c1ccc(-c2c3nc(c(-c4ccc(S(=O)(=O)[O-])cc4)c4ccc([nH]4)c(-c4ccc(S(=O)(=O)[O-])cc4)c4nc(c(-c5ccc(S(=O)(=O)[O-])cc5)c5ccc2[nH]5)C=C4)C=C3)cc1
REMARK SMILES IDX 24 1 23 2 22 3 21 4 20 5 18 6 19 7 5 8 4 9 3 10 2 11 1 12
REMARK SMILES IDX 6 13 7 14 8 16 9 17 10 19 11 20 15 21 12 22 14 23 16 24
REMARK SMILES IDX 17 25 13 26 25 27 26 28 27 29 28 30 29 31 30 32 31 33 32 34
REMARK SMILES IDX 33 35 91 36 34 37 90 38 35 39 36 40 37 41 84 42 38 43 89 44
REMARK SMILES IDX 83 45 85 46 39 47 88 48 82 49 81 50 40 52 70 53 51 54 69 55
REMARK SMILES IDX 52 56 55 57 68 58 86 59 53 60 54 61 67 63 87 64 56 65 41 66
REMARK SMILES IDX 42 67 50 68 43 69 49 70 44 71 45 72 46 73 47 74 48 75 71 76
REMARK SMILES IDX 72 77 80 78 73 79 79 80 74 81 75 82 76 83 77 84 78 85 57 86
REMARK SMILES IDX 58 87 66 88 59 89 65 90 60 91 61 92 62 93 63 94 64 95
REMARK H PARENT 6 15 9 18 85 51 55 62
REMARK Flexibility Score: inf
ROOT
ATOM      1  C   UNL A   1      32.478  26.796  26.633  1.00  0.00     0.188 C 
ENDROOT
BRANCH   1   2
ATOM      2  O   UNL A   1      31.416  25.878  26.864  1.00  0.00    -0.376 OA
BRANCH   2   3
ATOM      3  C   UNL A   1      31.743  24.514  26.650  1.00  0.00     0.202 C 
BRANCH   3   4
ATOM      4  C   UNL A   1      30.756  23.760  25.742  1.00  0.00     0.261 C 
BRANCH   4   5
ATOM      5  O   UNL A   1      30.931  23.897  24.314  1.00  0.00    -0.462 OA
BRANCH   5   6
ATOM      6  C   UNL A   1      30.717  25.150  23.845  1.00  0.00     0.328 C 
ATOM      7  O   UNL A   1      29.625  25.706  23.927  1.00  0.00    -0.250 OA
BRANCH   6   8
ATOM      8  C   UNL A   1      31.814  25.675  22.903  1.00  0.00     0.194 C 
BRANCH   8   9
ATOM      9  C   UNL A   1      30.993  26.838  22.334  1.00  0.00     0.048 C 
BRANCH   9  10
ATOM     10  C   UNL A   1      31.455  28.254  22.788  1.00  0.00     0.072 C 
BRANCH  10  11
ATOM     11  S   UNL A   1      33.162  28.848  23.253  1.00  0.00    -0.165 SA
ATOM     12  C   UNL A   1      34.336  28.311  21.964  1.00  0.00     0.085 C 
ENDBRANCH  10  11
ENDBRANCH   9  10
ENDBRANCH   8   9
BRANCH   8  13
ATOM     13  N   UNL A   1      32.498  24.857  21.874  1.00  0.00    -0.325 N 
ATOM     14  C   UNL A   1      33.259  23.739  21.853  1.00  0.00     0.315 C 
ATOM     15  H   UNL A   1      32.363  25.222  20.970  1.00  0.00     0.166 HD
ATOM     16  O   UNL A   1      33.400  23.211  20.740  1.00  0.00    -0.249 OA
ATOM     17  N   UNL A   1      33.913  23.119  22.861  1.00  0.00    -0.335 N 
ATOM     18  H   UNL A   1      34.414  22.350  22.503  1.00  0.00     0.165 HD
BRANCH  17  19
ATOM     19  C   UNL A   1      34.129  23.213  24.336  1.00  0.00     0.089 C 
ATOM     20  C   UNL A   1      35.373  24.003  24.623  1.00  0.00     0.025 C 
ATOM     21  C   UNL A   1      34.322  21.870  25.154  1.00  0.00    -0.015 C 
ATOM     22  C   UNL A   1      36.628  23.364  24.052  1.00  0.00     0.002 C 
ATOM     23  C   UNL A   1      35.653  21.159  24.763  1.00  0.00     0.008 C 
ATOM     24  C   UNL A   1      34.363  22.209  26.682  1.00  0.00     0.013 C 
ATOM     25  C   UNL A   1      33.164  20.878  24.986  1.00  0.00     0.013 C 
ATOM     26  C   UNL A   1      36.891  22.060  24.770  1.00  0.00     0.001 C 
ENDBRANCH  17  19
ENDBRANCH   8  13
ENDBRANCH   6   8
ENDBRANCH   5   6
ENDBRANCH   4   5
ENDBRANCH   3   4
ENDBRANCH   2   3
ENDBRANCH   1   2
BRANCH   1  27
ATOM     27  C   UNL A   1      32.049  28.274  26.486  1.00  0.00     0.188 C 
BRANCH  27  28
ATOM     28  O   UNL A   1      32.650  29.298  27.261  1.00  0.00    -0.376 OA
BRANCH  28  29
ATOM     29  C   UNL A   1      32.751  30.601  26.712  1.00  0.00     0.202 C 
BRANCH  29  30
ATOM     30  C   UNL A   1      32.651  31.847  27.619  1.00  0.00     0.261 C 
BRANCH  30  31
ATOM     31  O   UNL A   1      33.795  32.718  27.655  1.00  0.00    -0.460 OA
BRANCH  31  32
ATOM     32  C   UNL A   1      33.742  33.729  28.572  1.00  0.00     0.338 C 
ATOM     33  O   UNL A   1      32.880  34.564  28.674  1.00  0.00    -0.246 OA
BRANCH  32  34
ATOM     34  C   UNL A   1      34.795  33.497  29.608  1.00  0.00     0.060 A 
ATOM     35  C   UNL A   1      36.010  34.191  29.470  1.00  0.00     0.016 A 
ATOM     36  C   UNL A   1      34.597  32.658  30.705  1.00  0.00     0.016 A 
ATOM     37  C   UNL A   1      37.032  34.034  30.408  1.00  0.00     0.010 A 
ATOM     38  C   UNL A   1      35.643  32.461  31.620  1.00  0.00     0.010 A 
ATOM     39  C   UNL A   1      36.877  33.121  31.455  1.00  0.00    -0.014 A 
BRANCH  39  40
ATOM     40  C   UNL A   1      38.086  32.648  32.181  1.00  0.00     0.031 A 
ATOM     41  C   UNL A   1      39.026  31.733  31.436  1.00  0.00     0.074 A 
ATOM     42  C   UNL A   1      38.381  33.033  33.436  1.00  0.00     0.049 A 
ATOM     43  N   UNL A   1      40.119  31.145  31.849  1.00  0.00    -0.248 NA
ATOM     44  C   UNL A   1      38.682  31.444  30.033  1.00  0.00     0.031 C 
ATOM     45  C   UNL A   1      37.600  33.962  34.250  1.00  0.00     0.029 A 
ATOM     46  N   UNL A   1      39.430  32.674  34.250  1.00  0.00    -0.354 N 
ATOM     47  C   UNL A   1      40.578  30.404  30.767  1.00  0.00     0.074 A 
ATOM     48  C   UNL A   1      39.639  30.599  29.685  1.00  0.00     0.031 C 
ATOM     49  C   UNL A   1      38.186  34.082  35.456  1.00  0.00     0.029 A 
ATOM     50  C   UNL A   1      39.365  33.217  35.512  1.00  0.00     0.049 A 
ATOM     51  H   UNL A   1      40.160  32.083  33.957  1.00  0.00     0.167 HD
ATOM     52  C   UNL A   1      41.682  29.626  30.676  1.00  0.00     0.031 A 
ATOM     53  C   UNL A   1      40.149  33.017  36.593  1.00  0.00     0.031 A 
ATOM     54  C   UNL A   1      42.614  29.420  31.751  1.00  0.00     0.049 A 
ATOM     55  C   UNL A   1      41.335  32.088  36.492  1.00  0.00     0.074 A 
ATOM     56  C   UNL A   1      43.771  28.661  31.749  1.00  0.00     0.029 A 
ATOM     57  N   UNL A   1      42.492  29.964  33.020  1.00  0.00    -0.354 N 
ATOM     58  N   UNL A   1      41.768  31.409  35.455  1.00  0.00    -0.248 NA
ATOM     59  C   UNL A   1      42.144  31.906  37.707  1.00  0.00     0.031 C 
ATOM     60  C   UNL A   1      44.316  28.694  33.036  1.00  0.00     0.029 A 
ATOM     61  C   UNL A   1      43.539  29.533  33.819  1.00  0.00     0.049 A 
ATOM     62  H   UNL A   1      41.770  30.567  33.309  1.00  0.00     0.167 HD
ATOM     63  C   UNL A   1      42.916  30.747  35.886  1.00  0.00     0.074 A 
ATOM     64  C   UNL A   1      43.117  31.118  37.271  1.00  0.00     0.031 C 
ATOM     65  C   UNL A   1      43.732  29.911  35.196  1.00  0.00     0.031 A 
BRANCH  52  66
ATOM     66  C   UNL A   1      41.915  28.898  29.379  1.00  0.00    -0.014 A 
ATOM     67  C   UNL A   1      41.461  27.582  29.184  1.00  0.00     0.010 A 
ATOM     68  C   UNL A   1      42.569  29.562  28.325  1.00  0.00     0.010 A 
ATOM     69  C   UNL A   1      41.683  26.932  27.968  1.00  0.00     0.020 A 
ATOM     70  C   UNL A   1      42.768  28.925  27.097  1.00  0.00     0.020 A 
ATOM     71  C   UNL A   1      42.334  27.609  26.931  1.00  0.00     0.054 A 
BRANCH  71  72
ATOM     72  S   UNL A   1      42.576  26.755  25.349  1.00  0.00     0.124 S 
ATOM     73  O   UNL A   1      41.320  26.024  25.207  1.00  0.00    -0.237 OA
ATOM     74  O   UNL A   1      42.767  27.862  24.415  1.00  0.00    -0.237 OA
ATOM     75  O   UNL A   1      43.755  25.926  25.579  1.00  0.00    -0.744 OA
ENDBRANCH  71  72
ENDBRANCH  52  66
BRANCH  53  76
ATOM     76  C   UNL A   1      39.823  33.682  37.889  1.00  0.00    -0.014 A 
ATOM     77  C   UNL A   1      40.543  34.808  38.327  1.00  0.00     0.010 A 
ATOM     78  C   UNL A   1      38.802  33.167  38.709  1.00  0.00     0.010 A 
ATOM     79  C   UNL A   1      40.262  35.393  39.567  1.00  0.00     0.020 A 
ATOM     80  C   UNL A   1      38.498  33.766  39.935  1.00  0.00     0.020 A 
ATOM     81  C   UNL A   1      39.239  34.869  40.361  1.00  0.00     0.054 A 
BRANCH  81  82
ATOM     82  S   UNL A   1      38.860  35.671  41.945  1.00  0.00     0.124 S 
ATOM     83  O   UNL A   1      37.496  35.219  42.198  1.00  0.00    -0.237 OA
ATOM     84  O   UNL A   1      39.885  35.119  42.829  1.00  0.00    -0.237 OA
ATOM     85  O   UNL A   1      39.004  37.094  41.650  1.00  0.00    -0.744 OA
ENDBRANCH  81  82
ENDBRANCH  53  76
BRANCH  65  86
ATOM     86  C   UNL A   1      44.950  29.372  35.904  1.00  0.00    -0.014 A 
ATOM     87  C   UNL A   1      46.100  30.158  36.092  1.00  0.00     0.010 A 
ATOM     88  C   UNL A   1      44.917  28.071  36.441  1.00  0.00     0.010 A 
ATOM     89  C   UNL A   1      47.209  29.638  36.768  1.00  0.00     0.020 A 
ATOM     90  C   UNL A   1      46.010  27.558  37.143  1.00  0.00     0.020 A 
ATOM     91  C   UNL A   1      47.157  28.340  37.288  1.00  0.00     0.054 A 
BRANCH  91  92
ATOM     92  S   UNL A   1      48.597  27.699  38.186  1.00  0.00     0.124 S 
ATOM     93  O   UNL A   1      49.706  28.189  37.372  1.00  0.00    -0.237 OA
ATOM     94  O   UNL A   1      48.459  28.322  39.501  1.00  0.00    -0.237 OA
ATOM     95  O   UNL A   1      48.403  26.251  38.167  1.00  0.00    -0.744 OA
ENDBRANCH  91  92
ENDBRANCH  65  86
ENDBRANCH  39  40
ENDBRANCH  32  34
ENDBRANCH  31  32
ENDBRANCH  30  31
ENDBRANCH  29  30
ENDBRANCH  28  29
ENDBRANCH  27  28
ENDBRANCH   1  27
TORSDOF 25
ENDMDL
MODEL 2
REMARK VINA RESULT:      -8.1      2.643      8.592
REMARK SMILES CSCC[C@H](NC(=O)N[C@@H]1CCCCC1(C)C)C(=O)OCCOCCOCCOC(=O)c1ccc(-c2c3nc(c(-c4ccc(S(=O)(=O)[O-])cc4)c4ccc([nH]4)c(-c4ccc(S(=O)(=O)[O-])cc4)c4nc(c(-c5ccc(S(=O)(=O)[O-])cc5)c5ccc2[nH]5)C=C4)C=C3)cc1
REMARK SMILES IDX 24 1 23 2 22 3 21 4 20 5 18 6 19 7 5 8 4 9 3 10 2 11 1 12
REMARK SMILES IDX 6 13 7 14 8 16 9 17 10 19 11 20 15 21 12 22 14 23 16 24
REMARK SMILES IDX 17 25 13 26 25 27 26 28 27 29 28 30 29 31 30 32 31 33 32 34
REMARK SMILES IDX 33 35 91 36 34 37 90 38 35 39 36 40 37 41 84 42 38 43 89 44
REMARK SMILES IDX 83 45 85 46 39 47 88 48 82 49 81 50 40 52 70 53 51 54 69 55
REMARK SMILES IDX 52 56 55 57 68 58 86 59 53 60 54 61 67 63 87 64 56 65 41 66
REMARK SMILES IDX 42 67 50 68 43 69 49 70 44 71 45 72 46 73 47 74 48 75 71 76
REMARK SMILES IDX 72 77 80 78 73 79 79 80 74 81 75 82 76 83 77 84 78 85 57 86
REMARK SMILES IDX 58 87 66 88 59 89 65 90 60 91 61 92 62 93 63 94 64 95
REMARK H PARENT 6 15 9 18 85 51 55 62
REMARK Flexibility Score: inf
ROOT
ATOM      1  C   UNL A   1      32.153  25.356  26.781  1.00  0.00     0.188 C 
ENDROOT
BRANCH   1   2
ATOM      2  O   UNL A   1      30.976  24.637  27.129  1.00  0.00    -0.376 OA
BRANCH   2   3
ATOM      3  C   UNL A   1      30.980  23.265  26.765  1.00  0.00     0.202 C 
BRANCH   3   4
ATOM      4  C   UNL A   1      30.362  22.973  25.386  1.00  0.00     0.261 C 
BRANCH   4   5
ATOM      5  O   UNL A   1      31.074  23.456  24.226  1.00  0.00    -0.462 OA
BRANCH   5   6
ATOM      6  C   UNL A   1      30.717  24.702  23.833  1.00  0.00     0.328 C 
ATOM      7  O   UNL A   1      29.572  25.130  23.957  1.00  0.00    -0.250 OA
BRANCH   6   8
ATOM      8  C   UNL A   1      31.735  25.398  22.912  1.00  0.00     0.194 C 
BRANCH   8   9
ATOM      9  C   UNL A   1      30.764  26.451  22.366  1.00  0.00     0.048 C 
BRANCH   9  10
ATOM     10  C   UNL A   1      30.974  27.891  22.920  1.00  0.00     0.072 C 
BRANCH  10  11
ATOM     11  S   UNL A   1      29.716  29.234  23.232  1.00  0.00    -0.165 SA
ATOM     12  C   UNL A   1      29.629  30.302  21.756  1.00  0.00     0.085 C 
ENDBRANCH  10  11
ENDBRANCH   9  10
ENDBRANCH   8   9
BRANCH   8  13
ATOM     13  N   UNL A   1      32.529  24.709  21.869  1.00  0.00    -0.325 N 
ATOM     14  C   UNL A   1      33.403  23.676  21.820  1.00  0.00     0.315 C 
ATOM     15  H   UNL A   1      32.384  25.104  20.980  1.00  0.00     0.166 HD
ATOM     16  O   UNL A   1      33.630  23.225  20.688  1.00  0.00    -0.249 OA
ATOM     17  N   UNL A   1      34.087  23.075  22.818  1.00  0.00    -0.335 N 
ATOM     18  H   UNL A   1      34.675  22.381  22.440  1.00  0.00     0.165 HD
BRANCH  17  19
ATOM     19  C   UNL A   1      34.250  23.113  24.303  1.00  0.00     0.089 C 
ATOM     20  C   UNL A   1      35.458  23.927  24.665  1.00  0.00     0.025 C 
ATOM     21  C   UNL A   1      34.456  21.743  25.071  1.00  0.00    -0.015 C 
ATOM     22  C   UNL A   1      36.751  23.349  24.114  1.00  0.00     0.002 C 
ATOM     23  C   UNL A   1      35.820  21.089  24.699  1.00  0.00     0.008 C 
ATOM     24  C   UNL A   1      34.434  22.019  26.612  1.00  0.00     0.013 C 
ATOM     25  C   UNL A   1      33.336  20.726  24.821  1.00  0.00     0.013 C 
ATOM     26  C   UNL A   1      37.029  22.024  24.787  1.00  0.00     0.001 C 
ENDBRANCH  17  19
ENDBRANCH   8  13
ENDBRANCH   6   8
ENDBRANCH   5   6
ENDBRANCH   4   5
ENDBRANCH   3   4
ENDBRANCH   2   3
ENDBRANCH   1   2
BRANCH   1  27
ATOM     27  C   UNL A   1      31.960  26.878  26.587  1.00  0.00     0.188 C 
BRANCH  27  28
ATOM     28  O   UNL A   1      32.892  27.812  27.104  1.00  0.00    -0.376 OA
BRANCH  28  29
ATOM     29  C   UNL A   1      33.570  28.672  26.204  1.00  0.00     0.202 C 
BRANCH  29  30
ATOM     30  C   UNL A   1      34.009  30.085  26.645  1.00  0.00     0.261 C 
BRANCH  30  31
ATOM     31  O   UNL A   1      35.283  30.195  27.303  1.00  0.00    -0.460 OA
BRANCH  31  32
ATOM     32  C   UNL A   1      35.308  30.974  28.424  1.00  0.00     0.338 C 
ATOM     33  O   UNL A   1      34.418  31.676  28.832  1.00  0.00    -0.246 OA
BRANCH  32  34
ATOM     34  C   UNL A   1      36.523  30.630  29.225  1.00  0.00     0.060 A 
ATOM     35  C   UNL A   1      37.715  31.312  28.927  1.00  0.00     0.016 A 
ATOM     36  C   UNL A   1      36.500  29.697  30.263  1.00  0.00     0.016 A 
ATOM     37  C   UNL A   1      38.885  31.052  29.643  1.00  0.00     0.010 A 
ATOM     38  C   UNL A   1      37.688  29.399  30.949  1.00  0.00     0.010 A 
ATOM     39  C   UNL A   1      38.893  30.050  30.617  1.00  0.00    -0.014 A 
BRANCH  39  40
ATOM     40  C   UNL A   1      40.197  29.492  31.065  1.00  0.00     0.031 A 
ATOM     41  C   UNL A   1      40.821  30.099  32.297  1.00  0.00     0.074 A 
ATOM     42  C   UNL A   1      40.803  28.464  30.444  1.00  0.00     0.049 A 
ATOM     43  N   UNL A   1      41.968  29.831  32.867  1.00  0.00    -0.248 NA
ATOM     44  C   UNL A   1      40.043  31.150  32.975  1.00  0.00     0.031 C 
ATOM     45  C   UNL A   1      40.283  27.742  29.284  1.00  0.00     0.029 A 
ATOM     46  N   UNL A   1      42.007  27.854  30.707  1.00  0.00    -0.354 N 
ATOM     47  C   UNL A   1      42.055  30.693  33.954  1.00  0.00     0.074 A 
ATOM     48  C   UNL A   1      40.858  31.503  33.955  1.00  0.00     0.031 C 
ATOM     49  C   UNL A   1      41.175  26.799  28.924  1.00  0.00     0.029 A 
ATOM     50  C   UNL A   1      42.341  26.871  29.805  1.00  0.00     0.049 A 
ATOM     51  H   UNL A   1      42.577  28.098  31.471  1.00  0.00     0.167 HD
ATOM     52  C   UNL A   1      43.043  30.805  34.873  1.00  0.00     0.031 A 
ATOM     53  C   UNL A   1      43.467  26.136  29.688  1.00  0.00     0.031 A 
ATOM     54  C   UNL A   1      44.240  30.009  34.871  1.00  0.00     0.049 A 
ATOM     55  C   UNL A   1      44.589  26.328  30.681  1.00  0.00     0.074 A 
ATOM     56  C   UNL A   1      45.291  30.040  35.770  1.00  0.00     0.029 A 
ATOM     57  N   UNL A   1      44.551  29.049  33.922  1.00  0.00    -0.354 N 
ATOM     58  N   UNL A   1      44.649  27.133  31.717  1.00  0.00    -0.248 NA
ATOM     59  C   UNL A   1      45.793  25.503  30.494  1.00  0.00     0.031 C 
ATOM     60  C   UNL A   1      46.268  29.143  35.329  1.00  0.00     0.029 A 
ATOM     61  C   UNL A   1      45.793  28.500  34.197  1.00  0.00     0.049 A 
ATOM     62  H   UNL A   1      43.975  28.794  33.166  1.00  0.00     0.167 HD
ATOM     63  C   UNL A   1      45.880  26.887  32.320  1.00  0.00     0.074 A 
ATOM     64  C   UNL A   1      46.526  25.850  31.543  1.00  0.00     0.031 C 
ATOM     65  C   UNL A   1      46.426  27.466  33.419  1.00  0.00     0.031 A 
BRANCH  52  66
ATOM     66  C   UNL A   1      42.891  31.865  35.931  1.00  0.00    -0.014 A 
ATOM     67  C   UNL A   1      42.443  31.550  37.226  1.00  0.00     0.010 A 
ATOM     68  C   UNL A   1      43.240  33.194  35.630  1.00  0.00     0.010 A 
ATOM     69  C   UNL A   1      42.319  32.552  38.193  1.00  0.00     0.020 A 
ATOM     70  C   UNL A   1      43.145  34.193  36.602  1.00  0.00     0.020 A 
ATOM     71  C   UNL A   1      42.673  33.867  37.874  1.00  0.00     0.054 A 
BRANCH  71  72
ATOM     72  S   UNL A   1      42.538  35.140  39.158  1.00  0.00     0.124 S 
ATOM     73  O   UNL A   1      43.633  34.781  40.055  1.00  0.00    -0.237 OA
ATOM     74  O   UNL A   1      42.726  36.376  38.403  1.00  0.00    -0.237 OA
ATOM     75  O   UNL A   1      41.198  34.944  39.704  1.00  0.00    -0.744 OA
ENDBRANCH  71  72
ENDBRANCH  52  66
BRANCH  53  76
ATOM     76  C   UNL A   1      43.618  25.167  28.564  1.00  0.00    -0.014 A 
ATOM     77  C   UNL A   1      43.205  23.829  28.699  1.00  0.00     0.010 A 
ATOM     78  C   UNL A   1      44.206  25.577  27.353  1.00  0.00     0.010 A 
ATOM     79  C   UNL A   1      43.396  22.917  27.656  1.00  0.00     0.020 A 
ATOM     80  C   UNL A   1      44.371  24.676  26.297  1.00  0.00     0.020 A 
ATOM     81  C   UNL A   1      43.976  23.348  26.459  1.00  0.00     0.054 A 
BRANCH  81  82
ATOM     82  S   UNL A   1      44.172  22.159  25.102  1.00  0.00     0.124 S 
ATOM     83  O   UNL A   1      43.367  22.766  24.046  1.00  0.00    -0.237 OA
ATOM     84  O   UNL A   1      45.616  22.169  24.882  1.00  0.00    -0.237 OA
ATOM     85  O   UNL A   1      43.642  20.916  25.657  1.00  0.00    -0.744 OA
ENDBRANCH  81  82
ENDBRANCH  53  76
BRANCH  65  86
ATOM     86  C   UNL A   1      47.768  26.962  33.887  1.00  0.00    -0.014 A 
ATOM     87  C   UNL A   1      48.969  27.537  33.436  1.00  0.00     0.010 A 
ATOM     88  C   UNL A   1      47.823  25.928  34.841  1.00  0.00     0.010 A 
ATOM     89  C   UNL A   1      50.199  27.061  33.901  1.00  0.00     0.020 A 
ATOM     90  C   UNL A   1      49.048  25.470  35.332  1.00  0.00     0.020 A 
ATOM     91  C   UNL A   1      50.231  26.029  34.845  1.00  0.00     0.054 A 
BRANCH  91  92
ATOM     92  S   UNL A   1      51.838  25.448  35.454  1.00  0.00     0.124 S 
ATOM     93  O   UNL A   1      51.445  24.475  36.470  1.00  0.00    -0.237 OA
ATOM     94  O   UNL A   1      52.454  24.888  34.253  1.00  0.00    -0.237 OA
ATOM     95  O   UNL A   1      52.475  26.660  35.966  1.00  0.00    -0.744 OA
ENDBRANCH  91  92
ENDBRANCH  65  86
ENDBRANCH  39  40
ENDBRANCH  32  34
ENDBRANCH  31  32
ENDBRANCH  30  31
ENDBRANCH  29  30
ENDBRANCH  28  29
ENDBRANCH  27  28
ENDBRANCH   1  27
TORSDOF 25
ENDMDL
MODEL 3
REMARK VINA RESULT:      -7.6      2.505      3.538
REMARK SMILES CSCC[C@H](NC(=O)N[C@@H]1CCCCC1(C)C)C(=O)OCCOCCOCCOC(=O)c1ccc(-c2c3nc(c(-c4ccc(S(=O)(=O)[O-])cc4)c4ccc([nH]4)c(-c4ccc(S(=O)(=O)[O-])cc4)c4nc(c(-c5ccc(S(=O)(=O)[O-])cc5)c5ccc2[nH]5)C=C4)C=C3)cc1
REMARK SMILES IDX 24 1 23 2 22 3 21 4 20 5 18 6 19 7 5 8 4 9 3 10 2 11 1 12
REMARK SMILES IDX 6 13 7 14 8 16 9 17 10 19 11 20 15 21 12 22 14 23 16 24
REMARK SMILES IDX 17 25 13 26 25 27 26 28 27 29 28 30 29 31 30 32 31 33 32 34
REMARK SMILES IDX 33 35 91 36 34 37 90 38 35 39 36 40 37 41 84 42 38 43 89 44
REMARK SMILES IDX 83 45 85 46 39 47 88 48 82 49 81 50 40 52 70 53 51 54 69 55
REMARK SMILES IDX 52 56 55 57 68 58 86 59 53 60 54 61 67 63 87 64 56 65 41 66
REMARK SMILES IDX 42 67 50 68 43 69 49 70 44 71 45 72 46 73 47 74 48 75 71 76
REMARK SMILES IDX 72 77 80 78 73 79 79 80 74 81 75 82 76 83 77 84 78 85 57 86
REMARK SMILES IDX 58 87 66 88 59 89 65 90 60 91 61 92 62 93 63 94 64 95
REMARK H PARENT 6 15 9 18 85 51 55 62
REMARK Flexibility Score: inf
ROOT
ATOM      1  C   UNL A   1      32.070  25.267  26.744  1.00  0.00     0.188 C 
ENDROOT
BRANCH   1   2
ATOM      2  O   UNL A   1      30.776  24.726  26.983  1.00  0.00    -0.376 OA
BRANCH   2   3
ATOM      3  C   UNL A   1      30.649  23.335  26.730  1.00  0.00     0.202 C 
BRANCH   3   4
ATOM      4  C   UNL A   1      30.330  22.984  25.266  1.00  0.00     0.261 C 
BRANCH   4   5
ATOM      5  O   UNL A   1      31.208  23.518  24.250  1.00  0.00    -0.462 OA
BRANCH   5   6
ATOM      6  C   UNL A   1      30.814  24.713  23.747  1.00  0.00     0.328 C 
ATOM      7  O   UNL A   1      29.653  25.105  23.813  1.00  0.00    -0.250 OA
BRANCH   6   8
ATOM      8  C   UNL A   1      31.827  25.368  22.790  1.00  0.00     0.194 C 
BRANCH   8   9
ATOM      9  C   UNL A   1      30.854  26.401  22.210  1.00  0.00     0.048 C 
BRANCH   9  10
ATOM     10  C   UNL A   1      30.923  27.811  22.867  1.00  0.00     0.072 C 
BRANCH  10  11
ATOM     11  S   UNL A   1      29.558  29.052  23.149  1.00  0.00    -0.165 SA
ATOM     12  C   UNL A   1      29.585  30.266  21.789  1.00  0.00     0.085 C 
ENDBRANCH  10  11
ENDBRANCH   9  10
ENDBRANCH   8   9
BRANCH   8  13
ATOM     13  N   UNL A   1      32.610  24.634  21.769  1.00  0.00    -0.325 N 
ATOM     14  C   UNL A   1      33.450  23.573  21.748  1.00  0.00     0.315 C 
ATOM     15  H   UNL A   1      32.488  25.018  20.871  1.00  0.00     0.166 HD
ATOM     16  O   UNL A   1      33.675  23.094  20.628  1.00  0.00    -0.249 OA
ATOM     17  N   UNL A   1      34.102  22.968  22.765  1.00  0.00    -0.335 N 
ATOM     18  H   UNL A   1      34.671  22.248  22.408  1.00  0.00     0.165 HD
BRANCH  17  19
ATOM     19  C   UNL A   1      34.249  23.027  24.251  1.00  0.00     0.089 C 
ATOM     20  C   UNL A   1      35.430  23.878  24.616  1.00  0.00     0.025 C 
ATOM     21  C   UNL A   1      34.484  21.672  25.037  1.00  0.00    -0.015 C 
ATOM     22  C   UNL A   1      36.744  23.330  24.085  1.00  0.00     0.002 C 
ATOM     23  C   UNL A   1      35.870  21.051  24.686  1.00  0.00     0.008 C 
ATOM     24  C   UNL A   1      34.439  21.964  26.574  1.00  0.00     0.013 C 
ATOM     25  C   UNL A   1      33.395  20.621  24.788  1.00  0.00     0.013 C 
ATOM     26  C   UNL A   1      37.051  22.021  24.776  1.00  0.00     0.001 C 
ENDBRANCH  17  19
ENDBRANCH   8  13
ENDBRANCH   6   8
ENDBRANCH   5   6
ENDBRANCH   4   5
ENDBRANCH   3   4
ENDBRANCH   2   3
ENDBRANCH   1   2
BRANCH   1  27
ATOM     27  C   UNL A   1      32.101  26.775  26.407  1.00  0.00     0.188 C 
BRANCH  27  28
ATOM     28  O   UNL A   1      33.088  27.634  26.953  1.00  0.00    -0.376 OA
BRANCH  28  29
ATOM     29  C   UNL A   1      33.990  28.285  26.074  1.00  0.00     0.202 C 
BRANCH  29  30
ATOM     30  C   UNL A   1      34.475  29.721  26.367  1.00  0.00     0.261 C 
BRANCH  30  31
ATOM     31  O   UNL A   1      35.631  29.858  27.211  1.00  0.00    -0.460 OA
BRANCH  31  32
ATOM     32  C   UNL A   1      35.497  30.712  28.268  1.00  0.00     0.338 C 
ATOM     33  O   UNL A   1      34.521  31.359  28.551  1.00  0.00    -0.246 OA
BRANCH  32  34
ATOM     34  C   UNL A   1      36.666  30.535  29.184  1.00  0.00     0.060 A 
ATOM     35  C   UNL A   1      37.812  31.310  28.936  1.00  0.00     0.016 A 
ATOM     36  C   UNL A   1      36.640  29.666  30.275  1.00  0.00     0.016 A 
ATOM     37  C   UNL A   1      38.935  31.207  29.759  1.00  0.00     0.010 A 
ATOM     38  C   UNL A   1      37.787  29.525  31.072  1.00  0.00     0.010 A 
ATOM     39  C   UNL A   1      38.951  30.268  30.795  1.00  0.00    -0.014 A 
BRANCH  39  40
ATOM     40  C   UNL A   1      40.258  29.866  31.380  1.00  0.00     0.031 A 
ATOM     41  C   UNL A   1      41.013  28.758  30.688  1.00  0.00     0.074 A 
ATOM     42  C   UNL A   1      40.793  30.471  32.456  1.00  0.00     0.049 A 
ATOM     43  N   UNL A   1      42.144  28.190  31.017  1.00  0.00    -0.248 NA
ATOM     44  C   UNL A   1      40.406  28.221  29.458  1.00  0.00     0.031 C 
ATOM     45  C   UNL A   1      40.206  31.594  33.183  1.00  0.00     0.029 A 
ATOM     46  N   UNL A   1      41.962  30.208  33.131  1.00  0.00    -0.354 N 
ATOM     47  C   UNL A   1      42.371  27.218  30.048  1.00  0.00     0.074 A 
ATOM     48  C   UNL A   1      41.254  27.260  29.131  1.00  0.00     0.031 C 
ATOM     49  C   UNL A   1      41.010  31.911  34.217  1.00  0.00     0.029 A 
ATOM     50  C   UNL A   1      42.150  30.994  34.244  1.00  0.00     0.049 A 
ATOM     51  H   UNL A   1      42.606  29.521  32.844  1.00  0.00     0.167 HD
ATOM     52  C   UNL A   1      43.413  26.363  29.930  1.00  0.00     0.031 A 
ATOM     53  C   UNL A   1      43.114  30.959  35.188  1.00  0.00     0.031 A 
ATOM     54  C   UNL A   1      44.521  26.310  30.844  1.00  0.00     0.049 A 
ATOM     55  C   UNL A   1      44.230  29.947  35.077  1.00  0.00     0.074 A 
ATOM     56  C   UNL A   1      45.633  25.487  30.797  1.00  0.00     0.029 A 
ATOM     57  N   UNL A   1      44.654  27.102  31.973  1.00  0.00    -0.354 N 
ATOM     58  N   UNL A   1      44.442  29.048  34.144  1.00  0.00    -0.248 NA
ATOM     59  C   UNL A   1      45.245  29.954  36.142  1.00  0.00     0.031 C 
ATOM     60  C   UNL A   1      46.407  25.737  31.934  1.00  0.00     0.029 A 
ATOM     61  C   UNL A   1      45.816  26.766  32.649  1.00  0.00     0.049 A 
ATOM     62  H   UNL A   1      44.018  27.799  32.253  1.00  0.00     0.167 HD
ATOM     63  C   UNL A   1      45.628  28.406  34.495  1.00  0.00     0.074 A 
ATOM     64  C   UNL A   1      46.094  29.029  35.715  1.00  0.00     0.031 C 
ATOM     65  C   UNL A   1      46.274  27.395  33.862  1.00  0.00     0.031 A 
BRANCH  52  66
ATOM     66  C   UNL A   1      43.378  25.378  28.792  1.00  0.00    -0.014 A 
ATOM     67  C   UNL A   1      44.252  25.490  27.696  1.00  0.00     0.010 A 
ATOM     68  C   UNL A   1      42.476  24.299  28.843  1.00  0.00     0.010 A 
ATOM     69  C   UNL A   1      44.204  24.558  26.657  1.00  0.00     0.020 A 
ATOM     70  C   UNL A   1      42.446  23.348  27.820  1.00  0.00     0.020 A 
ATOM     71  C   UNL A   1      43.301  23.491  26.727  1.00  0.00     0.054 A 
BRANCH  71  72
ATOM     72  S   UNL A   1      43.287  22.274  25.383  1.00  0.00     0.124 S 
ATOM     73  O   UNL A   1      44.577  21.613  25.561  1.00  0.00    -0.237 OA
ATOM     74  O   UNL A   1      42.115  21.461  25.702  1.00  0.00    -0.237 OA
ATOM     75  O   UNL A   1      43.167  23.088  24.177  1.00  0.00    -0.744 OA
ENDBRANCH  71  72
ENDBRANCH  52  66
BRANCH  53  76
ATOM     76  C   UNL A   1      43.056  31.888  36.355  1.00  0.00    -0.014 A 
ATOM     77  C   UNL A   1      43.746  33.113  36.340  1.00  0.00     0.010 A 
ATOM     78  C   UNL A   1      42.328  31.532  37.505  1.00  0.00     0.010 A 
ATOM     79  C   UNL A   1      43.725  33.954  37.458  1.00  0.00     0.020 A 
ATOM     80  C   UNL A   1      42.280  32.382  38.613  1.00  0.00     0.020 A 
ATOM     81  C   UNL A   1      42.989  33.584  38.587  1.00  0.00     0.054 A 
BRANCH  81  82
ATOM     82  S   UNL A   1      42.938  34.710  40.010  1.00  0.00     0.124 S 
ATOM     83  O   UNL A   1      41.520  35.050  40.078  1.00  0.00    -0.237 OA
ATOM     84  O   UNL A   1      43.442  33.870  41.093  1.00  0.00    -0.237 OA
ATOM     85  O   UNL A   1      43.825  35.801  39.613  1.00  0.00    -0.744 OA
ENDBRANCH  81  82
ENDBRANCH  53  76
BRANCH  65  86
ATOM     86  C   UNL A   1      47.584  26.924  34.442  1.00  0.00    -0.014 A 
ATOM     87  C   UNL A   1      47.635  25.929  35.434  1.00  0.00     0.010 A 
ATOM     88  C   UNL A   1      48.789  27.451  33.941  1.00  0.00     0.010 A 
ATOM     89  C   UNL A   1      48.866  25.500  35.941  1.00  0.00     0.020 A 
ATOM     90  C   UNL A   1      50.022  27.002  34.422  1.00  0.00     0.020 A 
ATOM     91  C   UNL A   1      50.052  26.040  35.433  1.00  0.00     0.054 A 
BRANCH  91  92
ATOM     92  S   UNL A   1      51.636  25.446  36.087  1.00  0.00     0.124 S 
ATOM     93  O   UNL A   1      52.597  26.156  35.247  1.00  0.00    -0.237 OA
ATOM     94  O   UNL A   1      51.588  25.872  37.484  1.00  0.00    -0.237 OA
ATOM     95  O   UNL A   1      51.577  24.001  35.880  1.00  0.00    -0.744 OA
ENDBRANCH  91  92
ENDBRANCH  65  86
ENDBRANCH  39  40
ENDBRANCH  32  34
ENDBRANCH  31  32
ENDBRANCH  30  31
ENDBRANCH  29  30
ENDBRANCH  28  29
ENDBRANCH  27  28
ENDBRANCH   1  27
TORSDOF 25
ENDMDL
