MODEL 1
REMARK VINA RESULT:     -11.0      0.000      0.000
REMARK SMILES Cc1ccc(Nc2c(Cl)cc(Cl)cc2Cl)c(CC(=O)OCCOCCOCCOC(=O)c2ccc(-c3c4nc(c(-c5ccc(S(=O)(=O)[O-])cc5)c5ccc([nH]5)c(-c5ccc(S(=O)(=O)[O-])cc5)c5nc(c(-c6ccc(S(=O)(=O)[O-])cc6)c6ccc3[nH]6)C=C5)C=C4)cc2)c1
REMARK SMILES IDX 24 1 23 2 22 3 21 4 20 5 18 6 19 7 17 8 16 9 1 10 2 11 3 12
REMARK SMILES IDX 92 13 4 14 5 15 6 16 7 18 8 19 14 20 9 21 10 22 13 23 15 24
REMARK SMILES IDX 11 25 12 26 25 27 26 28 27 29 28 30 29 31 30 32 31 33 32 34
REMARK SMILES IDX 33 35 91 36 34 37 90 38 35 39 36 40 37 41 84 42 38 43 89 44
REMARK SMILES IDX 83 45 85 46 39 47 88 48 82 49 81 50 40 52 70 53 51 54 69 55
REMARK SMILES IDX 52 56 55 57 68 58 86 59 53 60 54 61 67 63 87 64 56 65 41 66
REMARK SMILES IDX 42 67 50 68 43 69 49 70 44 71 45 72 46 73 47 74 48 75 71 76
REMARK SMILES IDX 72 77 80 78 73 79 79 80 74 81 75 82 76 83 77 84 78 85 57 86
REMARK SMILES IDX 58 87 66 88 59 89 65 90 60 91 61 92 62 93 63 94 64 95
REMARK H PARENT 6 17 85 51 55 62
REMARK Flexibility Score: inf
ROOT
ATOM      1  C   UNL A   1      35.319  31.088  27.907  1.00  0.00     0.188 C 
ENDROOT
BRANCH   1   2
ATOM      2  O   UNL A   1      33.988  31.511  27.820  1.00  0.00    -0.376 OA
BRANCH   2   3
ATOM      3  C   UNL A   1      33.015  30.713  27.194  1.00  0.00     0.202 C 
BRANCH   3   4
ATOM      4  C   UNL A   1      33.053  29.493  26.127  1.00  0.00     0.261 C 
BRANCH   4   5
ATOM      5  O   UNL A   1      33.067  29.220  24.333  1.00  0.00    -0.463 OA
BRANCH   5   6
ATOM      6  C   UNL A   1      32.816  28.157  23.107  1.00  0.00     0.310 C 
ATOM      7  O   UNL A   1      33.402  27.145  22.697  1.00  0.00    -0.252 OA
BRANCH   6   8
ATOM      8  C   UNL A   1      31.512  28.274  22.545  1.00  0.00     0.160 C 
BRANCH   8   9
ATOM      9  C   UNL A   1      30.680  28.347  23.783  1.00  0.00    -0.013 A 
ATOM     10  C   UNL A   1      27.670  30.324  22.514  1.00  0.00     0.044 C 
ATOM     11  C   UNL A   1      28.487  29.218  23.095  1.00  0.00    -0.051 A 
ATOM     12  C   UNL A   1      28.037  27.923  23.214  1.00  0.00     0.005 A 
ATOM     13  C   UNL A   1      29.798  29.447  23.444  1.00  0.00     0.009 A 
ATOM     14  C   UNL A   1      28.900  26.910  23.725  1.00  0.00     0.026 A 
ATOM     15  C   UNL A   1      30.389  27.057  24.317  1.00  0.00     0.042 A 
BRANCH  15  16
ATOM     16  N   UNL A   1      31.117  25.962  25.838  1.00  0.00    -0.353 N 
ATOM     17  H   UNL A   1      30.985  26.389  26.716  1.00  0.00     0.167 HD
BRANCH  16  18
ATOM     18  C   UNL A   1      31.975  24.339  25.950  1.00  0.00     0.076 A 
ATOM     19  C   UNL A   1      33.408  23.985  25.451  1.00  0.00     0.067 A 
ATOM     20  C   UNL A   1      31.200  23.167  26.149  1.00  0.00     0.067 A 
ATOM     21  Cl  UNL A   1      34.815  24.921  24.830  1.00  0.00    -0.082 Cl
ATOM     22  C   UNL A   1      33.842  22.657  25.230  1.00  0.00     0.043 A 
ATOM     23  C   UNL A   1      31.677  21.865  25.776  1.00  0.00     0.043 A 
ATOM     24  Cl  UNL A   1      29.735  23.061  26.984  1.00  0.00    -0.082 Cl
ATOM     25  C   UNL A   1      32.961  21.620  25.319  1.00  0.00     0.044 A 
ATOM     26  Cl  UNL A   1      33.466  20.057  24.802  1.00  0.00    -0.084 Cl
ENDBRANCH  16  18
ENDBRANCH  15  16
ENDBRANCH   8   9
ENDBRANCH   6   8
ENDBRANCH   5   6
ENDBRANCH   4   5
ENDBRANCH   3   4
ENDBRANCH   2   3
ENDBRANCH   1   2
BRANCH   1  27
ATOM     27  C   UNL A   1      36.343  31.926  28.656  1.00  0.00     0.188 C 
BRANCH  27  28
ATOM     28  O   UNL A   1      36.954  31.315  29.767  1.00  0.00    -0.376 OA
BRANCH  28  29
ATOM     29  C   UNL A   1      36.042  30.976  30.812  1.00  0.00     0.202 C 
BRANCH  29  30
ATOM     30  C   UNL A   1      36.527  30.897  32.336  1.00  0.00     0.261 C 
BRANCH  30  31
ATOM     31  O   UNL A   1      36.086  31.982  33.267  1.00  0.00    -0.460 OA
BRANCH  31  32
ATOM     32  C   UNL A   1      36.925  32.791  34.085  1.00  0.00     0.338 C 
ATOM     33  O   UNL A   1      36.853  32.654  35.293  1.00  0.00    -0.246 OA
BRANCH  32  34
ATOM     34  C   UNL A   1      37.997  33.800  33.196  1.00  0.00     0.060 A 
ATOM     35  C   UNL A   1      38.192  34.523  31.384  1.00  0.00     0.016 A 
ATOM     36  C   UNL A   1      39.235  32.541  33.593  1.00  0.00     0.016 A 
ATOM     37  C   UNL A   1      39.451  33.725  30.213  1.00  0.00     0.010 A 
ATOM     38  C   UNL A   1      40.255  31.823  32.373  1.00  0.00     0.010 A 
ATOM     39  C   UNL A   1      40.504  32.304  30.669  1.00  0.00    -0.014 A 
BRANCH  39  40
ATOM     40  C   UNL A   1      41.999  31.451  29.881  1.00  0.00     0.031 A 
ATOM     41  C   UNL A   1      42.268  29.578  29.553  1.00  0.00     0.074 A 
ATOM     42  C   UNL A   1      42.927  32.125  29.170  1.00  0.00     0.049 A 
ATOM     43  N   UNL A   1      43.209  28.782  30.034  1.00  0.00    -0.248 NA
ATOM     44  C   UNL A   1      41.132  28.434  29.083  1.00  0.00     0.031 C 
ATOM     45  C   UNL A   1      43.867  31.567  28.182  1.00  0.00     0.029 A 
ATOM     46  N   UNL A   1      43.172  33.486  29.090  1.00  0.00    -0.354 N 
ATOM     47  C   UNL A   1      42.807  27.424  29.772  1.00  0.00     0.074 A 
ATOM     48  C   UNL A   1      41.405  27.363  29.792  1.00  0.00     0.031 C 
ATOM     49  C   UNL A   1      44.773  32.507  27.852  1.00  0.00     0.029 A 
ATOM     50  C   UNL A   1      44.514  33.650  28.709  1.00  0.00     0.049 A 
ATOM     51  H   UNL A   1      42.524  34.205  29.268  1.00  0.00     0.167 HD
ATOM     52  C   UNL A   1      43.492  26.579  28.933  1.00  0.00     0.031 A 
ATOM     53  C   UNL A   1      45.336  34.149  29.667  1.00  0.00     0.031 A 
ATOM     54  C   UNL A   1      44.656  27.304  28.487  1.00  0.00     0.049 A 
ATOM     55  C   UNL A   1      46.181  32.993  30.196  1.00  0.00     0.074 A 
ATOM     56  C   UNL A   1      44.985  27.977  27.326  1.00  0.00     0.029 A 
ATOM     57  N   UNL A   1      45.426  27.854  29.491  1.00  0.00    -0.354 N 
ATOM     58  N   UNL A   1      45.842  31.727  30.082  1.00  0.00    -0.248 NA
ATOM     59  C   UNL A   1      47.558  33.142  30.655  1.00  0.00     0.031 C 
ATOM     60  C   UNL A   1      45.930  28.998  27.687  1.00  0.00     0.029 A 
ATOM     61  C   UNL A   1      46.141  28.946  29.059  1.00  0.00     0.049 A 
ATOM     62  H   UNL A   1      45.458  27.506  30.411  1.00  0.00     0.167 HD
ATOM     63  C   UNL A   1      46.928  30.928  30.292  1.00  0.00     0.074 A 
ATOM     64  C   UNL A   1      47.966  31.860  30.700  1.00  0.00     0.031 C 
ATOM     65  C   UNL A   1      47.001  29.583  30.049  1.00  0.00     0.031 A 
BRANCH  52  66
ATOM     66  C   UNL A   1      42.906  25.302  28.273  1.00  0.00    -0.014 A 
ATOM     67  C   UNL A   1      42.780  24.132  29.045  1.00  0.00     0.010 A 
ATOM     68  C   UNL A   1      42.430  25.180  26.937  1.00  0.00     0.010 A 
ATOM     69  C   UNL A   1      42.224  22.938  28.533  1.00  0.00     0.020 A 
ATOM     70  C   UNL A   1      41.928  23.975  26.390  1.00  0.00     0.020 A 
ATOM     71  C   UNL A   1      41.796  22.866  27.209  1.00  0.00     0.054 A 
BRANCH  71  72
ATOM     72  S   UNL A   1      40.986  21.350  26.613  1.00  0.00     0.124 S 
ATOM     73  O   UNL A   1      39.747  21.858  26.031  1.00  0.00    -0.237 OA
ATOM     74  O   UNL A   1      41.963  20.832  25.661  1.00  0.00    -0.237 OA
ATOM     75  O   UNL A   1      40.813  20.546  27.822  1.00  0.00    -0.744 OA
ENDBRANCH  71  72
ENDBRANCH  52  66
BRANCH  53  76
ATOM     76  C   UNL A   1      44.648  35.339  30.304  1.00  0.00    -0.014 A 
ATOM     77  C   UNL A   1      44.349  35.204  31.694  1.00  0.00     0.010 A 
ATOM     78  C   UNL A   1      44.720  36.655  29.805  1.00  0.00     0.010 A 
ATOM     79  C   UNL A   1      44.143  36.308  32.540  1.00  0.00     0.020 A 
ATOM     80  C   UNL A   1      44.491  37.771  30.651  1.00  0.00     0.020 A 
ATOM     81  C   UNL A   1      44.166  37.590  32.003  1.00  0.00     0.054 A 
BRANCH  81  82
ATOM     82  S   UNL A   1      43.763  39.009  33.084  1.00  0.00     0.124 S 
ATOM     83  O   UNL A   1      42.815  38.414  34.020  1.00  0.00    -0.237 OA
ATOM     84  O   UNL A   1      45.048  39.383  33.675  1.00  0.00    -0.237 OA
ATOM     85  O   UNL A   1      43.192  39.989  32.162  1.00  0.00    -0.744 OA
ENDBRANCH  81  82
ENDBRANCH  53  76
BRANCH  65  86
ATOM     86  C   UNL A   1      47.921  28.669  30.836  1.00  0.00    -0.014 A 
ATOM     87  C   UNL A   1      47.769  28.444  32.209  1.00  0.00     0.010 A 
ATOM     88  C   UNL A   1      48.855  27.842  30.155  1.00  0.00     0.010 A 
ATOM     89  C   UNL A   1      48.592  27.546  32.884  1.00  0.00     0.020 A 
ATOM     90  C   UNL A   1      49.590  26.854  30.796  1.00  0.00     0.020 A 
ATOM     91  C   UNL A   1      49.501  26.764  32.174  1.00  0.00     0.054 A 
BRANCH  91  92
ATOM     92  S   UNL A   1      50.592  25.650  33.071  1.00  0.00     0.124 S 
ATOM     93  O   UNL A   1      50.872  24.640  32.053  1.00  0.00    -0.237 OA
ATOM     94  O   UNL A   1      51.715  26.514  33.426  1.00  0.00    -0.237 OA
ATOM     95  O   UNL A   1      49.779  25.197  34.197  1.00  0.00    -0.744 OA
ENDBRANCH  91  92
ENDBRANCH  65  86
ENDBRANCH  39  40
ENDBRANCH  32  34
ENDBRANCH  31  32
ENDBRANCH  30  31
ENDBRANCH  29  30
ENDBRANCH  28  29
ENDBRANCH  27  28
ENDBRANCH   1  27
TORSDOF 23
ENDMDL
MODEL 2
REMARK VINA RESULT:     -10.5      6.958     14.484
REMARK SMILES Cc1ccc(Nc2c(Cl)cc(Cl)cc2Cl)c(CC(=O)OCCOCCOCCOC(=O)c2ccc(-c3c4nc(c(-c5ccc(S(=O)(=O)[O-])cc5)c5ccc([nH]5)c(-c5ccc(S(=O)(=O)[O-])cc5)c5nc(c(-c6ccc(S(=O)(=O)[O-])cc6)c6ccc3[nH]6)C=C5)C=C4)cc2)c1
REMARK SMILES IDX 24 1 23 2 22 3 21 4 20 5 18 6 19 7 17 8 16 9 1 10 2 11 3 12
REMARK SMILES IDX 92 13 4 14 5 15 6 16 7 18 8 19 14 20 9 21 10 22 13 23 15 24
REMARK SMILES IDX 11 25 12 26 25 27 26 28 27 29 28 30 29 31 30 32 31 33 32 34
REMARK SMILES IDX 33 35 91 36 34 37 90 38 35 39 36 40 37 41 84 42 38 43 89 44
REMARK SMILES IDX 83 45 85 46 39 47 88 48 82 49 81 50 40 52 70 53 51 54 69 55
REMARK SMILES IDX 52 56 55 57 68 58 86 59 53 60 54 61 67 63 87 64 56 65 41 66
REMARK SMILES IDX 42 67 50 68 43 69 49 70 44 71 45 72 46 73 47 74 48 75 71 76
REMARK SMILES IDX 72 77 80 78 73 79 79 80 74 81 75 82 76 83 77 84 78 85 57 86
REMARK SMILES IDX 58 87 66 88 59 89 65 90 60 91 61 92 62 93 63 94 64 95
REMARK H PARENT 6 17 85 51 55 62
REMARK Flexibility Score: inf
ROOT
ATOM      1  C   UNL A   1      44.832  37.555  31.097  1.00  0.00     0.188 C 
ENDROOT
BRANCH   1   2
ATOM      2  O   UNL A   1      43.681  37.840  30.355  1.00  0.00    -0.376 OA
BRANCH   2   3
ATOM      3  C   UNL A   1      43.730  38.702  29.245  1.00  0.00     0.202 C 
BRANCH   3   4
ATOM      4  C   UNL A   1      43.567  40.300  29.033  1.00  0.00     0.261 C 
BRANCH   4   5
ATOM      5  O   UNL A   1      44.591  41.794  28.909  1.00  0.00    -0.463 OA
BRANCH   5   6
ATOM      6  C   UNL A   1      44.771  43.371  29.332  1.00  0.00     0.310 C 
ATOM      7  O   UNL A   1      44.184  44.137  30.110  1.00  0.00    -0.252 OA
BRANCH   6   8
ATOM      8  C   UNL A   1      46.017  43.909  28.903  1.00  0.00     0.160 C 
BRANCH   8   9
ATOM      9  C   UNL A   1      45.568  44.808  27.798  1.00  0.00    -0.013 A 
ATOM     10  C   UNL A   1      48.359  47.413  27.808  1.00  0.00     0.044 C 
ATOM     11  C   UNL A   1      47.439  46.335  27.341  1.00  0.00    -0.051 A 
ATOM     12  C   UNL A   1      47.678  45.562  26.227  1.00  0.00     0.005 A 
ATOM     13  C   UNL A   1      46.340  45.999  28.097  1.00  0.00     0.009 A 
ATOM     14  C   UNL A   1      46.781  44.511  25.880  1.00  0.00     0.026 A 
ATOM     15  C   UNL A   1      45.383  44.107  26.570  1.00  0.00     0.042 A 
BRANCH  15  16
ATOM     16  N   UNL A   1      43.786  43.410  25.568  1.00  0.00    -0.353 N 
ATOM     17  H   UNL A   1      43.030  43.185  26.160  1.00  0.00     0.167 HD
BRANCH  16  18
ATOM     18  C   UNL A   1      43.424  43.100  23.792  1.00  0.00     0.076 A 
ATOM     19  C   UNL A   1      44.079  43.785  22.555  1.00  0.00     0.067 A 
ATOM     20  C   UNL A   1      42.197  42.481  23.441  1.00  0.00     0.067 A 
ATOM     21  Cl  UNL A   1      45.484  44.880  22.292  1.00  0.00    -0.082 Cl
ATOM     22  C   UNL A   1      43.494  43.775  21.268  1.00  0.00     0.043 A 
ATOM     23  C   UNL A   1      41.611  42.629  22.138  1.00  0.00     0.043 A 
ATOM     24  Cl  UNL A   1      41.334  41.363  24.369  1.00  0.00    -0.082 Cl
ATOM     25  C   UNL A   1      42.241  43.268  21.083  1.00  0.00     0.044 A 
ATOM     26  Cl  UNL A   1      41.470  43.500  19.560  1.00  0.00    -0.084 Cl
ENDBRANCH  16  18
ENDBRANCH  15  16
ENDBRANCH   8   9
ENDBRANCH   6   8
ENDBRANCH   5   6
ENDBRANCH   4   5
ENDBRANCH   3   4
ENDBRANCH   2   3
ENDBRANCH   1   2
BRANCH   1  27
ATOM     27  C   UNL A   1      44.804  37.636  32.615  1.00  0.00     0.188 C 
BRANCH  27  28
ATOM     28  O   UNL A   1      43.687  37.059  33.248  1.00  0.00    -0.376 OA
BRANCH  28  29
ATOM     29  C   UNL A   1      43.356  37.667  34.497  1.00  0.00     0.202 C 
BRANCH  29  30
ATOM     30  C   UNL A   1      44.498  38.078  35.542  1.00  0.00     0.261 C 
BRANCH  30  31
ATOM     31  O   UNL A   1      45.404  37.000  36.048  1.00  0.00    -0.460 OA
BRANCH  31  32
ATOM     32  C   UNL A   1      45.590  36.616  37.407  1.00  0.00     0.338 C 
ATOM     33  O   UNL A   1      45.807  37.491  38.225  1.00  0.00    -0.246 OA
BRANCH  32  34
ATOM     34  C   UNL A   1      45.382  34.933  37.687  1.00  0.00     0.060 A 
ATOM     35  C   UNL A   1      45.892  33.220  36.878  1.00  0.00     0.016 A 
ATOM     36  C   UNL A   1      43.617  35.297  37.515  1.00  0.00     0.016 A 
ATOM     37  C   UNL A   1      44.605  32.269  35.865  1.00  0.00     0.010 A 
ATOM     38  C   UNL A   1      42.579  34.385  36.450  1.00  0.00     0.010 A 
ATOM     39  C   UNL A   1      42.898  32.855  35.584  1.00  0.00    -0.014 A 
BRANCH  39  40
ATOM     40  C   UNL A   1      41.325  32.074  34.876  1.00  0.00     0.031 A 
ATOM     41  C   UNL A   1      41.055  31.295  33.141  1.00  0.00     0.074 A 
ATOM     42  C   UNL A   1      40.287  31.701  35.654  1.00  0.00     0.049 A 
ATOM     43  N   UNL A   1      40.213  31.667  32.191  1.00  0.00    -0.248 NA
ATOM     44  C   UNL A   1      42.137  30.388  32.234  1.00  0.00     0.031 C 
ATOM     45  C   UNL A   1      39.227  30.735  35.318  1.00  0.00     0.029 A 
ATOM     46  N   UNL A   1      40.001  32.022  36.971  1.00  0.00    -0.354 N 
ATOM     47  C   UNL A   1      40.605  30.999  30.977  1.00  0.00     0.074 A 
ATOM     48  C   UNL A   1      41.996  30.814  30.999  1.00  0.00     0.031 C 
ATOM     49  C   UNL A   1      38.260  30.794  36.254  1.00  0.00     0.029 A 
ATOM     50  C   UNL A   1      38.614  31.883  37.146  1.00  0.00     0.049 A 
ATOM     51  H   UNL A   1      40.652  32.298  37.657  1.00  0.00     0.167 HD
ATOM     52  C   UNL A   1      39.825  30.064  30.340  1.00  0.00     0.031 A 
ATOM     53  C   UNL A   1      37.930  33.041  37.326  1.00  0.00     0.031 A 
ATOM     54  C   UNL A   1      38.591  29.989  31.084  1.00  0.00     0.049 A 
ATOM     55  C   UNL A   1      37.199  33.349  36.022  1.00  0.00     0.074 A 
ATOM     56  C   UNL A   1      38.081  29.106  32.016  1.00  0.00     0.029 A 
ATOM     57  N   UNL A   1      37.964  31.198  31.303  1.00  0.00    -0.354 N 
ATOM     58  N   UNL A   1      37.546  32.856  34.852  1.00  0.00    -0.248 NA
ATOM     59  C   UNL A   1      35.900  34.012  35.959  1.00  0.00     0.031 C 
ATOM     60  C   UNL A   1      37.176  29.851  32.846  1.00  0.00     0.029 A 
ATOM     61  C   UNL A   1      37.167  31.174  32.424  1.00  0.00     0.049 A 
ATOM     62  H   UNL A   1      38.074  31.986  30.724  1.00  0.00     0.167 HD
ATOM     63  C   UNL A   1      36.522  32.988  33.961  1.00  0.00     0.074 A 
ATOM     64  C   UNL A   1      35.533  33.766  34.688  1.00  0.00     0.031 C 
ATOM     65  C   UNL A   1      36.447  32.405  32.725  1.00  0.00     0.031 A 
BRANCH  52  66
ATOM     66  C   UNL A   1      40.338  29.014  29.319  1.00  0.00    -0.014 A 
ATOM     67  C   UNL A   1      39.764  27.729  29.315  1.00  0.00     0.010 A 
ATOM     68  C   UNL A   1      41.337  29.215  28.324  1.00  0.00     0.010 A 
ATOM     69  C   UNL A   1      40.147  26.726  28.396  1.00  0.00     0.020 A 
ATOM     70  C   UNL A   1      41.776  28.204  27.438  1.00  0.00     0.020 A 
ATOM     71  C   UNL A   1      41.148  26.970  27.458  1.00  0.00     0.054 A 
BRANCH  71  72
ATOM     72  S   UNL A   1      41.541  25.695  26.221  1.00  0.00     0.124 S 
ATOM     73  O   UNL A   1      40.240  25.085  25.966  1.00  0.00    -0.237 OA
ATOM     74  O   UNL A   1      42.092  26.487  25.126  1.00  0.00    -0.237 OA
ATOM     75  O   UNL A   1      42.502  24.829  26.903  1.00  0.00    -0.744 OA
ENDBRANCH  71  72
ENDBRANCH  52  66
BRANCH  53  76
ATOM     76  C   UNL A   1      38.675  33.875  38.347  1.00  0.00    -0.014 A 
ATOM     77  C   UNL A   1      39.118  35.154  37.890  1.00  0.00     0.010 A 
ATOM     78  C   UNL A   1      38.545  33.721  39.741  1.00  0.00     0.010 A 
ATOM     79  C   UNL A   1      39.406  36.218  38.764  1.00  0.00     0.020 A 
ATOM     80  C   UNL A   1      38.855  34.785  40.628  1.00  0.00     0.020 A 
ATOM     81  C   UNL A   1      39.321  36.013  40.135  1.00  0.00     0.054 A 
BRANCH  81  82
ATOM     82  S   UNL A   1      39.829  37.360  41.264  1.00  0.00     0.124 S 
ATOM     83  O   UNL A   1      39.480  36.807  42.567  1.00  0.00    -0.237 OA
ATOM     84  O   UNL A   1      41.266  37.499  41.028  1.00  0.00    -0.237 OA
ATOM     85  O   UNL A   1      39.014  38.493  40.832  1.00  0.00    -0.744 OA
ENDBRANCH  81  82
ENDBRANCH  53  76
BRANCH  65  86
ATOM     86  C   UNL A   1      35.673  33.034  31.582  1.00  0.00    -0.014 A 
ATOM     87  C   UNL A   1      35.041  32.277  30.590  1.00  0.00     0.010 A 
ATOM     88  C   UNL A   1      35.393  34.428  31.596  1.00  0.00     0.010 A 
ATOM     89  C   UNL A   1      34.284  32.890  29.593  1.00  0.00     0.020 A 
ATOM     90  C   UNL A   1      34.537  35.030  30.684  1.00  0.00     0.020 A 
ATOM     91  C   UNL A   1      34.044  34.262  29.644  1.00  0.00     0.054 A 
BRANCH  91  92
ATOM     92  S   UNL A   1      33.110  35.040  28.319  1.00  0.00     0.124 S 
ATOM     93  O   UNL A   1      34.184  35.541  27.465  1.00  0.00    -0.237 OA
ATOM     94  O   UNL A   1      32.337  33.928  27.772  1.00  0.00    -0.237 OA
ATOM     95  O   UNL A   1      32.323  36.065  29.002  1.00  0.00    -0.744 OA
ENDBRANCH  91  92
ENDBRANCH  65  86
ENDBRANCH  39  40
ENDBRANCH  32  34
ENDBRANCH  31  32
ENDBRANCH  30  31
ENDBRANCH  29  30
ENDBRANCH  28  29
ENDBRANCH  27  28
ENDBRANCH   1  27
TORSDOF 23
ENDMDL
MODEL 3
REMARK VINA RESULT:     -10.3      6.366     12.967
REMARK SMILES Cc1ccc(Nc2c(Cl)cc(Cl)cc2Cl)c(CC(=O)OCCOCCOCCOC(=O)c2ccc(-c3c4nc(c(-c5ccc(S(=O)(=O)[O-])cc5)c5ccc([nH]5)c(-c5ccc(S(=O)(=O)[O-])cc5)c5nc(c(-c6ccc(S(=O)(=O)[O-])cc6)c6ccc3[nH]6)C=C5)C=C4)cc2)c1
REMARK SMILES IDX 24 1 23 2 22 3 21 4 20 5 18 6 19 7 17 8 16 9 1 10 2 11 3 12
REMARK SMILES IDX 92 13 4 14 5 15 6 16 7 18 8 19 14 20 9 21 10 22 13 23 15 24
REMARK SMILES IDX 11 25 12 26 25 27 26 28 27 29 28 30 29 31 30 32 31 33 32 34
REMARK SMILES IDX 33 35 91 36 34 37 90 38 35 39 36 40 37 41 84 42 38 43 89 44
REMARK SMILES IDX 83 45 85 46 39 47 88 48 82 49 81 50 40 52 70 53 51 54 69 55
REMARK SMILES IDX 52 56 55 57 68 58 86 59 53 60 54 61 67 63 87 64 56 65 41 66
REMARK SMILES IDX 42 67 50 68 43 69 49 70 44 71 45 72 46 73 47 74 48 75 71 76
REMARK SMILES IDX 72 77 80 78 73 79 79 80 74 81 75 82 76 83 77 84 78 85 57 86
REMARK SMILES IDX 58 87 66 88 59 89 65 90 60 91 61 92 62 93 63 94 64 95
REMARK H PARENT 6 17 85 51 55 62
REMARK Flexibility Score: inf
ROOT
ATOM      1  C   UNL A   1      45.005  37.277  30.943  1.00  0.00     0.188 C 
ENDROOT
BRANCH   1   2
ATOM      2  O   UNL A   1      43.930  37.695  30.151  1.00  0.00    -0.376 OA
BRANCH   2   3
ATOM      3  C   UNL A   1      43.921  37.465  28.764  1.00  0.00     0.202 C 
BRANCH   3   4
ATOM      4  C   UNL A   1      44.754  38.053  27.503  1.00  0.00     0.261 C 
BRANCH   4   5
ATOM      5  O   UNL A   1      46.091  37.565  26.377  1.00  0.00    -0.463 OA
BRANCH   5   6
ATOM      6  C   UNL A   1      47.375  38.060  25.480  1.00  0.00     0.310 C 
ATOM      7  O   UNL A   1      47.561  38.957  24.645  1.00  0.00    -0.252 OA
BRANCH   6   8
ATOM      8  C   UNL A   1      48.603  37.503  25.936  1.00  0.00     0.160 C 
BRANCH   8   9
ATOM      9  C   UNL A   1      48.711  36.303  25.054  1.00  0.00    -0.013 A 
ATOM     10  C   UNL A   1      52.345  36.571  23.913  1.00  0.00     0.044 C 
ATOM     11  C   UNL A   1      51.099  36.035  24.536  1.00  0.00    -0.051 A 
ATOM     12  C   UNL A   1      51.088  35.006  25.449  1.00  0.00     0.005 A 
ATOM     13  C   UNL A   1      49.892  36.646  24.285  1.00  0.00     0.009 A 
ATOM     14  C   UNL A   1      49.862  34.590  26.044  1.00  0.00     0.026 A 
ATOM     15  C   UNL A   1      48.365  35.097  25.733  1.00  0.00     0.042 A 
BRANCH  15  16
ATOM     16  N   UNL A   1      46.737  33.919  25.779  1.00  0.00    -0.353 N 
ATOM     17  H   UNL A   1      46.636  33.373  24.965  1.00  0.00     0.167 HD
BRANCH  16  18
ATOM     18  C   UNL A   1      45.396  33.637  27.006  1.00  0.00     0.076 A 
ATOM     19  C   UNL A   1      43.940  34.189  26.966  1.00  0.00     0.067 A 
ATOM     20  C   UNL A   1      45.744  33.209  28.313  1.00  0.00     0.067 A 
ATOM     21  Cl  UNL A   1      42.929  35.048  25.748  1.00  0.00    -0.082 Cl
ATOM     22  C   UNL A   1      43.104  34.246  28.105  1.00  0.00     0.043 A 
ATOM     23  C   UNL A   1      44.880  33.422  29.441  1.00  0.00     0.043 A 
ATOM     24  Cl  UNL A   1      47.072  32.256  28.739  1.00  0.00    -0.082 Cl
ATOM     25  C   UNL A   1      43.598  33.937  29.338  1.00  0.00     0.044 A 
ATOM     26  Cl  UNL A   1      42.627  34.257  30.725  1.00  0.00    -0.084 Cl
ENDBRANCH  16  18
ENDBRANCH  15  16
ENDBRANCH   8   9
ENDBRANCH   6   8
ENDBRANCH   5   6
ENDBRANCH   4   5
ENDBRANCH   3   4
ENDBRANCH   2   3
ENDBRANCH   1   2
BRANCH   1  27
ATOM     27  C   UNL A   1      45.016  37.569  32.435  1.00  0.00     0.188 C 
BRANCH  27  28
ATOM     28  O   UNL A   1      43.912  37.096  33.169  1.00  0.00    -0.376 OA
BRANCH  28  29
ATOM     29  C   UNL A   1      43.581  37.909  34.296  1.00  0.00     0.202 C 
BRANCH  29  30
ATOM     30  C   UNL A   1      44.707  38.379  35.333  1.00  0.00     0.261 C 
BRANCH  30  31
ATOM     31  O   UNL A   1      45.536  37.321  35.991  1.00  0.00    -0.460 OA
BRANCH  31  32
ATOM     32  C   UNL A   1      45.527  36.972  37.371  1.00  0.00     0.338 C 
ATOM     33  O   UNL A   1      45.529  37.871  38.191  1.00  0.00    -0.246 OA
BRANCH  32  34
ATOM     34  C   UNL A   1      45.420  35.279  37.658  1.00  0.00     0.060 A 
ATOM     35  C   UNL A   1      46.030  33.598  36.853  1.00  0.00     0.016 A 
ATOM     36  C   UNL A   1      43.637  35.537  37.489  1.00  0.00     0.016 A 
ATOM     37  C   UNL A   1      44.799  32.568  35.846  1.00  0.00     0.010 A 
ATOM     38  C   UNL A   1      42.651  34.561  36.431  1.00  0.00     0.010 A 
ATOM     39  C   UNL A   1      43.060  33.050  35.568  1.00  0.00    -0.014 A 
BRANCH  39  40
ATOM     40  C   UNL A   1      41.534  32.175  34.867  1.00  0.00     0.031 A 
ATOM     41  C   UNL A   1      41.322  31.332  33.154  1.00  0.00     0.074 A 
ATOM     42  C   UNL A   1      40.505  31.776  35.645  1.00  0.00     0.049 A 
ATOM     43  N   UNL A   1      40.476  31.635  32.184  1.00  0.00    -0.248 NA
ATOM     44  C   UNL A   1      42.457  30.451  32.286  1.00  0.00     0.031 C 
ATOM     45  C   UNL A   1      39.496  30.751  35.327  1.00  0.00     0.029 A 
ATOM     46  N   UNL A   1      40.189  32.122  36.948  1.00  0.00    -0.354 N 
ATOM     47  C   UNL A   1      40.914  30.951  30.995  1.00  0.00     0.074 A 
ATOM     48  C   UNL A   1      42.312  30.833  31.038  1.00  0.00     0.031 C 
ATOM     49  C   UNL A   1      38.517  30.791  36.250  1.00  0.00     0.029 A 
ATOM     50  C   UNL A   1      38.808  31.923  37.113  1.00  0.00     0.049 A 
ATOM     51  H   UNL A   1      40.816  32.449  37.632  1.00  0.00     0.167 HD
ATOM     52  C   UNL A   1      40.187  29.961  30.378  1.00  0.00     0.031 A 
ATOM     53  C   UNL A   1      38.067  33.051  37.249  1.00  0.00     0.031 A 
ATOM     54  C   UNL A   1      38.949  29.849  31.111  1.00  0.00     0.049 A 
ATOM     55  C   UNL A   1      37.338  33.285  35.928  1.00  0.00     0.074 A 
ATOM     56  C   UNL A   1      38.469  28.971  32.063  1.00  0.00     0.029 A 
ATOM     57  N   UNL A   1      38.262  31.033  31.286  1.00  0.00    -0.354 N 
ATOM     58  N   UNL A   1      37.723  32.775  34.778  1.00  0.00    -0.248 NA
ATOM     59  C   UNL A   1      36.010  33.883  35.832  1.00  0.00     0.031 C 
ATOM     60  C   UNL A   1      37.520  29.697  32.861  1.00  0.00     0.029 A 
ATOM     61  C   UNL A   1      37.454  31.004  32.398  1.00  0.00     0.049 A 
ATOM     62  H   UNL A   1      38.342  31.808  30.685  1.00  0.00     0.167 HD
ATOM     63  C   UNL A   1      36.705  32.830  33.872  1.00  0.00     0.074 A 
ATOM     64  C   UNL A   1      35.671  33.582  34.565  1.00  0.00     0.031 C 
ATOM     65  C   UNL A   1      36.672  32.208  32.654  1.00  0.00     0.031 A 
BRANCH  52  66
ATOM     66  C   UNL A   1      40.762  28.906  29.396  1.00  0.00    -0.014 A 
ATOM     67  C   UNL A   1      40.751  29.181  28.016  1.00  0.00     0.010 A 
ATOM     68  C   UNL A   1      41.355  27.658  29.742  1.00  0.00     0.010 A 
ATOM     69  C   UNL A   1      41.287  28.293  27.057  1.00  0.00     0.020 A 
ATOM     70  C   UNL A   1      41.840  26.730  28.791  1.00  0.00     0.020 A 
ATOM     71  C   UNL A   1      41.834  27.073  27.449  1.00  0.00     0.054 A 
BRANCH  71  72
ATOM     72  S   UNL A   1      42.612  26.001  26.203  1.00  0.00     0.124 S 
ATOM     73  O   UNL A   1      44.022  26.365  26.304  1.00  0.00    -0.237 OA
ATOM     74  O   UNL A   1      42.269  24.667  26.685  1.00  0.00    -0.237 OA
ATOM     75  O   UNL A   1      41.965  26.392  24.950  1.00  0.00    -0.744 OA
ENDBRANCH  71  72
ENDBRANCH  52  66
BRANCH  53  76
ATOM     76  C   UNL A   1      38.759  33.950  38.253  1.00  0.00    -0.014 A 
ATOM     77  C   UNL A   1      39.230  35.197  37.739  1.00  0.00     0.010 A 
ATOM     78  C   UNL A   1      38.555  33.886  39.645  1.00  0.00     0.010 A 
ATOM     79  C   UNL A   1      39.474  36.315  38.556  1.00  0.00     0.020 A 
ATOM     80  C   UNL A   1      38.820  35.005  40.476  1.00  0.00     0.020 A 
ATOM     81  C   UNL A   1      39.315  36.199  39.931  1.00  0.00     0.054 A 
BRANCH  81  82
ATOM     82  S   UNL A   1      39.766  37.616  40.996  1.00  0.00     0.124 S 
ATOM     83  O   UNL A   1      41.184  37.779  40.695  1.00  0.00    -0.237 OA
ATOM     84  O   UNL A   1      38.914  38.706  40.518  1.00  0.00    -0.237 OA
ATOM     85  O   UNL A   1      39.469  37.139  42.344  1.00  0.00    -0.744 OA
ENDBRANCH  81  82
ENDBRANCH  53  76
BRANCH  65  86
ATOM     86  C   UNL A   1      35.884  32.766  31.484  1.00  0.00    -0.014 A 
ATOM     87  C   UNL A   1      35.145  31.955  30.616  1.00  0.00     0.010 A 
ATOM     88  C   UNL A   1      35.706  34.170  31.352  1.00  0.00     0.010 A 
ATOM     89  C   UNL A   1      34.380  32.510  29.592  1.00  0.00     0.020 A 
ATOM     90  C   UNL A   1      34.846  34.732  30.417  1.00  0.00     0.020 A 
ATOM     91  C   UNL A   1      34.243  33.894  29.497  1.00  0.00     0.054 A 
BRANCH  91  92
ATOM     92  S   UNL A   1      33.295  34.592  28.137  1.00  0.00     0.124 S 
ATOM     93  O   UNL A   1      32.543  35.642  28.819  1.00  0.00    -0.237 OA
ATOM     94  O   UNL A   1      34.336  35.056  27.223  1.00  0.00    -0.237 OA
ATOM     95  O   UNL A   1      32.500  33.466  27.651  1.00  0.00    -0.744 OA
ENDBRANCH  91  92
ENDBRANCH  65  86
ENDBRANCH  39  40
ENDBRANCH  32  34
ENDBRANCH  31  32
ENDBRANCH  30  31
ENDBRANCH  29  30
ENDBRANCH  28  29
ENDBRANCH  27  28
ENDBRANCH   1  27
TORSDOF 23
ENDMDL
