MODEL 1
REMARK VINA RESULT:      -9.8      0.000      0.000
REMARK SMILES O=C(OCCOCCOCCOC(=O)c1cc(S(=O)(=O)Nc2cccc(Cl)c2)ccc1O)c1ccc(-c2c3nc(c(-c4ccc(S(=O)(=O)[O-])cc4)c4ccc([nH]4)c(-c4ccc(S(=O)(=O)[O-])cc4)c4nc(c(-c5ccc(S(=O)(=O)[O-])cc5)c5ccc2[nH]5)C=C4)C=C3)cc1
REMARK SMILES IDX 7 1 6 2 5 3 4 4 3 5 2 6 1 7 33 8 34 9 92 10 35 11 91 12
REMARK SMILES IDX 36 13 37 14 38 15 85 16 39 17 90 18 84 19 86 20 40 21 89 22
REMARK SMILES IDX 83 23 82 24 41 26 71 27 52 28 70 29 53 30 56 31 69 32 87 33
REMARK SMILES IDX 54 34 55 35 68 37 88 38 57 39 42 40 43 41 51 42 44 43 50 44
REMARK SMILES IDX 45 45 46 46 47 47 48 48 49 49 72 50 73 51 81 52 74 53 80 54
REMARK SMILES IDX 75 55 76 56 77 57 78 58 79 59 58 60 59 61 67 62 60 63 66 64
REMARK SMILES IDX 61 65 62 66 63 67 64 68 65 69 8 70 9 71 10 72 11 73 12 74
REMARK SMILES IDX 13 75 14 76 15 77 16 78 31 79 17 80 30 81 29 82 32 83 18 85
REMARK SMILES IDX 19 86 20 87 21 88 22 90 23 91 28 92 24 93 26 94 25 95 27 96
REMARK H PARENT 86 25 56 36 32 84 21 89
REMARK Flexibility Score: inf
ROOT
ATOM      1  C   UNL A   1      33.176  27.753  24.712  1.00  0.00     0.188 C 
ENDROOT
BRANCH   1   2
ATOM      2  O   UNL A   1      33.150  28.569  25.888  1.00  0.00    -0.376 OA
BRANCH   2   3
ATOM      3  C   UNL A   1      32.053  29.486  25.926  1.00  0.00     0.202 C 
BRANCH   3   4
ATOM      4  C   UNL A   1      32.281  30.724  26.806  1.00  0.00     0.261 C 
BRANCH   4   5
ATOM      5  O   UNL A   1      33.380  30.564  27.717  1.00  0.00    -0.460 OA
BRANCH   5   6
ATOM      6  C   UNL A   1      34.478  31.355  27.845  1.00  0.00     0.338 C 
ATOM      7  O   UNL A   1      34.407  32.515  27.445  1.00  0.00    -0.246 OA
BRANCH   6   8
ATOM      8  C   UNL A   1      35.758  30.897  28.476  1.00  0.00     0.060 A 
ATOM      9  C   UNL A   1      35.921  29.703  29.178  1.00  0.00     0.016 A 
ATOM     10  C   UNL A   1      36.893  31.704  28.301  1.00  0.00     0.016 A 
ATOM     11  C   UNL A   1      37.124  29.371  29.791  1.00  0.00     0.010 A 
ATOM     12  C   UNL A   1      38.131  31.339  28.850  1.00  0.00     0.010 A 
ATOM     13  C   UNL A   1      38.246  30.176  29.624  1.00  0.00    -0.014 A 
BRANCH  13  14
ATOM     14  C   UNL A   1      39.501  29.826  30.322  1.00  0.00     0.031 A 
ATOM     15  C   UNL A   1      40.300  28.655  29.835  1.00  0.00     0.074 A 
ATOM     16  C   UNL A   1      39.992  30.610  31.303  1.00  0.00     0.049 A 
ATOM     17  N   UNL A   1      41.368  28.118  30.359  1.00  0.00    -0.248 NA
ATOM     18  C   UNL A   1      39.870  28.038  28.568  1.00  0.00     0.031 C 
ATOM     19  C   UNL A   1      39.440  31.902  31.711  1.00  0.00     0.029 A 
ATOM     20  N   UNL A   1      41.081  30.447  32.126  1.00  0.00    -0.354 N 
ATOM     21  C   UNL A   1      41.750  27.114  29.479  1.00  0.00     0.074 A 
ATOM     22  C   UNL A   1      40.779  27.086  28.409  1.00  0.00     0.031 C 
ATOM     23  C   UNL A   1      40.185  32.399  32.711  1.00  0.00     0.029 A 
ATOM     24  C   UNL A   1      41.174  31.414  33.100  1.00  0.00     0.049 A 
ATOM     25  H   UNL A   1      41.728  29.712  32.028  1.00  0.00     0.167 HD
ATOM     26  C   UNL A   1      42.830  26.306  29.555  1.00  0.00     0.031 A 
ATOM     27  C   UNL A   1      41.906  31.463  34.230  1.00  0.00     0.031 A 
ATOM     28  C   UNL A   1      43.784  26.351  30.629  1.00  0.00     0.049 A 
ATOM     29  C   UNL A   1      42.875  30.346  34.473  1.00  0.00     0.074 A 
ATOM     30  C   UNL A   1      44.917  25.580  30.809  1.00  0.00     0.029 A 
ATOM     31  N   UNL A   1      43.701  27.207  31.716  1.00  0.00    -0.354 N 
ATOM     32  N   UNL A   1      43.215  29.381  33.654  1.00  0.00    -0.248 NA
ATOM     33  C   UNL A   1      43.557  30.317  35.771  1.00  0.00     0.031 C 
ATOM     34  C   UNL A   1      45.481  25.925  32.042  1.00  0.00     0.029 A 
ATOM     35  C   UNL A   1      44.726  26.943  32.604  1.00  0.00     0.049 A 
ATOM     36  H   UNL A   1      43.012  27.900  31.838  1.00  0.00     0.167 HD
ATOM     37  C   UNL A   1      44.200  28.663  34.314  1.00  0.00     0.074 A 
ATOM     38  C   UNL A   1      44.384  29.293  35.607  1.00  0.00     0.031 C 
ATOM     39  C   UNL A   1      44.905  27.595  33.875  1.00  0.00     0.031 A 
BRANCH  26  40
ATOM     40  C   UNL A   1      43.006  25.281  28.474  1.00  0.00    -0.014 A 
ATOM     41  C   UNL A   1      43.727  25.569  27.303  1.00  0.00     0.010 A 
ATOM     42  C   UNL A   1      42.467  23.994  28.655  1.00  0.00     0.010 A 
ATOM     43  C   UNL A   1      43.893  24.589  26.321  1.00  0.00     0.020 A 
ATOM     44  C   UNL A   1      42.645  23.009  27.683  1.00  0.00     0.020 A 
ATOM     45  C   UNL A   1      43.350  23.314  26.517  1.00  0.00     0.054 A 
BRANCH  45  46
ATOM     46  S   UNL A   1      43.616  22.049  25.246  1.00  0.00     0.124 S 
ATOM     47  O   UNL A   1      42.536  21.106  25.528  1.00  0.00    -0.237 OA
ATOM     48  O   UNL A   1      43.477  22.809  24.006  1.00  0.00    -0.237 OA
ATOM     49  O   UNL A   1      44.962  21.555  25.524  1.00  0.00    -0.744 OA
ENDBRANCH  45  46
ENDBRANCH  26  40
BRANCH  27  50
ATOM     50  C   UNL A   1      41.624  32.480  35.284  1.00  0.00    -0.014 A 
ATOM     51  C   UNL A   1      40.600  32.331  36.232  1.00  0.00     0.010 A 
ATOM     52  C   UNL A   1      42.358  33.681  35.272  1.00  0.00     0.010 A 
ATOM     53  C   UNL A   1      40.299  33.375  37.121  1.00  0.00     0.020 A 
ATOM     54  C   UNL A   1      42.086  34.711  36.171  1.00  0.00     0.020 A 
ATOM     55  C   UNL A   1      41.044  34.559  37.080  1.00  0.00     0.054 A 
BRANCH  55  56
ATOM     56  S   UNL A   1      40.628  35.911  38.215  1.00  0.00     0.124 S 
ATOM     57  O   UNL A   1      41.938  36.485  38.503  1.00  0.00    -0.237 OA
ATOM     58  O   UNL A   1      39.735  36.727  37.399  1.00  0.00    -0.237 OA
ATOM     59  O   UNL A   1      39.987  35.223  39.335  1.00  0.00    -0.744 OA
ENDBRANCH  55  56
ENDBRANCH  27  50
BRANCH  39  60
ATOM     60  C   UNL A   1      46.000  27.098  34.766  1.00  0.00    -0.014 A 
ATOM     61  C   UNL A   1      45.731  26.221  35.829  1.00  0.00     0.010 A 
ATOM     62  C   UNL A   1      47.325  27.485  34.499  1.00  0.00     0.010 A 
ATOM     63  C   UNL A   1      46.776  25.751  36.625  1.00  0.00     0.020 A 
ATOM     64  C   UNL A   1      48.373  26.996  35.275  1.00  0.00     0.020 A 
ATOM     65  C   UNL A   1      48.090  26.139  36.341  1.00  0.00     0.054 A 
BRANCH  65  66
ATOM     66  S   UNL A   1      49.437  25.463  37.345  1.00  0.00     0.124 S 
ATOM     67  O   UNL A   1      49.907  24.356  36.516  1.00  0.00    -0.237 OA
ATOM     68  O   UNL A   1      50.352  26.596  37.459  1.00  0.00    -0.237 OA
ATOM     69  O   UNL A   1      48.778  25.075  38.591  1.00  0.00    -0.744 OA
ENDBRANCH  65  66
ENDBRANCH  39  60
ENDBRANCH  13  14
ENDBRANCH   6   8
ENDBRANCH   5   6
ENDBRANCH   4   5
ENDBRANCH   3   4
ENDBRANCH   2   3
ENDBRANCH   1   2
BRANCH   1  70
ATOM     70  C   UNL A   1      33.050  28.600  23.445  1.00  0.00     0.188 C 
BRANCH  70  71
ATOM     71  O   UNL A   1      32.125  28.116  22.470  1.00  0.00    -0.376 OA
BRANCH  71  72
ATOM     72  C   UNL A   1      31.995  26.705  22.338  1.00  0.00     0.202 C 
BRANCH  72  73
ATOM     73  C   UNL A   1      33.107  25.946  21.603  1.00  0.00     0.261 C 
BRANCH  73  74
ATOM     74  O   UNL A   1      33.925  25.083  22.404  1.00  0.00    -0.460 OA
BRANCH  74  75
ATOM     75  C   UNL A   1      33.932  23.796  21.977  1.00  0.00     0.342 C 
ATOM     76  O   UNL A   1      33.531  23.363  20.909  1.00  0.00    -0.246 OA
BRANCH  75  77
ATOM     77  C   UNL A   1      34.459  22.924  23.030  1.00  0.00     0.103 A 
ATOM     78  C   UNL A   1      33.614  22.380  24.010  1.00  0.00     0.041 A 
ATOM     79  C   UNL A   1      35.846  22.807  23.132  1.00  0.00     0.130 A 
ATOM     80  C   UNL A   1      34.181  21.703  25.102  1.00  0.00     0.088 A 
ATOM     81  C   UNL A   1      36.399  22.147  24.214  1.00  0.00     0.048 A 
ATOM     82  C   UNL A   1      35.568  21.569  25.176  1.00  0.00     0.026 A 
BRANCH  79  83
ATOM     83  O   UNL A   1      36.664  23.336  22.175  1.00  0.00    -0.507 OA
ATOM     84  H   UNL A   1      36.497  23.164  21.269  1.00  0.00     0.293 HD
ENDBRANCH  79  83
BRANCH  80  85
ATOM     85  S   UNL A   1      33.103  21.162  26.424  1.00  0.00     0.261 S 
ATOM     86  O   UNL A   1      33.875  21.249  27.649  1.00  0.00    -0.201 OA
ATOM     87  O   UNL A   1      31.876  21.910  26.275  1.00  0.00    -0.201 OA
BRANCH  85  88
ATOM     88  N   UNL A   1      32.661  19.570  26.158  1.00  0.00    -0.280 N 
ATOM     89  H   UNL A   1      31.995  19.188  26.776  1.00  0.00     0.180 HD
BRANCH  88  90
ATOM     90  C   UNL A   1      33.146  18.712  25.133  1.00  0.00     0.050 A 
ATOM     91  C   UNL A   1      32.671  18.732  23.817  1.00  0.00     0.027 A 
ATOM     92  C   UNL A   1      34.090  17.750  25.505  1.00  0.00     0.047 A 
ATOM     93  C   UNL A   1      33.032  17.717  22.925  1.00  0.00     0.004 A 
ATOM     94  C   UNL A   1      34.469  16.757  24.600  1.00  0.00     0.043 A 
ATOM     95  C   UNL A   1      33.923  16.721  23.321  1.00  0.00     0.020 A 
ATOM     96  Cl  UNL A   1      35.556  15.521  25.101  1.00  0.00    -0.084 Cl
ENDBRANCH  88  90
ENDBRANCH  85  88
ENDBRANCH  80  85
ENDBRANCH  75  77
ENDBRANCH  74  75
ENDBRANCH  73  74
ENDBRANCH  72  73
ENDBRANCH  71  72
ENDBRANCH  70  71
ENDBRANCH   1  70
TORSDOF 24
ENDMDL
MODEL 2
REMARK VINA RESULT:      -9.7      2.554      3.670
REMARK SMILES O=C(OCCOCCOCCOC(=O)c1cc(S(=O)(=O)Nc2cccc(Cl)c2)ccc1O)c1ccc(-c2c3nc(c(-c4ccc(S(=O)(=O)[O-])cc4)c4ccc([nH]4)c(-c4ccc(S(=O)(=O)[O-])cc4)c4nc(c(-c5ccc(S(=O)(=O)[O-])cc5)c5ccc2[nH]5)C=C4)C=C3)cc1
REMARK SMILES IDX 7 1 6 2 5 3 4 4 3 5 2 6 1 7 33 8 34 9 92 10 35 11 91 12
REMARK SMILES IDX 36 13 37 14 38 15 85 16 39 17 90 18 84 19 86 20 40 21 89 22
REMARK SMILES IDX 83 23 82 24 41 26 71 27 52 28 70 29 53 30 56 31 69 32 87 33
REMARK SMILES IDX 54 34 55 35 68 37 88 38 57 39 42 40 43 41 51 42 44 43 50 44
REMARK SMILES IDX 45 45 46 46 47 47 48 48 49 49 72 50 73 51 81 52 74 53 80 54
REMARK SMILES IDX 75 55 76 56 77 57 78 58 79 59 58 60 59 61 67 62 60 63 66 64
REMARK SMILES IDX 61 65 62 66 63 67 64 68 65 69 8 70 9 71 10 72 11 73 12 74
REMARK SMILES IDX 13 75 14 76 15 77 16 78 31 79 17 80 30 81 29 82 32 83 18 85
REMARK SMILES IDX 19 86 20 87 21 88 22 90 23 91 28 92 24 93 26 94 25 95 27 96
REMARK H PARENT 86 25 56 36 32 84 21 89
REMARK Flexibility Score: inf
ROOT
ATOM      1  C   UNL A   1      33.715  29.491  27.225  1.00  0.00     0.188 C 
ENDROOT
BRANCH   1   2
ATOM      2  O   UNL A   1      33.627  30.919  27.293  1.00  0.00    -0.376 OA
BRANCH   2   3
ATOM      3  C   UNL A   1      32.330  31.430  26.975  1.00  0.00     0.202 C 
BRANCH   3   4
ATOM      4  C   UNL A   1      32.192  32.954  27.099  1.00  0.00     0.261 C 
BRANCH   4   5
ATOM      5  O   UNL A   1      32.555  33.442  28.400  1.00  0.00    -0.460 OA
BRANCH   5   6
ATOM      6  C   UNL A   1      33.551  34.311  28.716  1.00  0.00     0.338 C 
ATOM      7  O   UNL A   1      33.421  35.488  28.383  1.00  0.00    -0.246 OA
BRANCH   6   8
ATOM      8  C   UNL A   1      34.782  33.919  29.475  1.00  0.00     0.060 A 
ATOM      9  C   UNL A   1      36.075  34.350  29.180  1.00  0.00     0.016 A 
ATOM     10  C   UNL A   1      34.615  33.098  30.602  1.00  0.00     0.016 A 
ATOM     11  C   UNL A   1      37.180  33.895  29.891  1.00  0.00     0.010 A 
ATOM     12  C   UNL A   1      35.716  32.696  31.372  1.00  0.00     0.010 A 
ATOM     13  C   UNL A   1      37.014  33.075  31.003  1.00  0.00    -0.014 A 
BRANCH  13  14
ATOM     14  C   UNL A   1      38.206  32.568  31.715  1.00  0.00     0.031 A 
ATOM     15  C   UNL A   1      38.955  31.405  31.138  1.00  0.00     0.074 A 
ATOM     16  C   UNL A   1      38.694  33.208  32.797  1.00  0.00     0.049 A 
ATOM     17  N   UNL A   1      39.958  30.744  31.647  1.00  0.00    -0.248 NA
ATOM     18  C   UNL A   1      38.554  30.957  29.792  1.00  0.00     0.031 C 
ATOM     19  C   UNL A   1      38.202  34.482  33.320  1.00  0.00     0.029 A 
ATOM     20  N   UNL A   1      39.725  32.884  33.645  1.00  0.00    -0.354 N 
ATOM     21  C   UNL A   1      40.323  29.817  30.680  1.00  0.00     0.074 A 
ATOM     22  C   UNL A   1      39.409  29.969  29.570  1.00  0.00     0.031 C 
ATOM     23  C   UNL A   1      38.923  34.818  34.401  1.00  0.00     0.029 A 
ATOM     24  C   UNL A   1      39.828  33.733  34.723  1.00  0.00     0.049 A 
ATOM     25  H   UNL A   1      40.330  32.122  33.496  1.00  0.00     0.167 HD
ATOM     26  C   UNL A   1      41.345  28.934  30.715  1.00  0.00     0.031 A 
ATOM     27  C   UNL A   1      40.501  33.611  35.883  1.00  0.00     0.031 A 
ATOM     28  C   UNL A   1      42.242  28.798  31.829  1.00  0.00     0.049 A 
ATOM     29  C   UNL A   1      41.385  32.411  36.045  1.00  0.00     0.074 A 
ATOM     30  C   UNL A   1      43.314  27.938  31.974  1.00  0.00     0.029 A 
ATOM     31  N   UNL A   1      42.156  29.537  32.999  1.00  0.00    -0.354 N 
ATOM     32  N   UNL A   1      41.706  31.518  35.142  1.00  0.00    -0.248 NA
ATOM     33  C   UNL A   1      41.995  32.197  37.362  1.00  0.00     0.031 C 
ATOM     34  C   UNL A   1      43.834  28.110  33.262  1.00  0.00     0.029 A 
ATOM     35  C   UNL A   1      43.116  29.111  33.898  1.00  0.00     0.049 A 
ATOM     36  H   UNL A   1      41.507  30.258  33.166  1.00  0.00     0.167 HD
ATOM     37  C   UNL A   1      42.609  30.669  35.762  1.00  0.00     0.074 A 
ATOM     38  C   UNL A   1      42.763  31.143  37.124  1.00  0.00     0.031 C 
ATOM     39  C   UNL A   1      43.268  29.610  35.240  1.00  0.00     0.031 A 
BRANCH  26  40
ATOM     40  C   UNL A   1      41.513  28.021  29.537  1.00  0.00    -0.014 A 
ATOM     41  C   UNL A   1      42.446  28.299  28.523  1.00  0.00     0.010 A 
ATOM     42  C   UNL A   1      40.746  26.844  29.466  1.00  0.00     0.010 A 
ATOM     43  C   UNL A   1      42.596  27.421  27.446  1.00  0.00     0.020 A 
ATOM     44  C   UNL A   1      40.905  25.957  28.400  1.00  0.00     0.020 A 
ATOM     45  C   UNL A   1      41.824  26.255  27.392  1.00  0.00     0.054 A 
BRANCH  45  46
ATOM     46  S   UNL A   1      42.069  25.113  26.005  1.00  0.00     0.124 S 
ATOM     47  O   UNL A   1      43.524  25.110  25.869  1.00  0.00    -0.237 OA
ATOM     48  O   UNL A   1      41.483  23.872  26.505  1.00  0.00    -0.237 OA
ATOM     49  O   UNL A   1      41.343  25.743  24.904  1.00  0.00    -0.744 OA
ENDBRANCH  45  46
ENDBRANCH  26  40
BRANCH  27  50
ATOM     50  C   UNL A   1      40.228  34.526  37.029  1.00  0.00    -0.014 A 
ATOM     51  C   UNL A   1      39.139  34.355  37.899  1.00  0.00     0.010 A 
ATOM     52  C   UNL A   1      41.046  35.660  37.193  1.00  0.00     0.010 A 
ATOM     53  C   UNL A   1      38.860  35.316  38.883  1.00  0.00     0.020 A 
ATOM     54  C   UNL A   1      40.794  36.603  38.187  1.00  0.00     0.020 A 
ATOM     55  C   UNL A   1      39.690  36.436  39.016  1.00  0.00     0.054 A 
BRANCH  55  56
ATOM     56  S   UNL A   1      39.302  37.684  40.274  1.00  0.00     0.124 S 
ATOM     57  O   UNL A   1      38.243  38.452  39.628  1.00  0.00    -0.237 OA
ATOM     58  O   UNL A   1      38.897  36.858  41.406  1.00  0.00    -0.237 OA
ATOM     59  O   UNL A   1      40.571  38.391  40.446  1.00  0.00    -0.744 OA
ENDBRANCH  55  56
ENDBRANCH  27  50
BRANCH  39  60
ATOM     60  C   UNL A   1      44.282  28.946  36.119  1.00  0.00    -0.014 A 
ATOM     61  C   UNL A   1      43.945  27.834  36.907  1.00  0.00     0.010 A 
ATOM     62  C   UNL A   1      45.604  29.425  36.116  1.00  0.00     0.010 A 
ATOM     63  C   UNL A   1      44.919  27.219  37.695  1.00  0.00     0.020 A 
ATOM     64  C   UNL A   1      46.584  28.797  36.881  1.00  0.00     0.020 A 
ATOM     65  C   UNL A   1      46.232  27.702  37.674  1.00  0.00     0.054 A 
BRANCH  65  66
ATOM     66  S   UNL A   1      47.493  26.846  38.652  1.00  0.00     0.124 S 
ATOM     67  O   UNL A   1      47.421  25.489  38.117  1.00  0.00    -0.237 OA
ATOM     68  O   UNL A   1      48.709  27.587  38.327  1.00  0.00    -0.237 OA
ATOM     69  O   UNL A   1      47.026  27.001  40.028  1.00  0.00    -0.744 OA
ENDBRANCH  65  66
ENDBRANCH  39  60
ENDBRANCH  13  14
ENDBRANCH   6   8
ENDBRANCH   5   6
ENDBRANCH   4   5
ENDBRANCH   3   4
ENDBRANCH   2   3
ENDBRANCH   1   2
BRANCH   1  70
ATOM     70  C   UNL A   1      33.994  29.020  25.796  1.00  0.00     0.188 C 
BRANCH  70  71
ATOM     71  O   UNL A   1      33.031  28.119  25.247  1.00  0.00    -0.376 OA
BRANCH  71  72
ATOM     72  C   UNL A   1      31.846  27.890  26.001  1.00  0.00     0.202 C 
BRANCH  72  73
ATOM     73  C   UNL A   1      31.563  26.461  26.478  1.00  0.00     0.261 C 
BRANCH  73  74
ATOM     74  O   UNL A   1      30.427  25.808  25.895  1.00  0.00    -0.460 OA
BRANCH  74  75
ATOM     75  C   UNL A   1      30.417  25.849  24.540  1.00  0.00     0.342 C 
ATOM     76  O   UNL A   1      29.715  26.541  23.821  1.00  0.00    -0.246 OA
BRANCH  75  77
ATOM     77  C   UNL A   1      31.364  24.867  24.004  1.00  0.00     0.103 A 
ATOM     78  C   UNL A   1      31.409  23.556  24.504  1.00  0.00     0.041 A 
ATOM     79  C   UNL A   1      32.337  25.332  23.118  1.00  0.00     0.130 A 
ATOM     80  C   UNL A   1      32.447  22.704  24.096  1.00  0.00     0.088 A 
ATOM     81  C   UNL A   1      33.362  24.490  22.725  1.00  0.00     0.048 A 
ATOM     82  C   UNL A   1      33.396  23.173  23.187  1.00  0.00     0.026 A 
BRANCH  79  83
ATOM     83  O   UNL A   1      32.288  26.607  22.632  1.00  0.00    -0.507 OA
ATOM     84  H   UNL A   1      32.802  26.844  21.885  1.00  0.00     0.293 HD
ENDBRANCH  79  83
BRANCH  80  85
ATOM     85  S   UNL A   1      32.585  21.096  24.867  1.00  0.00     0.261 S 
ATOM     86  O   UNL A   1      31.369  20.899  25.633  1.00  0.00    -0.201 OA
ATOM     87  O   UNL A   1      32.948  20.173  23.816  1.00  0.00    -0.201 OA
BRANCH  85  88
ATOM     88  N   UNL A   1      33.900  21.092  25.904  1.00  0.00    -0.280 N 
ATOM     89  H   UNL A   1      33.710  20.932  26.857  1.00  0.00     0.180 HD
BRANCH  88  90
ATOM     90  C   UNL A   1      35.262  21.293  25.549  1.00  0.00     0.050 A 
ATOM     91  C   UNL A   1      36.062  20.310  24.957  1.00  0.00     0.027 A 
ATOM     92  C   UNL A   1      35.833  22.522  25.896  1.00  0.00     0.047 A 
ATOM     93  C   UNL A   1      37.443  20.503  24.843  1.00  0.00     0.004 A 
ATOM     94  C   UNL A   1      37.206  22.720  25.751  1.00  0.00     0.043 A 
ATOM     95  C   UNL A   1      38.018  21.705  25.251  1.00  0.00     0.020 A 
ATOM     96  Cl  UNL A   1      37.912  24.199  26.274  1.00  0.00    -0.084 Cl
ENDBRANCH  88  90
ENDBRANCH  85  88
ENDBRANCH  80  85
ENDBRANCH  75  77
ENDBRANCH  74  75
ENDBRANCH  73  74
ENDBRANCH  72  73
ENDBRANCH  71  72
ENDBRANCH  70  71
ENDBRANCH   1  70
TORSDOF 24
ENDMDL
MODEL 3
REMARK VINA RESULT:      -9.3      1.181      8.048
REMARK SMILES O=C(OCCOCCOCCOC(=O)c1cc(S(=O)(=O)Nc2cccc(Cl)c2)ccc1O)c1ccc(-c2c3nc(c(-c4ccc(S(=O)(=O)[O-])cc4)c4ccc([nH]4)c(-c4ccc(S(=O)(=O)[O-])cc4)c4nc(c(-c5ccc(S(=O)(=O)[O-])cc5)c5ccc2[nH]5)C=C4)C=C3)cc1
REMARK SMILES IDX 7 1 6 2 5 3 4 4 3 5 2 6 1 7 33 8 34 9 92 10 35 11 91 12
REMARK SMILES IDX 36 13 37 14 38 15 85 16 39 17 90 18 84 19 86 20 40 21 89 22
REMARK SMILES IDX 83 23 82 24 41 26 71 27 52 28 70 29 53 30 56 31 69 32 87 33
REMARK SMILES IDX 54 34 55 35 68 37 88 38 57 39 42 40 43 41 51 42 44 43 50 44
REMARK SMILES IDX 45 45 46 46 47 47 48 48 49 49 72 50 73 51 81 52 74 53 80 54
REMARK SMILES IDX 75 55 76 56 77 57 78 58 79 59 58 60 59 61 67 62 60 63 66 64
REMARK SMILES IDX 61 65 62 66 63 67 64 68 65 69 8 70 9 71 10 72 11 73 12 74
REMARK SMILES IDX 13 75 14 76 15 77 16 78 31 79 17 80 30 81 29 82 32 83 18 85
REMARK SMILES IDX 19 86 20 87 21 88 22 90 23 91 28 92 24 93 26 94 25 95 27 96
REMARK H PARENT 86 25 56 36 32 84 21 89
REMARK Flexibility Score: inf
ROOT
ATOM      1  C   UNL A   1      33.756  27.794  24.509  1.00  0.00     0.188 C 
ENDROOT
BRANCH   1   2
ATOM      2  O   UNL A   1      33.606  28.637  25.656  1.00  0.00    -0.376 OA
BRANCH   2   3
ATOM      3  C   UNL A   1      32.339  29.297  25.723  1.00  0.00     0.202 C 
BRANCH   3   4
ATOM      4  C   UNL A   1      32.315  30.555  26.604  1.00  0.00     0.261 C 
BRANCH   4   5
ATOM      5  O   UNL A   1      33.353  30.559  27.597  1.00  0.00    -0.460 OA
BRANCH   5   6
ATOM      6  C   UNL A   1      34.374  31.446  27.732  1.00  0.00     0.338 C 
ATOM      7  O   UNL A   1      34.236  32.568  27.247  1.00  0.00    -0.246 OA
BRANCH   6   8
ATOM      8  C   UNL A   1      35.643  31.140  28.466  1.00  0.00     0.060 A 
ATOM      9  C   UNL A   1      36.811  31.899  28.395  1.00  0.00     0.016 A 
ATOM     10  C   UNL A   1      35.642  30.036  29.334  1.00  0.00     0.016 A 
ATOM     11  C   UNL A   1      37.974  31.520  29.057  1.00  0.00     0.010 A 
ATOM     12  C   UNL A   1      36.787  29.691  30.066  1.00  0.00     0.010 A 
ATOM     13  C   UNL A   1      37.973  30.422  29.911  1.00  0.00    -0.014 A 
BRANCH  13  14
ATOM     14  C   UNL A   1      39.232  30.012  30.568  1.00  0.00     0.031 A 
ATOM     15  C   UNL A   1      39.683  30.748  31.794  1.00  0.00     0.074 A 
ATOM     16  C   UNL A   1      39.908  28.922  30.155  1.00  0.00     0.049 A 
ATOM     17  N   UNL A   1      40.797  30.619  32.461  1.00  0.00    -0.248 NA
ATOM     18  C   UNL A   1      38.738  31.719  32.371  1.00  0.00     0.031 C 
ATOM     19  C   UNL A   1      39.455  27.982  29.129  1.00  0.00     0.029 A 
ATOM     20  N   UNL A   1      41.115  28.404  30.560  1.00  0.00    -0.354 N 
ATOM     21  C   UNL A   1      40.681  31.477  33.547  1.00  0.00     0.074 A 
ATOM     22  C   UNL A   1      39.408  32.152  33.429  1.00  0.00     0.031 C 
ATOM     23  C   UNL A   1      40.378  27.019  28.981  1.00  0.00     0.029 A 
ATOM     24  C   UNL A   1      41.534  27.340  29.794  1.00  0.00     0.049 A 
ATOM     25  H   UNL A   1      41.629  28.759  31.320  1.00  0.00     0.167 HD
ATOM     26  C   UNL A   1      41.556  31.662  34.560  1.00  0.00     0.031 A 
ATOM     27  C   UNL A   1      42.738  26.747  29.688  1.00  0.00     0.031 A 
ATOM     28  C   UNL A   1      42.816  30.980  34.658  1.00  0.00     0.049 A 
ATOM     29  C   UNL A   1      43.823  27.220  30.607  1.00  0.00     0.074 A 
ATOM     30  C   UNL A   1      43.782  31.089  35.640  1.00  0.00     0.029 A 
ATOM     31  N   UNL A   1      43.292  30.073  33.723  1.00  0.00    -0.354 N 
ATOM     32  N   UNL A   1      43.722  28.052  31.615  1.00  0.00    -0.248 NA
ATOM     33  C   UNL A   1      45.172  26.685  30.388  1.00  0.00     0.031 C 
ATOM     34  C   UNL A   1      44.872  30.297  35.263  1.00  0.00     0.029 A 
ATOM     35  C   UNL A   1      44.563  29.660  34.071  1.00  0.00     0.049 A 
ATOM     36  H   UNL A   1      42.796  29.769  32.929  1.00  0.00     0.167 HD
ATOM     37  C   UNL A   1      44.981  28.093  32.192  1.00  0.00     0.074 A 
ATOM     38  C   UNL A   1      45.831  27.219  31.407  1.00  0.00     0.031 C 
ATOM     39  C   UNL A   1      45.385  28.774  33.289  1.00  0.00     0.031 A 
BRANCH  26  40
ATOM     40  C   UNL A   1      41.197  32.672  35.610  1.00  0.00    -0.014 A 
ATOM     41  C   UNL A   1      40.515  32.299  36.781  1.00  0.00     0.010 A 
ATOM     42  C   UNL A   1      41.583  34.012  35.434  1.00  0.00     0.010 A 
ATOM     43  C   UNL A   1      40.210  33.256  37.752  1.00  0.00     0.020 A 
ATOM     44  C   UNL A   1      41.294  34.968  36.410  1.00  0.00     0.020 A 
ATOM     45  C   UNL A   1      40.602  34.585  37.560  1.00  0.00     0.054 A 
BRANCH  45  46
ATOM     46  S   UNL A   1      40.231  35.798  38.855  1.00  0.00     0.124 S 
ATOM     47  O   UNL A   1      41.474  35.810  39.624  1.00  0.00    -0.237 OA
ATOM     48  O   UNL A   1      39.956  37.010  38.088  1.00  0.00    -0.237 OA
ATOM     49  O   UNL A   1      39.078  35.226  39.547  1.00  0.00    -0.744 OA
ENDBRANCH  45  46
ENDBRANCH  26  40
BRANCH  27  50
ATOM     50  C   UNL A   1      43.032  25.799  28.574  1.00  0.00    -0.014 A 
ATOM     51  C   UNL A   1      42.890  24.408  28.699  1.00  0.00     0.010 A 
ATOM     52  C   UNL A   1      43.557  26.316  27.374  1.00  0.00     0.010 A 
ATOM     53  C   UNL A   1      43.299  23.558  27.660  1.00  0.00     0.020 A 
ATOM     54  C   UNL A   1      43.937  25.480  26.326  1.00  0.00     0.020 A 
ATOM     55  C   UNL A   1      43.823  24.102  26.481  1.00  0.00     0.054 A 
BRANCH  55  56
ATOM     56  S   UNL A   1      44.373  22.992  25.157  1.00  0.00     0.124 S 
ATOM     57  O   UNL A   1      45.395  22.196  25.828  1.00  0.00    -0.237 OA
ATOM     58  O   UNL A   1      43.138  22.294  24.815  1.00  0.00    -0.237 OA
ATOM     59  O   UNL A   1      44.869  23.911  24.133  1.00  0.00    -0.744 OA
ENDBRANCH  55  56
ENDBRANCH  27  50
BRANCH  39  60
ATOM     60  C   UNL A   1      46.787  28.530  33.754  1.00  0.00    -0.014 A 
ATOM     61  C   UNL A   1      47.845  29.354  33.339  1.00  0.00     0.010 A 
ATOM     62  C   UNL A   1      47.032  27.482  34.659  1.00  0.00     0.010 A 
ATOM     63  C   UNL A   1      49.137  29.120  33.812  1.00  0.00     0.020 A 
ATOM     64  C   UNL A   1      48.316  27.263  35.154  1.00  0.00     0.020 A 
ATOM     65  C   UNL A   1      49.362  28.079  34.719  1.00  0.00     0.054 A 
BRANCH  65  66
ATOM     66  S   UNL A   1      51.034  27.837  35.372  1.00  0.00     0.124 S 
ATOM     67  O   UNL A   1      51.862  28.327  34.274  1.00  0.00    -0.237 OA
ATOM     68  O   UNL A   1      51.032  28.664  36.576  1.00  0.00    -0.237 OA
ATOM     69  O   UNL A   1      51.105  26.397  35.614  1.00  0.00    -0.744 OA
ENDBRANCH  65  66
ENDBRANCH  39  60
ENDBRANCH  13  14
ENDBRANCH   6   8
ENDBRANCH   5   6
ENDBRANCH   4   5
ENDBRANCH   3   4
ENDBRANCH   2   3
ENDBRANCH   1   2
BRANCH   1  70
ATOM     70  C   UNL A   1      33.807  28.615  23.220  1.00  0.00     0.188 C 
BRANCH  70  71
ATOM     71  O   UNL A   1      33.050  28.093  22.127  1.00  0.00    -0.376 OA
BRANCH  71  72
ATOM     72  C   UNL A   1      32.319  26.893  22.353  1.00  0.00     0.202 C 
BRANCH  72  73
ATOM     73  C   UNL A   1      32.855  25.598  21.732  1.00  0.00     0.261 C 
BRANCH  73  74
ATOM     74  O   UNL A   1      33.709  24.800  22.562  1.00  0.00    -0.460 OA
BRANCH  74  75
ATOM     75  C   UNL A   1      33.952  23.564  22.059  1.00  0.00     0.342 C 
ATOM     76  O   UNL A   1      33.742  23.168  20.923  1.00  0.00    -0.246 OA
BRANCH  75  77
ATOM     77  C   UNL A   1      34.476  22.691  23.112  1.00  0.00     0.103 A 
ATOM     78  C   UNL A   1      33.630  22.156  24.097  1.00  0.00     0.041 A 
ATOM     79  C   UNL A   1      35.862  22.562  23.207  1.00  0.00     0.130 A 
ATOM     80  C   UNL A   1      34.196  21.477  25.188  1.00  0.00     0.088 A 
ATOM     81  C   UNL A   1      36.414  21.899  24.289  1.00  0.00     0.048 A 
ATOM     82  C   UNL A   1      35.583  21.331  25.256  1.00  0.00     0.026 A 
BRANCH  79  83
ATOM     83  O   UNL A   1      36.680  23.082  22.246  1.00  0.00    -0.507 OA
ATOM     84  H   UNL A   1      36.837  24.005  22.213  1.00  0.00     0.293 HD
ENDBRANCH  79  83
BRANCH  80  85
ATOM     85  S   UNL A   1      33.121  20.949  26.516  1.00  0.00     0.261 S 
ATOM     86  O   UNL A   1      33.811  21.256  27.755  1.00  0.00    -0.201 OA
ATOM     87  O   UNL A   1      31.824  21.523  26.237  1.00  0.00    -0.201 OA
BRANCH  85  88
ATOM     88  N   UNL A   1      32.882  19.296  26.408  1.00  0.00    -0.280 N 
ATOM     89  H   UNL A   1      32.491  18.854  27.197  1.00  0.00     0.180 HD
BRANCH  88  90
ATOM     90  C   UNL A   1      33.184  18.464  25.295  1.00  0.00     0.050 A 
ATOM     91  C   UNL A   1      34.190  17.492  25.305  1.00  0.00     0.027 A 
ATOM     92  C   UNL A   1      32.478  18.706  24.113  1.00  0.00     0.047 A 
ATOM     93  C   UNL A   1      34.578  16.871  24.114  1.00  0.00     0.004 A 
ATOM     94  C   UNL A   1      32.850  18.060  22.933  1.00  0.00     0.043 A 
ATOM     95  C   UNL A   1      33.915  17.164  22.923  1.00  0.00     0.020 A 
ATOM     96  Cl  UNL A   1      32.039  18.441  21.464  1.00  0.00    -0.084 Cl
ENDBRANCH  88  90
ENDBRANCH  85  88
ENDBRANCH  80  85
ENDBRANCH  75  77
ENDBRANCH  74  75
ENDBRANCH  73  74
ENDBRANCH  72  73
ENDBRANCH  71  72
ENDBRANCH  70  71
ENDBRANCH   1  70
TORSDOF 24
ENDMDL
