MODEL 1
REMARK VINA RESULT:      -7.1      0.000      0.000
REMARK SMILES CC(C)N(c1cc2c(cc1Cl)C=C(C(=O)OCCOCCOCCOC(=O)c1ccc(-c3c4nc(c(-c5ccc(S(=O)(=O)[O-])cc5)c5ccc([nH]5)c(-c5ccc(S(=O)(=O)[O-])cc5)c5nc(c(-c6ccc(S(=O)(=O)[O-])cc6)c6ccc3[nH]6)C=C5)C=C4)cc1)[C@@H](C(F)(F)F)O2)C(C)C
REMARK SMILES IDX 21 1 20 2 19 3 18 4 17 5 16 6 14 7 15 8 13 9 5 10 6 11 10 12
REMARK SMILES IDX 7 13 9 14 11 15 8 16 93 17 12 18 88 19 4 20 2 21 1 22 3 23
REMARK SMILES IDX 94 24 95 25 96 26 89 27 90 28 91 29 92 30 22 31 23 32 24 33
REMARK SMILES IDX 25 34 26 35 27 36 28 37 29 38 87 39 30 40 86 41 31 42 32 43
REMARK SMILES IDX 33 44 80 45 34 46 85 47 79 48 81 49 35 50 84 51 78 52 77 53
REMARK SMILES IDX 36 55 66 56 47 57 65 58 48 59 51 60 64 61 82 62 49 63 50 64
REMARK SMILES IDX 63 66 83 67 52 68 37 69 38 70 46 71 39 72 45 73 40 74 41 75
REMARK SMILES IDX 42 76 43 77 44 78 67 79 68 80 76 81 69 82 75 83 70 84 71 85
REMARK SMILES IDX 72 86 73 87 74 88 53 89 54 90 62 91 55 92 61 93 56 94 57 95
REMARK SMILES IDX 58 96 59 97 60 98
REMARK H PARENT 81 54 51 65
REMARK Flexibility Score: inf
ROOT
ATOM      1  C   UNL A   1      48.702  27.059  23.607  1.00  0.00     0.188 C 
ENDROOT
BRANCH   1   2
ATOM      2  C   UNL A   1      47.289  27.188  24.215  1.00  0.00     0.188 C 
BRANCH   2   3
ATOM      3  O   UNL A   1      46.731  25.935  24.565  1.00  0.00    -0.376 OA
BRANCH   3   4
ATOM      4  C   UNL A   1      45.484  25.934  25.236  1.00  0.00     0.202 C 
BRANCH   4   5
ATOM      5  C   UNL A   1      44.871  27.285  25.634  1.00  0.00     0.261 C 
BRANCH   5   6
ATOM      6  O   UNL A   1      43.590  27.229  26.281  1.00  0.00    -0.460 OA
BRANCH   6   7
ATOM      7  C   UNL A   1      42.625  28.044  25.804  1.00  0.00     0.338 C 
ATOM      8  O   UNL A   1      42.325  28.198  24.633  1.00  0.00    -0.246 OA
BRANCH   7   9
ATOM      9  C   UNL A   1      41.902  28.648  26.945  1.00  0.00     0.087 C 
ATOM     10  C   UNL A   1      38.371  30.578  30.026  1.00  0.00     0.060 A 
ATOM     11  C   UNL A   1      39.784  30.530  30.017  1.00  0.00     0.074 A 
ATOM     12  C   UNL A   1      37.716  29.820  29.027  1.00  0.00     0.065 A 
ATOM     13  C   UNL A   1      40.508  29.840  29.033  1.00  0.00     0.130 A 
ATOM     14  C   UNL A   1      38.441  29.103  28.062  1.00  0.00     0.034 A 
ATOM     15  Cl  UNL A   1      35.998  29.797  28.812  1.00  0.00    -0.082 Cl
ATOM     16  C   UNL A   1      39.834  29.141  28.039  1.00  0.00     0.019 A 
ATOM     17  O   UNL A   1      41.870  29.924  29.105  1.00  0.00    -0.475 OA
ATOM     18  C   UNL A   1      40.569  28.517  26.953  1.00  0.00     0.027 C 
ATOM     19  C   UNL A   1      42.675  29.352  28.032  1.00  0.00     0.316 C 
BRANCH  10  20
ATOM     20  N   UNL A   1      37.722  31.402  30.973  1.00  0.00    -0.365 N 
BRANCH  20  21
ATOM     21  C   UNL A   1      37.221  32.724  30.528  1.00  0.00     0.076 C 
ATOM     22  C   UNL A   1      38.035  33.302  29.371  1.00  0.00     0.030 C 
ATOM     23  C   UNL A   1      35.732  32.735  30.179  1.00  0.00     0.030 C 
ENDBRANCH  20  21
BRANCH  20  24
ATOM     24  C   UNL A   1      37.646  30.863  32.352  1.00  0.00     0.076 C 
ATOM     25  C   UNL A   1      36.698  31.651  33.252  1.00  0.00     0.030 C 
ATOM     26  C   UNL A   1      37.346  29.368  32.399  1.00  0.00     0.030 C 
ENDBRANCH  20  24
ENDBRANCH  10  20
BRANCH  19  27
ATOM     27  C   UNL A   1      43.592  30.451  27.475  1.00  0.00     0.430 C 
ATOM     28  F   UNL A   1      44.885  30.042  27.433  1.00  0.00    -0.167 F 
ATOM     29  F   UNL A   1      43.261  30.793  26.206  1.00  0.00    -0.167 F 
ATOM     30  F   UNL A   1      43.551  31.578  28.219  1.00  0.00    -0.167 F 
ENDBRANCH  19  27
ENDBRANCH   7   9
ENDBRANCH   6   7
ENDBRANCH   5   6
ENDBRANCH   4   5
ENDBRANCH   3   4
ENDBRANCH   2   3
ENDBRANCH   1   2
BRANCH   1  31
ATOM     31  O   UNL A   1      49.703  28.012  23.951  1.00  0.00    -0.376 OA
BRANCH  31  32
ATOM     32  C   UNL A   1      51.059  27.746  23.603  1.00  0.00     0.202 C 
BRANCH  32  33
ATOM     33  C   UNL A   1      51.918  26.920  24.570  1.00  0.00     0.261 C 
BRANCH  33  34
ATOM     34  O   UNL A   1      52.252  27.595  25.792  1.00  0.00    -0.460 OA
BRANCH  34  35
ATOM     35  C   UNL A   1      52.105  26.862  26.925  1.00  0.00     0.338 C 
ATOM     36  O   UNL A   1      52.882  26.036  27.375  1.00  0.00    -0.246 OA
BRANCH  35  37
ATOM     37  C   UNL A   1      50.933  27.360  27.676  1.00  0.00     0.060 A 
ATOM     38  C   UNL A   1      49.632  27.087  27.251  1.00  0.00     0.016 A 
ATOM     39  C   UNL A   1      51.157  28.115  28.837  1.00  0.00     0.016 A 
ATOM     40  C   UNL A   1      48.552  27.557  28.006  1.00  0.00     0.010 A 
ATOM     41  C   UNL A   1      50.078  28.598  29.576  1.00  0.00     0.010 A 
ATOM     42  C   UNL A   1      48.767  28.308  29.175  1.00  0.00    -0.014 A 
BRANCH  42  43
ATOM     43  C   UNL A   1      47.626  28.661  30.053  1.00  0.00     0.031 A 
ATOM     44  C   UNL A   1      47.025  27.666  31.000  1.00  0.00     0.074 A 
ATOM     45  C   UNL A   1      47.133  29.913  29.984  1.00  0.00     0.049 A 
ATOM     46  N   UNL A   1      46.094  27.857  31.899  1.00  0.00    -0.248 NA
ATOM     47  C   UNL A   1      47.528  26.286  30.936  1.00  0.00     0.031 C 
ATOM     48  C   UNL A   1      47.634  30.956  29.087  1.00  0.00     0.029 A 
ATOM     49  N   UNL A   1      46.123  30.525  30.680  1.00  0.00    -0.354 N 
ATOM     50  C   UNL A   1      45.919  26.634  32.532  1.00  0.00     0.074 A 
ATOM     51  C   UNL A   1      46.805  25.692  31.879  1.00  0.00     0.031 C 
ATOM     52  C   UNL A   1      46.950  32.088  29.310  1.00  0.00     0.029 A 
ATOM     53  C   UNL A   1      45.947  31.847  30.345  1.00  0.00     0.049 A 
ATOM     54  H   UNL A   1      45.575  30.061  31.355  1.00  0.00     0.167 HD
ATOM     55  C   UNL A   1      45.110  26.339  33.577  1.00  0.00     0.031 A 
ATOM     56  C   UNL A   1      45.090  32.770  30.823  1.00  0.00     0.031 A 
ATOM     57  C   UNL A   1      44.214  27.282  34.201  1.00  0.00     0.049 A 
ATOM     58  C   UNL A   1      44.158  32.399  31.943  1.00  0.00     0.074 A 
ATOM     59  C   UNL A   1      43.378  27.076  35.285  1.00  0.00     0.029 A 
ATOM     60  N   UNL A   1      44.027  28.596  33.800  1.00  0.00    -0.354 N 
ATOM     61  N   UNL A   1      44.059  31.258  32.581  1.00  0.00    -0.248 NA
ATOM     62  C   UNL A   1      43.237  33.439  32.422  1.00  0.00     0.031 C 
ATOM     63  C   UNL A   1      42.637  28.240  35.495  1.00  0.00     0.029 A 
ATOM     64  C   UNL A   1      43.066  29.200  34.593  1.00  0.00     0.049 A 
ATOM     65  H   UNL A   1      44.507  29.034  33.060  1.00  0.00     0.167 HD
ATOM     66  C   UNL A   1      43.083  31.449  33.552  1.00  0.00     0.074 A 
ATOM     67  C   UNL A   1      42.629  32.818  33.425  1.00  0.00     0.031 C 
ATOM     68  C   UNL A   1      42.615  30.566  34.467  1.00  0.00     0.031 A 
BRANCH  55  69
ATOM     69  C   UNL A   1      45.157  24.947  34.153  1.00  0.00    -0.014 A 
ATOM     70  C   UNL A   1      46.048  24.644  35.201  1.00  0.00     0.010 A 
ATOM     71  C   UNL A   1      44.432  23.902  33.551  1.00  0.00     0.010 A 
ATOM     72  C   UNL A   1      46.243  23.321  35.608  1.00  0.00     0.020 A 
ATOM     73  C   UNL A   1      44.604  22.580  33.974  1.00  0.00     0.020 A 
ATOM     74  C   UNL A   1      45.528  22.296  34.983  1.00  0.00     0.054 A 
BRANCH  74  75
ATOM     75  S   UNL A   1      45.825  20.581  35.494  1.00  0.00     0.124 S 
ATOM     76  O   UNL A   1      46.037  20.718  36.932  1.00  0.00    -0.237 OA
ATOM     77  O   UNL A   1      44.587  19.912  35.098  1.00  0.00    -0.237 OA
ATOM     78  O   UNL A   1      47.004  20.194  34.722  1.00  0.00    -0.744 OA
ENDBRANCH  74  75
ENDBRANCH  55  69
BRANCH  56  79
ATOM     79  C   UNL A   1      45.137  34.150  30.270  1.00  0.00    -0.014 A 
ATOM     80  C   UNL A   1      44.265  34.534  29.234  1.00  0.00     0.010 A 
ATOM     81  C   UNL A   1      46.117  35.058  30.709  1.00  0.00     0.010 A 
ATOM     82  C   UNL A   1      44.408  35.774  28.608  1.00  0.00     0.020 A 
ATOM     83  C   UNL A   1      46.245  36.312  30.105  1.00  0.00     0.020 A 
ATOM     84  C   UNL A   1      45.408  36.649  29.038  1.00  0.00     0.054 A 
BRANCH  84  85
ATOM     85  S   UNL A   1      45.613  38.230  28.174  1.00  0.00     0.124 S 
ATOM     86  O   UNL A   1      44.992  37.948  26.882  1.00  0.00    -0.237 OA
ATOM     87  O   UNL A   1      44.884  39.161  29.032  1.00  0.00    -0.237 OA
ATOM     88  O   UNL A   1      47.061  38.419  28.144  1.00  0.00    -0.744 OA
ENDBRANCH  84  85
ENDBRANCH  56  79
BRANCH  68  89
ATOM     89  C   UNL A   1      41.548  31.023  35.429  1.00  0.00    -0.014 A 
ATOM     90  C   UNL A   1      40.195  30.751  35.147  1.00  0.00     0.010 A 
ATOM     91  C   UNL A   1      41.867  31.853  36.517  1.00  0.00     0.010 A 
ATOM     92  C   UNL A   1      39.180  31.343  35.902  1.00  0.00     0.020 A 
ATOM     93  C   UNL A   1      40.853  32.424  37.294  1.00  0.00     0.020 A 
ATOM     94  C   UNL A   1      39.516  32.191  36.961  1.00  0.00     0.054 A 
BRANCH  94  95
ATOM     95  S   UNL A   1      38.185  33.005  37.886  1.00  0.00     0.124 S 
ATOM     96  O   UNL A   1      38.687  34.370  38.011  1.00  0.00    -0.237 OA
ATOM     97  O   UNL A   1      37.032  32.836  37.006  1.00  0.00    -0.237 OA
ATOM     98  O   UNL A   1      38.121  32.247  39.135  1.00  0.00    -0.744 OA
ENDBRANCH  94  95
ENDBRANCH  68  89
ENDBRANCH  42  43
ENDBRANCH  35  37
ENDBRANCH  34  35
ENDBRANCH  33  34
ENDBRANCH  32  33
ENDBRANCH  31  32
ENDBRANCH   1  31
TORSDOF 24
ENDMDL
MODEL 2
REMARK VINA RESULT:      -6.8      4.178      7.215
REMARK SMILES CC(C)N(c1cc2c(cc1Cl)C=C(C(=O)OCCOCCOCCOC(=O)c1ccc(-c3c4nc(c(-c5ccc(S(=O)(=O)[O-])cc5)c5ccc([nH]5)c(-c5ccc(S(=O)(=O)[O-])cc5)c5nc(c(-c6ccc(S(=O)(=O)[O-])cc6)c6ccc3[nH]6)C=C5)C=C4)cc1)[C@@H](C(F)(F)F)O2)C(C)C
REMARK SMILES IDX 21 1 20 2 19 3 18 4 17 5 16 6 14 7 15 8 13 9 5 10 6 11 10 12
REMARK SMILES IDX 7 13 9 14 11 15 8 16 93 17 12 18 88 19 4 20 2 21 1 22 3 23
REMARK SMILES IDX 94 24 95 25 96 26 89 27 90 28 91 29 92 30 22 31 23 32 24 33
REMARK SMILES IDX 25 34 26 35 27 36 28 37 29 38 87 39 30 40 86 41 31 42 32 43
REMARK SMILES IDX 33 44 80 45 34 46 85 47 79 48 81 49 35 50 84 51 78 52 77 53
REMARK SMILES IDX 36 55 66 56 47 57 65 58 48 59 51 60 64 61 82 62 49 63 50 64
REMARK SMILES IDX 63 66 83 67 52 68 37 69 38 70 46 71 39 72 45 73 40 74 41 75
REMARK SMILES IDX 42 76 43 77 44 78 67 79 68 80 76 81 69 82 75 83 70 84 71 85
REMARK SMILES IDX 72 86 73 87 74 88 53 89 54 90 62 91 55 92 61 93 56 94 57 95
REMARK SMILES IDX 58 96 59 97 60 98
REMARK H PARENT 81 54 51 65
REMARK Flexibility Score: inf
ROOT
ATOM      1  C   UNL A   1      56.625  27.847  27.526  1.00  0.00     0.188 C 
ENDROOT
BRANCH   1   2
ATOM      2  C   UNL A   1      56.639  28.280  29.008  1.00  0.00     0.188 C 
BRANCH   2   3
ATOM      3  O   UNL A   1      55.458  27.909  29.693  1.00  0.00    -0.376 OA
BRANCH   3   4
ATOM      4  C   UNL A   1      54.269  27.780  28.935  1.00  0.00     0.202 C 
BRANCH   4   5
ATOM      5  C   UNL A   1      53.286  28.961  28.917  1.00  0.00     0.261 C 
BRANCH   5   6
ATOM      6  O   UNL A   1      51.943  28.669  29.332  1.00  0.00    -0.460 OA
BRANCH   6   7
ATOM      7  C   UNL A   1      51.593  29.042  30.582  1.00  0.00     0.338 C 
ATOM      8  O   UNL A   1      52.107  29.928  31.242  1.00  0.00    -0.246 OA
BRANCH   7   9
ATOM      9  C   UNL A   1      50.398  28.271  30.994  1.00  0.00     0.087 C 
ATOM     10  C   UNL A   1      45.777  26.863  32.526  1.00  0.00     0.060 A 
ATOM     11  C   UNL A   1      47.027  26.219  32.366  1.00  0.00     0.074 A 
ATOM     12  C   UNL A   1      45.696  28.191  32.047  1.00  0.00     0.065 A 
ATOM     13  C   UNL A   1      48.149  26.875  31.839  1.00  0.00     0.130 A 
ATOM     14  C   UNL A   1      46.811  28.836  31.488  1.00  0.00     0.034 A 
ATOM     15  Cl  UNL A   1      44.287  29.186  32.208  1.00  0.00    -0.082 Cl
ATOM     16  C   UNL A   1      48.047  28.195  31.417  1.00  0.00     0.019 A 
ATOM     17  O   UNL A   1      49.311  26.157  31.794  1.00  0.00    -0.475 OA
ATOM     18  C   UNL A   1      49.226  28.918  30.973  1.00  0.00     0.027 C 
ATOM     19  C   UNL A   1      50.545  26.824  31.393  1.00  0.00     0.316 C 
BRANCH  10  20
ATOM     20  N   UNL A   1      44.735  26.176  33.187  1.00  0.00    -0.365 N 
BRANCH  20  21
ATOM     21  C   UNL A   1      44.338  24.842  32.678  1.00  0.00     0.076 C 
ATOM     22  C   UNL A   1      44.405  24.752  31.153  1.00  0.00     0.030 C 
ATOM     23  C   UNL A   1      45.113  23.684  33.307  1.00  0.00     0.030 C 
ENDBRANCH  20  21
BRANCH  20  24
ATOM     24  C   UNL A   1      44.105  26.895  34.320  1.00  0.00     0.076 C 
ATOM     25  C   UNL A   1      42.581  26.892  34.260  1.00  0.00     0.030 C 
ATOM     26  C   UNL A   1      44.610  26.432  35.684  1.00  0.00     0.030 C 
ENDBRANCH  20  24
ENDBRANCH  10  20
BRANCH  19  27
ATOM     27  C   UNL A   1      51.586  26.629  32.506  1.00  0.00     0.430 C 
ATOM     28  F   UNL A   1      51.267  25.576  33.300  1.00  0.00    -0.167 F 
ATOM     29  F   UNL A   1      52.818  26.370  32.007  1.00  0.00    -0.167 F 
ATOM     30  F   UNL A   1      51.693  27.716  33.303  1.00  0.00    -0.167 F 
ENDBRANCH  19  27
ENDBRANCH   7   9
ENDBRANCH   6   7
ENDBRANCH   5   6
ENDBRANCH   4   5
ENDBRANCH   3   4
ENDBRANCH   2   3
ENDBRANCH   1   2
BRANCH   1  31
ATOM     31  O   UNL A   1      57.151  26.574  27.162  1.00  0.00    -0.376 OA
BRANCH  31  32
ATOM     32  C   UNL A   1      56.318  25.424  27.275  1.00  0.00     0.202 C 
BRANCH  32  33
ATOM     33  C   UNL A   1      55.416  25.050  26.091  1.00  0.00     0.261 C 
BRANCH  33  34
ATOM     34  O   UNL A   1      54.123  25.673  26.109  1.00  0.00    -0.460 OA
BRANCH  34  35
ATOM     35  C   UNL A   1      53.099  24.912  25.645  1.00  0.00     0.338 C 
ATOM     36  O   UNL A   1      53.170  23.793  25.166  1.00  0.00    -0.246 OA
BRANCH  35  37
ATOM     37  C   UNL A   1      51.817  25.561  25.994  1.00  0.00     0.060 A 
ATOM     38  C   UNL A   1      51.043  26.202  25.026  1.00  0.00     0.016 A 
ATOM     39  C   UNL A   1      51.388  25.512  27.328  1.00  0.00     0.016 A 
ATOM     40  C   UNL A   1      49.825  26.780  25.395  1.00  0.00     0.010 A 
ATOM     41  C   UNL A   1      50.182  26.107  27.697  1.00  0.00     0.010 A 
ATOM     42  C   UNL A   1      49.383  26.731  26.729  1.00  0.00    -0.014 A 
BRANCH  42  43
ATOM     43  C   UNL A   1      48.021  27.200  27.080  1.00  0.00     0.031 A 
ATOM     44  C   UNL A   1      46.831  26.291  27.004  1.00  0.00     0.074 A 
ATOM     45  C   UNL A   1      47.871  28.479  27.477  1.00  0.00     0.049 A 
ATOM     46  N   UNL A   1      45.599  26.529  27.374  1.00  0.00    -0.248 NA
ATOM     47  C   UNL A   1      47.045  24.949  26.445  1.00  0.00     0.031 C 
ATOM     48  C   UNL A   1      48.960  29.453  27.573  1.00  0.00     0.029 A 
ATOM     49  N   UNL A   1      46.762  29.174  27.884  1.00  0.00    -0.354 N 
ATOM     50  C   UNL A   1      44.894  25.360  27.126  1.00  0.00     0.074 A 
ATOM     51  C   UNL A   1      45.825  24.427  26.525  1.00  0.00     0.031 C 
ATOM     52  C   UNL A   1      48.469  30.611  28.042  1.00  0.00     0.029 A 
ATOM     53  C   UNL A   1      47.030  30.470  28.255  1.00  0.00     0.049 A 
ATOM     54  H   UNL A   1      45.859  28.782  27.908  1.00  0.00     0.167 HD
ATOM     55  C   UNL A   1      43.596  25.089  27.401  1.00  0.00     0.031 A 
ATOM     56  C   UNL A   1      46.220  31.437  28.730  1.00  0.00     0.031 A 
ATOM     57  C   UNL A   1      42.674  26.037  27.977  1.00  0.00     0.049 A 
ATOM     58  C   UNL A   1      44.768  31.128  28.969  1.00  0.00     0.074 A 
ATOM     59  C   UNL A   1      41.346  25.838  28.316  1.00  0.00     0.029 A 
ATOM     60  N   UNL A   1      42.971  27.355  28.290  1.00  0.00    -0.354 N 
ATOM     61  N   UNL A   1      44.134  29.993  28.800  1.00  0.00    -0.248 NA
ATOM     62  C   UNL A   1      43.925  32.219  29.478  1.00  0.00     0.031 C 
ATOM     63  C   UNL A   1      40.823  27.051  28.768  1.00  0.00     0.029 A 
ATOM     64  C   UNL A   1      41.843  27.988  28.786  1.00  0.00     0.049 A 
ATOM     65  H   UNL A   1      43.853  27.777  28.177  1.00  0.00     0.167 HD
ATOM     66  C   UNL A   1      42.825  30.224  29.204  1.00  0.00     0.074 A 
ATOM     67  C   UNL A   1      42.759  31.605  29.636  1.00  0.00     0.031 C 
ATOM     68  C   UNL A   1      41.779  29.364  29.218  1.00  0.00     0.031 A 
BRANCH  55  69
ATOM     69  C   UNL A   1      43.074  23.704  27.116  1.00  0.00    -0.014 A 
ATOM     70  C   UNL A   1      43.107  22.716  28.118  1.00  0.00     0.010 A 
ATOM     71  C   UNL A   1      42.698  23.339  25.811  1.00  0.00     0.010 A 
ATOM     72  C   UNL A   1      42.812  21.383  27.813  1.00  0.00     0.020 A 
ATOM     73  C   UNL A   1      42.376  22.013  25.507  1.00  0.00     0.020 A 
ATOM     74  C   UNL A   1      42.461  21.039  26.505  1.00  0.00     0.054 A 
BRANCH  74  75
ATOM     75  S   UNL A   1      42.123  19.299  26.116  1.00  0.00     0.124 S 
ATOM     76  O   UNL A   1      42.941  19.083  24.927  1.00  0.00    -0.237 OA
ATOM     77  O   UNL A   1      42.569  18.610  27.325  1.00  0.00    -0.237 OA
ATOM     78  O   UNL A   1      40.679  19.273  25.894  1.00  0.00    -0.744 OA
ENDBRANCH  74  75
ENDBRANCH  55  69
BRANCH  56  79
ATOM     79  C   UNL A   1      46.802  32.764  29.065  1.00  0.00    -0.014 A 
ATOM     80  C   UNL A   1      47.158  33.073  30.391  1.00  0.00     0.010 A 
ATOM     81  C   UNL A   1      46.913  33.760  28.078  1.00  0.00     0.010 A 
ATOM     82  C   UNL A   1      47.559  34.365  30.736  1.00  0.00     0.020 A 
ATOM     83  C   UNL A   1      47.343  35.047  28.414  1.00  0.00     0.020 A 
ATOM     84  C   UNL A   1      47.634  35.348  29.747  1.00  0.00     0.054 A 
BRANCH  84  85
ATOM     85  S   UNL A   1      48.101  37.034  30.227  1.00  0.00     0.124 S 
ATOM     86  O   UNL A   1      48.263  37.681  28.928  1.00  0.00    -0.237 OA
ATOM     87  O   UNL A   1      46.950  37.474  31.011  1.00  0.00    -0.237 OA
ATOM     88  O   UNL A   1      49.333  36.843  30.989  1.00  0.00    -0.744 OA
ENDBRANCH  84  85
ENDBRANCH  56  79
BRANCH  68  89
ATOM     89  C   UNL A   1      40.445  29.859  29.717  1.00  0.00    -0.014 A 
ATOM     90  C   UNL A   1      39.459  30.253  28.791  1.00  0.00     0.010 A 
ATOM     91  C   UNL A   1      40.227  30.087  31.087  1.00  0.00     0.010 A 
ATOM     92  C   UNL A   1      38.305  30.912  29.221  1.00  0.00     0.020 A 
ATOM     93  C   UNL A   1      39.059  30.722  31.523  1.00  0.00     0.020 A 
ATOM     94  C   UNL A   1      38.121  31.158  30.584  1.00  0.00     0.054 A 
BRANCH  94  95
ATOM     95  S   UNL A   1      36.650  32.077  31.116  1.00  0.00     0.124 S 
ATOM     96  O   UNL A   1      36.000  32.381  29.844  1.00  0.00    -0.237 OA
ATOM     97  O   UNL A   1      35.955  31.110  31.962  1.00  0.00    -0.237 OA
ATOM     98  O   UNL A   1      37.203  33.229  31.826  1.00  0.00    -0.744 OA
ENDBRANCH  94  95
ENDBRANCH  68  89
ENDBRANCH  42  43
ENDBRANCH  35  37
ENDBRANCH  34  35
ENDBRANCH  33  34
ENDBRANCH  32  33
ENDBRANCH  31  32
ENDBRANCH   1  31
TORSDOF 24
ENDMDL
MODEL 3
REMARK VINA RESULT:      -6.4      7.685     13.327
REMARK SMILES CC(C)N(c1cc2c(cc1Cl)C=C(C(=O)OCCOCCOCCOC(=O)c1ccc(-c3c4nc(c(-c5ccc(S(=O)(=O)[O-])cc5)c5ccc([nH]5)c(-c5ccc(S(=O)(=O)[O-])cc5)c5nc(c(-c6ccc(S(=O)(=O)[O-])cc6)c6ccc3[nH]6)C=C5)C=C4)cc1)[C@@H](C(F)(F)F)O2)C(C)C
REMARK SMILES IDX 21 1 20 2 19 3 18 4 17 5 16 6 14 7 15 8 13 9 5 10 6 11 10 12
REMARK SMILES IDX 7 13 9 14 11 15 8 16 93 17 12 18 88 19 4 20 2 21 1 22 3 23
REMARK SMILES IDX 94 24 95 25 96 26 89 27 90 28 91 29 92 30 22 31 23 32 24 33
REMARK SMILES IDX 25 34 26 35 27 36 28 37 29 38 87 39 30 40 86 41 31 42 32 43
REMARK SMILES IDX 33 44 80 45 34 46 85 47 79 48 81 49 35 50 84 51 78 52 77 53
REMARK SMILES IDX 36 55 66 56 47 57 65 58 48 59 51 60 64 61 82 62 49 63 50 64
REMARK SMILES IDX 63 66 83 67 52 68 37 69 38 70 46 71 39 72 45 73 40 74 41 75
REMARK SMILES IDX 42 76 43 77 44 78 67 79 68 80 76 81 69 82 75 83 70 84 71 85
REMARK SMILES IDX 72 86 73 87 74 88 53 89 54 90 62 91 55 92 61 93 56 94 57 95
REMARK SMILES IDX 58 96 59 97 60 98
REMARK H PARENT 81 54 51 65
REMARK Flexibility Score: inf
ROOT
ATOM      1  C   UNL A   1      43.505  41.007  29.085  1.00  0.00     0.188 C 
ENDROOT
BRANCH   1   2
ATOM      2  C   UNL A   1      43.978  41.614  27.747  1.00  0.00     0.188 C 
BRANCH   2   3
ATOM      3  O   UNL A   1      45.384  41.567  27.596  1.00  0.00    -0.376 OA
BRANCH   3   4
ATOM      4  C   UNL A   1      45.901  40.953  26.429  1.00  0.00     0.202 C 
BRANCH   4   5
ATOM      5  C   UNL A   1      45.005  40.890  25.182  1.00  0.00     0.261 C 
BRANCH   5   6
ATOM      6  O   UNL A   1      45.220  41.913  24.199  1.00  0.00    -0.460 OA
BRANCH   6   7
ATOM      7  C   UNL A   1      44.181  42.732  23.928  1.00  0.00     0.338 C 
ATOM      8  O   UNL A   1      43.247  42.983  24.669  1.00  0.00    -0.246 OA
BRANCH   7   9
ATOM      9  C   UNL A   1      44.409  43.376  22.614  1.00  0.00     0.087 C 
ATOM     10  C   UNL A   1      45.685  46.565  18.889  1.00  0.00     0.060 A 
ATOM     11  C   UNL A   1      44.919  45.380  18.983  1.00  0.00     0.074 A 
ATOM     12  C   UNL A   1      46.395  46.943  20.052  1.00  0.00     0.065 A 
ATOM     13  C   UNL A   1      44.798  44.656  20.179  1.00  0.00     0.130 A 
ATOM     14  C   UNL A   1      46.300  46.198  21.240  1.00  0.00     0.034 A 
ATOM     15  Cl  UNL A   1      47.332  48.393  20.178  1.00  0.00    -0.082 Cl
ATOM     16  C   UNL A   1      45.474  45.078  21.317  1.00  0.00     0.019 A 
ATOM     17  O   UNL A   1      43.979  43.562  20.150  1.00  0.00    -0.475 OA
ATOM     18  C   UNL A   1      45.269  44.401  22.586  1.00  0.00     0.027 C 
ATOM     19  C   UNL A   1      43.697  42.852  21.393  1.00  0.00     0.316 C 
BRANCH  10  20
ATOM     20  N   UNL A   1      45.649  47.307  17.687  1.00  0.00    -0.365 N 
BRANCH  20  21
ATOM     21  C   UNL A   1      46.715  47.075  16.685  1.00  0.00     0.076 C 
ATOM     22  C   UNL A   1      47.416  48.366  16.262  1.00  0.00     0.030 C 
ATOM     23  C   UNL A   1      47.749  46.032  17.112  1.00  0.00     0.030 C 
ENDBRANCH  20  21
BRANCH  20  24
ATOM     24  C   UNL A   1      44.546  48.291  17.570  1.00  0.00     0.076 C 
ATOM     25  C   UNL A   1      43.355  47.766  16.773  1.00  0.00     0.030 C 
ATOM     26  C   UNL A   1      44.108  48.869  18.913  1.00  0.00     0.030 C 
ENDBRANCH  20  24
ENDBRANCH  10  20
BRANCH  19  27
ATOM     27  C   UNL A   1      42.174  42.799  21.586  1.00  0.00     0.430 C 
ATOM     28  F   UNL A   1      41.800  41.682  22.259  1.00  0.00    -0.167 F 
ATOM     29  F   UNL A   1      41.717  43.849  22.310  1.00  0.00    -0.167 F 
ATOM     30  F   UNL A   1      41.508  42.800  20.409  1.00  0.00    -0.167 F 
ENDBRANCH  19  27
ENDBRANCH   7   9
ENDBRANCH   6   7
ENDBRANCH   5   6
ENDBRANCH   4   5
ENDBRANCH   3   4
ENDBRANCH   2   3
ENDBRANCH   1   2
BRANCH   1  31
ATOM     31  O   UNL A   1      44.464  40.456  29.984  1.00  0.00    -0.376 OA
BRANCH  31  32
ATOM     32  C   UNL A   1      44.398  40.806  31.364  1.00  0.00     0.202 C 
BRANCH  32  33
ATOM     33  C   UNL A   1      45.680  40.732  32.204  1.00  0.00     0.261 C 
BRANCH  33  34
ATOM     34  O   UNL A   1      45.902  39.464  32.838  1.00  0.00    -0.460 OA
BRANCH  34  35
ATOM     35  C   UNL A   1      47.009  38.791  32.432  1.00  0.00     0.338 C 
ATOM     36  O   UNL A   1      48.172  39.103  32.621  1.00  0.00    -0.246 OA
BRANCH  35  37
ATOM     37  C   UNL A   1      46.604  37.478  31.885  1.00  0.00     0.060 A 
ATOM     38  C   UNL A   1      46.719  36.312  32.643  1.00  0.00     0.016 A 
ATOM     39  C   UNL A   1      46.092  37.430  30.581  1.00  0.00     0.016 A 
ATOM     40  C   UNL A   1      46.300  35.095  32.096  1.00  0.00     0.010 A 
ATOM     41  C   UNL A   1      45.693  36.212  30.031  1.00  0.00     0.010 A 
ATOM     42  C   UNL A   1      45.779  35.037  30.791  1.00  0.00    -0.014 A 
BRANCH  42  43
ATOM     43  C   UNL A   1      45.188  33.777  30.280  1.00  0.00     0.031 A 
ATOM     44  C   UNL A   1      46.038  32.690  29.694  1.00  0.00     0.074 A 
ATOM     45  C   UNL A   1      43.852  33.624  30.358  1.00  0.00     0.049 A 
ATOM     46  N   UNL A   1      45.676  31.496  29.302  1.00  0.00    -0.248 NA
ATOM     47  C   UNL A   1      47.470  32.973  29.526  1.00  0.00     0.031 C 
ATOM     48  C   UNL A   1      42.929  34.625  30.898  1.00  0.00     0.029 A 
ATOM     49  N   UNL A   1      43.041  32.577  30.002  1.00  0.00    -0.354 N 
ATOM     50  C   UNL A   1      46.837  30.869  28.870  1.00  0.00     0.074 A 
ATOM     51  C   UNL A   1      47.909  31.834  29.001  1.00  0.00     0.031 C 
ATOM     52  C   UNL A   1      41.682  34.130  30.866  1.00  0.00     0.029 A 
ATOM     53  C   UNL A   1      41.712  32.791  30.282  1.00  0.00     0.049 A 
ATOM     54  H   UNL A   1      43.379  31.751  29.584  1.00  0.00     0.167 HD
ATOM     55  C   UNL A   1      46.990  29.597  28.431  1.00  0.00     0.031 A 
ATOM     56  C   UNL A   1      40.636  31.998  30.107  1.00  0.00     0.031 A 
ATOM     57  C   UNL A   1      45.908  28.655  28.282  1.00  0.00     0.049 A 
ATOM     58  C   UNL A   1      40.825  30.612  29.560  1.00  0.00     0.074 A 
ATOM     59  C   UNL A   1      45.976  27.335  27.870  1.00  0.00     0.029 A 
ATOM     60  N   UNL A   1      44.569  28.926  28.527  1.00  0.00    -0.354 N 
ATOM     61  N   UNL A   1      41.941  30.008  29.228  1.00  0.00    -0.248 NA
ATOM     62  C   UNL A   1      39.619  29.791  29.379  1.00  0.00     0.031 C 
ATOM     63  C   UNL A   1      44.676  26.830  27.799  1.00  0.00     0.029 A 
ATOM     64  C   UNL A   1      43.802  27.809  28.242  1.00  0.00     0.049 A 
ATOM     65  H   UNL A   1      44.218  29.785  28.855  1.00  0.00     0.167 HD
ATOM     66  C   UNL A   1      41.575  28.730  28.822  1.00  0.00     0.074 A 
ATOM     67  C   UNL A   1      40.136  28.642  28.960  1.00  0.00     0.031 C 
ATOM     68  C   UNL A   1      42.367  27.722  28.382  1.00  0.00     0.031 A 
BRANCH  55  69
ATOM     69  C   UNL A   1      48.377  29.113  28.097  1.00  0.00    -0.014 A 
ATOM     70  C   UNL A   1      48.756  28.923  26.754  1.00  0.00     0.010 A 
ATOM     71  C   UNL A   1      49.251  28.695  29.117  1.00  0.00     0.010 A 
ATOM     72  C   UNL A   1      49.963  28.291  26.438  1.00  0.00     0.020 A 
ATOM     73  C   UNL A   1      50.470  28.086  28.806  1.00  0.00     0.020 A 
ATOM     74  C   UNL A   1      50.806  27.866  27.467  1.00  0.00     0.054 A 
BRANCH  74  75
ATOM     75  S   UNL A   1      52.347  27.008  27.041  1.00  0.00     0.124 S 
ATOM     76  O   UNL A   1      53.170  28.093  26.515  1.00  0.00    -0.237 OA
ATOM     77  O   UNL A   1      52.772  26.457  28.326  1.00  0.00    -0.237 OA
ATOM     78  O   UNL A   1      51.923  26.013  26.058  1.00  0.00    -0.744 OA
ENDBRANCH  74  75
ENDBRANCH  55  69
BRANCH  56  79
ATOM     79  C   UNL A   1      39.298  32.499  30.523  1.00  0.00    -0.014 A 
ATOM     80  C   UNL A   1      38.960  32.581  31.887  1.00  0.00     0.010 A 
ATOM     81  C   UNL A   1      38.322  32.802  29.557  1.00  0.00     0.010 A 
ATOM     82  C   UNL A   1      37.658  32.903  32.278  1.00  0.00     0.020 A 
ATOM     83  C   UNL A   1      37.025  33.153  29.945  1.00  0.00     0.020 A 
ATOM     84  C   UNL A   1      36.695  33.171  31.302  1.00  0.00     0.054 A 
BRANCH  84  85
ATOM     85  S   UNL A   1      34.997  33.529  31.830  1.00  0.00     0.124 S 
ATOM     86  O   UNL A   1      35.195  34.665  32.725  1.00  0.00    -0.237 OA
ATOM     87  O   UNL A   1      34.327  33.832  30.567  1.00  0.00    -0.237 OA
ATOM     88  O   UNL A   1      34.571  32.290  32.476  1.00  0.00    -0.744 OA
ENDBRANCH  84  85
ENDBRANCH  56  79
BRANCH  68  89
ATOM     89  C   UNL A   1      41.724  26.412  28.006  1.00  0.00    -0.014 A 
ATOM     90  C   UNL A   1      41.847  25.305  28.869  1.00  0.00     0.010 A 
ATOM     91  C   UNL A   1      41.144  26.231  26.739  1.00  0.00     0.010 A 
ATOM     92  C   UNL A   1      41.451  24.032  28.451  1.00  0.00     0.020 A 
ATOM     93  C   UNL A   1      40.719  24.963  26.329  1.00  0.00     0.020 A 
ATOM     94  C   UNL A   1      40.905  23.867  27.175  1.00  0.00     0.054 A 
BRANCH  94  95
ATOM     95  S   UNL A   1      40.460  22.196  26.625  1.00  0.00     0.124 S 
ATOM     96  O   UNL A   1      41.439  21.948  25.571  1.00  0.00    -0.237 OA
ATOM     97  O   UNL A   1      40.627  21.402  27.839  1.00  0.00    -0.237 OA
ATOM     98  O   UNL A   1      39.078  22.342  26.171  1.00  0.00    -0.744 OA
ENDBRANCH  94  95
ENDBRANCH  68  89
ENDBRANCH  42  43
ENDBRANCH  35  37
ENDBRANCH  34  35
ENDBRANCH  33  34
ENDBRANCH  32  33
ENDBRANCH  31  32
ENDBRANCH   1  31
TORSDOF 24
ENDMDL
