MODEL 1
REMARK VINA RESULT:      -9.6      0.000      0.000
REMARK SMILES CCc1cccc(-c2ccc([C@@H](C)C(=O)OCCOCCOCCOC(=O)c3ccc(-c4c5nc(c(-c6ccc(S(=O)(=O)[O-])cc6)c6ccc([nH]6)c(-c6ccc(S(=O)(=O)[O-])cc6)c6nc(c(-c7ccc(S(=O)(=O)[O-])cc7)c7ccc4[nH]7)C=C6)C=C5)cc3)cc2)c1
REMARK SMILES IDX 20 1 19 2 18 3 17 4 16 5 14 6 15 7 12 8 13 9 11 10 8 11 9 12
REMARK SMILES IDX 89 13 10 14 88 15 7 16 3 17 4 18 90 19 5 20 6 21 2 22 1 23
REMARK SMILES IDX 21 24 22 25 23 26 24 27 25 28 26 29 27 30 28 31 29 32 87 33
REMARK SMILES IDX 30 34 86 35 31 36 32 37 33 38 80 39 34 40 85 41 79 42 81 43
REMARK SMILES IDX 35 44 84 45 78 46 77 47 36 49 66 50 47 51 65 52 48 53 51 54
REMARK SMILES IDX 64 55 82 56 49 57 50 58 63 60 83 61 52 62 37 63 38 64 46 65
REMARK SMILES IDX 39 66 45 67 40 68 41 69 42 70 43 71 44 72 67 73 68 74 76 75
REMARK SMILES IDX 69 76 75 77 70 78 71 79 72 80 73 81 74 82 53 83 54 84 62 85
REMARK SMILES IDX 55 86 61 87 56 88 57 89 58 90 59 91 60 92
REMARK H PARENT 81 48 51 59
REMARK Flexibility Score: inf
ROOT
ATOM      1  C   UNL A   1      37.901  23.075  25.932  1.00  0.00     0.188 C 
ENDROOT
BRANCH   1   2
ATOM      2  O   UNL A   1      36.572  22.901  25.454  1.00  0.00    -0.376 OA
BRANCH   2   3
ATOM      3  C   UNL A   1      35.766  21.866  26.003  1.00  0.00     0.202 C 
BRANCH   3   4
ATOM      4  C   UNL A   1      35.524  20.598  25.165  1.00  0.00     0.261 C 
BRANCH   4   5
ATOM      5  O   UNL A   1      34.424  20.665  24.228  1.00  0.00    -0.463 OA
BRANCH   5   6
ATOM      6  C   UNL A   1      33.182  20.782  24.762  1.00  0.00     0.313 C 
ATOM      7  O   UNL A   1      32.785  20.075  25.688  1.00  0.00    -0.252 OA
BRANCH   6   8
ATOM      8  C   UNL A   1      32.274  21.864  24.166  1.00  0.00     0.126 C 
ATOM      9  C   UNL A   1      32.253  21.691  22.648  1.00  0.00     0.025 C 
BRANCH   8  10
ATOM     10  C   UNL A   1      32.434  23.342  24.526  1.00  0.00    -0.034 A 
ATOM     11  C   UNL A   1      32.761  26.077  25.330  1.00  0.00    -0.018 A 
ATOM     12  C   UNL A   1      32.400  25.729  24.015  1.00  0.00     0.009 A 
ATOM     13  C   UNL A   1      32.954  25.030  26.237  1.00  0.00     0.009 A 
ATOM     14  C   UNL A   1      32.228  24.388  23.619  1.00  0.00     0.005 A 
ATOM     15  C   UNL A   1      32.784  23.690  25.847  1.00  0.00     0.005 A 
BRANCH  11  16
ATOM     16  C   UNL A   1      32.863  27.490  25.758  1.00  0.00    -0.018 A 
ATOM     17  C   UNL A   1      34.039  29.332  26.908  1.00  0.00    -0.048 A 
ATOM     18  C   UNL A   1      32.973  30.186  26.601  1.00  0.00     0.004 A 
ATOM     19  C   UNL A   1      33.978  27.991  26.463  1.00  0.00     0.012 A 
ATOM     20  C   UNL A   1      31.863  29.711  25.907  1.00  0.00     0.001 A 
ATOM     21  C   UNL A   1      31.808  28.379  25.494  1.00  0.00     0.009 A 
BRANCH  17  22
ATOM     22  C   UNL A   1      35.269  29.823  27.644  1.00  0.00     0.032 C 
ATOM     23  C   UNL A   1      35.157  31.213  28.269  1.00  0.00     0.009 C 
ENDBRANCH  17  22
ENDBRANCH  11  16
ENDBRANCH   8  10
ENDBRANCH   6   8
ENDBRANCH   5   6
ENDBRANCH   4   5
ENDBRANCH   3   4
ENDBRANCH   2   3
ENDBRANCH   1   2
BRANCH   1  24
ATOM     24  C   UNL A   1      38.892  21.906  25.826  1.00  0.00     0.188 C 
BRANCH  24  25
ATOM     25  O   UNL A   1      39.765  21.774  26.927  1.00  0.00    -0.376 OA
BRANCH  25  26
ATOM     26  C   UNL A   1      40.237  22.975  27.506  1.00  0.00     0.202 C 
BRANCH  26  27
ATOM     27  C   UNL A   1      41.497  23.559  26.852  1.00  0.00     0.261 C 
BRANCH  27  28
ATOM     28  O   UNL A   1      41.851  24.896  27.254  1.00  0.00    -0.460 OA
BRANCH  28  29
ATOM     29  C   UNL A   1      41.151  25.908  26.695  1.00  0.00     0.338 C 
ATOM     30  O   UNL A   1      40.709  25.949  25.554  1.00  0.00    -0.246 OA
BRANCH  29  31
ATOM     31  C   UNL A   1      40.803  26.875  27.760  1.00  0.00     0.060 A 
ATOM     32  C   UNL A   1      41.393  28.147  27.746  1.00  0.00     0.016 A 
ATOM     33  C   UNL A   1      39.910  26.526  28.777  1.00  0.00     0.016 A 
ATOM     34  C   UNL A   1      41.142  29.051  28.781  1.00  0.00     0.010 A 
ATOM     35  C   UNL A   1      39.673  27.425  29.822  1.00  0.00     0.010 A 
ATOM     36  C   UNL A   1      40.326  28.671  29.855  1.00  0.00    -0.014 A 
BRANCH  36  37
ATOM     37  C   UNL A   1      40.343  29.466  31.110  1.00  0.00     0.031 A 
ATOM     38  C   UNL A   1      41.436  29.192  32.111  1.00  0.00     0.074 A 
ATOM     39  C   UNL A   1      39.428  30.417  31.364  1.00  0.00     0.049 A 
ATOM     40  N   UNL A   1      41.644  29.728  33.286  1.00  0.00    -0.248 NA
ATOM     41  C   UNL A   1      42.420  28.164  31.734  1.00  0.00     0.031 C 
ATOM     42  C   UNL A   1      38.337  30.802  30.472  1.00  0.00     0.029 A 
ATOM     43  N   UNL A   1      39.268  31.223  32.464  1.00  0.00    -0.354 N 
ATOM     44  C   UNL A   1      42.768  29.087  33.797  1.00  0.00     0.074 A 
ATOM     45  C   UNL A   1      43.175  28.103  32.819  1.00  0.00     0.031 C 
ATOM     46  C   UNL A   1      37.606  31.760  31.070  1.00  0.00     0.029 A 
ATOM     47  C   UNL A   1      38.159  32.032  32.398  1.00  0.00     0.049 A 
ATOM     48  H   UNL A   1      39.888  31.222  33.229  1.00  0.00     0.167 HD
ATOM     49  C   UNL A   1      43.407  29.299  34.973  1.00  0.00     0.031 A 
ATOM     50  C   UNL A   1      37.634  32.876  33.310  1.00  0.00     0.031 A 
ATOM     51  C   UNL A   1      42.988  30.262  35.955  1.00  0.00     0.049 A 
ATOM     52  C   UNL A   1      38.329  33.068  34.632  1.00  0.00     0.074 A 
ATOM     53  C   UNL A   1      43.585  30.576  37.164  1.00  0.00     0.029 A 
ATOM     54  N   UNL A   1      41.854  31.056  35.853  1.00  0.00    -0.354 N 
ATOM     55  N   UNL A   1      39.417  32.491  35.085  1.00  0.00    -0.248 NA
ATOM     56  C   UNL A   1      37.734  34.041  35.560  1.00  0.00     0.031 C 
ATOM     57  C   UNL A   1      42.774  31.506  37.823  1.00  0.00     0.029 A 
ATOM     58  C   UNL A   1      41.714  31.833  36.991  1.00  0.00     0.049 A 
ATOM     59  H   UNL A   1      41.239  31.066  35.084  1.00  0.00     0.167 HD
ATOM     60  C   UNL A   1      39.652  33.048  36.340  1.00  0.00     0.074 A 
ATOM     61  C   UNL A   1      38.600  34.018  36.566  1.00  0.00     0.031 C 
ATOM     62  C   UNL A   1      40.654  32.787  37.217  1.00  0.00     0.031 A 
BRANCH  49  63
ATOM     63  C   UNL A   1      44.595  28.419  35.277  1.00  0.00    -0.014 A 
ATOM     64  C   UNL A   1      45.915  28.892  35.159  1.00  0.00     0.010 A 
ATOM     65  C   UNL A   1      44.382  27.084  35.667  1.00  0.00     0.010 A 
ATOM     66  C   UNL A   1      46.997  28.027  35.353  1.00  0.00     0.020 A 
ATOM     67  C   UNL A   1      45.461  26.227  35.899  1.00  0.00     0.020 A 
ATOM     68  C   UNL A   1      46.761  26.697  35.712  1.00  0.00     0.054 A 
BRANCH  68  69
ATOM     69  S   UNL A   1      48.181  25.589  35.929  1.00  0.00     0.124 S 
ATOM     70  O   UNL A   1      48.732  26.053  37.200  1.00  0.00    -0.237 OA
ATOM     71  O   UNL A   1      47.556  24.270  35.961  1.00  0.00    -0.237 OA
ATOM     72  O   UNL A   1      49.012  25.856  34.757  1.00  0.00    -0.744 OA
ENDBRANCH  68  69
ENDBRANCH  49  63
BRANCH  50  73
ATOM     73  C   UNL A   1      36.365  33.590  32.994  1.00  0.00    -0.014 A 
ATOM     74  C   UNL A   1      36.344  34.982  32.807  1.00  0.00     0.010 A 
ATOM     75  C   UNL A   1      35.173  32.859  32.826  1.00  0.00     0.010 A 
ATOM     76  C   UNL A   1      35.158  35.630  32.446  1.00  0.00     0.020 A 
ATOM     77  C   UNL A   1      33.992  33.499  32.437  1.00  0.00     0.020 A 
ATOM     78  C   UNL A   1      33.993  34.881  32.249  1.00  0.00     0.054 A 
BRANCH  78  79
ATOM     79  S   UNL A   1      32.494  35.730  31.675  1.00  0.00     0.124 S 
ATOM     80  O   UNL A   1      31.488  35.242  32.614  1.00  0.00    -0.237 OA
ATOM     81  O   UNL A   1      32.860  37.137  31.813  1.00  0.00    -0.237 OA
ATOM     82  O   UNL A   1      32.343  35.265  30.298  1.00  0.00    -0.744 OA
ENDBRANCH  78  79
ENDBRANCH  50  73
BRANCH  62  83
ATOM     83  C   UNL A   1      40.690  33.585  38.498  1.00  0.00    -0.014 A 
ATOM     84  C   UNL A   1      41.399  34.795  38.597  1.00  0.00     0.010 A 
ATOM     85  C   UNL A   1      39.953  33.135  39.611  1.00  0.00     0.010 A 
ATOM     86  C   UNL A   1      41.406  35.516  39.796  1.00  0.00     0.020 A 
ATOM     87  C   UNL A   1      39.931  33.870  40.799  1.00  0.00     0.020 A 
ATOM     88  C   UNL A   1      40.673  35.048  40.890  1.00  0.00     0.054 A 
BRANCH  88  89
ATOM     89  S   UNL A   1      40.678  36.013  42.426  1.00  0.00     0.124 S 
ATOM     90  O   UNL A   1      41.478  37.176  42.052  1.00  0.00    -0.237 OA
ATOM     91  O   UNL A   1      39.257  36.272  42.646  1.00  0.00    -0.237 OA
ATOM     92  O   UNL A   1      41.299  35.118  43.399  1.00  0.00    -0.744 OA
ENDBRANCH  88  89
ENDBRANCH  62  83
ENDBRANCH  36  37
ENDBRANCH  29  31
ENDBRANCH  28  29
ENDBRANCH  27  28
ENDBRANCH  26  27
ENDBRANCH  25  26
ENDBRANCH  24  25
ENDBRANCH   1  24
TORSDOF 23
ENDMDL
MODEL 2
REMARK VINA RESULT:      -9.4      2.087      4.575
REMARK SMILES CCc1cccc(-c2ccc([C@@H](C)C(=O)OCCOCCOCCOC(=O)c3ccc(-c4c5nc(c(-c6ccc(S(=O)(=O)[O-])cc6)c6ccc([nH]6)c(-c6ccc(S(=O)(=O)[O-])cc6)c6nc(c(-c7ccc(S(=O)(=O)[O-])cc7)c7ccc4[nH]7)C=C6)C=C5)cc3)cc2)c1
REMARK SMILES IDX 20 1 19 2 18 3 17 4 16 5 14 6 15 7 12 8 13 9 11 10 8 11 9 12
REMARK SMILES IDX 89 13 10 14 88 15 7 16 3 17 4 18 90 19 5 20 6 21 2 22 1 23
REMARK SMILES IDX 21 24 22 25 23 26 24 27 25 28 26 29 27 30 28 31 29 32 87 33
REMARK SMILES IDX 30 34 86 35 31 36 32 37 33 38 80 39 34 40 85 41 79 42 81 43
REMARK SMILES IDX 35 44 84 45 78 46 77 47 36 49 66 50 47 51 65 52 48 53 51 54
REMARK SMILES IDX 64 55 82 56 49 57 50 58 63 60 83 61 52 62 37 63 38 64 46 65
REMARK SMILES IDX 39 66 45 67 40 68 41 69 42 70 43 71 44 72 67 73 68 74 76 75
REMARK SMILES IDX 69 76 75 77 70 78 71 79 72 80 73 81 74 82 53 83 54 84 62 85
REMARK SMILES IDX 55 86 61 87 56 88 57 89 58 90 59 91 60 92
REMARK H PARENT 81 48 51 59
REMARK Flexibility Score: inf
ROOT
ATOM      1  C   UNL A   1      35.475  23.782  24.685  1.00  0.00     0.188 C 
ENDROOT
BRANCH   1   2
ATOM      2  O   UNL A   1      34.821  23.922  23.429  1.00  0.00    -0.376 OA
BRANCH   2   3
ATOM      3  C   UNL A   1      34.018  25.071  23.188  1.00  0.00     0.202 C 
BRANCH   3   4
ATOM      4  C   UNL A   1      33.837  26.094  24.323  1.00  0.00     0.261 C 
BRANCH   4   5
ATOM      5  O   UNL A   1      32.497  26.215  24.853  1.00  0.00    -0.463 OA
BRANCH   5   6
ATOM      6  C   UNL A   1      31.495  25.722  24.081  1.00  0.00     0.313 C 
ATOM      7  O   UNL A   1      31.152  26.244  23.021  1.00  0.00    -0.252 OA
BRANCH   6   8
ATOM      8  C   UNL A   1      30.801  24.450  24.582  1.00  0.00     0.126 C 
ATOM      9  C   UNL A   1      30.235  24.727  25.974  1.00  0.00     0.025 C 
BRANCH   8  10
ATOM     10  C   UNL A   1      31.495  23.087  24.557  1.00  0.00    -0.034 A 
ATOM     11  C   UNL A   1      32.825  20.545  24.641  1.00  0.00    -0.018 A 
ATOM     12  C   UNL A   1      32.282  21.058  23.449  1.00  0.00     0.009 A 
ATOM     13  C   UNL A   1      32.692  21.330  25.793  1.00  0.00     0.009 A 
ATOM     14  C   UNL A   1      31.638  22.311  23.401  1.00  0.00     0.005 A 
ATOM     15  C   UNL A   1      32.049  22.578  25.750  1.00  0.00     0.005 A 
BRANCH  11  16
ATOM     16  C   UNL A   1      33.569  19.266  24.668  1.00  0.00    -0.018 A 
ATOM     17  C   UNL A   1      33.651  16.804  24.838  1.00  0.00    -0.048 A 
ATOM     18  C   UNL A   1      35.049  16.860  24.774  1.00  0.00     0.004 A 
ATOM     19  C   UNL A   1      32.925  18.015  24.765  1.00  0.00     0.012 A 
ATOM     20  C   UNL A   1      35.705  18.085  24.679  1.00  0.00     0.001 A 
ATOM     21  C   UNL A   1      34.973  19.273  24.630  1.00  0.00     0.009 A 
BRANCH  17  22
ATOM     22  C   UNL A   1      32.909  15.486  24.922  1.00  0.00     0.032 C 
ATOM     23  C   UNL A   1      31.986  15.320  26.128  1.00  0.00     0.009 C 
ENDBRANCH  17  22
ENDBRANCH  11  16
ENDBRANCH   8  10
ENDBRANCH   6   8
ENDBRANCH   5   6
ENDBRANCH   4   5
ENDBRANCH   3   4
ENDBRANCH   2   3
ENDBRANCH   1   2
BRANCH   1  24
ATOM     24  C   UNL A   1      36.992  23.547  24.716  1.00  0.00     0.188 C 
BRANCH  24  25
ATOM     25  O   UNL A   1      37.375  22.193  24.841  1.00  0.00    -0.376 OA
BRANCH  25  26
ATOM     26  C   UNL A   1      38.117  21.851  25.994  1.00  0.00     0.202 C 
BRANCH  26  27
ATOM     27  C   UNL A   1      39.523  22.464  26.066  1.00  0.00     0.261 C 
BRANCH  27  28
ATOM     28  O   UNL A   1      39.790  23.289  27.216  1.00  0.00    -0.460 OA
BRANCH  28  29
ATOM     29  C   UNL A   1      40.875  24.093  27.153  1.00  0.00     0.338 C 
ATOM     30  O   UNL A   1      41.873  23.922  26.465  1.00  0.00    -0.246 OA
BRANCH  29  31
ATOM     31  C   UNL A   1      40.571  25.343  27.885  1.00  0.00     0.060 A 
ATOM     32  C   UNL A   1      41.471  26.415  27.809  1.00  0.00     0.016 A 
ATOM     33  C   UNL A   1      39.411  25.453  28.656  1.00  0.00     0.016 A 
ATOM     34  C   UNL A   1      41.247  27.576  28.552  1.00  0.00     0.010 A 
ATOM     35  C   UNL A   1      39.196  26.610  29.413  1.00  0.00     0.010 A 
ATOM     36  C   UNL A   1      40.138  27.655  29.403  1.00  0.00    -0.014 A 
BRANCH  36  37
ATOM     37  C   UNL A   1      40.085  28.710  30.449  1.00  0.00     0.031 A 
ATOM     38  C   UNL A   1      41.014  28.589  31.628  1.00  0.00     0.074 A 
ATOM     39  C   UNL A   1      39.248  29.758  30.362  1.00  0.00     0.049 A 
ATOM     40  N   UNL A   1      41.133  29.360  32.678  1.00  0.00    -0.248 NA
ATOM     41  C   UNL A   1      41.926  27.433  31.623  1.00  0.00     0.031 C 
ATOM     42  C   UNL A   1      38.318  30.011  29.264  1.00  0.00     0.029 A 
ATOM     43  N   UNL A   1      39.040  30.802  31.230  1.00  0.00    -0.354 N 
ATOM     44  C   UNL A   1      42.115  28.771  33.469  1.00  0.00     0.074 A 
ATOM     45  C   UNL A   1      42.533  27.563  32.791  1.00  0.00     0.031 C 
ATOM     46  C   UNL A   1      37.623  31.131  29.534  1.00  0.00     0.029 A 
ATOM     47  C   UNL A   1      38.037  31.654  30.837  1.00  0.00     0.049 A 
ATOM     48  H   UNL A   1      39.560  30.928  32.057  1.00  0.00     0.167 HD
ATOM     49  C   UNL A   1      42.626  29.195  34.649  1.00  0.00     0.031 A 
ATOM     50  C   UNL A   1      37.495  32.718  31.463  1.00  0.00     0.031 A 
ATOM     51  C   UNL A   1      42.193  30.384  35.333  1.00  0.00     0.049 A 
ATOM     52  C   UNL A   1      38.041  33.153  32.798  1.00  0.00     0.074 A 
ATOM     53  C   UNL A   1      42.668  30.918  36.518  1.00  0.00     0.029 A 
ATOM     54  N   UNL A   1      41.167  31.216  34.905  1.00  0.00    -0.354 N 
ATOM     55  N   UNL A   1      39.002  32.615  33.513  1.00  0.00    -0.248 NA
ATOM     56  C   UNL A   1      37.443  34.352  33.403  1.00  0.00     0.031 C 
ATOM     57  C   UNL A   1      41.884  32.030  36.842  1.00  0.00     0.029 A 
ATOM     58  C   UNL A   1      40.972  32.238  35.819  1.00  0.00     0.049 A 
ATOM     59  H   UNL A   1      40.654  31.096  34.073  1.00  0.00     0.167 HD
ATOM     60  C   UNL A   1      39.139  33.423  34.639  1.00  0.00     0.074 A 
ATOM     61  C   UNL A   1      38.173  34.493  34.502  1.00  0.00     0.031 C 
ATOM     62  C   UNL A   1      39.996  33.294  35.684  1.00  0.00     0.031 A 
BRANCH  49  63
ATOM     63  C   UNL A   1      43.671  28.322  35.298  1.00  0.00    -0.014 A 
ATOM     64  C   UNL A   1      45.046  28.603  35.184  1.00  0.00     0.010 A 
ATOM     65  C   UNL A   1      43.268  27.183  36.019  1.00  0.00     0.010 A 
ATOM     66  C   UNL A   1      45.995  27.724  35.714  1.00  0.00     0.020 A 
ATOM     67  C   UNL A   1      44.213  26.322  36.582  1.00  0.00     0.020 A 
ATOM     68  C   UNL A   1      45.571  26.583  36.401  1.00  0.00     0.054 A 
BRANCH  68  69
ATOM     69  S   UNL A   1      46.823  25.444  37.053  1.00  0.00     0.124 S 
ATOM     70  O   UNL A   1      47.854  26.368  37.522  1.00  0.00    -0.237 OA
ATOM     71  O   UNL A   1      46.096  24.733  38.100  1.00  0.00    -0.237 OA
ATOM     72  O   UNL A   1      47.194  24.636  35.894  1.00  0.00    -0.744 OA
ENDBRANCH  68  69
ENDBRANCH  49  63
BRANCH  50  73
ATOM     73  C   UNL A   1      36.354  33.434  30.827  1.00  0.00    -0.014 A 
ATOM     74  C   UNL A   1      35.184  33.720  31.549  1.00  0.00     0.010 A 
ATOM     75  C   UNL A   1      36.463  33.883  29.497  1.00  0.00     0.010 A 
ATOM     76  C   UNL A   1      34.147  34.450  30.958  1.00  0.00     0.020 A 
ATOM     77  C   UNL A   1      35.442  34.637  28.911  1.00  0.00     0.020 A 
ATOM     78  C   UNL A   1      34.290  34.917  29.647  1.00  0.00     0.054 A 
BRANCH  78  79
ATOM     79  S   UNL A   1      32.979  35.955  28.940  1.00  0.00     0.124 S 
ATOM     80  O   UNL A   1      33.746  36.965  28.217  1.00  0.00    -0.237 OA
ATOM     81  O   UNL A   1      32.243  35.006  28.109  1.00  0.00    -0.237 OA
ATOM     82  O   UNL A   1      32.255  36.438  30.112  1.00  0.00    -0.744 OA
ENDBRANCH  78  79
ENDBRANCH  50  73
BRANCH  62  83
ATOM     83  C   UNL A   1      39.959  34.356  36.755  1.00  0.00    -0.014 A 
ATOM     84  C   UNL A   1      39.176  34.212  37.915  1.00  0.00     0.010 A 
ATOM     85  C   UNL A   1      40.767  35.501  36.618  1.00  0.00     0.010 A 
ATOM     86  C   UNL A   1      39.169  35.211  38.894  1.00  0.00     0.020 A 
ATOM     87  C   UNL A   1      40.788  36.486  37.609  1.00  0.00     0.020 A 
ATOM     88  C   UNL A   1      39.974  36.343  38.734  1.00  0.00     0.054 A 
BRANCH  88  89
ATOM     89  S   UNL A   1      39.967  37.613  40.028  1.00  0.00     0.124 S 
ATOM     90  O   UNL A   1      38.817  38.429  39.648  1.00  0.00    -0.237 OA
ATOM     91  O   UNL A   1      39.803  36.826  41.248  1.00  0.00    -0.237 OA
ATOM     92  O   UNL A   1      41.266  38.265  39.884  1.00  0.00    -0.744 OA
ENDBRANCH  88  89
ENDBRANCH  62  83
ENDBRANCH  36  37
ENDBRANCH  29  31
ENDBRANCH  28  29
ENDBRANCH  27  28
ENDBRANCH  26  27
ENDBRANCH  25  26
ENDBRANCH  24  25
ENDBRANCH   1  24
TORSDOF 23
ENDMDL
MODEL 3
REMARK VINA RESULT:      -9.2      5.694     10.657
REMARK SMILES CCc1cccc(-c2ccc([C@@H](C)C(=O)OCCOCCOCCOC(=O)c3ccc(-c4c5nc(c(-c6ccc(S(=O)(=O)[O-])cc6)c6ccc([nH]6)c(-c6ccc(S(=O)(=O)[O-])cc6)c6nc(c(-c7ccc(S(=O)(=O)[O-])cc7)c7ccc4[nH]7)C=C6)C=C5)cc3)cc2)c1
REMARK SMILES IDX 20 1 19 2 18 3 17 4 16 5 14 6 15 7 12 8 13 9 11 10 8 11 9 12
REMARK SMILES IDX 89 13 10 14 88 15 7 16 3 17 4 18 90 19 5 20 6 21 2 22 1 23
REMARK SMILES IDX 21 24 22 25 23 26 24 27 25 28 26 29 27 30 28 31 29 32 87 33
REMARK SMILES IDX 30 34 86 35 31 36 32 37 33 38 80 39 34 40 85 41 79 42 81 43
REMARK SMILES IDX 35 44 84 45 78 46 77 47 36 49 66 50 47 51 65 52 48 53 51 54
REMARK SMILES IDX 64 55 82 56 49 57 50 58 63 60 83 61 52 62 37 63 38 64 46 65
REMARK SMILES IDX 39 66 45 67 40 68 41 69 42 70 43 71 44 72 67 73 68 74 76 75
REMARK SMILES IDX 69 76 75 77 70 78 71 79 72 80 73 81 74 82 53 83 54 84 62 85
REMARK SMILES IDX 55 86 61 87 56 88 57 89 58 90 59 91 60 92
REMARK H PARENT 81 48 51 59
REMARK Flexibility Score: inf
ROOT
ATOM      1  C   UNL A   1      33.943  22.877  24.971  1.00  0.00     0.188 C 
ENDROOT
BRANCH   1   2
ATOM      2  O   UNL A   1      32.921  22.518  24.048  1.00  0.00    -0.376 OA
BRANCH   2   3
ATOM      3  C   UNL A   1      32.798  23.244  22.831  1.00  0.00     0.202 C 
BRANCH   3   4
ATOM      4  C   UNL A   1      32.139  24.634  22.867  1.00  0.00     0.261 C 
BRANCH   4   5
ATOM      5  O   UNL A   1      30.743  24.658  23.248  1.00  0.00    -0.463 OA
BRANCH   5   6
ATOM      6  C   UNL A   1      30.477  24.941  24.549  1.00  0.00     0.313 C 
ATOM      7  O   UNL A   1      30.491  24.086  25.434  1.00  0.00    -0.252 OA
BRANCH   6   8
ATOM      8  C   UNL A   1      30.168  26.404  24.887  1.00  0.00     0.126 C 
ATOM      9  C   UNL A   1      29.573  27.069  23.646  1.00  0.00     0.025 C 
BRANCH   8  10
ATOM     10  C   UNL A   1      31.209  27.323  25.529  1.00  0.00    -0.034 A 
ATOM     11  C   UNL A   1      33.202  29.083  26.610  1.00  0.00    -0.018 A 
ATOM     12  C   UNL A   1      32.375  28.302  27.438  1.00  0.00     0.009 A 
ATOM     13  C   UNL A   1      33.014  28.966  25.228  1.00  0.00     0.009 A 
ATOM     14  C   UNL A   1      31.402  27.428  26.911  1.00  0.00     0.005 A 
ATOM     15  C   UNL A   1      32.045  28.097  24.697  1.00  0.00     0.005 A 
BRANCH  11  16
ATOM     16  C   UNL A   1      34.273  29.938  27.167  1.00  0.00    -0.018 A 
ATOM     17  C   UNL A   1      36.602  30.298  27.905  1.00  0.00    -0.048 A 
ATOM     18  C   UNL A   1      36.263  31.600  28.294  1.00  0.00     0.004 A 
ATOM     19  C   UNL A   1      35.600  29.486  27.326  1.00  0.00     0.012 A 
ATOM     20  C   UNL A   1      34.958  32.065  28.147  1.00  0.00     0.001 A 
ATOM     21  C   UNL A   1      33.976  31.242  27.594  1.00  0.00     0.009 A 
BRANCH  17  22
ATOM     22  C   UNL A   1      38.016  29.770  28.034  1.00  0.00     0.032 C 
ATOM     23  C   UNL A   1      38.210  28.631  29.033  1.00  0.00     0.009 C 
ENDBRANCH  17  22
ENDBRANCH  11  16
ENDBRANCH   8  10
ENDBRANCH   6   8
ENDBRANCH   5   6
ENDBRANCH   4   5
ENDBRANCH   3   4
ENDBRANCH   2   3
ENDBRANCH   1   2
BRANCH   1  24
ATOM     24  C   UNL A   1      35.406  22.880  24.504  1.00  0.00     0.188 C 
BRANCH  24  25
ATOM     25  O   UNL A   1      36.060  21.634  24.613  1.00  0.00    -0.376 OA
BRANCH  25  26
ATOM     26  C   UNL A   1      36.933  21.473  25.714  1.00  0.00     0.202 C 
BRANCH  26  27
ATOM     27  C   UNL A   1      38.388  21.889  25.454  1.00  0.00     0.261 C 
BRANCH  27  28
ATOM     28  O   UNL A   1      39.087  22.463  26.575  1.00  0.00    -0.460 OA
BRANCH  28  29
ATOM     29  C   UNL A   1      40.137  21.767  27.063  1.00  0.00     0.338 C 
ATOM     30  O   UNL A   1      40.231  20.549  27.149  1.00  0.00    -0.246 OA
BRANCH  29  31
ATOM     31  C   UNL A   1      41.260  22.707  27.275  1.00  0.00     0.060 A 
ATOM     32  C   UNL A   1      41.977  22.654  28.479  1.00  0.00     0.016 A 
ATOM     33  C   UNL A   1      41.596  23.649  26.299  1.00  0.00     0.016 A 
ATOM     34  C   UNL A   1      42.989  23.580  28.737  1.00  0.00     0.010 A 
ATOM     35  C   UNL A   1      42.599  24.587  26.565  1.00  0.00     0.010 A 
ATOM     36  C   UNL A   1      43.266  24.589  27.804  1.00  0.00    -0.014 A 
BRANCH  36  37
ATOM     37  C   UNL A   1      44.068  25.770  28.212  1.00  0.00     0.031 A 
ATOM     38  C   UNL A   1      43.367  26.890  28.937  1.00  0.00     0.074 A 
ATOM     39  C   UNL A   1      45.386  25.857  27.964  1.00  0.00     0.049 A 
ATOM     40  N   UNL A   1      43.841  28.032  29.364  1.00  0.00    -0.248 NA
ATOM     41  C   UNL A   1      41.933  26.695  29.205  1.00  0.00     0.031 C 
ATOM     42  C   UNL A   1      46.191  24.836  27.298  1.00  0.00     0.029 A 
ATOM     43  N   UNL A   1      46.276  26.867  28.236  1.00  0.00    -0.354 N 
ATOM     44  C   UNL A   1      42.760  28.700  29.931  1.00  0.00     0.074 A 
ATOM     45  C   UNL A   1      41.603  27.849  29.762  1.00  0.00     0.031 C 
ATOM     46  C   UNL A   1      47.457  25.281  27.196  1.00  0.00     0.029 A 
ATOM     47  C   UNL A   1      47.542  26.629  27.760  1.00  0.00     0.049 A 
ATOM     48  H   UNL A   1      46.030  27.686  28.726  1.00  0.00     0.167 HD
ATOM     49  C   UNL A   1      42.731  29.910  30.539  1.00  0.00     0.031 A 
ATOM     50  C   UNL A   1      48.639  27.414  27.754  1.00  0.00     0.031 A 
ATOM     51  C   UNL A   1      43.878  30.765  30.686  1.00  0.00     0.049 A 
ATOM     52  C   UNL A   1      48.581  28.777  28.393  1.00  0.00     0.074 A 
ATOM     53  C   UNL A   1      43.960  31.996  31.314  1.00  0.00     0.029 A 
ATOM     54  N   UNL A   1      45.141  30.491  30.181  1.00  0.00    -0.354 N 
ATOM     55  N   UNL A   1      47.564  29.378  28.967  1.00  0.00    -0.248 NA
ATOM     56  C   UNL A   1      49.825  29.561  28.402  1.00  0.00     0.031 C 
ATOM     57  C   UNL A   1      45.253  32.497  31.127  1.00  0.00     0.029 A 
ATOM     58  C   UNL A   1      46.000  31.543  30.453  1.00  0.00     0.049 A 
ATOM     59  H   UNL A   1      45.390  29.668  29.701  1.00  0.00     0.167 HD
ATOM     60  C   UNL A   1      48.052  30.600  29.426  1.00  0.00     0.074 A 
ATOM     61  C   UNL A   1      49.457  30.644  29.075  1.00  0.00     0.031 C 
ATOM     62  C   UNL A   1      47.396  31.588  30.087  1.00  0.00     0.031 A 
BRANCH  49  63
ATOM     63  C   UNL A   1      41.391  30.397  31.034  1.00  0.00    -0.014 A 
ATOM     64  C   UNL A   1      40.857  29.972  32.265  1.00  0.00     0.010 A 
ATOM     65  C   UNL A   1      40.642  31.282  30.237  1.00  0.00     0.010 A 
ATOM     66  C   UNL A   1      39.573  30.363  32.653  1.00  0.00     0.020 A 
ATOM     67  C   UNL A   1      39.373  31.706  30.640  1.00  0.00     0.020 A 
ATOM     68  C   UNL A   1      38.835  31.220  31.832  1.00  0.00     0.054 A 
BRANCH  68  69
ATOM     69  S   UNL A   1      37.159  31.689  32.345  1.00  0.00     0.124 S 
ATOM     70  O   UNL A   1      37.079  33.072  31.880  1.00  0.00    -0.237 OA
ATOM     71  O   UNL A   1      36.324  30.735  31.621  1.00  0.00    -0.237 OA
ATOM     72  O   UNL A   1      37.181  31.521  33.796  1.00  0.00    -0.744 OA
ENDBRANCH  68  69
ENDBRANCH  49  63
BRANCH  50  73
ATOM     73  C   UNL A   1      49.884  26.921  27.101  1.00  0.00    -0.014 A 
ATOM     74  C   UNL A   1      50.777  26.080  27.785  1.00  0.00     0.010 A 
ATOM     75  C   UNL A   1      50.150  27.255  25.760  1.00  0.00     0.010 A 
ATOM     76  C   UNL A   1      51.908  25.572  27.137  1.00  0.00     0.020 A 
ATOM     77  C   UNL A   1      51.263  26.726  25.100  1.00  0.00     0.020 A 
ATOM     78  C   UNL A   1      52.136  25.887  25.794  1.00  0.00     0.054 A 
BRANCH  78  79
ATOM     79  S   UNL A   1      53.549  25.127  24.944  1.00  0.00     0.124 S 
ATOM     80  O   UNL A   1      53.337  25.547  23.562  1.00  0.00    -0.237 OA
ATOM     81  O   UNL A   1      54.687  25.740  25.624  1.00  0.00    -0.237 OA
ATOM     82  O   UNL A   1      53.376  23.700  25.199  1.00  0.00    -0.744 OA
ENDBRANCH  78  79
ENDBRANCH  50  73
BRANCH  62  83
ATOM     83  C   UNL A   1      48.194  32.796  30.511  1.00  0.00    -0.014 A 
ATOM     84  C   UNL A   1      48.302  33.937  29.697  1.00  0.00     0.010 A 
ATOM     85  C   UNL A   1      48.809  32.805  31.779  1.00  0.00     0.010 A 
ATOM     86  C   UNL A   1      49.043  35.044  30.122  1.00  0.00     0.020 A 
ATOM     87  C   UNL A   1      49.523  33.922  32.221  1.00  0.00     0.020 A 
ATOM     88  C   UNL A   1      49.651  35.029  31.381  1.00  0.00     0.054 A 
BRANCH  88  89
ATOM     89  S   UNL A   1      50.585  36.486  31.921  1.00  0.00     0.124 S 
ATOM     90  O   UNL A   1      51.539  36.658  30.829  1.00  0.00    -0.237 OA
ATOM     91  O   UNL A   1      49.550  37.513  32.018  1.00  0.00    -0.237 OA
ATOM     92  O   UNL A   1      51.167  36.075  33.196  1.00  0.00    -0.744 OA
ENDBRANCH  88  89
ENDBRANCH  62  83
ENDBRANCH  36  37
ENDBRANCH  29  31
ENDBRANCH  28  29
ENDBRANCH  27  28
ENDBRANCH  26  27
ENDBRANCH  25  26
ENDBRANCH  24  25
ENDBRANCH   1  24
TORSDOF 23
ENDMDL
