MODEL 1
REMARK VINA RESULT:     -10.9      0.000      0.000
REMARK SMILES CC(C)[N@@H+](C)Cc1cc2c(cc1Cl)C=C(C(=O)OCCOCCOCCOC(=O)c1ccc(-c3c4nc(c(-c5ccc(S(=O)(=O)[O-])cc5)c5ccc([nH]5)c(-c5ccc(S(=O)(=O)[O-])cc5)c5nc(c(-c6ccc(S(=O)(=O)[O-])cc6)c6ccc3[nH]6)C=C5)C=C4)cc1)[C@@H](C(F)(F)F)O2
REMARK SMILES IDX 22 1 21 2 20 3 19 4 18 5 16 6 17 7 15 8 7 9 8 10 12 11 9 12
REMARK SMILES IDX 11 13 13 14 10 15 95 16 14 17 90 18 6 19 4 20 5 21 2 23 1 24
REMARK SMILES IDX 3 25 91 26 92 27 93 28 94 29 23 30 24 31 25 32 26 33 27 34
REMARK SMILES IDX 28 35 29 36 30 37 31 38 89 39 32 40 88 41 33 42 34 43 35 44
REMARK SMILES IDX 82 45 36 46 87 47 81 48 83 49 37 50 86 51 80 52 79 53 38 55
REMARK SMILES IDX 68 56 49 57 67 58 50 59 53 60 66 61 84 62 51 63 52 64 65 66
REMARK SMILES IDX 85 67 54 68 39 69 40 70 48 71 41 72 47 73 42 74 43 75 44 76
REMARK SMILES IDX 45 77 46 78 69 79 70 80 78 81 71 82 77 83 72 84 73 85 74 86
REMARK SMILES IDX 75 87 76 88 55 89 56 90 64 91 57 92 63 93 58 94 59 95 60 96
REMARK SMILES IDX 61 97 62 98
REMARK H PARENT 4 22 83 54 53 65
REMARK Flexibility Score: inf
ROOT
ATOM      1  C   UNL A   1      40.531  21.462  27.212  1.00  0.00     0.188 C 
ENDROOT
BRANCH   1   2
ATOM      2  O   UNL A   1      39.452  21.495  26.292  1.00  0.00    -0.376 OA
BRANCH   2   3
ATOM      3  C   UNL A   1      38.807  22.749  26.127  1.00  0.00     0.202 C 
BRANCH   3   4
ATOM      4  C   UNL A   1      37.515  22.700  25.304  1.00  0.00     0.261 C 
BRANCH   4   5
ATOM      5  O   UNL A   1      36.715  23.891  25.377  1.00  0.00    -0.460 OA
BRANCH   5   6
ATOM      6  C   UNL A   1      35.443  23.755  25.808  1.00  0.00     0.338 C 
ATOM      7  O   UNL A   1      35.059  23.047  26.723  1.00  0.00    -0.246 OA
BRANCH   6   8
ATOM      8  C   UNL A   1      34.596  24.701  25.048  1.00  0.00     0.087 C 
ATOM      9  C   UNL A   1      31.617  28.451  23.434  1.00  0.00     0.029 A 
ATOM     10  C   UNL A   1      32.112  27.252  22.901  1.00  0.00     0.058 A 
ATOM     11  C   UNL A   1      32.022  28.775  24.744  1.00  0.00     0.050 A 
ATOM     12  C   UNL A   1      32.996  26.434  23.608  1.00  0.00     0.128 A 
ATOM     13  C   UNL A   1      32.881  27.934  25.474  1.00  0.00     0.033 A 
ATOM     14  Cl  UNL A   1      31.466  30.201  25.551  1.00  0.00    -0.084 Cl
ATOM     15  C   UNL A   1      33.357  26.746  24.912  1.00  0.00     0.019 A 
ATOM     16  O   UNL A   1      33.441  25.343  22.926  1.00  0.00    -0.475 OA
ATOM     17  C   UNL A   1      34.174  25.810  25.673  1.00  0.00     0.027 C 
ATOM     18  C   UNL A   1      34.314  24.400  23.596  1.00  0.00     0.316 C 
BRANCH   9  19
ATOM     19  C   UNL A   1      30.604  29.295  22.679  1.00  0.00     0.300 C 
BRANCH  19  20
ATOM     20  N   UNL A   1      29.180  29.224  23.025  1.00  0.00    -0.332 N 
ATOM     21  C   UNL A   1      28.629  27.910  23.295  1.00  0.00     0.333 C 
ATOM     22  H   UNL A   1      29.303  29.637  23.948  1.00  0.00     0.348 HD
BRANCH  20  23
ATOM     23  C   UNL A   1      28.236  30.217  22.506  1.00  0.00     0.177 C 
ATOM     24  C   UNL A   1      27.879  31.257  23.574  1.00  0.00     0.075 C 
ATOM     25  C   UNL A   1      28.646  30.922  21.212  1.00  0.00     0.075 C 
ENDBRANCH  20  23
ENDBRANCH  19  20
ENDBRANCH   9  19
BRANCH  18  26
ATOM     26  C   UNL A   1      33.717  23.002  23.370  1.00  0.00     0.430 C 
ATOM     27  F   UNL A   1      33.340  22.840  22.077  1.00  0.00    -0.167 F 
ATOM     28  F   UNL A   1      34.600  22.012  23.636  1.00  0.00    -0.167 F 
ATOM     29  F   UNL A   1      32.625  22.788  24.136  1.00  0.00    -0.167 F 
ENDBRANCH  18  26
ENDBRANCH   6   8
ENDBRANCH   5   6
ENDBRANCH   4   5
ENDBRANCH   3   4
ENDBRANCH   2   3
ENDBRANCH   1   2
BRANCH   1  30
ATOM     30  C   UNL A   1      41.885  21.080  26.575  1.00  0.00     0.188 C 
BRANCH  30  31
ATOM     31  O   UNL A   1      42.286  21.648  25.334  1.00  0.00    -0.376 OA
BRANCH  31  32
ATOM     32  C   UNL A   1      43.299  22.645  25.317  1.00  0.00     0.202 C 
BRANCH  32  33
ATOM     33  C   UNL A   1      43.204  23.822  26.300  1.00  0.00     0.261 C 
BRANCH  33  34
ATOM     34  O   UNL A   1      41.945  24.509  26.304  1.00  0.00    -0.460 OA
BRANCH  34  35
ATOM     35  C   UNL A   1      41.989  25.813  25.927  1.00  0.00     0.338 C 
ATOM     36  O   UNL A   1      42.206  26.247  24.808  1.00  0.00    -0.246 OA
BRANCH  35  37
ATOM     37  C   UNL A   1      41.534  26.665  27.048  1.00  0.00     0.060 A 
ATOM     38  C   UNL A   1      40.558  26.228  27.944  1.00  0.00     0.016 A 
ATOM     39  C   UNL A   1      42.120  27.930  27.203  1.00  0.00     0.016 A 
ATOM     40  C   UNL A   1      40.192  27.050  29.015  1.00  0.00     0.010 A 
ATOM     41  C   UNL A   1      41.744  28.754  28.266  1.00  0.00     0.010 A 
ATOM     42  C   UNL A   1      40.792  28.311  29.193  1.00  0.00    -0.014 A 
BRANCH  42  43
ATOM     43  C   UNL A   1      40.544  29.075  30.440  1.00  0.00     0.031 A 
ATOM     44  C   UNL A   1      41.410  28.921  31.654  1.00  0.00     0.074 A 
ATOM     45  C   UNL A   1      39.510  29.938  30.456  1.00  0.00     0.049 A 
ATOM     46  N   UNL A   1      41.404  29.628  32.754  1.00  0.00    -0.248 NA
ATOM     47  C   UNL A   1      42.406  27.839  31.638  1.00  0.00     0.031 C 
ATOM     48  C   UNL A   1      38.579  30.143  29.344  1.00  0.00     0.029 A 
ATOM     49  N   UNL A   1      39.077  30.813  31.421  1.00  0.00    -0.354 N 
ATOM     50  C   UNL A   1      42.412  29.105  33.552  1.00  0.00     0.074 A 
ATOM     51  C   UNL A   1      42.975  27.981  32.830  1.00  0.00     0.031 C 
ATOM     52  C   UNL A   1      37.714  31.113  29.673  1.00  0.00     0.029 A 
ATOM     53  C   UNL A   1      38.012  31.586  31.022  1.00  0.00     0.049 A 
ATOM     54  H   UNL A   1      39.491  30.881  32.312  1.00  0.00     0.167 HD
ATOM     55  C   UNL A   1      42.839  29.541  34.761  1.00  0.00     0.031 A 
ATOM     56  C   UNL A   1      37.359  32.581  31.654  1.00  0.00     0.031 A 
ATOM     57  C   UNL A   1      42.250  30.646  35.477  1.00  0.00     0.049 A 
ATOM     58  C   UNL A   1      37.832  33.026  33.010  1.00  0.00     0.074 A 
ATOM     59  C   UNL A   1      42.644  31.183  36.692  1.00  0.00     0.029 A 
ATOM     60  N   UNL A   1      41.147  31.376  35.061  1.00  0.00    -0.354 N 
ATOM     61  N   UNL A   1      38.847  32.580  33.710  1.00  0.00    -0.248 NA
ATOM     62  C   UNL A   1      37.089  34.120  33.652  1.00  0.00     0.031 C 
ATOM     63  C   UNL A   1      41.740  32.188  37.042  1.00  0.00     0.029 A 
ATOM     64  C   UNL A   1      40.827  32.334  36.009  1.00  0.00     0.049 A 
ATOM     65  H   UNL A   1      40.662  31.234  34.215  1.00  0.00     0.167 HD
ATOM     66  C   UNL A   1      38.881  33.354  34.864  1.00  0.00     0.074 A 
ATOM     67  C   UNL A   1      37.792  34.305  34.764  1.00  0.00     0.031 C 
ATOM     68  C   UNL A   1      39.740  33.280  35.909  1.00  0.00     0.031 A 
BRANCH  55  69
ATOM     69  C   UNL A   1      44.021  28.854  35.396  1.00  0.00    -0.014 A 
ATOM     70  C   UNL A   1      45.329  29.168  34.980  1.00  0.00     0.010 A 
ATOM     71  C   UNL A   1      43.829  27.788  36.293  1.00  0.00     0.010 A 
ATOM     72  C   UNL A   1      46.417  28.409  35.422  1.00  0.00     0.020 A 
ATOM     73  C   UNL A   1      44.916  27.043  36.758  1.00  0.00     0.020 A 
ATOM     74  C   UNL A   1      46.201  27.344  36.300  1.00  0.00     0.054 A 
BRANCH  74  75
ATOM     75  S   UNL A   1      47.619  26.346  36.834  1.00  0.00     0.124 S 
ATOM     76  O   UNL A   1      47.823  26.806  38.204  1.00  0.00    -0.237 OA
ATOM     77  O   UNL A   1      47.120  24.980  36.694  1.00  0.00    -0.237 OA
ATOM     78  O   UNL A   1      48.671  26.714  35.888  1.00  0.00    -0.744 OA
ENDBRANCH  74  75
ENDBRANCH  55  69
BRANCH  56  79
ATOM     79  C   UNL A   1      36.237  33.262  30.954  1.00  0.00    -0.014 A 
ATOM     80  C   UNL A   1      36.434  33.834  29.683  1.00  0.00     0.010 A 
ATOM     81  C   UNL A   1      34.999  33.433  31.597  1.00  0.00     0.010 A 
ATOM     82  C   UNL A   1      35.434  34.611  29.093  1.00  0.00     0.020 A 
ATOM     83  C   UNL A   1      33.985  34.187  30.997  1.00  0.00     0.020 A 
ATOM     84  C   UNL A   1      34.221  34.796  29.763  1.00  0.00     0.054 A 
BRANCH  84  85
ATOM     85  S   UNL A   1      32.962  35.860  29.006  1.00  0.00     0.124 S 
ATOM     86  O   UNL A   1      33.778  36.926  28.432  1.00  0.00    -0.237 OA
ATOM     87  O   UNL A   1      32.324  34.966  28.043  1.00  0.00    -0.237 OA
ATOM     88  O   UNL A   1      32.124  36.254  30.136  1.00  0.00    -0.744 OA
ENDBRANCH  84  85
ENDBRANCH  56  79
BRANCH  68  89
ATOM     89  C   UNL A   1      39.564  34.246  37.053  1.00  0.00    -0.014 A 
ATOM     90  C   UNL A   1      40.075  35.554  36.945  1.00  0.00     0.010 A 
ATOM     91  C   UNL A   1      39.030  33.822  38.282  1.00  0.00     0.010 A 
ATOM     92  C   UNL A   1      40.095  36.404  38.054  1.00  0.00     0.020 A 
ATOM     93  C   UNL A   1      39.020  34.680  39.387  1.00  0.00     0.020 A 
ATOM     94  C   UNL A   1      39.580  35.956  39.272  1.00  0.00     0.054 A 
BRANCH  94  95
ATOM     95  S   UNL A   1      39.662  37.054  40.715  1.00  0.00     0.124 S 
ATOM     96  O   UNL A   1      40.894  37.797  40.466  1.00  0.00    -0.237 OA
ATOM     97  O   UNL A   1      38.426  37.826  40.601  1.00  0.00    -0.237 OA
ATOM     98  O   UNL A   1      39.706  36.130  41.847  1.00  0.00    -0.744 OA
ENDBRANCH  94  95
ENDBRANCH  68  89
ENDBRANCH  42  43
ENDBRANCH  35  37
ENDBRANCH  34  35
ENDBRANCH  33  34
ENDBRANCH  32  33
ENDBRANCH  31  32
ENDBRANCH  30  31
ENDBRANCH   1  30
TORSDOF 24
ENDMDL
MODEL 2
REMARK VINA RESULT:     -10.1      1.730      2.434
REMARK SMILES CC(C)[N@@H+](C)Cc1cc2c(cc1Cl)C=C(C(=O)OCCOCCOCCOC(=O)c1ccc(-c3c4nc(c(-c5ccc(S(=O)(=O)[O-])cc5)c5ccc([nH]5)c(-c5ccc(S(=O)(=O)[O-])cc5)c5nc(c(-c6ccc(S(=O)(=O)[O-])cc6)c6ccc3[nH]6)C=C5)C=C4)cc1)[C@@H](C(F)(F)F)O2
REMARK SMILES IDX 22 1 21 2 20 3 19 4 18 5 16 6 17 7 15 8 7 9 8 10 12 11 9 12
REMARK SMILES IDX 11 13 13 14 10 15 95 16 14 17 90 18 6 19 4 20 5 21 2 23 1 24
REMARK SMILES IDX 3 25 91 26 92 27 93 28 94 29 23 30 24 31 25 32 26 33 27 34
REMARK SMILES IDX 28 35 29 36 30 37 31 38 89 39 32 40 88 41 33 42 34 43 35 44
REMARK SMILES IDX 82 45 36 46 87 47 81 48 83 49 37 50 86 51 80 52 79 53 38 55
REMARK SMILES IDX 68 56 49 57 67 58 50 59 53 60 66 61 84 62 51 63 52 64 65 66
REMARK SMILES IDX 85 67 54 68 39 69 40 70 48 71 41 72 47 73 42 74 43 75 44 76
REMARK SMILES IDX 45 77 46 78 69 79 70 80 78 81 71 82 77 83 72 84 73 85 74 86
REMARK SMILES IDX 75 87 76 88 55 89 56 90 64 91 57 92 63 93 58 94 59 95 60 96
REMARK SMILES IDX 61 97 62 98
REMARK H PARENT 4 22 83 54 53 65
REMARK Flexibility Score: inf
ROOT
ATOM      1  C   UNL A   1      39.404  22.639  26.709  1.00  0.00     0.188 C 
ENDROOT
BRANCH   1   2
ATOM      2  O   UNL A   1      38.331  22.259  25.862  1.00  0.00    -0.376 OA
BRANCH   2   3
ATOM      3  C   UNL A   1      38.411  20.961  25.293  1.00  0.00     0.202 C 
BRANCH   3   4
ATOM      4  C   UNL A   1      37.059  20.270  25.084  1.00  0.00     0.261 C 
BRANCH   4   5
ATOM      5  O   UNL A   1      35.943  21.167  24.958  1.00  0.00    -0.460 OA
BRANCH   5   6
ATOM      6  C   UNL A   1      34.712  20.616  24.901  1.00  0.00     0.338 C 
ATOM      7  O   UNL A   1      34.447  19.428  24.947  1.00  0.00    -0.246 OA
BRANCH   6   8
ATOM      8  C   UNL A   1      33.719  21.712  24.882  1.00  0.00     0.087 C 
ATOM      9  C   UNL A   1      30.771  25.677  23.821  1.00  0.00     0.029 A 
ATOM     10  C   UNL A   1      31.008  24.864  24.938  1.00  0.00     0.058 A 
ATOM     11  C   UNL A   1      31.485  25.363  22.648  1.00  0.00     0.050 A 
ATOM     12  C   UNL A   1      31.873  23.770  24.889  1.00  0.00     0.128 A 
ATOM     13  C   UNL A   1      32.388  24.286  22.607  1.00  0.00     0.033 A 
ATOM     14  Cl  UNL A   1      31.328  26.297  21.199  1.00  0.00    -0.084 Cl
ATOM     15  C   UNL A   1      32.599  23.494  23.738  1.00  0.00     0.019 A 
ATOM     16  O   UNL A   1      31.940  23.037  26.036  1.00  0.00    -0.475 OA
ATOM     17  C   UNL A   1      33.592  22.428  23.755  1.00  0.00     0.027 C 
ATOM     18  C   UNL A   1      32.858  21.918  26.105  1.00  0.00     0.316 C 
BRANCH   9  19
ATOM     19  C   UNL A   1      29.877  26.904  23.909  1.00  0.00     0.300 C 
BRANCH  19  20
ATOM     20  N   UNL A   1      30.461  28.248  23.837  1.00  0.00    -0.332 N 
ATOM     21  C   UNL A   1      31.358  28.639  24.907  1.00  0.00     0.333 C 
ATOM     22  H   UNL A   1      31.082  28.023  23.061  1.00  0.00     0.348 HD
BRANCH  20  23
ATOM     23  C   UNL A   1      29.739  29.340  23.179  1.00  0.00     0.177 C 
ATOM     24  C   UNL A   1      30.444  29.776  21.889  1.00  0.00     0.075 C 
ATOM     25  C   UNL A   1      28.255  29.093  22.901  1.00  0.00     0.075 C 
ENDBRANCH  20  23
ENDBRANCH  19  20
ENDBRANCH   9  19
BRANCH  18  26
ATOM     26  C   UNL A   1      33.670  22.086  27.399  1.00  0.00     0.430 C 
ATOM     27  F   UNL A   1      34.596  23.069  27.266  1.00  0.00    -0.167 F 
ATOM     28  F   UNL A   1      32.897  22.432  28.455  1.00  0.00    -0.167 F 
ATOM     29  F   UNL A   1      34.329  20.955  27.734  1.00  0.00    -0.167 F 
ENDBRANCH  18  26
ENDBRANCH   6   8
ENDBRANCH   5   6
ENDBRANCH   4   5
ENDBRANCH   3   4
ENDBRANCH   2   3
ENDBRANCH   1   2
BRANCH   1  30
ATOM     30  C   UNL A   1      40.791  22.197  26.195  1.00  0.00     0.188 C 
BRANCH  30  31
ATOM     31  O   UNL A   1      41.891  22.078  27.091  1.00  0.00    -0.376 OA
BRANCH  31  32
ATOM     32  C   UNL A   1      43.134  22.680  26.753  1.00  0.00     0.202 C 
BRANCH  32  33
ATOM     33  C   UNL A   1      43.238  23.504  25.462  1.00  0.00     0.261 C 
BRANCH  33  34
ATOM     34  O   UNL A   1      43.409  24.916  25.654  1.00  0.00    -0.460 OA
BRANCH  34  35
ATOM     35  C   UNL A   1      42.262  25.640  25.712  1.00  0.00     0.338 C 
ATOM     36  O   UNL A   1      41.353  25.642  24.900  1.00  0.00    -0.246 OA
BRANCH  35  37
ATOM     37  C   UNL A   1      42.167  26.305  27.031  1.00  0.00     0.060 A 
ATOM     38  C   UNL A   1      42.953  27.415  27.345  1.00  0.00     0.016 A 
ATOM     39  C   UNL A   1      41.252  25.801  27.966  1.00  0.00     0.016 A 
ATOM     40  C   UNL A   1      42.798  28.037  28.587  1.00  0.00     0.010 A 
ATOM     41  C   UNL A   1      41.106  26.417  29.212  1.00  0.00     0.010 A 
ATOM     42  C   UNL A   1      41.863  27.554  29.523  1.00  0.00    -0.014 A 
BRANCH  42  43
ATOM     43  C   UNL A   1      41.566  28.343  30.743  1.00  0.00     0.031 A 
ATOM     44  C   UNL A   1      42.414  28.253  31.975  1.00  0.00     0.074 A 
ATOM     45  C   UNL A   1      40.502  29.170  30.717  1.00  0.00     0.049 A 
ATOM     46  N   UNL A   1      42.363  28.990  33.055  1.00  0.00    -0.248 NA
ATOM     47  C   UNL A   1      43.447  27.206  32.008  1.00  0.00     0.031 C 
ATOM     48  C   UNL A   1      39.586  29.312  29.583  1.00  0.00     0.029 A 
ATOM     49  N   UNL A   1      40.023  30.056  31.648  1.00  0.00    -0.354 N 
ATOM     50  C   UNL A   1      43.374  28.524  33.885  1.00  0.00     0.074 A 
ATOM     51  C   UNL A   1      43.988  27.401  33.205  1.00  0.00     0.031 C 
ATOM     52  C   UNL A   1      38.683  30.260  29.869  1.00  0.00     0.029 A 
ATOM     53  C   UNL A   1      38.940  30.780  31.210  1.00  0.00     0.049 A 
ATOM     54  H   UNL A   1      40.417  30.162  32.544  1.00  0.00     0.167 HD
ATOM     55  C   UNL A   1      43.763  29.008  35.088  1.00  0.00     0.031 A 
ATOM     56  C   UNL A   1      38.241  31.769  31.802  1.00  0.00     0.031 A 
ATOM     57  C   UNL A   1      43.124  30.111  35.763  1.00  0.00     0.049 A 
ATOM     58  C   UNL A   1      38.673  32.268  33.152  1.00  0.00     0.074 A 
ATOM     59  C   UNL A   1      43.477  30.695  36.968  1.00  0.00     0.029 A 
ATOM     60  N   UNL A   1      42.005  30.791  35.307  1.00  0.00    -0.354 N 
ATOM     61  N   UNL A   1      39.690  31.877  33.882  1.00  0.00    -0.248 NA
ATOM     62  C   UNL A   1      37.882  33.353  33.750  1.00  0.00     0.031 C 
ATOM     63  C   UNL A   1      42.532  31.677  37.274  1.00  0.00     0.029 A 
ATOM     64  C   UNL A   1      41.634  31.763  36.222  1.00  0.00     0.049 A 
ATOM     65  H   UNL A   1      41.540  30.608  34.457  1.00  0.00     0.167 HD
ATOM     66  C   UNL A   1      39.676  32.683  35.015  1.00  0.00     0.074 A 
ATOM     67  C   UNL A   1      38.558  33.592  34.868  1.00  0.00     0.031 C 
ATOM     68  C   UNL A   1      40.518  32.667  36.076  1.00  0.00     0.031 A 
BRANCH  55  69
ATOM     69  C   UNL A   1      44.957  28.381  35.763  1.00  0.00    -0.014 A 
ATOM     70  C   UNL A   1      44.776  27.349  36.704  1.00  0.00     0.010 A 
ATOM     71  C   UNL A   1      46.243  28.919  35.581  1.00  0.00     0.010 A 
ATOM     72  C   UNL A   1      45.850  26.890  37.472  1.00  0.00     0.020 A 
ATOM     73  C   UNL A   1      47.326  28.445  36.328  1.00  0.00     0.020 A 
ATOM     74  C   UNL A   1      47.117  27.450  37.286  1.00  0.00     0.054 A 
BRANCH  74  75
ATOM     75  S   UNL A   1      48.492  26.870  38.317  1.00  0.00     0.124 S 
ATOM     76  O   UNL A   1      49.649  27.464  37.654  1.00  0.00    -0.237 OA
ATOM     77  O   UNL A   1      48.163  27.421  39.630  1.00  0.00    -0.237 OA
ATOM     78  O   UNL A   1      48.398  25.414  38.224  1.00  0.00    -0.744 OA
ENDBRANCH  74  75
ENDBRANCH  55  69
BRANCH  56  79
ATOM     79  C   UNL A   1      37.109  32.391  31.063  1.00  0.00    -0.014 A 
ATOM     80  C   UNL A   1      37.346  33.428  30.141  1.00  0.00     0.010 A 
ATOM     81  C   UNL A   1      35.785  32.023  31.354  1.00  0.00     0.010 A 
ATOM     82  C   UNL A   1      36.278  34.123  29.567  1.00  0.00     0.020 A 
ATOM     83  C   UNL A   1      34.713  32.697  30.758  1.00  0.00     0.020 A 
ATOM     84  C   UNL A   1      34.968  33.763  29.893  1.00  0.00     0.054 A 
BRANCH  84  85
ATOM     85  S   UNL A   1      33.600  34.720  29.184  1.00  0.00     0.124 S 
ATOM     86  O   UNL A   1      34.298  35.881  28.640  1.00  0.00    -0.237 OA
ATOM     87  O   UNL A   1      33.044  33.799  28.196  1.00  0.00    -0.237 OA
ATOM     88  O   UNL A   1      32.740  34.990  30.334  1.00  0.00    -0.744 OA
ENDBRANCH  84  85
ENDBRANCH  56  79
BRANCH  68  89
ATOM     89  C   UNL A   1      40.288  33.659  37.189  1.00  0.00    -0.014 A 
ATOM     90  C   UNL A   1      39.144  33.541  38.001  1.00  0.00     0.010 A 
ATOM     91  C   UNL A   1      41.118  34.784  37.337  1.00  0.00     0.010 A 
ATOM     92  C   UNL A   1      38.810  34.549  38.909  1.00  0.00     0.020 A 
ATOM     93  C   UNL A   1      40.803  35.781  38.266  1.00  0.00     0.020 A 
ATOM     94  C   UNL A   1      39.635  35.670  39.025  1.00  0.00     0.054 A 
BRANCH  94  95
ATOM     95  S   UNL A   1      39.157  36.994  40.171  1.00  0.00     0.124 S 
ATOM     96  O   UNL A   1      38.329  36.280  41.138  1.00  0.00    -0.237 OA
ATOM     97  O   UNL A   1      40.447  37.466  40.672  1.00  0.00    -0.237 OA
ATOM     98  O   UNL A   1      38.445  37.945  39.319  1.00  0.00    -0.744 OA
ENDBRANCH  94  95
ENDBRANCH  68  89
ENDBRANCH  42  43
ENDBRANCH  35  37
ENDBRANCH  34  35
ENDBRANCH  33  34
ENDBRANCH  32  33
ENDBRANCH  31  32
ENDBRANCH  30  31
ENDBRANCH   1  30
TORSDOF 24
ENDMDL
MODEL 3
REMARK VINA RESULT:     -10.1      6.126     11.725
REMARK SMILES CC(C)[N@@H+](C)Cc1cc2c(cc1Cl)C=C(C(=O)OCCOCCOCCOC(=O)c1ccc(-c3c4nc(c(-c5ccc(S(=O)(=O)[O-])cc5)c5ccc([nH]5)c(-c5ccc(S(=O)(=O)[O-])cc5)c5nc(c(-c6ccc(S(=O)(=O)[O-])cc6)c6ccc3[nH]6)C=C5)C=C4)cc1)[C@@H](C(F)(F)F)O2
REMARK SMILES IDX 22 1 21 2 20 3 19 4 18 5 16 6 17 7 15 8 7 9 8 10 12 11 9 12
REMARK SMILES IDX 11 13 13 14 10 15 95 16 14 17 90 18 6 19 4 20 5 21 2 23 1 24
REMARK SMILES IDX 3 25 91 26 92 27 93 28 94 29 23 30 24 31 25 32 26 33 27 34
REMARK SMILES IDX 28 35 29 36 30 37 31 38 89 39 32 40 88 41 33 42 34 43 35 44
REMARK SMILES IDX 82 45 36 46 87 47 81 48 83 49 37 50 86 51 80 52 79 53 38 55
REMARK SMILES IDX 68 56 49 57 67 58 50 59 53 60 66 61 84 62 51 63 52 64 65 66
REMARK SMILES IDX 85 67 54 68 39 69 40 70 48 71 41 72 47 73 42 74 43 75 44 76
REMARK SMILES IDX 45 77 46 78 69 79 70 80 78 81 71 82 77 83 72 84 73 85 74 86
REMARK SMILES IDX 75 87 76 88 55 89 56 90 64 91 57 92 63 93 58 94 59 95 60 96
REMARK SMILES IDX 61 97 62 98
REMARK H PARENT 4 22 83 54 53 65
REMARK Flexibility Score: inf
ROOT
ATOM      1  C   UNL A   1      34.251  33.775  28.300  1.00  0.00     0.188 C 
ENDROOT
BRANCH   1   2
ATOM      2  O   UNL A   1      33.244  32.868  27.881  1.00  0.00    -0.376 OA
BRANCH   2   3
ATOM      3  C   UNL A   1      33.622  31.501  27.813  1.00  0.00     0.202 C 
BRANCH   3   4
ATOM      4  C   UNL A   1      33.291  30.811  26.485  1.00  0.00     0.261 C 
BRANCH   4   5
ATOM      5  O   UNL A   1      32.373  29.711  26.597  1.00  0.00    -0.460 OA
BRANCH   5   6
ATOM      6  C   UNL A   1      31.619  29.423  25.514  1.00  0.00     0.338 C 
ATOM      7  O   UNL A   1      30.894  30.194  24.911  1.00  0.00    -0.246 OA
BRANCH   6   8
ATOM      8  C   UNL A   1      31.907  28.029  25.110  1.00  0.00     0.087 C 
ATOM      9  C   UNL A   1      33.042  23.113  24.824  1.00  0.00     0.029 A 
ATOM     10  C   UNL A   1      32.847  24.161  23.912  1.00  0.00     0.058 A 
ATOM     11  C   UNL A   1      32.881  23.425  26.188  1.00  0.00     0.050 A 
ATOM     12  C   UNL A   1      32.470  25.441  24.322  1.00  0.00     0.128 A 
ATOM     13  C   UNL A   1      32.540  24.723  26.608  1.00  0.00     0.033 A 
ATOM     14  Cl  UNL A   1      33.125  22.249  27.434  1.00  0.00    -0.084 Cl
ATOM     15  C   UNL A   1      32.351  25.744  25.672  1.00  0.00     0.019 A 
ATOM     16  O   UNL A   1      32.250  26.327  23.312  1.00  0.00    -0.475 OA
ATOM     17  C   UNL A   1      32.087  27.118  26.078  1.00  0.00     0.027 C 
ATOM     18  C   UNL A   1      31.915  27.699  23.637  1.00  0.00     0.316 C 
BRANCH   9  19
ATOM     19  C   UNL A   1      33.517  21.743  24.367  1.00  0.00     0.300 C 
BRANCH  19  20
ATOM     20  N   UNL A   1      34.939  21.391  24.448  1.00  0.00    -0.332 N 
ATOM     21  C   UNL A   1      35.273  20.121  25.062  1.00  0.00     0.333 C 
ATOM     22  H   UNL A   1      35.033  21.216  23.448  1.00  0.00     0.348 HD
BRANCH  20  23
ATOM     23  C   UNL A   1      35.962  22.435  24.546  1.00  0.00     0.177 C 
ATOM     24  C   UNL A   1      37.071  22.037  25.526  1.00  0.00     0.075 C 
ATOM     25  C   UNL A   1      36.579  22.896  23.224  1.00  0.00     0.075 C 
ENDBRANCH  20  23
ENDBRANCH  19  20
ENDBRANCH   9  19
BRANCH  18  26
ATOM     26  C   UNL A   1      32.857  28.594  22.818  1.00  0.00     0.430 C 
ATOM     27  F   UNL A   1      33.578  27.859  21.934  1.00  0.00    -0.167 F 
ATOM     28  F   UNL A   1      32.190  29.520  22.089  1.00  0.00    -0.167 F 
ATOM     29  F   UNL A   1      33.738  29.255  23.603  1.00  0.00    -0.167 F 
ENDBRANCH  18  26
ENDBRANCH   6   8
ENDBRANCH   5   6
ENDBRANCH   4   5
ENDBRANCH   3   4
ENDBRANCH   2   3
ENDBRANCH   1   2
BRANCH   1  30
ATOM     30  C   UNL A   1      34.321  33.966  29.831  1.00  0.00     0.188 C 
BRANCH  30  31
ATOM     31  O   UNL A   1      34.273  32.842  30.704  1.00  0.00    -0.376 OA
BRANCH  31  32
ATOM     32  C   UNL A   1      35.487  32.252  31.149  1.00  0.00     0.202 C 
BRANCH  32  33
ATOM     33  C   UNL A   1      36.466  31.685  30.111  1.00  0.00     0.261 C 
BRANCH  33  34
ATOM     34  O   UNL A   1      36.841  30.315  30.315  1.00  0.00    -0.460 OA
BRANCH  34  35
ATOM     35  C   UNL A   1      36.856  29.540  29.200  1.00  0.00     0.338 C 
ATOM     36  O   UNL A   1      35.919  29.306  28.456  1.00  0.00    -0.246 OA
BRANCH  35  37
ATOM     37  C   UNL A   1      38.251  29.159  28.884  1.00  0.00     0.060 A 
ATOM     38  C   UNL A   1      38.783  29.336  27.606  1.00  0.00     0.016 A 
ATOM     39  C   UNL A   1      39.043  28.624  29.910  1.00  0.00     0.016 A 
ATOM     40  C   UNL A   1      40.119  29.004  27.366  1.00  0.00     0.010 A 
ATOM     41  C   UNL A   1      40.375  28.280  29.665  1.00  0.00     0.010 A 
ATOM     42  C   UNL A   1      40.929  28.489  28.396  1.00  0.00    -0.014 A 
BRANCH  42  43
ATOM     43  C   UNL A   1      42.389  28.337  28.179  1.00  0.00     0.031 A 
ATOM     44  C   UNL A   1      42.981  27.090  27.597  1.00  0.00     0.074 A 
ATOM     45  C   UNL A   1      43.188  29.369  28.513  1.00  0.00     0.049 A 
ATOM     46  N   UNL A   1      44.214  26.876  27.214  1.00  0.00    -0.248 NA
ATOM     47  C   UNL A   1      42.086  25.936  27.422  1.00  0.00     0.031 C 
ATOM     48  C   UNL A   1      42.723  30.618  29.121  1.00  0.00     0.029 A 
ATOM     49  N   UNL A   1      44.541  29.547  28.375  1.00  0.00    -0.354 N 
ATOM     50  C   UNL A   1      44.242  25.578  26.721  1.00  0.00     0.074 A 
ATOM     51  C   UNL A   1      42.912  25.032  26.906  1.00  0.00     0.031 C 
ATOM     52  C   UNL A   1      43.766  31.449  29.262  1.00  0.00     0.029 A 
ATOM     53  C   UNL A   1      44.975  30.788  28.776  1.00  0.00     0.049 A 
ATOM     54  H   UNL A   1      45.143  28.853  28.021  1.00  0.00     0.167 HD
ATOM     55  C   UNL A   1      45.277  24.918  26.149  1.00  0.00     0.031 A 
ATOM     56  C   UNL A   1      46.200  31.349  28.738  1.00  0.00     0.031 A 
ATOM     57  C   UNL A   1      46.602  25.467  25.997  1.00  0.00     0.049 A 
ATOM     58  C   UNL A   1      47.340  30.585  28.127  1.00  0.00     0.074 A 
ATOM     59  C   UNL A   1      47.704  24.884  25.393  1.00  0.00     0.029 A 
ATOM     60  N   UNL A   1      47.013  26.710  26.454  1.00  0.00    -0.354 N 
ATOM     61  N   UNL A   1      47.327  29.393  27.582  1.00  0.00    -0.248 NA
ATOM     62  C   UNL A   1      48.653  31.245  28.104  1.00  0.00     0.031 C 
ATOM     63  C   UNL A   1      48.794  25.742  25.546  1.00  0.00     0.029 A 
ATOM     64  C   UNL A   1      48.358  26.897  26.175  1.00  0.00     0.049 A 
ATOM     65  H   UNL A   1      46.435  27.364  26.911  1.00  0.00     0.167 HD
ATOM     66  C   UNL A   1      48.622  29.169  27.129  1.00  0.00     0.074 A 
ATOM     67  C   UNL A   1      49.390  30.354  27.452  1.00  0.00     0.031 C 
ATOM     68  C   UNL A   1      49.123  28.077  26.501  1.00  0.00     0.031 A 
BRANCH  55  69
ATOM     69  C   UNL A   1      45.035  23.532  25.608  1.00  0.00    -0.014 A 
ATOM     70  C   UNL A   1      45.167  22.411  26.449  1.00  0.00     0.010 A 
ATOM     71  C   UNL A   1      44.828  23.331  24.231  1.00  0.00     0.010 A 
ATOM     72  C   UNL A   1      45.131  21.117  25.920  1.00  0.00     0.020 A 
ATOM     73  C   UNL A   1      44.765  22.038  23.702  1.00  0.00     0.020 A 
ATOM     74  C   UNL A   1      44.942  20.940  24.547  1.00  0.00     0.054 A 
BRANCH  74  75
ATOM     75  S   UNL A   1      44.935  19.256  23.872  1.00  0.00     0.124 S 
ATOM     76  O   UNL A   1      46.347  18.891  23.935  1.00  0.00    -0.237 OA
ATOM     77  O   UNL A   1      44.056  18.544  24.797  1.00  0.00    -0.237 OA
ATOM     78  O   UNL A   1      44.394  19.430  22.526  1.00  0.00    -0.744 OA
ENDBRANCH  74  75
ENDBRANCH  55  69
BRANCH  56  79
ATOM     79  C   UNL A   1      46.367  32.743  29.233  1.00  0.00    -0.014 A 
ATOM     80  C   UNL A   1      46.649  32.986  30.591  1.00  0.00     0.010 A 
ATOM     81  C   UNL A   1      46.144  33.833  28.374  1.00  0.00     0.010 A 
ATOM     82  C   UNL A   1      46.648  34.290  31.092  1.00  0.00     0.020 A 
ATOM     83  C   UNL A   1      46.171  35.142  28.867  1.00  0.00     0.020 A 
ATOM     84  C   UNL A   1      46.393  35.359  30.228  1.00  0.00     0.054 A 
BRANCH  84  85
ATOM     85  S   UNL A   1      46.334  37.038  30.913  1.00  0.00     0.124 S 
ATOM     86  O   UNL A   1      47.612  37.586  30.468  1.00  0.00    -0.237 OA
ATOM     87  O   UNL A   1      45.149  37.603  30.273  1.00  0.00    -0.237 OA
ATOM     88  O   UNL A   1      46.216  36.815  32.352  1.00  0.00    -0.744 OA
ENDBRANCH  84  85
ENDBRANCH  56  79
BRANCH  68  89
ATOM     89  C   UNL A   1      50.578  28.082  26.105  1.00  0.00    -0.014 A 
ATOM     90  C   UNL A   1      51.555  27.676  27.034  1.00  0.00     0.010 A 
ATOM     91  C   UNL A   1      50.991  28.624  24.875  1.00  0.00     0.010 A 
ATOM     92  C   UNL A   1      52.914  27.851  26.761  1.00  0.00     0.020 A 
ATOM     93  C   UNL A   1      52.351  28.773  24.585  1.00  0.00     0.020 A 
ATOM     94  C   UNL A   1      53.302  28.412  25.543  1.00  0.00     0.054 A 
BRANCH  94  95
ATOM     95  S   UNL A   1      55.069  28.681  25.226  1.00  0.00     0.124 S 
ATOM     96  O   UNL A   1      55.569  29.029  26.553  1.00  0.00    -0.237 OA
ATOM     97  O   UNL A   1      55.503  27.385  24.708  1.00  0.00    -0.237 OA
ATOM     98  O   UNL A   1      55.081  29.768  24.248  1.00  0.00    -0.744 OA
ENDBRANCH  94  95
ENDBRANCH  68  89
ENDBRANCH  42  43
ENDBRANCH  35  37
ENDBRANCH  34  35
ENDBRANCH  33  34
ENDBRANCH  32  33
ENDBRANCH  31  32
ENDBRANCH  30  31
ENDBRANCH   1  30
TORSDOF 24
ENDMDL
