MODEL 1
REMARK VINA RESULT:     -10.2      0.000      0.000
REMARK SMILES Cc1ccc(-c2nn(CCC(=O)OCCOCCOCCOC(=O)c3ccc(-c4c5nc(c(-c6ccc(S(=O)(=O)[O-])cc6)c6ccc([nH]6)c(-c6ccc(S(=O)(=O)[O-])cc6)c6nc(c(-c7ccc(S(=O)(=O)[O-])cc7)c7ccc4[nH]7)C=C6)C=C5)cc3)c(=O)c3noc(C)c23)cc1C
REMARK SMILES IDX 17 1 16 2 15 3 14 4 13 5 11 6 12 7 10 8 9 9 8 10 6 11 7 12
REMARK SMILES IDX 92 13 87 14 90 15 85 16 88 17 89 18 91 19 86 20 5 21 1 22
REMARK SMILES IDX 2 23 3 24 94 25 4 26 93 27 95 28 18 29 19 30 20 31 21 32
REMARK SMILES IDX 22 33 23 34 24 35 25 36 26 37 84 38 27 39 83 40 28 41 29 42
REMARK SMILES IDX 30 43 77 44 31 45 82 46 76 47 78 48 32 49 81 50 75 51 74 52
REMARK SMILES IDX 33 54 63 55 44 56 62 57 45 58 48 59 61 60 79 61 46 62 47 63
REMARK SMILES IDX 60 65 80 66 49 67 34 68 35 69 43 70 36 71 42 72 37 73 38 74
REMARK SMILES IDX 39 75 40 76 41 77 64 78 65 79 73 80 66 81 72 82 67 83 68 84
REMARK SMILES IDX 69 85 70 86 71 87 50 88 51 89 59 90 52 91 58 92 53 93 54 94
REMARK SMILES IDX 55 95 56 96 57 97
REMARK H PARENT 78 53 48 64
REMARK Flexibility Score: inf
ROOT
ATOM      1  C   UNL A   1      37.015  29.525  30.853  1.00  0.00     0.188 C 
ENDROOT
BRANCH   1   2
ATOM      2  O   UNL A   1      37.573  30.667  30.223  1.00  0.00    -0.376 OA
BRANCH   2   3
ATOM      3  C   UNL A   1      37.023  30.995  28.945  1.00  0.00     0.202 C 
BRANCH   3   4
ATOM      4  C   UNL A   1      35.481  30.912  28.799  1.00  0.00     0.261 C 
BRANCH   4   5
ATOM      5  O   UNL A   1      34.818  32.166  28.495  1.00  0.00    -0.463 OA
BRANCH   5   6
ATOM      6  C   UNL A   1      33.671  32.125  27.778  1.00  0.00     0.307 C 
ATOM      7  O   UNL A   1      32.901  33.071  27.652  1.00  0.00    -0.252 OA
BRANCH   6   8
ATOM      8  C   UNL A   1      33.409  30.771  27.141  1.00  0.00     0.146 C 
BRANCH   8   9
ATOM      9  C   UNL A   1      31.971  30.386  26.759  1.00  0.00     0.160 C 
BRANCH   9  10
ATOM     10  N   UNL A   1      31.828  29.317  25.767  1.00  0.00    -0.227 N 
ATOM     11  C   UNL A   1      32.258  27.049  25.327  1.00  0.00     0.104 A 
ATOM     12  N   UNL A   1      32.375  28.073  26.126  1.00  0.00    -0.169 NA
ATOM     13  C   UNL A   1      31.638  27.196  24.040  1.00  0.00     0.078 A 
ATOM     14  C   UNL A   1      31.041  28.409  23.704  1.00  0.00     0.183 A 
ATOM     15  C   UNL A   1      31.458  26.414  22.923  1.00  0.00     0.143 A 
ATOM     16  C   UNL A   1      31.035  29.515  24.621  1.00  0.00     0.296 A 
ATOM     17  N   UNL A   1      30.530  28.409  22.468  1.00  0.00    -0.074 NA
ATOM     18  O   UNL A   1      30.794  27.144  21.977  1.00  0.00    -0.360 OA
ATOM     19  C   UNL A   1      31.813  25.048  22.507  1.00  0.00     0.091 C 
ATOM     20  O   UNL A   1      30.401  30.530  24.373  1.00  0.00    -0.265 OA
BRANCH  11  21
ATOM     21  C   UNL A   1      32.793  25.749  25.724  1.00  0.00     0.003 A 
ATOM     22  C   UNL A   1      34.417  21.918  26.768  1.00  0.00     0.044 C 
ATOM     23  C   UNL A   1      33.873  23.268  26.390  1.00  0.00    -0.048 A 
ATOM     24  C   UNL A   1      32.553  23.598  26.755  1.00  0.00     0.004 A 
ATOM     25  C   UNL A   1      34.657  24.207  25.689  1.00  0.00    -0.048 A 
ATOM     26  C   UNL A   1      32.008  24.839  26.424  1.00  0.00     0.011 A 
ATOM     27  C   UNL A   1      34.110  25.455  25.379  1.00  0.00     0.014 A 
ATOM     28  C   UNL A   1      36.063  23.953  25.227  1.00  0.00     0.044 C 
ENDBRANCH  11  21
ENDBRANCH   9  10
ENDBRANCH   8   9
ENDBRANCH   6   8
ENDBRANCH   5   6
ENDBRANCH   4   5
ENDBRANCH   3   4
ENDBRANCH   2   3
ENDBRANCH   1   2
BRANCH   1  29
ATOM     29  C   UNL A   1      37.132  29.474  32.367  1.00  0.00     0.188 C 
BRANCH  29  30
ATOM     30  O   UNL A   1      37.609  28.236  32.887  1.00  0.00    -0.376 OA
BRANCH  30  31
ATOM     31  C   UNL A   1      38.654  27.608  32.150  1.00  0.00     0.202 C 
BRANCH  31  32
ATOM     32  C   UNL A   1      40.091  28.017  32.532  1.00  0.00     0.261 C 
BRANCH  32  33
ATOM     33  O   UNL A   1      41.076  27.777  31.518  1.00  0.00    -0.460 OA
BRANCH  33  34
ATOM     34  C   UNL A   1      42.347  28.017  31.926  1.00  0.00     0.338 C 
ATOM     35  O   UNL A   1      43.244  27.201  32.063  1.00  0.00    -0.246 OA
BRANCH  34  36
ATOM     36  C   UNL A   1      42.555  29.465  32.091  1.00  0.00     0.060 A 
ATOM     37  C   UNL A   1      42.621  30.000  33.385  1.00  0.00     0.016 A 
ATOM     38  C   UNL A   1      42.531  30.298  30.980  1.00  0.00     0.016 A 
ATOM     39  C   UNL A   1      42.592  31.381  33.576  1.00  0.00     0.010 A 
ATOM     40  C   UNL A   1      42.440  31.673  31.180  1.00  0.00     0.010 A 
ATOM     41  C   UNL A   1      42.440  32.230  32.475  1.00  0.00    -0.014 A 
BRANCH  41  42
ATOM     42  C   UNL A   1      42.287  33.698  32.698  1.00  0.00     0.031 A 
ATOM     43  C   UNL A   1      40.879  34.175  32.548  1.00  0.00     0.074 A 
ATOM     44  C   UNL A   1      43.142  34.383  33.503  1.00  0.00     0.049 A 
ATOM     45  N   UNL A   1      40.006  33.927  33.478  1.00  0.00    -0.248 NA
ATOM     46  C   UNL A   1      40.276  34.610  31.289  1.00  0.00     0.031 C 
ATOM     47  C   UNL A   1      43.980  33.718  34.516  1.00  0.00     0.029 A 
ATOM     48  N   UNL A   1      43.300  35.729  33.785  1.00  0.00    -0.354 N 
ATOM     49  C   UNL A   1      38.749  34.065  32.929  1.00  0.00     0.074 A 
ATOM     50  C   UNL A   1      38.962  34.552  31.583  1.00  0.00     0.031 C 
ATOM     51  C   UNL A   1      44.406  34.635  35.409  1.00  0.00     0.029 A 
ATOM     52  C   UNL A   1      43.996  35.974  34.981  1.00  0.00     0.049 A 
ATOM     53  H   UNL A   1      42.957  36.446  33.204  1.00  0.00     0.167 HD
ATOM     54  C   UNL A   1      37.631  33.718  33.622  1.00  0.00     0.031 A 
ATOM     55  C   UNL A   1      43.706  36.961  35.882  1.00  0.00     0.031 A 
ATOM     56  C   UNL A   1      37.874  33.110  34.903  1.00  0.00     0.049 A 
ATOM     57  C   UNL A   1      42.350  36.528  36.377  1.00  0.00     0.074 A 
ATOM     58  C   UNL A   1      37.890  31.841  35.444  1.00  0.00     0.029 A 
ATOM     59  N   UNL A   1      38.273  33.923  35.935  1.00  0.00    -0.354 N 
ATOM     60  N   UNL A   1      42.098  35.574  37.230  1.00  0.00    -0.248 NA
ATOM     61  C   UNL A   1      41.197  36.978  35.596  1.00  0.00     0.031 C 
ATOM     62  C   UNL A   1      38.740  31.926  36.594  1.00  0.00     0.029 A 
ATOM     63  C   UNL A   1      39.207  33.237  36.669  1.00  0.00     0.049 A 
ATOM     64  H   UNL A   1      37.947  34.835  36.116  1.00  0.00     0.167 HD
ATOM     65  C   UNL A   1      40.838  35.090  36.879  1.00  0.00     0.074 A 
ATOM     66  C   UNL A   1      40.336  36.008  35.873  1.00  0.00     0.031 C 
ATOM     67  C   UNL A   1      40.343  33.886  37.289  1.00  0.00     0.031 A 
BRANCH  54  68
ATOM     68  C   UNL A   1      36.254  34.103  33.254  1.00  0.00    -0.014 A 
ATOM     69  C   UNL A   1      35.829  33.699  31.974  1.00  0.00     0.010 A 
ATOM     70  C   UNL A   1      35.476  35.013  33.982  1.00  0.00     0.010 A 
ATOM     71  C   UNL A   1      34.682  34.235  31.399  1.00  0.00     0.020 A 
ATOM     72  C   UNL A   1      34.306  35.541  33.413  1.00  0.00     0.020 A 
ATOM     73  C   UNL A   1      33.933  35.166  32.117  1.00  0.00     0.054 A 
BRANCH  73  74
ATOM     74  S   UNL A   1      32.498  35.903  31.289  1.00  0.00     0.124 S 
ATOM     75  O   UNL A   1      31.409  35.581  32.207  1.00  0.00    -0.237 OA
ATOM     76  O   UNL A   1      32.870  37.314  31.226  1.00  0.00    -0.237 OA
ATOM     77  O   UNL A   1      32.451  35.216  30.001  1.00  0.00    -0.744 OA
ENDBRANCH  73  74
ENDBRANCH  54  68
BRANCH  55  78
ATOM     78  C   UNL A   1      43.967  38.393  35.512  1.00  0.00    -0.014 A 
ATOM     79  C   UNL A   1      43.618  38.843  34.223  1.00  0.00     0.010 A 
ATOM     80  C   UNL A   1      44.583  39.324  36.374  1.00  0.00     0.010 A 
ATOM     81  C   UNL A   1      43.727  40.193  33.869  1.00  0.00     0.020 A 
ATOM     82  C   UNL A   1      44.666  40.684  36.042  1.00  0.00     0.020 A 
ATOM     83  C   UNL A   1      44.204  41.115  34.801  1.00  0.00     0.054 A 
BRANCH  83  84
ATOM     84  S   UNL A   1      44.129  42.881  34.395  1.00  0.00     0.124 S 
ATOM     85  O   UNL A   1      44.686  42.916  33.046  1.00  0.00    -0.237 OA
ATOM     86  O   UNL A   1      42.696  43.155  34.492  1.00  0.00    -0.237 OA
ATOM     87  O   UNL A   1      44.948  43.509  35.428  1.00  0.00    -0.744 OA
ENDBRANCH  83  84
ENDBRANCH  55  78
BRANCH  67  88
ATOM     88  C   UNL A   1      41.140  33.141  38.317  1.00  0.00    -0.014 A 
ATOM     89  C   UNL A   1      42.339  32.518  37.937  1.00  0.00     0.010 A 
ATOM     90  C   UNL A   1      40.774  33.146  39.676  1.00  0.00     0.010 A 
ATOM     91  C   UNL A   1      43.191  31.975  38.899  1.00  0.00     0.020 A 
ATOM     92  C   UNL A   1      41.629  32.614  40.647  1.00  0.00     0.020 A 
ATOM     93  C   UNL A   1      42.846  32.053  40.252  1.00  0.00     0.054 A 
BRANCH  93  94
ATOM     94  S   UNL A   1      44.054  31.482  41.478  1.00  0.00     0.124 S 
ATOM     95  O   UNL A   1      45.277  31.364  40.690  1.00  0.00    -0.237 OA
ATOM     96  O   UNL A   1      44.041  32.568  42.458  1.00  0.00    -0.237 OA
ATOM     97  O   UNL A   1      43.499  30.217  41.956  1.00  0.00    -0.744 OA
ENDBRANCH  93  94
ENDBRANCH  67  88
ENDBRANCH  41  42
ENDBRANCH  34  36
ENDBRANCH  33  34
ENDBRANCH  32  33
ENDBRANCH  31  32
ENDBRANCH  30  31
ENDBRANCH  29  30
ENDBRANCH   1  29
TORSDOF 23
ENDMDL
MODEL 2
REMARK VINA RESULT:      -9.9      6.538      9.549
REMARK SMILES Cc1ccc(-c2nn(CCC(=O)OCCOCCOCCOC(=O)c3ccc(-c4c5nc(c(-c6ccc(S(=O)(=O)[O-])cc6)c6ccc([nH]6)c(-c6ccc(S(=O)(=O)[O-])cc6)c6nc(c(-c7ccc(S(=O)(=O)[O-])cc7)c7ccc4[nH]7)C=C6)C=C5)cc3)c(=O)c3noc(C)c23)cc1C
REMARK SMILES IDX 17 1 16 2 15 3 14 4 13 5 11 6 12 7 10 8 9 9 8 10 6 11 7 12
REMARK SMILES IDX 92 13 87 14 90 15 85 16 88 17 89 18 91 19 86 20 5 21 1 22
REMARK SMILES IDX 2 23 3 24 94 25 4 26 93 27 95 28 18 29 19 30 20 31 21 32
REMARK SMILES IDX 22 33 23 34 24 35 25 36 26 37 84 38 27 39 83 40 28 41 29 42
REMARK SMILES IDX 30 43 77 44 31 45 82 46 76 47 78 48 32 49 81 50 75 51 74 52
REMARK SMILES IDX 33 54 63 55 44 56 62 57 45 58 48 59 61 60 79 61 46 62 47 63
REMARK SMILES IDX 60 65 80 66 49 67 34 68 35 69 43 70 36 71 42 72 37 73 38 74
REMARK SMILES IDX 39 75 40 76 41 77 64 78 65 79 73 80 66 81 72 82 67 83 68 84
REMARK SMILES IDX 69 85 70 86 71 87 50 88 51 89 59 90 52 91 58 92 53 93 54 94
REMARK SMILES IDX 55 95 56 96 57 97
REMARK H PARENT 78 53 48 64
REMARK Flexibility Score: inf
ROOT
ATOM      1  C   UNL A   1      39.735  23.192  26.650  1.00  0.00     0.188 C 
ENDROOT
BRANCH   1   2
ATOM      2  O   UNL A   1      38.388  23.300  26.217  1.00  0.00    -0.376 OA
BRANCH   2   3
ATOM      3  C   UNL A   1      37.761  22.070  25.848  1.00  0.00     0.202 C 
BRANCH   3   4
ATOM      4  C   UNL A   1      36.308  22.153  25.311  1.00  0.00     0.261 C 
BRANCH   4   5
ATOM      5  O   UNL A   1      35.533  20.933  25.428  1.00  0.00    -0.463 OA
BRANCH   5   6
ATOM      6  C   UNL A   1      34.281  21.017  25.935  1.00  0.00     0.307 C 
ATOM      7  O   UNL A   1      33.460  20.107  25.904  1.00  0.00    -0.252 OA
BRANCH   6   8
ATOM      8  C   UNL A   1      33.971  22.373  26.547  1.00  0.00     0.146 C 
BRANCH   8   9
ATOM      9  C   UNL A   1      32.745  23.158  26.053  1.00  0.00     0.160 C 
BRANCH   9  10
ATOM     10  N   UNL A   1      33.018  24.306  25.183  1.00  0.00    -0.227 N 
ATOM     11  C   UNL A   1      33.363  26.629  25.137  1.00  0.00     0.104 A 
ATOM     12  N   UNL A   1      33.080  25.555  25.822  1.00  0.00    -0.169 NA
ATOM     13  C   UNL A   1      33.539  26.561  23.714  1.00  0.00     0.078 A 
ATOM     14  C   UNL A   1      33.540  25.317  23.085  1.00  0.00     0.183 A 
ATOM     15  C   UNL A   1      33.709  27.457  22.685  1.00  0.00     0.143 A 
ATOM     16  C   UNL A   1      33.367  24.104  23.834  1.00  0.00     0.296 A 
ATOM     17  N   UNL A   1      33.686  25.410  21.759  1.00  0.00    -0.074 NA
ATOM     18  O   UNL A   1      33.795  26.765  21.509  1.00  0.00    -0.360 OA
ATOM     19  C   UNL A   1      33.793  28.920  22.545  1.00  0.00     0.091 C 
ATOM     20  O   UNL A   1      33.496  23.014  23.298  1.00  0.00    -0.265 OA
BRANCH  11  21
ATOM     21  C   UNL A   1      33.464  27.920  25.815  1.00  0.00     0.003 A 
ATOM     22  C   UNL A   1      33.820  31.648  27.905  1.00  0.00     0.044 C 
ATOM     23  C   UNL A   1      33.723  30.336  27.179  1.00  0.00    -0.048 A 
ATOM     24  C   UNL A   1      32.517  30.002  26.532  1.00  0.00     0.004 A 
ATOM     25  C   UNL A   1      34.812  29.441  27.127  1.00  0.00    -0.048 A 
ATOM     26  C   UNL A   1      32.383  28.794  25.848  1.00  0.00     0.011 A 
ATOM     27  C   UNL A   1      34.675  28.242  26.422  1.00  0.00     0.014 A 
ATOM     28  C   UNL A   1      36.132  29.681  27.801  1.00  0.00     0.044 C 
ENDBRANCH  11  21
ENDBRANCH   9  10
ENDBRANCH   8   9
ENDBRANCH   6   8
ENDBRANCH   5   6
ENDBRANCH   4   5
ENDBRANCH   3   4
ENDBRANCH   2   3
ENDBRANCH   1   2
BRANCH   1  29
ATOM     29  C   UNL A   1      40.329  21.795  26.641  1.00  0.00     0.188 C 
BRANCH  29  30
ATOM     30  O   UNL A   1      41.435  21.621  25.759  1.00  0.00    -0.376 OA
BRANCH  30  31
ATOM     31  C   UNL A   1      42.610  21.057  26.332  1.00  0.00     0.202 C 
BRANCH  31  32
ATOM     32  C   UNL A   1      43.629  20.463  25.338  1.00  0.00     0.261 C 
BRANCH  32  33
ATOM     33  O   UNL A   1      44.827  21.233  25.171  1.00  0.00    -0.460 OA
BRANCH  33  34
ATOM     34  C   UNL A   1      44.722  22.205  24.231  1.00  0.00     0.338 C 
ATOM     35  O   UNL A   1      44.421  22.065  23.057  1.00  0.00    -0.246 OA
BRANCH  34  36
ATOM     36  C   UNL A   1      44.919  23.526  24.850  1.00  0.00     0.060 A 
ATOM     37  C   UNL A   1      43.797  24.257  25.266  1.00  0.00     0.016 A 
ATOM     38  C   UNL A   1      46.185  24.095  24.877  1.00  0.00     0.016 A 
ATOM     39  C   UNL A   1      43.931  25.592  25.645  1.00  0.00     0.010 A 
ATOM     40  C   UNL A   1      46.303  25.445  25.198  1.00  0.00     0.010 A 
ATOM     41  C   UNL A   1      45.178  26.217  25.557  1.00  0.00    -0.014 A 
BRANCH  41  42
ATOM     42  C   UNL A   1      45.289  27.676  25.848  1.00  0.00     0.031 A 
ATOM     43  C   UNL A   1      44.085  28.236  26.534  1.00  0.00     0.074 A 
ATOM     44  C   UNL A   1      46.498  28.270  26.031  1.00  0.00     0.049 A 
ATOM     45  N   UNL A   1      43.879  27.985  27.793  1.00  0.00    -0.248 NA
ATOM     46  C   UNL A   1      42.908  28.770  25.851  1.00  0.00     0.031 C 
ATOM     47  C   UNL A   1      47.711  27.508  26.375  1.00  0.00     0.029 A 
ATOM     48  N   UNL A   1      46.888  29.589  26.192  1.00  0.00    -0.354 N 
ATOM     49  C   UNL A   1      42.548  28.220  28.061  1.00  0.00     0.074 A 
ATOM     50  C   UNL A   1      41.994  28.766  26.841  1.00  0.00     0.031 C 
ATOM     51  C   UNL A   1      48.635  28.351  26.878  1.00  0.00     0.029 A 
ATOM     52  C   UNL A   1      48.157  29.731  26.780  1.00  0.00     0.049 A 
ATOM     53  H   UNL A   1      46.330  30.353  25.920  1.00  0.00     0.167 HD
ATOM     54  C   UNL A   1      42.000  27.896  29.263  1.00  0.00     0.031 A 
ATOM     55  C   UNL A   1      48.505  30.682  27.699  1.00  0.00     0.031 A 
ATOM     56  C   UNL A   1      42.881  27.207  30.168  1.00  0.00     0.049 A 
ATOM     57  C   UNL A   1      47.642  30.296  28.873  1.00  0.00     0.074 A 
ATOM     58  C   UNL A   1      43.106  25.912  30.585  1.00  0.00     0.029 A 
ATOM     59  N   UNL A   1      43.855  27.940  30.799  1.00  0.00    -0.354 N 
ATOM     60  N   UNL A   1      47.849  29.311  29.704  1.00  0.00    -0.248 NA
ATOM     61  C   UNL A   1      46.287  30.848  28.896  1.00  0.00     0.031 C 
ATOM     62  C   UNL A   1      44.462  25.888  31.046  1.00  0.00     0.029 A 
ATOM     63  C   UNL A   1      44.986  27.166  30.859  1.00  0.00     0.049 A 
ATOM     64  H   UNL A   1      43.759  28.857  31.146  1.00  0.00     0.167 HD
ATOM     65  C   UNL A   1      46.580  28.916  30.128  1.00  0.00     0.074 A 
ATOM     66  C   UNL A   1      45.666  29.912  29.600  1.00  0.00     0.031 C 
ATOM     67  C   UNL A   1      46.317  27.719  30.729  1.00  0.00     0.031 A 
BRANCH  54  68
ATOM     68  C   UNL A   1      40.690  28.373  29.752  1.00  0.00    -0.014 A 
ATOM     69  C   UNL A   1      40.703  29.612  30.419  1.00  0.00     0.010 A 
ATOM     70  C   UNL A   1      39.537  27.579  29.797  1.00  0.00     0.010 A 
ATOM     71  C   UNL A   1      39.610  30.031  31.170  1.00  0.00     0.020 A 
ATOM     72  C   UNL A   1      38.423  28.008  30.536  1.00  0.00     0.020 A 
ATOM     73  C   UNL A   1      38.479  29.219  31.236  1.00  0.00     0.054 A 
BRANCH  73  74
ATOM     74  S   UNL A   1      37.117  29.766  32.301  1.00  0.00     0.124 S 
ATOM     75  O   UNL A   1      37.589  31.066  32.768  1.00  0.00    -0.237 OA
ATOM     76  O   UNL A   1      35.993  29.803  31.368  1.00  0.00    -0.237 OA
ATOM     77  O   UNL A   1      37.038  28.726  33.325  1.00  0.00    -0.744 OA
ENDBRANCH  73  74
ENDBRANCH  54  68
BRANCH  55  78
ATOM     78  C   UNL A   1      48.616  32.116  27.266  1.00  0.00    -0.014 A 
ATOM     79  C   UNL A   1      47.479  32.765  26.744  1.00  0.00     0.010 A 
ATOM     80  C   UNL A   1      49.814  32.857  27.316  1.00  0.00     0.010 A 
ATOM     81  C   UNL A   1      47.496  34.131  26.441  1.00  0.00     0.020 A 
ATOM     82  C   UNL A   1      49.834  34.234  27.046  1.00  0.00     0.020 A 
ATOM     83  C   UNL A   1      48.662  34.869  26.643  1.00  0.00     0.054 A 
BRANCH  83  84
ATOM     84  S   UNL A   1      48.596  36.672  26.453  1.00  0.00     0.124 S 
ATOM     85  O   UNL A   1      48.398  37.124  27.827  1.00  0.00    -0.237 OA
ATOM     86  O   UNL A   1      49.906  36.966  25.876  1.00  0.00    -0.237 OA
ATOM     87  O   UNL A   1      47.464  36.883  25.555  1.00  0.00    -0.744 OA
ENDBRANCH  83  84
ENDBRANCH  55  78
BRANCH  67  88
ATOM     88  C   UNL A   1      47.498  26.878  31.109  1.00  0.00    -0.014 A 
ATOM     89  C   UNL A   1      48.181  26.164  30.112  1.00  0.00     0.010 A 
ATOM     90  C   UNL A   1      48.008  26.876  32.420  1.00  0.00     0.010 A 
ATOM     91  C   UNL A   1      49.386  25.520  30.400  1.00  0.00     0.020 A 
ATOM     92  C   UNL A   1      49.222  26.243  32.713  1.00  0.00     0.020 A 
ATOM     93  C   UNL A   1      49.915  25.590  31.692  1.00  0.00     0.054 A 
BRANCH  93  94
ATOM     94  S   UNL A   1      51.558  24.881  31.983  1.00  0.00     0.124 S 
ATOM     95  O   UNL A   1      52.369  25.520  30.951  1.00  0.00    -0.237 OA
ATOM     96  O   UNL A   1      51.842  25.302  33.354  1.00  0.00    -0.237 OA
ATOM     97  O   UNL A   1      51.356  23.443  31.812  1.00  0.00    -0.744 OA
ENDBRANCH  93  94
ENDBRANCH  67  88
ENDBRANCH  41  42
ENDBRANCH  34  36
ENDBRANCH  33  34
ENDBRANCH  32  33
ENDBRANCH  31  32
ENDBRANCH  30  31
ENDBRANCH  29  30
ENDBRANCH   1  29
TORSDOF 23
ENDMDL
MODEL 3
REMARK VINA RESULT:      -9.3      8.965     13.650
REMARK SMILES Cc1ccc(-c2nn(CCC(=O)OCCOCCOCCOC(=O)c3ccc(-c4c5nc(c(-c6ccc(S(=O)(=O)[O-])cc6)c6ccc([nH]6)c(-c6ccc(S(=O)(=O)[O-])cc6)c6nc(c(-c7ccc(S(=O)(=O)[O-])cc7)c7ccc4[nH]7)C=C6)C=C5)cc3)c(=O)c3noc(C)c23)cc1C
REMARK SMILES IDX 17 1 16 2 15 3 14 4 13 5 11 6 12 7 10 8 9 9 8 10 6 11 7 12
REMARK SMILES IDX 92 13 87 14 90 15 85 16 88 17 89 18 91 19 86 20 5 21 1 22
REMARK SMILES IDX 2 23 3 24 94 25 4 26 93 27 95 28 18 29 19 30 20 31 21 32
REMARK SMILES IDX 22 33 23 34 24 35 25 36 26 37 84 38 27 39 83 40 28 41 29 42
REMARK SMILES IDX 30 43 77 44 31 45 82 46 76 47 78 48 32 49 81 50 75 51 74 52
REMARK SMILES IDX 33 54 63 55 44 56 62 57 45 58 48 59 61 60 79 61 46 62 47 63
REMARK SMILES IDX 60 65 80 66 49 67 34 68 35 69 43 70 36 71 42 72 37 73 38 74
REMARK SMILES IDX 39 75 40 76 41 77 64 78 65 79 73 80 66 81 72 82 67 83 68 84
REMARK SMILES IDX 69 85 70 86 71 87 50 88 51 89 59 90 52 91 58 92 53 93 54 94
REMARK SMILES IDX 55 95 56 96 57 97
REMARK H PARENT 78 53 48 64
REMARK Flexibility Score: inf
ROOT
ATOM      1  C   UNL A   1      46.025  40.392  27.305  1.00  0.00     0.188 C 
ENDROOT
BRANCH   1   2
ATOM      2  O   UNL A   1      45.606  41.658  26.820  1.00  0.00    -0.376 OA
BRANCH   2   3
ATOM      3  C   UNL A   1      44.311  41.687  26.215  1.00  0.00     0.202 C 
BRANCH   3   4
ATOM      4  C   UNL A   1      44.223  42.230  24.765  1.00  0.00     0.261 C 
BRANCH   4   5
ATOM      5  O   UNL A   1      45.334  43.065  24.346  1.00  0.00    -0.463 OA
BRANCH   5   6
ATOM      6  C   UNL A   1      45.158  44.406  24.340  1.00  0.00     0.307 C 
ATOM      7  O   UNL A   1      44.906  45.075  25.337  1.00  0.00    -0.252 OA
BRANCH   6   8
ATOM      8  C   UNL A   1      45.291  45.023  22.958  1.00  0.00     0.146 C 
BRANCH   8   9
ATOM      9  C   UNL A   1      45.305  44.106  21.724  1.00  0.00     0.160 C 
BRANCH   9  10
ATOM     10  N   UNL A   1      44.467  44.526  20.596  1.00  0.00    -0.227 N 
ATOM     11  C   UNL A   1      44.156  46.183  18.961  1.00  0.00     0.104 A 
ATOM     12  N   UNL A   1      44.815  45.749  19.999  1.00  0.00    -0.169 NA
ATOM     13  C   UNL A   1      43.021  45.459  18.462  1.00  0.00     0.078 A 
ATOM     14  C   UNL A   1      42.710  44.216  19.011  1.00  0.00     0.183 A 
ATOM     15  C   UNL A   1      42.045  45.660  17.515  1.00  0.00     0.143 A 
ATOM     16  C   UNL A   1      43.502  43.649  20.066  1.00  0.00     0.296 A 
ATOM     17  N   UNL A   1      41.615  43.672  18.469  1.00  0.00    -0.074 NA
ATOM     18  O   UNL A   1      41.198  44.588  17.521  1.00  0.00    -0.360 OA
ATOM     19  C   UNL A   1      41.690  46.718  16.555  1.00  0.00     0.091 C 
ATOM     20  O   UNL A   1      43.302  42.508  20.454  1.00  0.00    -0.265 OA
BRANCH  11  21
ATOM     21  C   UNL A   1      44.548  47.437  18.320  1.00  0.00     0.003 A 
ATOM     22  C   UNL A   1      45.826  51.086  16.462  1.00  0.00     0.044 C 
ATOM     23  C   UNL A   1      45.398  49.793  17.098  1.00  0.00    -0.048 A 
ATOM     24  C   UNL A   1      44.325  49.804  18.012  1.00  0.00     0.004 A 
ATOM     25  C   UNL A   1      46.040  48.575  16.794  1.00  0.00    -0.048 A 
ATOM     26  C   UNL A   1      43.896  48.628  18.626  1.00  0.00     0.011 A 
ATOM     27  C   UNL A   1      45.591  47.399  17.399  1.00  0.00     0.014 A 
ATOM     28  C   UNL A   1      47.208  48.449  15.858  1.00  0.00     0.044 C 
ENDBRANCH  11  21
ENDBRANCH   9  10
ENDBRANCH   8   9
ENDBRANCH   6   8
ENDBRANCH   5   6
ENDBRANCH   4   5
ENDBRANCH   3   4
ENDBRANCH   2   3
ENDBRANCH   1   2
BRANCH   1  29
ATOM     29  C   UNL A   1      45.102  39.224  27.005  1.00  0.00     0.188 C 
BRANCH  29  30
ATOM     30  O   UNL A   1      45.739  38.097  26.411  1.00  0.00    -0.376 OA
BRANCH  30  31
ATOM     31  C   UNL A   1      46.411  37.214  27.305  1.00  0.00     0.202 C 
BRANCH  31  32
ATOM     32  C   UNL A   1      46.445  35.729  26.892  1.00  0.00     0.261 C 
BRANCH  32  33
ATOM     33  O   UNL A   1      45.439  35.344  25.945  1.00  0.00    -0.460 OA
BRANCH  33  34
ATOM     34  C   UNL A   1      45.002  34.070  26.106  1.00  0.00     0.338 C 
ATOM     35  O   UNL A   1      45.453  33.064  25.580  1.00  0.00    -0.246 OA
BRANCH  34  36
ATOM     36  C   UNL A   1      43.937  34.028  27.120  1.00  0.00     0.060 A 
ATOM     37  C   UNL A   1      43.025  35.091  27.192  1.00  0.00     0.016 A 
ATOM     38  C   UNL A   1      43.936  33.028  28.083  1.00  0.00     0.016 A 
ATOM     39  C   UNL A   1      42.151  35.193  28.274  1.00  0.00     0.010 A 
ATOM     40  C   UNL A   1      43.103  33.168  29.190  1.00  0.00     0.010 A 
ATOM     41  C   UNL A   1      42.224  34.263  29.315  1.00  0.00    -0.014 A 
BRANCH  41  42
ATOM     42  C   UNL A   1      41.370  34.449  30.525  1.00  0.00     0.031 A 
ATOM     43  C   UNL A   1      39.944  34.057  30.308  1.00  0.00     0.074 A 
ATOM     44  C   UNL A   1      41.896  34.389  31.777  1.00  0.00     0.049 A 
ATOM     45  N   UNL A   1      39.617  32.800  30.252  1.00  0.00    -0.248 NA
ATOM     46  C   UNL A   1      38.900  34.949  29.807  1.00  0.00     0.031 C 
ATOM     47  C   UNL A   1      43.188  33.741  32.062  1.00  0.00     0.029 A 
ATOM     48  N   UNL A   1      41.372  34.635  33.034  1.00  0.00    -0.354 N 
ATOM     49  C   UNL A   1      38.392  32.707  29.627  1.00  0.00     0.074 A 
ATOM     50  C   UNL A   1      37.954  34.071  29.423  1.00  0.00     0.031 C 
ATOM     51  C   UNL A   1      43.269  33.477  33.382  1.00  0.00     0.029 A 
ATOM     52  C   UNL A   1      42.109  34.043  34.075  1.00  0.00     0.049 A 
ATOM     53  H   UNL A   1      40.561  35.172  33.186  1.00  0.00     0.167 HD
ATOM     54  C   UNL A   1      37.861  31.502  29.285  1.00  0.00     0.031 A 
ATOM     55  C   UNL A   1      41.579  33.457  35.191  1.00  0.00     0.031 A 
ATOM     56  C   UNL A   1      38.715  30.370  29.528  1.00  0.00     0.049 A 
ATOM     57  C   UNL A   1      40.851  32.278  34.596  1.00  0.00     0.074 A 
ATOM     58  C   UNL A   1      39.549  29.546  28.802  1.00  0.00     0.029 A 
ATOM     59  N   UNL A   1      38.865  29.946  30.826  1.00  0.00    -0.354 N 
ATOM     60  N   UNL A   1      41.383  31.165  34.173  1.00  0.00    -0.248 NA
ATOM     61  C   UNL A   1      39.482  32.521  34.139  1.00  0.00     0.031 C 
ATOM     62  C   UNL A   1      40.483  29.016  29.750  1.00  0.00     0.029 A 
ATOM     63  C   UNL A   1      40.173  29.569  30.992  1.00  0.00     0.049 A 
ATOM     64  H   UNL A   1      38.160  29.918  31.513  1.00  0.00     0.167 HD
ATOM     65  C   UNL A   1      40.540  30.719  33.155  1.00  0.00     0.074 A 
ATOM     66  C   UNL A   1      39.384  31.595  33.196  1.00  0.00     0.031 C 
ATOM     67  C   UNL A   1      40.897  29.784  32.227  1.00  0.00     0.031 A 
BRANCH  54  68
ATOM     68  C   UNL A   1      36.453  31.277  28.899  1.00  0.00    -0.014 A 
ATOM     69  C   UNL A   1      36.134  29.967  28.493  1.00  0.00     0.010 A 
ATOM     70  C   UNL A   1      35.525  32.306  28.694  1.00  0.00     0.010 A 
ATOM     71  C   UNL A   1      34.938  29.693  27.840  1.00  0.00     0.020 A 
ATOM     72  C   UNL A   1      34.307  32.030  28.053  1.00  0.00     0.020 A 
ATOM     73  C   UNL A   1      34.035  30.730  27.610  1.00  0.00     0.054 A 
BRANCH  73  74
ATOM     74  S   UNL A   1      32.532  30.340  26.674  1.00  0.00     0.124 S 
ATOM     75  O   UNL A   1      31.955  29.248  27.452  1.00  0.00    -0.237 OA
ATOM     76  O   UNL A   1      31.801  31.603  26.724  1.00  0.00    -0.237 OA
ATOM     77  O   UNL A   1      33.033  29.966  25.353  1.00  0.00    -0.744 OA
ENDBRANCH  73  74
ENDBRANCH  54  68
BRANCH  55  78
ATOM     78  C   UNL A   1      40.923  34.318  36.232  1.00  0.00    -0.014 A 
ATOM     79  C   UNL A   1      40.061  33.721  37.172  1.00  0.00     0.010 A 
ATOM     80  C   UNL A   1      41.090  35.716  36.308  1.00  0.00     0.010 A 
ATOM     81  C   UNL A   1      39.521  34.455  38.235  1.00  0.00     0.020 A 
ATOM     82  C   UNL A   1      40.581  36.455  37.387  1.00  0.00     0.020 A 
ATOM     83  C   UNL A   1      39.828  35.809  38.364  1.00  0.00     0.054 A 
BRANCH  83  84
ATOM     84  S   UNL A   1      39.299  36.683  39.864  1.00  0.00     0.124 S 
ATOM     85  O   UNL A   1      38.524  35.662  40.563  1.00  0.00    -0.237 OA
ATOM     86  O   UNL A   1      40.577  37.034  40.479  1.00  0.00    -0.237 OA
ATOM     87  O   UNL A   1      38.528  37.812  39.352  1.00  0.00    -0.744 OA
ENDBRANCH  83  84
ENDBRANCH  55  78
BRANCH  67  88
ATOM     88  C   UNL A   1      42.202  29.080  32.442  1.00  0.00    -0.014 A 
ATOM     89  C   UNL A   1      42.216  27.853  33.124  1.00  0.00     0.010 A 
ATOM     90  C   UNL A   1      43.399  29.561  31.879  1.00  0.00     0.010 A 
ATOM     91  C   UNL A   1      43.382  27.087  33.181  1.00  0.00     0.020 A 
ATOM     92  C   UNL A   1      44.568  28.793  31.923  1.00  0.00     0.020 A 
ATOM     93  C   UNL A   1      44.543  27.548  32.554  1.00  0.00     0.054 A 
BRANCH  93  94
ATOM     94  S   UNL A   1      45.987  26.451  32.513  1.00  0.00     0.124 S 
ATOM     95  O   UNL A   1      46.407  26.424  33.911  1.00  0.00    -0.237 OA
ATOM     96  O   UNL A   1      45.417  25.204  32.005  1.00  0.00    -0.237 OA
ATOM     97  O   UNL A   1      46.911  27.120  31.600  1.00  0.00    -0.744 OA
ENDBRANCH  93  94
ENDBRANCH  67  88
ENDBRANCH  41  42
ENDBRANCH  34  36
ENDBRANCH  33  34
ENDBRANCH  32  33
ENDBRANCH  31  32
ENDBRANCH  30  31
ENDBRANCH  29  30
ENDBRANCH   1  29
TORSDOF 23
ENDMDL
