MODEL 1
REMARK VINA RESULT:      -9.7      0.000      0.000
REMARK SMILES NC(=O)c1cc(NC(=O)/C=C\C(=O)OCCOCCOCCOC(=O)c2ccc(-c3c4nc(c(-c5ccc(S(=O)(=O)[O-])cc5)c5ccc([nH]5)c(-c5ccc(S(=O)(=O)[O-])cc5)c5nc(c(-c6ccc(S(=O)(=O)[O-])cc6)c6ccc3[nH]6)C=C5)C=C4)cc2)ccc1N1CCOCC1
REMARK SMILES IDX 18 1 17 2 16 3 15 4 14 5 12 6 13 7 11 8 10 9 8 10 7 11 9 13
REMARK SMILES IDX 6 14 4 15 5 16 88 17 87 18 86 19 2 20 1 21 3 24 89 25 90 26
REMARK SMILES IDX 94 27 91 28 93 29 92 30 19 31 20 32 21 33 22 34 23 35 24 36
REMARK SMILES IDX 25 37 26 38 27 39 85 40 28 41 84 42 29 43 30 44 31 45 78 46
REMARK SMILES IDX 32 47 83 48 77 49 79 50 33 51 82 52 76 53 75 54 34 56 64 57
REMARK SMILES IDX 45 58 63 59 46 60 49 61 62 62 80 63 47 64 48 65 61 67 81 68
REMARK SMILES IDX 50 69 35 70 36 71 44 72 37 73 43 74 38 75 39 76 40 77 41 78
REMARK SMILES IDX 42 79 65 80 66 81 74 82 67 83 73 84 68 85 69 86 70 87 71 88
REMARK SMILES IDX 72 89 51 90 52 91 60 92 53 93 59 94 54 95 55 96 56 97 57 98
REMARK SMILES IDX 58 99
REMARK H PARENT 7 12 1 22 1 23 79 55 49 66
REMARK Flexibility Score: inf
ROOT
ATOM      1  C   UNL A   1      40.117  21.621  26.824  1.00  0.00     0.188 C 
ENDROOT
BRANCH   1   2
ATOM      2  O   UNL A   1      39.286  22.779  26.772  1.00  0.00    -0.376 OA
BRANCH   2   3
ATOM      3  C   UNL A   1      38.228  22.739  25.824  1.00  0.00     0.202 C 
BRANCH   3   4
ATOM      4  C   UNL A   1      37.081  23.705  26.126  1.00  0.00     0.261 C 
BRANCH   4   5
ATOM      5  O   UNL A   1      35.744  23.422  25.641  1.00  0.00    -0.460 OA
BRANCH   5   6
ATOM      6  C   UNL A   1      35.097  22.259  25.828  1.00  0.00     0.331 C 
ATOM      7  O   UNL A   1      34.689  21.779  26.873  1.00  0.00    -0.247 OA
BRANCH   6   8
ATOM      8  C   UNL A   1      34.838  21.584  24.554  1.00  0.00     0.099 C 
ATOM      9  C   UNL A   1      33.667  21.047  24.186  1.00  0.00     0.079 C 
BRANCH   9  10
ATOM     10  C   UNL A   1      32.436  20.927  25.000  1.00  0.00     0.248 C 
ATOM     11  N   UNL A   1      31.627  21.987  25.303  1.00  0.00    -0.322 N 
ATOM     12  H   UNL A   1      30.911  21.769  25.945  1.00  0.00     0.170 HD
ATOM     13  O   UNL A   1      32.158  19.813  25.450  1.00  0.00    -0.270 OA
BRANCH  11  14
ATOM     14  C   UNL A   1      31.617  23.326  24.877  1.00  0.00     0.042 A 
ATOM     15  C   UNL A   1      31.670  25.709  25.336  1.00  0.00     0.064 A 
ATOM     16  C   UNL A   1      32.038  24.390  25.664  1.00  0.00     0.042 A 
ATOM     17  C   UNL A   1      30.953  25.994  24.150  1.00  0.00     0.050 A 
ATOM     18  C   UNL A   1      30.721  24.917  23.277  1.00  0.00     0.029 A 
ATOM     19  C   UNL A   1      31.049  23.600  23.632  1.00  0.00     0.028 A 
BRANCH  15  20
ATOM     20  C   UNL A   1      31.924  26.700  26.421  1.00  0.00     0.250 C 
ATOM     21  N   UNL A   1      33.177  27.232  26.487  1.00  0.00    -0.366 N 
ATOM     22  H   UNL A   1      33.396  27.890  27.188  1.00  0.00     0.159 HD
ATOM     23  H   UNL A   1      33.864  26.959  25.838  1.00  0.00     0.159 HD
ATOM     24  O   UNL A   1      31.023  27.080  27.159  1.00  0.00    -0.269 OA
ENDBRANCH  15  20
BRANCH  17  25
ATOM     25  N   UNL A   1      30.454  27.259  23.863  1.00  0.00    -0.366 N 
ATOM     26  C   UNL A   1      31.433  28.332  23.592  1.00  0.00     0.145 C 
ATOM     27  C   UNL A   1      29.161  27.442  23.184  1.00  0.00     0.145 C 
ATOM     28  C   UNL A   1      30.787  29.704  23.858  1.00  0.00     0.181 C 
ATOM     29  C   UNL A   1      28.617  28.844  23.498  1.00  0.00     0.181 C 
ATOM     30  O   UNL A   1      29.557  29.859  23.123  1.00  0.00    -0.378 OA
ENDBRANCH  17  25
ENDBRANCH  11  14
ENDBRANCH   9  10
ENDBRANCH   6   8
ENDBRANCH   5   6
ENDBRANCH   4   5
ENDBRANCH   3   4
ENDBRANCH   2   3
ENDBRANCH   1   2
BRANCH   1  31
ATOM     31  C   UNL A   1      41.466  21.779  26.100  1.00  0.00     0.188 C 
BRANCH  31  32
ATOM     32  O   UNL A   1      42.602  22.149  26.876  1.00  0.00    -0.376 OA
BRANCH  32  33
ATOM     33  C   UNL A   1      43.255  23.367  26.548  1.00  0.00     0.202 C 
BRANCH  33  34
ATOM     34  C   UNL A   1      42.661  24.152  25.375  1.00  0.00     0.261 C 
BRANCH  34  35
ATOM     35  O   UNL A   1      41.602  25.042  25.780  1.00  0.00    -0.460 OA
BRANCH  35  36
ATOM     36  C   UNL A   1      41.926  26.362  25.797  1.00  0.00     0.338 C 
ATOM     37  O   UNL A   1      41.914  27.126  24.855  1.00  0.00    -0.246 OA
BRANCH  36  38
ATOM     38  C   UNL A   1      42.101  26.824  27.199  1.00  0.00     0.060 A 
ATOM     39  C   UNL A   1      41.312  26.212  28.185  1.00  0.00     0.016 A 
ATOM     40  C   UNL A   1      42.966  27.864  27.540  1.00  0.00     0.016 A 
ATOM     41  C   UNL A   1      41.334  26.678  29.499  1.00  0.00     0.010 A 
ATOM     42  C   UNL A   1      42.962  28.357  28.852  1.00  0.00     0.010 A 
ATOM     43  C   UNL A   1      42.107  27.798  29.822  1.00  0.00    -0.014 A 
BRANCH  43  44
ATOM     44  C   UNL A   1      41.791  28.561  31.055  1.00  0.00     0.031 A 
ATOM     45  C   UNL A   1      40.606  29.494  31.009  1.00  0.00     0.074 A 
ATOM     46  C   UNL A   1      42.503  28.434  32.189  1.00  0.00     0.049 A 
ATOM     47  N   UNL A   1      40.169  30.329  31.915  1.00  0.00    -0.248 NA
ATOM     48  C   UNL A   1      39.808  29.480  29.770  1.00  0.00     0.031 C 
ATOM     49  C   UNL A   1      43.628  27.522  32.392  1.00  0.00     0.029 A 
ATOM     50  N   UNL A   1      42.382  29.092  33.388  1.00  0.00    -0.354 N 
ATOM     51  C   UNL A   1      39.059  30.949  31.350  1.00  0.00     0.074 A 
ATOM     52  C   UNL A   1      38.892  30.402  30.024  1.00  0.00     0.031 C 
ATOM     53  C   UNL A   1      44.110  27.697  33.637  1.00  0.00     0.029 A 
ATOM     54  C   UNL A   1      43.350  28.755  34.305  1.00  0.00     0.049 A 
ATOM     55  H   UNL A   1      41.669  29.745  33.574  1.00  0.00     0.167 HD
ATOM     56  C   UNL A   1      38.252  31.894  31.883  1.00  0.00     0.031 A 
ATOM     57  C   UNL A   1      43.609  29.267  35.526  1.00  0.00     0.031 A 
ATOM     58  C   UNL A   1      38.420  32.455  33.194  1.00  0.00     0.049 A 
ATOM     59  C   UNL A   1      42.742  30.380  36.068  1.00  0.00     0.074 A 
ATOM     60  C   UNL A   1      37.652  33.420  33.820  1.00  0.00     0.029 A 
ATOM     61  N   UNL A   1      39.429  32.106  34.076  1.00  0.00    -0.354 N 
ATOM     62  N   UNL A   1      41.692  30.949  35.526  1.00  0.00    -0.248 NA
ATOM     63  C   UNL A   1      43.101  30.920  37.389  1.00  0.00     0.031 C 
ATOM     64  C   UNL A   1      38.227  33.691  35.065  1.00  0.00     0.029 A 
ATOM     65  C   UNL A   1      39.321  32.856  35.232  1.00  0.00     0.049 A 
ATOM     66  H   UNL A   1      40.121  31.427  33.904  1.00  0.00     0.167 HD
ATOM     67  C   UNL A   1      41.253  31.895  36.449  1.00  0.00     0.074 A 
ATOM     68  C   UNL A   1      42.141  31.814  37.589  1.00  0.00     0.031 C 
ATOM     69  C   UNL A   1      40.209  32.756  36.362  1.00  0.00     0.031 A 
BRANCH  56  70
ATOM     70  C   UNL A   1      37.136  32.416  31.021  1.00  0.00    -0.014 A 
ATOM     71  C   UNL A   1      35.798  32.070  31.273  1.00  0.00     0.010 A 
ATOM     72  C   UNL A   1      37.434  33.298  29.966  1.00  0.00     0.010 A 
ATOM     73  C   UNL A   1      34.775  32.578  30.467  1.00  0.00     0.020 A 
ATOM     74  C   UNL A   1      36.412  33.826  29.173  1.00  0.00     0.020 A 
ATOM     75  C   UNL A   1      35.090  33.452  29.422  1.00  0.00     0.054 A 
BRANCH  75  76
ATOM     76  S   UNL A   1      33.741  34.129  28.416  1.00  0.00     0.124 S 
ATOM     77  O   UNL A   1      32.801  34.584  29.439  1.00  0.00    -0.237 OA
ATOM     78  O   UNL A   1      34.404  35.188  27.660  1.00  0.00    -0.237 OA
ATOM     79  O   UNL A   1      33.294  32.987  27.623  1.00  0.00    -0.744 OA
ENDBRANCH  75  76
ENDBRANCH  56  70
BRANCH  57  80
ATOM     80  C   UNL A   1      44.775  28.779  36.314  1.00  0.00    -0.014 A 
ATOM     81  C   UNL A   1      46.054  29.336  36.133  1.00  0.00     0.010 A 
ATOM     82  C   UNL A   1      44.616  27.716  37.222  1.00  0.00     0.010 A 
ATOM     83  C   UNL A   1      47.156  28.822  36.825  1.00  0.00     0.020 A 
ATOM     84  C   UNL A   1      45.711  27.216  37.934  1.00  0.00     0.020 A 
ATOM     85  C   UNL A   1      46.977  27.762  37.718  1.00  0.00     0.054 A 
BRANCH  85  86
ATOM     86  S   UNL A   1      48.410  27.124  38.631  1.00  0.00     0.124 S 
ATOM     87  O   UNL A   1      49.306  28.276  38.633  1.00  0.00    -0.237 OA
ATOM     88  O   UNL A   1      47.832  26.768  39.923  1.00  0.00    -0.237 OA
ATOM     89  O   UNL A   1      48.848  25.988  37.821  1.00  0.00    -0.744 OA
ENDBRANCH  85  86
ENDBRANCH  57  80
BRANCH  69  90
ATOM     90  C   UNL A   1      39.938  33.656  37.539  1.00  0.00    -0.014 A 
ATOM     91  C   UNL A   1      40.271  35.021  37.504  1.00  0.00     0.010 A 
ATOM     92  C   UNL A   1      39.270  33.141  38.665  1.00  0.00     0.010 A 
ATOM     93  C   UNL A   1      39.966  35.850  38.587  1.00  0.00     0.020 A 
ATOM     94  C   UNL A   1      38.940  33.972  39.739  1.00  0.00     0.020 A 
ATOM     95  C   UNL A   1      39.302  35.319  39.698  1.00  0.00     0.054 A 
BRANCH  95  96
ATOM     96  S   UNL A   1      38.869  36.426  41.070  1.00  0.00     0.124 S 
ATOM     97  O   UNL A   1      40.137  36.529  41.788  1.00  0.00    -0.237 OA
ATOM     98  O   UNL A   1      38.435  37.639  40.382  1.00  0.00    -0.237 OA
ATOM     99  O   UNL A   1      37.811  35.704  41.775  1.00  0.00    -0.744 OA
ENDBRANCH  95  96
ENDBRANCH  69  90
ENDBRANCH  43  44
ENDBRANCH  36  38
ENDBRANCH  35  36
ENDBRANCH  34  35
ENDBRANCH  33  34
ENDBRANCH  32  33
ENDBRANCH  31  32
ENDBRANCH   1  31
TORSDOF 24
ENDMDL
MODEL 2
REMARK VINA RESULT:      -9.6      1.063      7.955
REMARK SMILES NC(=O)c1cc(NC(=O)/C=C\C(=O)OCCOCCOCCOC(=O)c2ccc(-c3c4nc(c(-c5ccc(S(=O)(=O)[O-])cc5)c5ccc([nH]5)c(-c5ccc(S(=O)(=O)[O-])cc5)c5nc(c(-c6ccc(S(=O)(=O)[O-])cc6)c6ccc3[nH]6)C=C5)C=C4)cc2)ccc1N1CCOCC1
REMARK SMILES IDX 18 1 17 2 16 3 15 4 14 5 12 6 13 7 11 8 10 9 8 10 7 11 9 13
REMARK SMILES IDX 6 14 4 15 5 16 88 17 87 18 86 19 2 20 1 21 3 24 89 25 90 26
REMARK SMILES IDX 94 27 91 28 93 29 92 30 19 31 20 32 21 33 22 34 23 35 24 36
REMARK SMILES IDX 25 37 26 38 27 39 85 40 28 41 84 42 29 43 30 44 31 45 78 46
REMARK SMILES IDX 32 47 83 48 77 49 79 50 33 51 82 52 76 53 75 54 34 56 64 57
REMARK SMILES IDX 45 58 63 59 46 60 49 61 62 62 80 63 47 64 48 65 61 67 81 68
REMARK SMILES IDX 50 69 35 70 36 71 44 72 37 73 43 74 38 75 39 76 40 77 41 78
REMARK SMILES IDX 42 79 65 80 66 81 74 82 67 83 73 84 68 85 69 86 70 87 71 88
REMARK SMILES IDX 72 89 51 90 52 91 60 92 53 93 59 94 54 95 55 96 56 97 57 98
REMARK SMILES IDX 58 99
REMARK H PARENT 7 12 1 22 1 23 79 55 49 66
REMARK Flexibility Score: inf
ROOT
ATOM      1  C   UNL A   1      40.481  20.890  26.354  1.00  0.00     0.188 C 
ENDROOT
BRANCH   1   2
ATOM      2  O   UNL A   1      39.803  21.973  25.722  1.00  0.00    -0.376 OA
BRANCH   2   3
ATOM      3  C   UNL A   1      38.934  22.729  26.556  1.00  0.00     0.202 C 
BRANCH   3   4
ATOM      4  C   UNL A   1      37.810  23.443  25.802  1.00  0.00     0.261 C 
BRANCH   4   5
ATOM      5  O   UNL A   1      36.960  22.701  24.891  1.00  0.00    -0.460 OA
BRANCH   5   6
ATOM      6  C   UNL A   1      35.640  22.908  24.741  1.00  0.00     0.331 C 
ATOM      7  O   UNL A   1      34.992  22.939  23.708  1.00  0.00    -0.247 OA
BRANCH   6   8
ATOM      8  C   UNL A   1      34.972  23.039  26.038  1.00  0.00     0.099 C 
ATOM      9  C   UNL A   1      33.860  22.388  26.405  1.00  0.00     0.079 C 
BRANCH   9  10
ATOM     10  C   UNL A   1      33.023  21.495  25.572  1.00  0.00     0.248 C 
ATOM     11  N   UNL A   1      31.961  21.932  24.831  1.00  0.00    -0.322 N 
ATOM     12  H   UNL A   1      31.436  21.206  24.422  1.00  0.00     0.170 HD
ATOM     13  O   UNL A   1      33.290  20.291  25.585  1.00  0.00    -0.270 OA
BRANCH  11  14
ATOM     14  C   UNL A   1      31.472  23.218  24.539  1.00  0.00     0.042 A 
ATOM     15  C   UNL A   1      31.536  25.283  23.264  1.00  0.00     0.064 A 
ATOM     16  C   UNL A   1      31.732  23.890  23.352  1.00  0.00     0.042 A 
ATOM     17  C   UNL A   1      30.978  26.011  24.340  1.00  0.00     0.050 A 
ATOM     18  C   UNL A   1      30.540  25.266  25.449  1.00  0.00     0.029 A 
ATOM     19  C   UNL A   1      30.781  23.887  25.549  1.00  0.00     0.028 A 
BRANCH  15  20
ATOM     20  C   UNL A   1      32.140  25.906  22.051  1.00  0.00     0.250 C 
ATOM     21  N   UNL A   1      33.481  26.146  22.086  1.00  0.00    -0.366 N 
ATOM     22  H   UNL A   1      33.928  26.557  21.309  1.00  0.00     0.159 HD
ATOM     23  H   UNL A   1      34.004  25.909  22.885  1.00  0.00     0.159 HD
ATOM     24  O   UNL A   1      31.475  26.109  21.043  1.00  0.00    -0.269 OA
ENDBRANCH  15  20
BRANCH  17  25
ATOM     25  N   UNL A   1      30.898  27.399  24.343  1.00  0.00    -0.366 N 
ATOM     26  C   UNL A   1      29.765  28.017  23.623  1.00  0.00     0.145 C 
ATOM     27  C   UNL A   1      31.397  28.197  25.474  1.00  0.00     0.145 C 
ATOM     28  C   UNL A   1      30.120  29.466  23.244  1.00  0.00     0.181 C 
ATOM     29  C   UNL A   1      31.700  29.625  24.992  1.00  0.00     0.181 C 
ATOM     30  O   UNL A   1      30.542  30.224  24.394  1.00  0.00    -0.378 OA
ENDBRANCH  17  25
ENDBRANCH  11  14
ENDBRANCH   9  10
ENDBRANCH   6   8
ENDBRANCH   5   6
ENDBRANCH   4   5
ENDBRANCH   3   4
ENDBRANCH   2   3
ENDBRANCH   1   2
BRANCH   1  31
ATOM     31  C   UNL A   1      41.984  21.134  26.586  1.00  0.00     0.188 C 
BRANCH  31  32
ATOM     32  O   UNL A   1      42.815  21.319  25.445  1.00  0.00    -0.376 OA
BRANCH  32  33
ATOM     33  C   UNL A   1      43.149  22.651  25.080  1.00  0.00     0.202 C 
BRANCH  33  34
ATOM     34  C   UNL A   1      42.812  23.732  26.112  1.00  0.00     0.261 C 
BRANCH  34  35
ATOM     35  O   UNL A   1      42.866  25.063  25.562  1.00  0.00    -0.460 OA
BRANCH  35  36
ATOM     36  C   UNL A   1      41.768  25.831  25.791  1.00  0.00     0.338 C 
ATOM     37  O   UNL A   1      40.764  25.887  25.112  1.00  0.00    -0.246 OA
BRANCH  36  38
ATOM     38  C   UNL A   1      41.859  26.458  27.136  1.00  0.00     0.060 A 
ATOM     39  C   UNL A   1      40.837  26.172  28.054  1.00  0.00     0.016 A 
ATOM     40  C   UNL A   1      42.879  27.347  27.478  1.00  0.00     0.016 A 
ATOM     41  C   UNL A   1      40.792  26.819  29.288  1.00  0.00     0.010 A 
ATOM     42  C   UNL A   1      42.815  28.025  28.702  1.00  0.00     0.010 A 
ATOM     43  C   UNL A   1      41.743  27.800  29.588  1.00  0.00    -0.014 A 
BRANCH  43  44
ATOM     44  C   UNL A   1      41.446  28.790  30.654  1.00  0.00     0.031 A 
ATOM     45  C   UNL A   1      42.280  28.730  31.910  1.00  0.00     0.074 A 
ATOM     46  C   UNL A   1      40.489  29.726  30.526  1.00  0.00     0.049 A 
ATOM     47  N   UNL A   1      42.172  29.420  33.014  1.00  0.00    -0.248 NA
ATOM     48  C   UNL A   1      43.387  27.756  31.916  1.00  0.00     0.031 C 
ATOM     49  C   UNL A   1      39.655  29.939  29.344  1.00  0.00     0.029 A 
ATOM     50  N   UNL A   1      40.053  30.673  31.421  1.00  0.00    -0.354 N 
ATOM     51  C   UNL A   1      43.182  28.954  33.849  1.00  0.00     0.074 A 
ATOM     52  C   UNL A   1      43.888  27.919  33.130  1.00  0.00     0.031 C 
ATOM     53  C   UNL A   1      38.791  30.939  29.596  1.00  0.00     0.029 A 
ATOM     54  C   UNL A   1      38.987  31.413  30.967  1.00  0.00     0.049 A 
ATOM     55  H   UNL A   1      40.465  30.808  32.304  1.00  0.00     0.167 HD
ATOM     56  C   UNL A   1      43.494  29.346  35.105  1.00  0.00     0.031 A 
ATOM     57  C   UNL A   1      38.238  32.341  31.600  1.00  0.00     0.031 A 
ATOM     58  C   UNL A   1      42.788  30.362  35.833  1.00  0.00     0.049 A 
ATOM     59  C   UNL A   1      38.555  32.705  33.032  1.00  0.00     0.074 A 
ATOM     60  C   UNL A   1      43.030  30.827  37.114  1.00  0.00     0.029 A 
ATOM     61  N   UNL A   1      41.697  31.065  35.347  1.00  0.00    -0.354 N 
ATOM     62  N   UNL A   1      39.518  32.261  33.805  1.00  0.00    -0.248 NA
ATOM     63  C   UNL A   1      37.677  33.695  33.677  1.00  0.00     0.031 C 
ATOM     64  C   UNL A   1      42.052  31.779  37.421  1.00  0.00     0.029 A 
ATOM     65  C   UNL A   1      41.237  31.942  36.312  1.00  0.00     0.049 A 
ATOM     66  H   UNL A   1      41.307  30.956  34.450  1.00  0.00     0.167 HD
ATOM     67  C   UNL A   1      39.375  32.936  35.015  1.00  0.00     0.074 A 
ATOM     68  C   UNL A   1      38.243  33.826  34.869  1.00  0.00     0.031 C 
ATOM     69  C   UNL A   1      40.114  32.828  36.147  1.00  0.00     0.031 A 
BRANCH  56  70
ATOM     70  C   UNL A   1      44.626  28.634  35.791  1.00  0.00    -0.014 A 
ATOM     71  C   UNL A   1      44.403  27.470  36.547  1.00  0.00     0.010 A 
ATOM     72  C   UNL A   1      45.938  29.119  35.642  1.00  0.00     0.010 A 
ATOM     73  C   UNL A   1      45.472  26.816  37.165  1.00  0.00     0.020 A 
ATOM     74  C   UNL A   1      47.012  28.455  36.239  1.00  0.00     0.020 A 
ATOM     75  C   UNL A   1      46.770  27.314  37.007  1.00  0.00     0.054 A 
BRANCH  75  76
ATOM     76  S   UNL A   1      48.145  26.424  37.786  1.00  0.00     0.124 S 
ATOM     77  O   UNL A   1      48.312  27.162  39.036  1.00  0.00    -0.237 OA
ATOM     78  O   UNL A   1      47.614  25.070  37.924  1.00  0.00    -0.237 OA
ATOM     79  O   UNL A   1      49.238  26.567  36.827  1.00  0.00    -0.744 OA
ENDBRANCH  75  76
ENDBRANCH  56  70
BRANCH  57  80
ATOM     80  C   UNL A   1      37.072  32.963  30.912  1.00  0.00    -0.014 A 
ATOM     81  C   UNL A   1      35.768  32.802  31.413  1.00  0.00     0.010 A 
ATOM     82  C   UNL A   1      37.262  33.685  29.720  1.00  0.00     0.010 A 
ATOM     83  C   UNL A   1      34.672  33.329  30.720  1.00  0.00     0.020 A 
ATOM     84  C   UNL A   1      36.172  34.236  29.038  1.00  0.00     0.020 A 
ATOM     85  C   UNL A   1      34.882  34.039  29.535  1.00  0.00     0.054 A 
BRANCH  85  86
ATOM     86  S   UNL A   1      33.455  34.743  28.661  1.00  0.00     0.124 S 
ATOM     87  O   UNL A   1      33.195  33.732  27.642  1.00  0.00    -0.237 OA
ATOM     88  O   UNL A   1      32.454  34.848  29.719  1.00  0.00    -0.237 OA
ATOM     89  O   UNL A   1      33.959  36.021  28.165  1.00  0.00    -0.744 OA
ENDBRANCH  85  86
ENDBRANCH  57  80
BRANCH  69  90
ATOM     90  C   UNL A   1      39.753  33.715  37.310  1.00  0.00    -0.014 A 
ATOM     91  C   UNL A   1      39.310  33.174  38.529  1.00  0.00     0.010 A 
ATOM     92  C   UNL A   1      39.936  35.107  37.202  1.00  0.00     0.010 A 
ATOM     93  C   UNL A   1      39.030  34.012  39.613  1.00  0.00     0.020 A 
ATOM     94  C   UNL A   1      39.681  35.945  38.291  1.00  0.00     0.020 A 
ATOM     95  C   UNL A   1      39.217  35.393  39.485  1.00  0.00     0.054 A 
BRANCH  95  96
ATOM     96  S   UNL A   1      38.896  36.455  40.921  1.00  0.00     0.124 S 
ATOM     97  O   UNL A   1      37.829  35.728  41.604  1.00  0.00    -0.237 OA
ATOM     98  O   UNL A   1      40.186  36.471  41.606  1.00  0.00    -0.237 OA
ATOM     99  O   UNL A   1      38.498  37.730  40.326  1.00  0.00    -0.744 OA
ENDBRANCH  95  96
ENDBRANCH  69  90
ENDBRANCH  43  44
ENDBRANCH  36  38
ENDBRANCH  35  36
ENDBRANCH  34  35
ENDBRANCH  33  34
ENDBRANCH  32  33
ENDBRANCH  31  32
ENDBRANCH   1  31
TORSDOF 24
ENDMDL
MODEL 3
REMARK VINA RESULT:      -9.5      2.711      8.537
REMARK SMILES NC(=O)c1cc(NC(=O)/C=C\C(=O)OCCOCCOCCOC(=O)c2ccc(-c3c4nc(c(-c5ccc(S(=O)(=O)[O-])cc5)c5ccc([nH]5)c(-c5ccc(S(=O)(=O)[O-])cc5)c5nc(c(-c6ccc(S(=O)(=O)[O-])cc6)c6ccc3[nH]6)C=C5)C=C4)cc2)ccc1N1CCOCC1
REMARK SMILES IDX 18 1 17 2 16 3 15 4 14 5 12 6 13 7 11 8 10 9 8 10 7 11 9 13
REMARK SMILES IDX 6 14 4 15 5 16 88 17 87 18 86 19 2 20 1 21 3 24 89 25 90 26
REMARK SMILES IDX 94 27 91 28 93 29 92 30 19 31 20 32 21 33 22 34 23 35 24 36
REMARK SMILES IDX 25 37 26 38 27 39 85 40 28 41 84 42 29 43 30 44 31 45 78 46
REMARK SMILES IDX 32 47 83 48 77 49 79 50 33 51 82 52 76 53 75 54 34 56 64 57
REMARK SMILES IDX 45 58 63 59 46 60 49 61 62 62 80 63 47 64 48 65 61 67 81 68
REMARK SMILES IDX 50 69 35 70 36 71 44 72 37 73 43 74 38 75 39 76 40 77 41 78
REMARK SMILES IDX 42 79 65 80 66 81 74 82 67 83 73 84 68 85 69 86 70 87 71 88
REMARK SMILES IDX 72 89 51 90 52 91 60 92 53 93 59 94 54 95 55 96 56 97 57 98
REMARK SMILES IDX 58 99
REMARK H PARENT 7 12 1 22 1 23 79 55 49 66
REMARK Flexibility Score: inf
ROOT
ATOM      1  C   UNL A   1      40.225  19.599  25.779  1.00  0.00     0.188 C 
ENDROOT
BRANCH   1   2
ATOM      2  O   UNL A   1      39.947  20.997  25.770  1.00  0.00    -0.376 OA
BRANCH   2   3
ATOM      3  C   UNL A   1      38.600  21.362  26.045  1.00  0.00     0.202 C 
BRANCH   3   4
ATOM      4  C   UNL A   1      38.215  22.754  25.542  1.00  0.00     0.261 C 
BRANCH   4   5
ATOM      5  O   UNL A   1      37.511  22.903  24.282  1.00  0.00    -0.460 OA
BRANCH   5   6
ATOM      6  C   UNL A   1      36.211  23.229  24.170  1.00  0.00     0.331 C 
ATOM      7  O   UNL A   1      35.594  23.544  23.167  1.00  0.00    -0.247 OA
BRANCH   6   8
ATOM      8  C   UNL A   1      35.518  23.098  25.454  1.00  0.00     0.099 C 
ATOM      9  C   UNL A   1      34.570  22.193  25.734  1.00  0.00     0.079 C 
BRANCH   9  10
ATOM     10  C   UNL A   1      33.955  21.217  24.805  1.00  0.00     0.248 C 
ATOM     11  N   UNL A   1      32.896  21.513  23.994  1.00  0.00    -0.322 N 
ATOM     12  H   UNL A   1      32.528  20.732  23.519  1.00  0.00     0.170 HD
ATOM     13  O   UNL A   1      34.412  20.072  24.800  1.00  0.00    -0.270 OA
BRANCH  11  14
ATOM     14  C   UNL A   1      32.229  22.717  23.705  1.00  0.00     0.042 A 
ATOM     15  C   UNL A   1      32.079  24.846  22.548  1.00  0.00     0.064 A 
ATOM     16  C   UNL A   1      32.502  23.502  22.593  1.00  0.00     0.042 A 
ATOM     17  C   UNL A   1      31.283  25.396  23.580  1.00  0.00     0.050 A 
ATOM     18  C   UNL A   1      30.858  24.514  24.589  1.00  0.00     0.029 A 
ATOM     19  C   UNL A   1      31.321  23.191  24.652  1.00  0.00     0.028 A 
BRANCH  15  20
ATOM     20  C   UNL A   1      32.701  25.643  21.452  1.00  0.00     0.250 C 
ATOM     21  N   UNL A   1      31.971  25.793  20.310  1.00  0.00    -0.366 N 
ATOM     22  H   UNL A   1      32.339  26.310  19.556  1.00  0.00     0.159 HD
ATOM     23  H   UNL A   1      31.079  25.384  20.237  1.00  0.00     0.159 HD
ATOM     24  O   UNL A   1      33.776  26.208  21.608  1.00  0.00    -0.269 OA
ENDBRANCH  15  20
BRANCH  17  25
ATOM     25  N   UNL A   1      30.964  26.748  23.640  1.00  0.00    -0.366 N 
ATOM     26  C   UNL A   1      29.572  27.132  23.329  1.00  0.00     0.145 C 
ATOM     27  C   UNL A   1      31.645  27.660  24.573  1.00  0.00     0.145 C 
ATOM     28  C   UNL A   1      29.527  28.607  22.889  1.00  0.00     0.181 C 
ATOM     29  C   UNL A   1      31.523  29.101  24.052  1.00  0.00     0.181 C 
ATOM     30  O   UNL A   1      30.149  29.467  23.864  1.00  0.00    -0.378 OA
ENDBRANCH  17  25
ENDBRANCH  11  14
ENDBRANCH   9  10
ENDBRANCH   6   8
ENDBRANCH   5   6
ENDBRANCH   4   5
ENDBRANCH   3   4
ENDBRANCH   2   3
ENDBRANCH   1   2
BRANCH   1  31
ATOM     31  C   UNL A   1      41.602  19.232  26.361  1.00  0.00     0.188 C 
BRANCH  31  32
ATOM     32  O   UNL A   1      42.604  18.763  25.464  1.00  0.00    -0.376 OA
BRANCH  32  33
ATOM     33  C   UNL A   1      43.700  19.624  25.191  1.00  0.00     0.202 C 
BRANCH  33  34
ATOM     34  C   UNL A   1      43.691  20.972  25.919  1.00  0.00     0.261 C 
BRANCH  34  35
ATOM     35  O   UNL A   1      44.559  21.944  25.303  1.00  0.00    -0.460 OA
BRANCH  35  36
ATOM     36  C   UNL A   1      43.934  22.885  24.547  1.00  0.00     0.338 C 
ATOM     37  O   UNL A   1      43.640  22.797  23.373  1.00  0.00    -0.246 OA
BRANCH  36  38
ATOM     38  C   UNL A   1      43.445  23.990  25.413  1.00  0.00     0.060 A 
ATOM     39  C   UNL A   1      44.070  25.240  25.281  1.00  0.00     0.016 A 
ATOM     40  C   UNL A   1      42.447  23.803  26.369  1.00  0.00     0.016 A 
ATOM     41  C   UNL A   1      43.748  26.286  26.144  1.00  0.00     0.010 A 
ATOM     42  C   UNL A   1      42.148  24.843  27.261  1.00  0.00     0.010 A 
ATOM     43  C   UNL A   1      42.836  26.070  27.182  1.00  0.00    -0.014 A 
BRANCH  43  44
ATOM     44  C   UNL A   1      42.836  26.992  28.346  1.00  0.00     0.031 A 
ATOM     45  C   UNL A   1      43.962  26.854  29.340  1.00  0.00     0.074 A 
ATOM     46  C   UNL A   1      41.892  27.934  28.523  1.00  0.00     0.049 A 
ATOM     47  N   UNL A   1      44.150  27.475  30.475  1.00  0.00    -0.248 NA
ATOM     48  C   UNL A   1      45.018  25.883  29.005  1.00  0.00     0.031 C 
ATOM     49  C   UNL A   1      40.788  28.219  27.608  1.00  0.00     0.029 A 
ATOM     50  N   UNL A   1      41.714  28.823  29.555  1.00  0.00    -0.354 N 
ATOM     51  C   UNL A   1      45.332  26.959  30.994  1.00  0.00     0.074 A 
ATOM     52  C   UNL A   1      45.815  25.970  30.058  1.00  0.00     0.031 C 
ATOM     53  C   UNL A   1      40.032  29.202  28.133  1.00  0.00     0.029 A 
ATOM     54  C   UNL A   1      40.579  29.590  29.435  1.00  0.00     0.049 A 
ATOM     55  H   UNL A   1      42.340  28.904  30.310  1.00  0.00     0.167 HD
ATOM     56  C   UNL A   1      45.960  27.272  32.150  1.00  0.00     0.031 A 
ATOM     57  C   UNL A   1      40.031  30.476  30.292  1.00  0.00     0.031 A 
ATOM     58  C   UNL A   1      45.479  28.241  33.094  1.00  0.00     0.049 A 
ATOM     59  C   UNL A   1      40.708  30.751  31.615  1.00  0.00     0.074 A 
ATOM     60  C   UNL A   1      46.047  28.625  34.296  1.00  0.00     0.029 A 
ATOM     61  N   UNL A   1      44.312  28.972  32.946  1.00  0.00    -0.354 N 
ATOM     62  N   UNL A   1      41.830  30.261  32.088  1.00  0.00    -0.248 NA
ATOM     63  C   UNL A   1      40.040  31.699  32.521  1.00  0.00     0.031 C 
ATOM     64  C   UNL A   1      45.196  29.556  34.899  1.00  0.00     0.029 A 
ATOM     65  C   UNL A   1      44.127  29.787  34.048  1.00  0.00     0.049 A 
ATOM     66  H   UNL A   1      43.704  28.918  32.174  1.00  0.00     0.167 HD
ATOM     67  C   UNL A   1      42.011  30.859  33.332  1.00  0.00     0.074 A 
ATOM     68  C   UNL A   1      40.893  31.756  33.535  1.00  0.00     0.031 C 
ATOM     69  C   UNL A   1      43.013  30.682  34.229  1.00  0.00     0.031 A 
BRANCH  56  70
ATOM     70  C   UNL A   1      47.219  26.519  32.479  1.00  0.00    -0.014 A 
ATOM     71  C   UNL A   1      48.468  26.939  31.991  1.00  0.00     0.010 A 
ATOM     72  C   UNL A   1      47.151  25.395  33.323  1.00  0.00     0.010 A 
ATOM     73  C   UNL A   1      49.627  26.232  32.321  1.00  0.00     0.020 A 
ATOM     74  C   UNL A   1      48.311  24.699  33.673  1.00  0.00     0.020 A 
ATOM     75  C   UNL A   1      49.540  25.116  33.160  1.00  0.00     0.054 A 
BRANCH  75  76
ATOM     76  S   UNL A   1      51.064  24.240  33.605  1.00  0.00     0.124 S 
ATOM     77  O   UNL A   1      51.011  23.076  32.723  1.00  0.00    -0.237 OA
ATOM     78  O   UNL A   1      52.102  25.218  33.289  1.00  0.00    -0.237 OA
ATOM     79  O   UNL A   1      50.895  23.952  35.027  1.00  0.00    -0.744 OA
ENDBRANCH  75  76
ENDBRANCH  56  70
BRANCH  57  80
ATOM     80  C   UNL A   1      38.738  31.140  29.964  1.00  0.00    -0.014 A 
ATOM     81  C   UNL A   1      38.710  32.392  29.324  1.00  0.00     0.010 A 
ATOM     82  C   UNL A   1      37.523  30.535  30.336  1.00  0.00     0.010 A 
ATOM     83  C   UNL A   1      37.493  33.039  29.087  1.00  0.00     0.020 A 
ATOM     84  C   UNL A   1      36.303  31.168  30.076  1.00  0.00     0.020 A 
ATOM     85  C   UNL A   1      36.298  32.424  29.468  1.00  0.00     0.054 A 
BRANCH  85  86
ATOM     86  S   UNL A   1      34.724  33.262  29.126  1.00  0.00     0.124 S 
ATOM     87  O   UNL A   1      34.153  32.420  28.080  1.00  0.00    -0.237 OA
ATOM     88  O   UNL A   1      34.049  33.210  30.420  1.00  0.00    -0.237 OA
ATOM     89  O   UNL A   1      35.137  34.598  28.703  1.00  0.00    -0.744 OA
ENDBRANCH  85  86
ENDBRANCH  57  80
BRANCH  69  90
ATOM     90  C   UNL A   1      42.975  31.495  35.497  1.00  0.00    -0.014 A 
ATOM     91  C   UNL A   1      42.410  30.980  36.676  1.00  0.00     0.010 A 
ATOM     92  C   UNL A   1      43.584  32.763  35.523  1.00  0.00     0.010 A 
ATOM     93  C   UNL A   1      42.431  31.731  37.855  1.00  0.00     0.020 A 
ATOM     94  C   UNL A   1      43.629  33.506  36.706  1.00  0.00     0.020 A 
ATOM     95  C   UNL A   1      43.041  32.990  37.861  1.00  0.00     0.054 A 
BRANCH  95  96
ATOM     96  S   UNL A   1      43.101  33.925  39.416  1.00  0.00     0.124 S 
ATOM     97  O   UNL A   1      43.537  35.242  38.961  1.00  0.00    -0.237 OA
ATOM     98  O   UNL A   1      41.723  33.848  39.894  1.00  0.00    -0.237 OA
ATOM     99  O   UNL A   1      44.075  33.191  40.222  1.00  0.00    -0.744 OA
ENDBRANCH  95  96
ENDBRANCH  69  90
ENDBRANCH  43  44
ENDBRANCH  36  38
ENDBRANCH  35  36
ENDBRANCH  34  35
ENDBRANCH  33  34
ENDBRANCH  32  33
ENDBRANCH  31  32
ENDBRANCH   1  31
TORSDOF 24
ENDMDL
