MODEL 1
REMARK VINA RESULT:      -9.5      0.000      0.000
REMARK SMILES Cc1ccc([C@@H](C)Nc2ccc(N)cc2C(=O)OCCOCCOCCOC(=O)c2ccc(-c3c4nc(c(-c5ccc(S(=O)(=O)[O-])cc5)c5ccc([nH]5)c(-c5ccc(S(=O)(=O)[O-])cc5)c5nc(c(-c6ccc(S(=O)(=O)[O-])cc6)c6ccc3[nH]6)C=C5)C=C4)cc2)cc1F
REMARK SMILES IDX 22 1 21 2 20 3 19 4 18 5 16 6 17 7 15 8 9 9 10 10 11 11
REMARK SMILES IDX 14 12 12 13 8 14 6 16 7 17 5 18 1 19 2 20 3 21 91 22 4 23
REMARK SMILES IDX 90 24 92 25 13 26 23 29 24 30 25 31 26 32 27 33 28 34 29 35
REMARK SMILES IDX 30 36 31 37 89 38 32 39 88 40 33 41 34 42 35 43 82 44 36 45
REMARK SMILES IDX 87 46 81 47 83 48 37 49 86 50 80 51 79 52 38 54 68 55 49 56
REMARK SMILES IDX 67 57 50 58 53 59 66 60 84 61 51 62 52 63 65 65 85 66 54 67
REMARK SMILES IDX 39 68 40 69 48 70 41 71 47 72 42 73 43 74 44 75 45 76 46 77
REMARK SMILES IDX 69 78 70 79 78 80 71 81 77 82 72 83 73 84 74 85 75 86 76 87
REMARK SMILES IDX 55 88 56 89 64 90 57 91 63 92 58 93 59 94 60 95 61 96 62 97
REMARK H PARENT 8 15 13 27 13 28 83 53 53 64
REMARK Flexibility Score: inf
ROOT
ATOM      1  C   UNL A   1      34.788  30.844  27.972  1.00  0.00     0.188 C 
ENDROOT
BRANCH   1   2
ATOM      2  O   UNL A   1      33.458  30.459  27.698  1.00  0.00    -0.376 OA
BRANCH   2   3
ATOM      3  C   UNL A   1      33.143  29.983  26.406  1.00  0.00     0.202 C 
BRANCH   3   4
ATOM      4  C   UNL A   1      33.948  28.873  25.713  1.00  0.00     0.261 C 
BRANCH   4   5
ATOM      5  O   UNL A   1      34.053  27.606  26.379  1.00  0.00    -0.460 OA
BRANCH   5   6
ATOM      6  C   UNL A   1      33.185  26.639  26.002  1.00  0.00     0.340 C 
ATOM      7  O   UNL A   1      31.972  26.670  26.151  1.00  0.00    -0.246 OA
BRANCH   6   8
ATOM      8  C   UNL A   1      33.858  25.576  25.222  1.00  0.00     0.085 A 
ATOM      9  C   UNL A   1      33.687  25.298  23.856  1.00  0.00     0.049 A 
ATOM     10  C   UNL A   1      34.510  24.259  23.345  1.00  0.00     0.029 A 
ATOM     11  C   UNL A   1      35.423  23.535  24.118  1.00  0.00     0.027 A 
ATOM     12  C   UNL A   1      34.786  24.832  26.004  1.00  0.00     0.043 A 
ATOM     13  C   UNL A   1      35.587  23.830  25.459  1.00  0.00     0.032 A 
BRANCH   9  14
ATOM     14  N   UNL A   1      32.904  25.896  22.893  1.00  0.00    -0.378 N 
ATOM     15  H   UNL A   1      32.329  25.232  22.451  1.00  0.00     0.161 HD
BRANCH  14  16
ATOM     16  C   UNL A   1      32.678  27.227  22.340  1.00  0.00     0.106 C 
ATOM     17  C   UNL A   1      33.906  28.125  22.314  1.00  0.00     0.036 C 
BRANCH  16  18
ATOM     18  C   UNL A   1      31.319  27.822  22.696  1.00  0.00    -0.023 A 
ATOM     19  C   UNL A   1      27.265  29.350  23.087  1.00  0.00     0.047 C 
ATOM     20  C   UNL A   1      28.669  28.842  22.951  1.00  0.00    -0.015 A 
ATOM     21  C   UNL A   1      29.697  29.649  22.460  1.00  0.00     0.007 A 
ATOM     22  C   UNL A   1      28.983  27.545  23.349  1.00  0.00     0.126 A 
ATOM     23  C   UNL A   1      30.999  29.144  22.328  1.00  0.00     0.006 A 
ATOM     24  C   UNL A   1      30.279  27.039  23.228  1.00  0.00     0.045 A 
ATOM     25  F   UNL A   1      28.018  26.749  23.832  1.00  0.00    -0.207 F 
ENDBRANCH  16  18
ENDBRANCH  14  16
ENDBRANCH   9  14
BRANCH  13  26
ATOM     26  N   UNL A   1      36.429  23.068  26.248  1.00  0.00    -0.399 N 
ATOM     27  H   UNL A   1      36.321  23.069  27.226  1.00  0.00     0.156 HD
ATOM     28  H   UNL A   1      37.136  22.525  25.831  1.00  0.00     0.156 HD
ENDBRANCH  13  26
ENDBRANCH   6   8
ENDBRANCH   5   6
ENDBRANCH   4   5
ENDBRANCH   3   4
ENDBRANCH   2   3
ENDBRANCH   1   2
BRANCH   1  29
ATOM     29  C   UNL A   1      34.903  32.280  28.523  1.00  0.00     0.188 C 
BRANCH  29  30
ATOM     30  O   UNL A   1      34.905  33.396  27.644  1.00  0.00    -0.376 OA
BRANCH  30  31
ATOM     31  C   UNL A   1      34.392  34.648  28.070  1.00  0.00     0.202 C 
BRANCH  31  32
ATOM     32  C   UNL A   1      33.320  34.674  29.164  1.00  0.00     0.261 C 
BRANCH  32  33
ATOM     33  O   UNL A   1      33.531  35.673  30.167  1.00  0.00    -0.460 OA
BRANCH  33  34
ATOM     34  C   UNL A   1      33.110  35.335  31.416  1.00  0.00     0.338 C 
ATOM     35  O   UNL A   1      31.979  35.371  31.851  1.00  0.00    -0.246 OA
BRANCH  34  36
ATOM     36  C   UNL A   1      34.240  34.694  32.122  1.00  0.00     0.060 A 
ATOM     37  C   UNL A   1      35.536  35.176  31.879  1.00  0.00     0.016 A 
ATOM     38  C   UNL A   1      34.024  33.656  33.027  1.00  0.00     0.016 A 
ATOM     39  C   UNL A   1      36.626  34.607  32.530  1.00  0.00     0.010 A 
ATOM     40  C   UNL A   1      35.118  33.061  33.652  1.00  0.00     0.010 A 
ATOM     41  C   UNL A   1      36.423  33.514  33.381  1.00  0.00    -0.014 A 
BRANCH  41  42
ATOM     42  C   UNL A   1      37.570  32.675  33.784  1.00  0.00     0.031 A 
ATOM     43  C   UNL A   1      38.286  33.049  35.051  1.00  0.00     0.074 A 
ATOM     44  C   UNL A   1      37.976  31.632  33.042  1.00  0.00     0.049 A 
ATOM     45  N   UNL A   1      39.382  32.554  35.562  1.00  0.00    -0.248 NA
ATOM     46  C   UNL A   1      37.687  34.137  35.844  1.00  0.00     0.031 C 
ATOM     47  C   UNL A   1      37.325  31.147  31.826  1.00  0.00     0.029 A 
ATOM     48  N   UNL A   1      39.056  30.801  33.201  1.00  0.00    -0.354 N 
ATOM     49  C   UNL A   1      39.611  33.279  36.725  1.00  0.00     0.074 A 
ATOM     50  C   UNL A   1      38.556  34.261  36.835  1.00  0.00     0.031 C 
ATOM     51  C   UNL A   1      38.033  30.114  31.336  1.00  0.00     0.029 A 
ATOM     52  C   UNL A   1      39.207  29.893  32.181  1.00  0.00     0.049 A 
ATOM     53  H   UNL A   1      39.666  30.851  33.973  1.00  0.00     0.167 HD
ATOM     54  C   UNL A   1      40.615  33.142  37.620  1.00  0.00     0.031 A 
ATOM     55  C   UNL A   1      40.197  29.009  31.946  1.00  0.00     0.031 A 
ATOM     56  C   UNL A   1      41.674  32.181  37.488  1.00  0.00     0.049 A 
ATOM     57  C   UNL A   1      41.351  28.928  32.916  1.00  0.00     0.074 A 
ATOM     58  C   UNL A   1      42.742  31.956  38.336  1.00  0.00     0.029 A 
ATOM     59  N   UNL A   1      41.803  31.294  36.430  1.00  0.00    -0.354 N 
ATOM     60  N   UNL A   1      41.552  29.609  34.020  1.00  0.00    -0.248 NA
ATOM     61  C   UNL A   1      42.409  27.954  32.609  1.00  0.00     0.031 C 
ATOM     62  C   UNL A   1      43.548  30.966  37.763  1.00  0.00     0.029 A 
ATOM     63  C   UNL A   1      42.945  30.531  36.592  1.00  0.00     0.049 A 
ATOM     64  H   UNL A   1      41.174  31.216  35.676  1.00  0.00     0.167 HD
ATOM     65  C   UNL A   1      42.740  29.124  34.556  1.00  0.00     0.074 A 
ATOM     66  C   UNL A   1      43.207  28.085  33.659  1.00  0.00     0.031 C 
ATOM     67  C   UNL A   1      43.386  29.497  35.689  1.00  0.00     0.031 A 
BRANCH  54  68
ATOM     68  C   UNL A   1      40.631  34.087  38.790  1.00  0.00    -0.014 A 
ATOM     69  C   UNL A   1      41.250  35.348  38.704  1.00  0.00     0.010 A 
ATOM     70  C   UNL A   1      40.004  33.713  39.992  1.00  0.00     0.010 A 
ATOM     71  C   UNL A   1      41.273  36.202  39.810  1.00  0.00     0.020 A 
ATOM     72  C   UNL A   1      40.000  34.576  41.092  1.00  0.00     0.020 A 
ATOM     73  C   UNL A   1      40.649  35.808  40.998  1.00  0.00     0.054 A 
BRANCH  73  74
ATOM     74  S   UNL A   1      40.673  36.947  42.410  1.00  0.00     0.124 S 
ATOM     75  O   UNL A   1      40.933  38.228  41.760  1.00  0.00    -0.237 OA
ATOM     76  O   UNL A   1      39.333  36.788  42.971  1.00  0.00    -0.237 OA
ATOM     77  O   UNL A   1      41.759  36.441  43.246  1.00  0.00    -0.744 OA
ENDBRANCH  73  74
ENDBRANCH  54  68
BRANCH  55  78
ATOM     78  C   UNL A   1      40.158  28.146  30.733  1.00  0.00    -0.014 A 
ATOM     79  C   UNL A   1      41.057  28.359  29.673  1.00  0.00     0.010 A 
ATOM     80  C   UNL A   1      39.216  27.106  30.629  1.00  0.00     0.010 A 
ATOM     81  C   UNL A   1      41.003  27.562  28.526  1.00  0.00     0.020 A 
ATOM     82  C   UNL A   1      39.177  26.288  29.495  1.00  0.00     0.020 A 
ATOM     83  C   UNL A   1      40.064  26.529  28.445  1.00  0.00     0.054 A 
BRANCH  83  84
ATOM     84  S   UNL A   1      40.046  25.476  26.967  1.00  0.00     0.124 S 
ATOM     85  O   UNL A   1      40.923  24.379  27.365  1.00  0.00    -0.237 OA
ATOM     86  O   UNL A   1      38.631  25.139  26.839  1.00  0.00    -0.237 OA
ATOM     87  O   UNL A   1      40.569  26.349  25.918  1.00  0.00    -0.744 OA
ENDBRANCH  83  84
ENDBRANCH  55  78
BRANCH  67  88
ATOM     88  C   UNL A   1      44.640  28.747  36.058  1.00  0.00    -0.014 A 
ATOM     89  C   UNL A   1      45.889  29.093  35.514  1.00  0.00     0.010 A 
ATOM     90  C   UNL A   1      44.570  27.727  37.025  1.00  0.00     0.010 A 
ATOM     91  C   UNL A   1      47.043  28.411  35.909  1.00  0.00     0.020 A 
ATOM     92  C   UNL A   1      45.725  27.063  37.444  1.00  0.00     0.020 A 
ATOM     93  C   UNL A   1      46.953  27.401  36.873  1.00  0.00     0.054 A 
BRANCH  93  94
ATOM     94  S   UNL A   1      48.472  26.565  37.406  1.00  0.00     0.124 S 
ATOM     95  O   UNL A   1      49.349  26.764  36.256  1.00  0.00    -0.237 OA
ATOM     96  O   UNL A   1      48.838  27.303  38.613  1.00  0.00    -0.237 OA
ATOM     97  O   UNL A   1      48.048  25.185  37.633  1.00  0.00    -0.744 OA
ENDBRANCH  93  94
ENDBRANCH  67  88
ENDBRANCH  41  42
ENDBRANCH  34  36
ENDBRANCH  33  34
ENDBRANCH  32  33
ENDBRANCH  31  32
ENDBRANCH  30  31
ENDBRANCH  29  30
ENDBRANCH   1  29
TORSDOF 24
ENDMDL
MODEL 2
REMARK VINA RESULT:      -9.5      2.429      9.432
REMARK SMILES Cc1ccc([C@@H](C)Nc2ccc(N)cc2C(=O)OCCOCCOCCOC(=O)c2ccc(-c3c4nc(c(-c5ccc(S(=O)(=O)[O-])cc5)c5ccc([nH]5)c(-c5ccc(S(=O)(=O)[O-])cc5)c5nc(c(-c6ccc(S(=O)(=O)[O-])cc6)c6ccc3[nH]6)C=C5)C=C4)cc2)cc1F
REMARK SMILES IDX 22 1 21 2 20 3 19 4 18 5 16 6 17 7 15 8 9 9 10 10 11 11
REMARK SMILES IDX 14 12 12 13 8 14 6 16 7 17 5 18 1 19 2 20 3 21 91 22 4 23
REMARK SMILES IDX 90 24 92 25 13 26 23 29 24 30 25 31 26 32 27 33 28 34 29 35
REMARK SMILES IDX 30 36 31 37 89 38 32 39 88 40 33 41 34 42 35 43 82 44 36 45
REMARK SMILES IDX 87 46 81 47 83 48 37 49 86 50 80 51 79 52 38 54 68 55 49 56
REMARK SMILES IDX 67 57 50 58 53 59 66 60 84 61 51 62 52 63 65 65 85 66 54 67
REMARK SMILES IDX 39 68 40 69 48 70 41 71 47 72 42 73 43 74 44 75 45 76 46 77
REMARK SMILES IDX 69 78 70 79 78 80 71 81 77 82 72 83 73 84 74 85 75 86 76 87
REMARK SMILES IDX 55 88 56 89 64 90 57 91 63 92 58 93 59 94 60 95 61 96 62 97
REMARK H PARENT 8 15 13 27 13 28 83 53 53 64
REMARK Flexibility Score: inf
ROOT
ATOM      1  C   UNL A   1      37.235  22.072  24.644  1.00  0.00     0.188 C 
ENDROOT
BRANCH   1   2
ATOM      2  O   UNL A   1      36.311  23.138  24.638  1.00  0.00    -0.376 OA
BRANCH   2   3
ATOM      3  C   UNL A   1      35.794  23.593  25.872  1.00  0.00     0.202 C 
BRANCH   3   4
ATOM      4  C   UNL A   1      34.454  24.337  25.985  1.00  0.00     0.261 C 
BRANCH   4   5
ATOM      5  O   UNL A   1      34.457  25.757  25.777  1.00  0.00    -0.460 OA
BRANCH   5   6
ATOM      6  C   UNL A   1      33.953  26.208  24.605  1.00  0.00     0.340 C 
ATOM      7  O   UNL A   1      33.994  25.619  23.536  1.00  0.00    -0.246 OA
BRANCH   6   8
ATOM      8  C   UNL A   1      33.179  27.457  24.790  1.00  0.00     0.085 A 
ATOM      9  C   UNL A   1      31.924  27.760  24.234  1.00  0.00     0.049 A 
ATOM     10  C   UNL A   1      31.376  29.010  24.630  1.00  0.00     0.029 A 
ATOM     11  C   UNL A   1      32.017  29.904  25.494  1.00  0.00     0.027 A 
ATOM     12  C   UNL A   1      33.827  28.374  25.665  1.00  0.00     0.043 A 
ATOM     13  C   UNL A   1      33.246  29.584  26.041  1.00  0.00     0.032 A 
BRANCH   9  14
ATOM     14  N   UNL A   1      31.088  27.033  23.417  1.00  0.00    -0.378 N 
ATOM     15  H   UNL A   1      31.247  27.255  22.471  1.00  0.00     0.161 HD
BRANCH  14  16
ATOM     16  C   UNL A   1      30.037  26.030  23.543  1.00  0.00     0.106 C 
ATOM     17  C   UNL A   1      28.700  26.563  24.039  1.00  0.00     0.036 C 
BRANCH  16  18
ATOM     18  C   UNL A   1      30.533  24.673  24.034  1.00  0.00    -0.023 A 
ATOM     19  C   UNL A   1      32.549  21.093  25.465  1.00  0.00     0.047 C 
ATOM     20  C   UNL A   1      31.853  22.319  24.954  1.00  0.00    -0.015 A 
ATOM     21  C   UNL A   1      31.764  22.597  23.589  1.00  0.00     0.007 A 
ATOM     22  C   UNL A   1      31.245  23.200  25.846  1.00  0.00     0.126 A 
ATOM     23  C   UNL A   1      31.120  23.760  23.138  1.00  0.00     0.006 A 
ATOM     24  C   UNL A   1      30.595  24.353  25.403  1.00  0.00     0.045 A 
ATOM     25  F   UNL A   1      31.307  22.954  27.163  1.00  0.00    -0.207 F 
ENDBRANCH  16  18
ENDBRANCH  14  16
ENDBRANCH   9  14
BRANCH  13  26
ATOM     26  N   UNL A   1      33.921  30.496  26.832  1.00  0.00    -0.399 N 
ATOM     27  H   UNL A   1      33.459  31.302  27.156  1.00  0.00     0.156 HD
ATOM     28  H   UNL A   1      34.863  30.339  27.070  1.00  0.00     0.156 HD
ENDBRANCH  13  26
ENDBRANCH   6   8
ENDBRANCH   5   6
ENDBRANCH   4   5
ENDBRANCH   3   4
ENDBRANCH   2   3
ENDBRANCH   1   2
BRANCH   1  29
ATOM     29  C   UNL A   1      38.134  22.055  25.898  1.00  0.00     0.188 C 
BRANCH  29  30
ATOM     30  O   UNL A   1      39.524  21.781  25.789  1.00  0.00    -0.376 OA
BRANCH  30  31
ATOM     31  C   UNL A   1      40.318  21.616  26.952  1.00  0.00     0.202 C 
BRANCH  31  32
ATOM     32  C   UNL A   1      41.516  22.546  27.168  1.00  0.00     0.261 C 
BRANCH  32  33
ATOM     33  O   UNL A   1      41.273  23.909  26.807  1.00  0.00    -0.460 OA
BRANCH  33  34
ATOM     34  C   UNL A   1      42.333  24.747  26.966  1.00  0.00     0.338 C 
ATOM     35  O   UNL A   1      43.350  24.787  26.308  1.00  0.00    -0.246 OA
BRANCH  34  36
ATOM     36  C   UNL A   1      41.956  25.778  27.957  1.00  0.00     0.060 A 
ATOM     37  C   UNL A   1      42.899  26.767  28.279  1.00  0.00     0.016 A 
ATOM     38  C   UNL A   1      40.689  25.785  28.539  1.00  0.00     0.016 A 
ATOM     39  C   UNL A   1      42.581  27.761  29.200  1.00  0.00     0.010 A 
ATOM     40  C   UNL A   1      40.384  26.757  29.488  1.00  0.00     0.010 A 
ATOM     41  C   UNL A   1      41.339  27.727  29.843  1.00  0.00    -0.014 A 
BRANCH  41  42
ATOM     42  C   UNL A   1      41.124  28.530  31.065  1.00  0.00     0.031 A 
ATOM     43  C   UNL A   1      40.031  29.562  31.029  1.00  0.00     0.074 A 
ATOM     44  C   UNL A   1      41.884  28.365  32.160  1.00  0.00     0.049 A 
ATOM     45  N   UNL A   1      39.716  30.467  31.917  1.00  0.00    -0.248 NA
ATOM     46  C   UNL A   1      39.187  29.578  29.821  1.00  0.00     0.031 C 
ATOM     47  C   UNL A   1      42.933  27.361  32.325  1.00  0.00     0.029 A 
ATOM     48  N   UNL A   1      41.896  29.063  33.341  1.00  0.00    -0.354 N 
ATOM     49  C   UNL A   1      38.650  31.169  31.368  1.00  0.00     0.074 A 
ATOM     50  C   UNL A   1      38.384  30.601  30.066  1.00  0.00     0.031 C 
ATOM     51  C   UNL A   1      43.503  27.522  33.532  1.00  0.00     0.029 A 
ATOM     52  C   UNL A   1      42.886  28.664  34.206  1.00  0.00     0.049 A 
ATOM     53  H   UNL A   1      41.256  29.782  33.549  1.00  0.00     0.167 HD
ATOM     54  C   UNL A   1      37.955  32.200  31.902  1.00  0.00     0.031 A 
ATOM     55  C   UNL A   1      43.266  29.186  35.389  1.00  0.00     0.031 A 
ATOM     56  C   UNL A   1      38.244  32.774  33.186  1.00  0.00     0.049 A 
ATOM     57  C   UNL A   1      42.529  30.387  35.930  1.00  0.00     0.074 A 
ATOM     58  C   UNL A   1      37.603  33.820  33.824  1.00  0.00     0.029 A 
ATOM     59  N   UNL A   1      39.267  32.356  34.023  1.00  0.00    -0.354 N 
ATOM     60  N   UNL A   1      41.513  31.036  35.410  1.00  0.00    -0.248 NA
ATOM     61  C   UNL A   1      42.988  30.923  37.220  1.00  0.00     0.031 C 
ATOM     62  C   UNL A   1      38.275  34.069  35.026  1.00  0.00     0.029 A 
ATOM     63  C   UNL A   1      39.292  33.136  35.164  1.00  0.00     0.049 A 
ATOM     64  H   UNL A   1      39.885  31.612  33.834  1.00  0.00     0.167 HD
ATOM     65  C   UNL A   1      41.190  32.034  36.324  1.00  0.00     0.074 A 
ATOM     66  C   UNL A   1      42.114  31.896  37.433  1.00  0.00     0.031 C 
ATOM     67  C   UNL A   1      40.216  32.976  36.259  1.00  0.00     0.031 A 
BRANCH  54  68
ATOM     68  C   UNL A   1      36.850  32.792  31.070  1.00  0.00    -0.014 A 
ATOM     69  C   UNL A   1      37.129  33.629  29.974  1.00  0.00     0.010 A 
ATOM     70  C   UNL A   1      35.511  32.495  31.383  1.00  0.00     0.010 A 
ATOM     71  C   UNL A   1      36.087  34.187  29.228  1.00  0.00     0.020 A 
ATOM     72  C   UNL A   1      34.467  33.028  30.622  1.00  0.00     0.020 A 
ATOM     73  C   UNL A   1      34.762  33.885  29.559  1.00  0.00     0.054 A 
BRANCH  73  74
ATOM     74  S   UNL A   1      33.430  34.603  28.559  1.00  0.00     0.124 S 
ATOM     75  O   UNL A   1      32.453  34.970  29.580  1.00  0.00    -0.237 OA
ATOM     76  O   UNL A   1      34.096  35.722  27.896  1.00  0.00    -0.237 OA
ATOM     77  O   UNL A   1      33.029  33.509  27.678  1.00  0.00    -0.744 OA
ENDBRANCH  73  74
ENDBRANCH  54  68
BRANCH  55  78
ATOM     78  C   UNL A   1      44.412  28.595  36.135  1.00  0.00    -0.014 A 
ATOM     79  C   UNL A   1      44.207  27.552  37.055  1.00  0.00     0.010 A 
ATOM     80  C   UNL A   1      45.718  29.078  35.931  1.00  0.00     0.010 A 
ATOM     81  C   UNL A   1      45.282  27.015  37.769  1.00  0.00     0.020 A 
ATOM     82  C   UNL A   1      46.800  28.525  36.624  1.00  0.00     0.020 A 
ATOM     83  C   UNL A   1      46.573  27.503  37.547  1.00  0.00     0.054 A 
BRANCH  83  84
ATOM     84  S   UNL A   1      47.959  26.757  38.451  1.00  0.00     0.124 S 
ATOM     85  O   UNL A   1      47.716  25.331  38.256  1.00  0.00    -0.237 OA
ATOM     86  O   UNL A   1      49.119  27.302  37.752  1.00  0.00    -0.237 OA
ATOM     87  O   UNL A   1      47.778  27.242  39.817  1.00  0.00    -0.744 OA
ENDBRANCH  83  84
ENDBRANCH  55  78
BRANCH  67  88
ATOM     88  C   UNL A   1      40.059  33.902  37.436  1.00  0.00    -0.014 A 
ATOM     89  C   UNL A   1      40.625  35.189  37.438  1.00  0.00     0.010 A 
ATOM     90  C   UNL A   1      39.266  33.498  38.526  1.00  0.00     0.010 A 
ATOM     91  C   UNL A   1      40.424  36.044  38.526  1.00  0.00     0.020 A 
ATOM     92  C   UNL A   1      39.039  34.360  39.600  1.00  0.00     0.020 A 
ATOM     93  C   UNL A   1      39.630  35.624  39.599  1.00  0.00     0.054 A 
BRANCH  93  94
ATOM     94  S   UNL A   1      39.343  36.772  40.974  1.00  0.00     0.124 S 
ATOM     95  O   UNL A   1      38.535  35.962  41.882  1.00  0.00    -0.237 OA
ATOM     96  O   UNL A   1      40.698  37.069  41.433  1.00  0.00    -0.237 OA
ATOM     97  O   UNL A   1      38.644  37.893  40.351  1.00  0.00    -0.744 OA
ENDBRANCH  93  94
ENDBRANCH  67  88
ENDBRANCH  41  42
ENDBRANCH  34  36
ENDBRANCH  33  34
ENDBRANCH  32  33
ENDBRANCH  31  32
ENDBRANCH  30  31
ENDBRANCH  29  30
ENDBRANCH   1  29
TORSDOF 24
ENDMDL
MODEL 3
REMARK VINA RESULT:      -9.3      3.077      9.902
REMARK SMILES Cc1ccc([C@@H](C)Nc2ccc(N)cc2C(=O)OCCOCCOCCOC(=O)c2ccc(-c3c4nc(c(-c5ccc(S(=O)(=O)[O-])cc5)c5ccc([nH]5)c(-c5ccc(S(=O)(=O)[O-])cc5)c5nc(c(-c6ccc(S(=O)(=O)[O-])cc6)c6ccc3[nH]6)C=C5)C=C4)cc2)cc1F
REMARK SMILES IDX 22 1 21 2 20 3 19 4 18 5 16 6 17 7 15 8 9 9 10 10 11 11
REMARK SMILES IDX 14 12 12 13 8 14 6 16 7 17 5 18 1 19 2 20 3 21 91 22 4 23
REMARK SMILES IDX 90 24 92 25 13 26 23 29 24 30 25 31 26 32 27 33 28 34 29 35
REMARK SMILES IDX 30 36 31 37 89 38 32 39 88 40 33 41 34 42 35 43 82 44 36 45
REMARK SMILES IDX 87 46 81 47 83 48 37 49 86 50 80 51 79 52 38 54 68 55 49 56
REMARK SMILES IDX 67 57 50 58 53 59 66 60 84 61 51 62 52 63 65 65 85 66 54 67
REMARK SMILES IDX 39 68 40 69 48 70 41 71 47 72 42 73 43 74 44 75 45 76 46 77
REMARK SMILES IDX 69 78 70 79 78 80 71 81 77 82 72 83 73 84 74 85 75 86 76 87
REMARK SMILES IDX 55 88 56 89 64 90 57 91 63 92 58 93 59 94 60 95 61 96 62 97
REMARK H PARENT 8 15 13 27 13 28 83 53 53 64
REMARK Flexibility Score: inf
ROOT
ATOM      1  C   UNL A   1      39.374  22.003  26.237  1.00  0.00     0.188 C 
ENDROOT
BRANCH   1   2
ATOM      2  O   UNL A   1      39.268  23.388  26.485  1.00  0.00    -0.376 OA
BRANCH   2   3
ATOM      3  C   UNL A   1      38.013  24.012  26.314  1.00  0.00     0.202 C 
BRANCH   3   4
ATOM      4  C   UNL A   1      36.883  23.387  25.481  1.00  0.00     0.261 C 
BRANCH   4   5
ATOM      5  O   UNL A   1      35.644  24.105  25.388  1.00  0.00    -0.460 OA
BRANCH   5   6
ATOM      6  C   UNL A   1      34.593  23.611  26.084  1.00  0.00     0.340 C 
ATOM      7  O   UNL A   1      34.661  22.840  27.029  1.00  0.00    -0.246 OA
BRANCH   6   8
ATOM      8  C   UNL A   1      33.321  24.246  25.673  1.00  0.00     0.085 A 
ATOM      9  C   UNL A   1      32.247  23.629  25.009  1.00  0.00     0.049 A 
ATOM     10  C   UNL A   1      31.115  24.459  24.792  1.00  0.00     0.029 A 
ATOM     11  C   UNL A   1      31.045  25.801  25.182  1.00  0.00     0.027 A 
ATOM     12  C   UNL A   1      33.244  25.614  26.063  1.00  0.00     0.043 A 
ATOM     13  C   UNL A   1      32.106  26.389  25.845  1.00  0.00     0.032 A 
BRANCH   9  14
ATOM     14  N   UNL A   1      32.062  22.333  24.581  1.00  0.00    -0.378 N 
ATOM     15  H   UNL A   1      31.423  21.863  25.162  1.00  0.00     0.161 HD
BRANCH  14  16
ATOM     16  C   UNL A   1      32.538  21.456  23.517  1.00  0.00     0.106 C 
ATOM     17  C   UNL A   1      32.177  21.905  22.108  1.00  0.00     0.036 C 
BRANCH  16  18
ATOM     18  C   UNL A   1      32.485  19.972  23.868  1.00  0.00    -0.023 A 
ATOM     19  C   UNL A   1      33.002  15.762  24.836  1.00  0.00     0.047 C 
ATOM     20  C   UNL A   1      32.818  17.208  24.485  1.00  0.00    -0.015 A 
ATOM     21  C   UNL A   1      32.710  17.633  23.159  1.00  0.00     0.007 A 
ATOM     22  C   UNL A   1      32.717  18.164  25.493  1.00  0.00     0.126 A 
ATOM     23  C   UNL A   1      32.554  18.995  22.857  1.00  0.00     0.006 A 
ATOM     24  C   UNL A   1      32.552  19.519  25.198  1.00  0.00     0.045 A 
ATOM     25  F   UNL A   1      32.807  17.784  26.776  1.00  0.00    -0.207 F 
ENDBRANCH  16  18
ENDBRANCH  14  16
ENDBRANCH   9  14
BRANCH  13  26
ATOM     26  N   UNL A   1      32.076  27.734  26.163  1.00  0.00    -0.399 N 
ATOM     27  H   UNL A   1      31.720  28.385  25.516  1.00  0.00     0.156 HD
ATOM     28  H   UNL A   1      32.412  28.041  27.036  1.00  0.00     0.156 HD
ENDBRANCH  13  26
ENDBRANCH   6   8
ENDBRANCH   5   6
ENDBRANCH   4   5
ENDBRANCH   3   4
ENDBRANCH   2   3
ENDBRANCH   1   2
BRANCH   1  29
ATOM     29  C   UNL A   1      40.653  21.376  26.831  1.00  0.00     0.188 C 
BRANCH  29  30
ATOM     30  O   UNL A   1      41.742  22.196  27.234  1.00  0.00    -0.376 OA
BRANCH  30  31
ATOM     31  C   UNL A   1      42.800  22.478  26.333  1.00  0.00     0.202 C 
BRANCH  31  32
ATOM     32  C   UNL A   1      42.686  23.702  25.420  1.00  0.00     0.261 C 
BRANCH  32  33
ATOM     33  O   UNL A   1      42.982  24.945  26.065  1.00  0.00    -0.460 OA
BRANCH  33  34
ATOM     34  C   UNL A   1      41.953  25.833  26.108  1.00  0.00     0.338 C 
ATOM     35  O   UNL A   1      41.081  25.998  25.282  1.00  0.00    -0.246 OA
BRANCH  34  36
ATOM     36  C   UNL A   1      41.930  26.441  27.456  1.00  0.00     0.060 A 
ATOM     37  C   UNL A   1      41.012  25.944  28.395  1.00  0.00     0.016 A 
ATOM     38  C   UNL A   1      42.813  27.465  27.796  1.00  0.00     0.016 A 
ATOM     39  C   UNL A   1      40.965  26.482  29.677  1.00  0.00     0.010 A 
ATOM     40  C   UNL A   1      42.741  28.030  29.067  1.00  0.00     0.010 A 
ATOM     41  C   UNL A   1      41.797  27.561  29.999  1.00  0.00    -0.014 A 
BRANCH  41  42
ATOM     42  C   UNL A   1      41.513  28.373  31.201  1.00  0.00     0.031 A 
ATOM     43  C   UNL A   1      40.383  29.361  31.114  1.00  0.00     0.074 A 
ATOM     44  C   UNL A   1      42.245  28.256  32.321  1.00  0.00     0.049 A 
ATOM     45  N   UNL A   1      40.005  30.267  31.976  1.00  0.00    -0.248 NA
ATOM     46  C   UNL A   1      39.577  29.325  29.880  1.00  0.00     0.031 C 
ATOM     47  C   UNL A   1      43.326  27.296  32.534  1.00  0.00     0.029 A 
ATOM     48  N   UNL A   1      42.193  28.972  33.490  1.00  0.00    -0.354 N 
ATOM     49  C   UNL A   1      38.930  30.918  31.383  1.00  0.00     0.074 A 
ATOM     50  C   UNL A   1      38.728  30.320  30.083  1.00  0.00     0.031 C 
ATOM     51  C   UNL A   1      43.851  27.498  33.755  1.00  0.00     0.029 A 
ATOM     52  C   UNL A   1      43.170  28.626  34.391  1.00  0.00     0.049 A 
ATOM     53  H   UNL A   1      41.519  29.669  33.666  1.00  0.00     0.167 HD
ATOM     54  C   UNL A   1      38.180  31.929  31.878  1.00  0.00     0.031 A 
ATOM     55  C   UNL A   1      43.492  29.180  35.576  1.00  0.00     0.031 A 
ATOM     56  C   UNL A   1      38.406  32.534  33.160  1.00  0.00     0.049 A 
ATOM     57  C   UNL A   1      42.693  30.360  36.074  1.00  0.00     0.074 A 
ATOM     58  C   UNL A   1      37.707  33.564  33.761  1.00  0.00     0.029 A 
ATOM     59  N   UNL A   1      39.419  32.169  34.035  1.00  0.00    -0.354 N 
ATOM     60  N   UNL A   1      41.669  30.960  35.512  1.00  0.00    -0.248 NA
ATOM     61  C   UNL A   1      43.090  30.933  37.368  1.00  0.00     0.031 C 
ATOM     62  C   UNL A   1      38.331  33.859  34.978  1.00  0.00     0.029 A 
ATOM     63  C   UNL A   1      39.377  32.968  35.163  1.00  0.00     0.049 A 
ATOM     64  H   UNL A   1      40.070  31.448  33.877  1.00  0.00     0.167 HD
ATOM     65  C   UNL A   1      41.280  31.959  36.399  1.00  0.00     0.074 A 
ATOM     66  C   UNL A   1      42.173  31.875  37.538  1.00  0.00     0.031 C 
ATOM     67  C   UNL A   1      40.273  32.861  36.288  1.00  0.00     0.031 A 
BRANCH  54  68
ATOM     68  C   UNL A   1      37.080  32.465  31.003  1.00  0.00    -0.014 A 
ATOM     69  C   UNL A   1      37.357  33.321  29.922  1.00  0.00     0.010 A 
ATOM     70  C   UNL A   1      35.747  32.093  31.259  1.00  0.00     0.010 A 
ATOM     71  C   UNL A   1      36.318  33.826  29.136  1.00  0.00     0.020 A 
ATOM     72  C   UNL A   1      34.708  32.573  30.457  1.00  0.00     0.020 A 
ATOM     73  C   UNL A   1      35.000  33.450  29.410  1.00  0.00     0.054 A 
BRANCH  73  74
ATOM     74  S   UNL A   1      33.673  34.100  28.358  1.00  0.00     0.124 S 
ATOM     75  O   UNL A   1      33.277  32.913  27.605  1.00  0.00    -0.237 OA
ATOM     76  O   UNL A   1      32.697  34.579  29.333  1.00  0.00    -0.237 OA
ATOM     77  O   UNL A   1      34.330  35.143  27.574  1.00  0.00    -0.744 OA
ENDBRANCH  73  74
ENDBRANCH  54  68
BRANCH  55  78
ATOM     78  C   UNL A   1      44.636  28.646  36.366  1.00  0.00    -0.014 A 
ATOM     79  C   UNL A   1      44.439  27.629  37.317  1.00  0.00     0.010 A 
ATOM     80  C   UNL A   1      45.933  29.158  36.176  1.00  0.00     0.010 A 
ATOM     81  C   UNL A   1      45.511  27.146  38.072  1.00  0.00     0.020 A 
ATOM     82  C   UNL A   1      47.013  28.658  36.910  1.00  0.00     0.020 A 
ATOM     83  C   UNL A   1      46.793  27.662  37.862  1.00  0.00     0.054 A 
BRANCH  83  84
ATOM     84  S   UNL A   1      48.177  26.985  38.820  1.00  0.00     0.124 S 
ATOM     85  O   UNL A   1      48.783  28.192  39.374  1.00  0.00    -0.237 OA
ATOM     86  O   UNL A   1      47.500  26.119  39.782  1.00  0.00    -0.237 OA
ATOM     87  O   UNL A   1      48.978  26.284  37.818  1.00  0.00    -0.744 OA
ENDBRANCH  83  84
ENDBRANCH  55  78
BRANCH  67  88
ATOM     88  C   UNL A   1      40.043  33.799  37.444  1.00  0.00    -0.014 A 
ATOM     89  C   UNL A   1      40.736  35.017  37.550  1.00  0.00     0.010 A 
ATOM     90  C   UNL A   1      39.059  33.482  38.400  1.00  0.00     0.010 A 
ATOM     91  C   UNL A   1      40.470  35.889  38.610  1.00  0.00     0.020 A 
ATOM     92  C   UNL A   1      38.770  34.364  39.443  1.00  0.00     0.020 A 
ATOM     93  C   UNL A   1      39.487  35.557  39.548  1.00  0.00     0.054 A 
BRANCH  93  94
ATOM     94  S   UNL A   1      39.124  36.729  40.884  1.00  0.00     0.124 S 
ATOM     95  O   UNL A   1      40.462  37.095  41.339  1.00  0.00    -0.237 OA
ATOM     96  O   UNL A   1      38.383  37.783  40.196  1.00  0.00    -0.237 OA
ATOM     97  O   UNL A   1      38.338  35.942  41.833  1.00  0.00    -0.744 OA
ENDBRANCH  93  94
ENDBRANCH  67  88
ENDBRANCH  41  42
ENDBRANCH  34  36
ENDBRANCH  33  34
ENDBRANCH  32  33
ENDBRANCH  31  32
ENDBRANCH  30  31
ENDBRANCH  29  30
ENDBRANCH   1  29
TORSDOF 24
ENDMDL
