MODEL 1
REMARK VINA RESULT:      -9.7      0.000      0.000
REMARK SMILES O=C(OCCOCCOCCOC(=O)[C@H]1CCCN(C(=O)C2CCN(S(=O)(=O)c3ccccc3)CC2)C1)c1ccc(-c2c3nc(c(-c4ccc(S(=O)(=O)[O-])cc4)c4ccc([nH]4)c(-c4ccc(S(=O)(=O)[O-])cc4)c4nc(c(-c5ccc(S(=O)(=O)[O-])cc5)c5ccc2[nH]5)C=C4)C=C3)cc1
REMARK SMILES IDX 8 1 7 2 6 3 5 4 4 5 3 6 2 7 1 8 38 9 39 10 97 11 40 12 96 13
REMARK SMILES IDX 41 14 42 15 43 16 90 17 44 18 95 19 89 20 91 21 45 22 94 23
REMARK SMILES IDX 88 24 87 25 46 27 76 28 57 29 75 30 58 31 61 32 74 33 92 34
REMARK SMILES IDX 59 35 60 36 73 38 93 39 62 40 47 41 48 42 56 43 49 44 55 45
REMARK SMILES IDX 50 46 51 47 52 48 53 49 54 50 77 51 78 52 86 53 79 54 85 55
REMARK SMILES IDX 80 56 81 57 82 58 83 59 84 60 63 61 64 62 72 63 65 64 71 65
REMARK SMILES IDX 66 66 67 67 68 68 69 69 70 70 9 71 10 72 11 73 12 74 13 75
REMARK SMILES IDX 14 76 15 77 16 78 37 79 17 80 19 81 18 82 20 83 21 84 22 85
REMARK SMILES IDX 23 86 36 87 24 88 35 89 25 90 26 91 27 92 28 93 29 94 30 95
REMARK SMILES IDX 34 96 31 97 33 98 32 99
REMARK H PARENT 91 26 61 37
REMARK Flexibility Score: inf
ROOT
ATOM      1  C   UNL A   1      33.353  33.009  27.960  1.00  0.00     0.188 C 
ENDROOT
BRANCH   1   2
ATOM      2  C   UNL A   1      33.713  34.368  28.564  1.00  0.00     0.188 C 
BRANCH   2   3
ATOM      3  O   UNL A   1      32.772  34.938  29.473  1.00  0.00    -0.376 OA
BRANCH   3   4
ATOM      4  C   UNL A   1      33.364  35.769  30.482  1.00  0.00     0.202 C 
BRANCH   4   5
ATOM      5  C   UNL A   1      32.905  35.564  31.944  1.00  0.00     0.261 C 
BRANCH   5   6
ATOM      6  O   UNL A   1      33.032  34.219  32.431  1.00  0.00    -0.460 OA
BRANCH   6   7
ATOM      7  C   UNL A   1      34.126  33.420  32.432  1.00  0.00     0.338 C 
ATOM      8  O   UNL A   1      34.253  32.598  31.526  1.00  0.00    -0.246 OA
BRANCH   7   9
ATOM      9  C   UNL A   1      35.189  33.487  33.479  1.00  0.00     0.060 A 
ATOM     10  C   UNL A   1      35.228  34.388  34.546  1.00  0.00     0.016 A 
ATOM     11  C   UNL A   1      36.202  32.528  33.404  1.00  0.00     0.016 A 
ATOM     12  C   UNL A   1      36.310  34.441  35.428  1.00  0.00     0.010 A 
ATOM     13  C   UNL A   1      37.250  32.533  34.325  1.00  0.00     0.010 A 
ATOM     14  C   UNL A   1      37.348  33.524  35.319  1.00  0.00    -0.014 A 
BRANCH  14  15
ATOM     15  C   UNL A   1      38.615  33.687  36.091  1.00  0.00     0.031 A 
ATOM     16  C   UNL A   1      38.538  33.399  37.566  1.00  0.00     0.074 A 
ATOM     17  C   UNL A   1      39.769  34.105  35.526  1.00  0.00     0.049 A 
ATOM     18  N   UNL A   1      39.304  33.811  38.536  1.00  0.00    -0.248 NA
ATOM     19  C   UNL A   1      37.397  32.575  38.008  1.00  0.00     0.031 C 
ATOM     20  C   UNL A   1      39.972  34.336  34.099  1.00  0.00     0.029 A 
ATOM     21  N   UNL A   1      40.968  34.492  36.086  1.00  0.00    -0.354 N 
ATOM     22  C   UNL A   1      38.728  33.313  39.700  1.00  0.00     0.074 A 
ATOM     23  C   UNL A   1      37.502  32.649  39.325  1.00  0.00     0.031 C 
ATOM     24  C   UNL A   1      41.157  34.937  33.903  1.00  0.00     0.029 A 
ATOM     25  C   UNL A   1      41.803  35.143  35.189  1.00  0.00     0.049 A 
ATOM     26  H   UNL A   1      41.206  34.325  37.026  1.00  0.00     0.167 HD
ATOM     27  C   UNL A   1      39.212  33.369  40.962  1.00  0.00     0.031 A 
ATOM     28  C   UNL A   1      42.900  35.901  35.407  1.00  0.00     0.031 A 
ATOM     29  C   UNL A   1      40.458  34.006  41.280  1.00  0.00     0.049 A 
ATOM     30  C   UNL A   1      43.342  36.065  36.839  1.00  0.00     0.074 A 
ATOM     31  C   UNL A   1      41.134  34.042  42.483  1.00  0.00     0.029 A 
ATOM     32  N   UNL A   1      41.227  34.708  40.359  1.00  0.00    -0.354 N 
ATOM     33  N   UNL A   1      42.732  35.696  37.941  1.00  0.00    -0.248 NA
ATOM     34  C   UNL A   1      44.621  36.753  37.053  1.00  0.00     0.031 C 
ATOM     35  C   UNL A   1      42.298  34.798  42.300  1.00  0.00     0.029 A 
ATOM     36  C   UNL A   1      42.366  35.193  40.971  1.00  0.00     0.049 A 
ATOM     37  H   UNL A   1      40.996  34.839  39.411  1.00  0.00     0.167 HD
ATOM     38  C   UNL A   1      43.542  36.126  38.980  1.00  0.00     0.074 A 
ATOM     39  C   UNL A   1      44.674  36.805  38.377  1.00  0.00     0.031 C 
ATOM     40  C   UNL A   1      43.402  35.944  40.317  1.00  0.00     0.031 A 
BRANCH  27  41
ATOM     41  C   UNL A   1      38.415  32.690  42.047  1.00  0.00    -0.014 A 
ATOM     42  C   UNL A   1      37.596  33.440  42.912  1.00  0.00     0.010 A 
ATOM     43  C   UNL A   1      38.478  31.295  42.214  1.00  0.00     0.010 A 
ATOM     44  C   UNL A   1      36.907  32.823  43.959  1.00  0.00     0.020 A 
ATOM     45  C   UNL A   1      37.763  30.666  43.241  1.00  0.00     0.020 A 
ATOM     46  C   UNL A   1      37.000  31.439  44.121  1.00  0.00     0.054 A 
BRANCH  46  47
ATOM     47  S   UNL A   1      36.087  30.665  45.485  1.00  0.00     0.124 S 
ATOM     48  O   UNL A   1      35.841  31.805  46.365  1.00  0.00    -0.237 OA
ATOM     49  O   UNL A   1      34.908  30.124  44.815  1.00  0.00    -0.237 OA
ATOM     50  O   UNL A   1      37.020  29.667  46.002  1.00  0.00    -0.744 OA
ENDBRANCH  46  47
ENDBRANCH  27  41
BRANCH  28  51
ATOM     51  C   UNL A   1      43.534  36.724  34.319  1.00  0.00    -0.014 A 
ATOM     52  C   UNL A   1      44.496  36.230  33.423  1.00  0.00     0.010 A 
ATOM     53  C   UNL A   1      43.111  38.056  34.148  1.00  0.00     0.010 A 
ATOM     54  C   UNL A   1      44.935  37.008  32.334  1.00  0.00     0.020 A 
ATOM     55  C   UNL A   1      43.547  38.840  33.075  1.00  0.00     0.020 A 
ATOM     56  C   UNL A   1      44.430  38.298  32.149  1.00  0.00     0.054 A 
BRANCH  56  57
ATOM     57  S   UNL A   1      44.816  39.264  30.661  1.00  0.00     0.124 S 
ATOM     58  O   UNL A   1      44.273  40.578  30.989  1.00  0.00    -0.237 OA
ATOM     59  O   UNL A   1      46.274  39.195  30.578  1.00  0.00    -0.237 OA
ATOM     60  O   UNL A   1      44.112  38.532  29.610  1.00  0.00    -0.744 OA
ENDBRANCH  56  57
ENDBRANCH  28  51
BRANCH  40  61
ATOM     61  C   UNL A   1      44.517  36.470  41.165  1.00  0.00    -0.014 A 
ATOM     62  C   UNL A   1      45.667  35.707  41.421  1.00  0.00     0.010 A 
ATOM     63  C   UNL A   1      44.385  37.754  41.723  1.00  0.00     0.010 A 
ATOM     64  C   UNL A   1      46.663  36.216  42.257  1.00  0.00     0.020 A 
ATOM     65  C   UNL A   1      45.386  38.269  42.541  1.00  0.00     0.020 A 
ATOM     66  C   UNL A   1      46.511  37.490  42.816  1.00  0.00     0.054 A 
BRANCH  66  67
ATOM     67  S   UNL A   1      47.817  38.138  43.891  1.00  0.00     0.124 S 
ATOM     68  O   UNL A   1      48.257  39.317  43.151  1.00  0.00    -0.237 OA
ATOM     69  O   UNL A   1      47.104  38.404  45.137  1.00  0.00    -0.237 OA
ATOM     70  O   UNL A   1      48.785  37.044  43.954  1.00  0.00    -0.744 OA
ENDBRANCH  66  67
ENDBRANCH  40  61
ENDBRANCH  14  15
ENDBRANCH   7   9
ENDBRANCH   6   7
ENDBRANCH   5   6
ENDBRANCH   4   5
ENDBRANCH   3   4
ENDBRANCH   2   3
ENDBRANCH   1   2
BRANCH   1  71
ATOM     71  O   UNL A   1      32.047  32.807  27.443  1.00  0.00    -0.376 OA
BRANCH  71  72
ATOM     72  C   UNL A   1      31.801  31.658  26.643  1.00  0.00     0.202 C 
BRANCH  72  73
ATOM     73  C   UNL A   1      32.263  30.263  27.104  1.00  0.00     0.261 C 
BRANCH  73  74
ATOM     74  O   UNL A   1      31.818  29.169  26.300  1.00  0.00    -0.463 OA
BRANCH  74  75
ATOM     75  C   UNL A   1      31.492  28.008  26.944  1.00  0.00     0.310 C 
ATOM     76  O   UNL A   1      31.011  27.939  28.065  1.00  0.00    -0.252 OA
BRANCH  75  77
ATOM     77  C   UNL A   1      31.749  26.828  26.017  1.00  0.00     0.119 C 
ATOM     78  C   UNL A   1      30.428  26.065  25.827  1.00  0.00     0.019 C 
ATOM     79  C   UNL A   1      32.386  27.300  24.690  1.00  0.00     0.134 C 
ATOM     80  C   UNL A   1      30.522  25.072  24.692  1.00  0.00     0.022 C 
ATOM     81  N   UNL A   1      32.295  26.293  23.616  1.00  0.00    -0.342 N 
ATOM     82  C   UNL A   1      30.953  25.801  23.435  1.00  0.00     0.119 C 
BRANCH  81  83
ATOM     83  C   UNL A   1      33.413  25.890  22.910  1.00  0.00     0.225 C 
ATOM     84  O   UNL A   1      33.610  26.352  21.776  1.00  0.00    -0.275 OA
BRANCH  83  85
ATOM     85  C   UNL A   1      34.488  24.901  23.459  1.00  0.00     0.081 C 
ATOM     86  C   UNL A   1      34.615  23.506  22.861  1.00  0.00     0.030 C 
ATOM     87  C   UNL A   1      34.701  24.872  24.963  1.00  0.00     0.030 C 
ATOM     88  C   UNL A   1      33.971  22.354  23.621  1.00  0.00     0.103 C 
ATOM     89  C   UNL A   1      33.866  23.846  25.697  1.00  0.00     0.103 C 
ATOM     90  N   UNL A   1      33.931  22.485  25.129  1.00  0.00    -0.198 NA
BRANCH  90  91
ATOM     91  S   UNL A   1      32.705  21.383  25.711  1.00  0.00     0.243 S 
ATOM     92  O   UNL A   1      33.054  21.064  27.079  1.00  0.00    -0.207 OA
ATOM     93  O   UNL A   1      31.451  22.020  25.369  1.00  0.00    -0.207 OA
BRANCH  91  94
ATOM     94  C   UNL A   1      32.793  19.863  24.796  1.00  0.00     0.082 A 
ATOM     95  C   UNL A   1      32.461  19.876  23.436  1.00  0.00     0.022 A 
ATOM     96  C   UNL A   1      32.996  18.642  25.441  1.00  0.00     0.022 A 
ATOM     97  C   UNL A   1      32.359  18.680  22.726  1.00  0.00     0.001 A 
ATOM     98  C   UNL A   1      32.984  17.459  24.702  1.00  0.00     0.001 A 
ATOM     99  C   UNL A   1      32.643  17.473  23.354  1.00  0.00     0.000 A 
ENDBRANCH  91  94
ENDBRANCH  90  91
ENDBRANCH  83  85
ENDBRANCH  81  83
ENDBRANCH  75  77
ENDBRANCH  74  75
ENDBRANCH  73  74
ENDBRANCH  72  73
ENDBRANCH  71  72
ENDBRANCH   1  71
TORSDOF 24
ENDMDL
MODEL 2
REMARK VINA RESULT:      -9.4      7.550     10.794
REMARK SMILES O=C(OCCOCCOCCOC(=O)[C@H]1CCCN(C(=O)C2CCN(S(=O)(=O)c3ccccc3)CC2)C1)c1ccc(-c2c3nc(c(-c4ccc(S(=O)(=O)[O-])cc4)c4ccc([nH]4)c(-c4ccc(S(=O)(=O)[O-])cc4)c4nc(c(-c5ccc(S(=O)(=O)[O-])cc5)c5ccc2[nH]5)C=C4)C=C3)cc1
REMARK SMILES IDX 8 1 7 2 6 3 5 4 4 5 3 6 2 7 1 8 38 9 39 10 97 11 40 12 96 13
REMARK SMILES IDX 41 14 42 15 43 16 90 17 44 18 95 19 89 20 91 21 45 22 94 23
REMARK SMILES IDX 88 24 87 25 46 27 76 28 57 29 75 30 58 31 61 32 74 33 92 34
REMARK SMILES IDX 59 35 60 36 73 38 93 39 62 40 47 41 48 42 56 43 49 44 55 45
REMARK SMILES IDX 50 46 51 47 52 48 53 49 54 50 77 51 78 52 86 53 79 54 85 55
REMARK SMILES IDX 80 56 81 57 82 58 83 59 84 60 63 61 64 62 72 63 65 64 71 65
REMARK SMILES IDX 66 66 67 67 68 68 69 69 70 70 9 71 10 72 11 73 12 74 13 75
REMARK SMILES IDX 14 76 15 77 16 78 37 79 17 80 19 81 18 82 20 83 21 84 22 85
REMARK SMILES IDX 23 86 36 87 24 88 35 89 25 90 26 91 27 92 28 93 29 94 30 95
REMARK SMILES IDX 34 96 31 97 33 98 32 99
REMARK H PARENT 91 26 61 37
REMARK Flexibility Score: inf
ROOT
ATOM      1  C   UNL A   1      33.395  33.916  28.130  1.00  0.00     0.188 C 
ENDROOT
BRANCH   1   2
ATOM      2  C   UNL A   1      33.421  34.749  29.413  1.00  0.00     0.188 C 
BRANCH   2   3
ATOM      3  O   UNL A   1      34.706  35.110  29.920  1.00  0.00    -0.376 OA
BRANCH   3   4
ATOM      4  C   UNL A   1      35.262  34.155  30.835  1.00  0.00     0.202 C 
BRANCH   4   5
ATOM      5  C   UNL A   1      35.455  34.593  32.306  1.00  0.00     0.261 C 
BRANCH   5   6
ATOM      6  O   UNL A   1      36.822  34.643  32.743  1.00  0.00    -0.460 OA
BRANCH   6   7
ATOM      7  C   UNL A   1      37.841  33.809  32.425  1.00  0.00     0.338 C 
ATOM      8  O   UNL A   1      37.869  32.692  32.941  1.00  0.00    -0.246 OA
BRANCH   7   9
ATOM      9  C   UNL A   1      38.936  34.176  31.479  1.00  0.00     0.060 A 
ATOM     10  C   UNL A   1      38.797  34.359  30.101  1.00  0.00     0.016 A 
ATOM     11  C   UNL A   1      40.197  34.403  32.038  1.00  0.00     0.016 A 
ATOM     12  C   UNL A   1      39.895  34.611  29.275  1.00  0.00     0.010 A 
ATOM     13  C   UNL A   1      41.284  34.725  31.225  1.00  0.00     0.010 A 
ATOM     14  C   UNL A   1      41.160  34.780  29.824  1.00  0.00    -0.014 A 
BRANCH  14  15
ATOM     15  C   UNL A   1      42.381  34.826  28.967  1.00  0.00     0.031 A 
ATOM     16  C   UNL A   1      43.201  33.566  28.906  1.00  0.00     0.074 A 
ATOM     17  C   UNL A   1      42.771  35.938  28.305  1.00  0.00     0.049 A 
ATOM     18  N   UNL A   1      44.458  33.403  28.604  1.00  0.00    -0.248 NA
ATOM     19  C   UNL A   1      42.511  32.322  29.300  1.00  0.00     0.031 C 
ATOM     20  C   UNL A   1      42.012  37.183  28.234  1.00  0.00     0.029 A 
ATOM     21  N   UNL A   1      43.937  36.235  27.633  1.00  0.00    -0.354 N 
ATOM     22  C   UNL A   1      44.711  32.048  28.789  1.00  0.00     0.074 A 
ATOM     23  C   UNL A   1      43.507  31.452  29.316  1.00  0.00     0.031 C 
ATOM     24  C   UNL A   1      42.770  38.142  27.676  1.00  0.00     0.029 A 
ATOM     25  C   UNL A   1      44.074  37.587  27.352  1.00  0.00     0.049 A 
ATOM     26  H   UNL A   1      44.605  35.557  27.380  1.00  0.00     0.167 HD
ATOM     27  C   UNL A   1      45.839  31.361  28.497  1.00  0.00     0.031 A 
ATOM     28  C   UNL A   1      45.161  38.297  26.977  1.00  0.00     0.031 A 
ATOM     29  C   UNL A   1      47.000  31.992  27.934  1.00  0.00     0.049 A 
ATOM     30  C   UNL A   1      46.445  37.530  26.791  1.00  0.00     0.074 A 
ATOM     31  C   UNL A   1      48.167  31.415  27.477  1.00  0.00     0.029 A 
ATOM     32  N   UNL A   1      47.117  33.363  27.735  1.00  0.00    -0.354 N 
ATOM     33  N   UNL A   1      46.711  36.277  27.081  1.00  0.00    -0.248 NA
ATOM     34  C   UNL A   1      47.578  38.278  26.231  1.00  0.00     0.031 C 
ATOM     35  C   UNL A   1      49.009  32.442  27.033  1.00  0.00     0.029 A 
ATOM     36  C   UNL A   1      48.345  33.652  27.173  1.00  0.00     0.049 A 
ATOM     37  H   UNL A   1      46.427  34.028  27.960  1.00  0.00     0.167 HD
ATOM     38  C   UNL A   1      48.047  36.093  26.758  1.00  0.00     0.074 A 
ATOM     39  C   UNL A   1      48.541  37.368  26.275  1.00  0.00     0.031 C 
ATOM     40  C   UNL A   1      48.799  34.966  26.807  1.00  0.00     0.031 A 
BRANCH  27  41
ATOM     41  C   UNL A   1      45.834  29.873  28.737  1.00  0.00    -0.014 A 
ATOM     42  C   UNL A   1      45.442  28.983  27.719  1.00  0.00     0.010 A 
ATOM     43  C   UNL A   1      46.220  29.349  29.983  1.00  0.00     0.010 A 
ATOM     44  C   UNL A   1      45.375  27.608  27.958  1.00  0.00     0.020 A 
ATOM     45  C   UNL A   1      46.186  27.969  30.219  1.00  0.00     0.020 A 
ATOM     46  C   UNL A   1      45.742  27.109  29.210  1.00  0.00     0.054 A 
BRANCH  46  47
ATOM     47  S   UNL A   1      45.651  25.319  29.488  1.00  0.00     0.124 S 
ATOM     48  O   UNL A   1      45.909  25.225  30.923  1.00  0.00    -0.237 OA
ATOM     49  O   UNL A   1      44.287  25.000  29.074  1.00  0.00    -0.237 OA
ATOM     50  O   UNL A   1      46.701  24.781  28.628  1.00  0.00    -0.744 OA
ENDBRANCH  46  47
ENDBRANCH  27  41
BRANCH  28  51
ATOM     51  C   UNL A   1      45.167  39.801  26.953  1.00  0.00    -0.014 A 
ATOM     52  C   UNL A   1      45.488  40.601  28.062  1.00  0.00     0.010 A 
ATOM     53  C   UNL A   1      44.882  40.457  25.740  1.00  0.00     0.010 A 
ATOM     54  C   UNL A   1      45.623  41.997  27.930  1.00  0.00     0.020 A 
ATOM     55  C   UNL A   1      45.005  41.843  25.600  1.00  0.00     0.020 A 
ATOM     56  C   UNL A   1      45.413  42.604  26.688  1.00  0.00     0.054 A 
BRANCH  56  57
ATOM     57  S   UNL A   1      45.761  44.366  26.423  1.00  0.00     0.124 S 
ATOM     58  O   UNL A   1      45.472  44.945  27.732  1.00  0.00    -0.237 OA
ATOM     59  O   UNL A   1      47.170  44.381  26.034  1.00  0.00    -0.237 OA
ATOM     60  O   UNL A   1      44.831  44.722  25.353  1.00  0.00    -0.744 OA
ENDBRANCH  56  57
ENDBRANCH  28  51
BRANCH  40  61
ATOM     61  C   UNL A   1      50.200  35.097  26.299  1.00  0.00    -0.014 A 
ATOM     62  C   UNL A   1      50.545  34.722  24.991  1.00  0.00     0.010 A 
ATOM     63  C   UNL A   1      51.185  35.594  27.171  1.00  0.00     0.010 A 
ATOM     64  C   UNL A   1      51.873  34.816  24.571  1.00  0.00     0.020 A 
ATOM     65  C   UNL A   1      52.506  35.705  26.748  1.00  0.00     0.020 A 
ATOM     66  C   UNL A   1      52.844  35.300  25.456  1.00  0.00     0.054 A 
BRANCH  66  67
ATOM     67  S   UNL A   1      54.561  35.423  24.892  1.00  0.00     0.124 S 
ATOM     68  O   UNL A   1      54.880  34.029  24.594  1.00  0.00    -0.237 OA
ATOM     69  O   UNL A   1      54.456  36.308  23.734  1.00  0.00    -0.237 OA
ATOM     70  O   UNL A   1      55.261  35.990  26.042  1.00  0.00    -0.744 OA
ENDBRANCH  66  67
ENDBRANCH  40  61
ENDBRANCH  14  15
ENDBRANCH   7   9
ENDBRANCH   6   7
ENDBRANCH   5   6
ENDBRANCH   4   5
ENDBRANCH   3   4
ENDBRANCH   2   3
ENDBRANCH   1   2
BRANCH   1  71
ATOM     71  O   UNL A   1      32.150  33.659  27.498  1.00  0.00    -0.376 OA
BRANCH  71  72
ATOM     72  C   UNL A   1      31.844  32.326  27.111  1.00  0.00     0.202 C 
BRANCH  72  73
ATOM     73  C   UNL A   1      32.931  31.235  27.115  1.00  0.00     0.261 C 
BRANCH  73  74
ATOM     74  O   UNL A   1      32.789  30.220  26.120  1.00  0.00    -0.463 OA
BRANCH  74  75
ATOM     75  C   UNL A   1      33.644  29.155  26.182  1.00  0.00     0.310 C 
ATOM     76  O   UNL A   1      34.766  29.184  26.666  1.00  0.00    -0.252 OA
BRANCH  75  77
ATOM     77  C   UNL A   1      32.951  27.918  25.628  1.00  0.00     0.119 C 
ATOM     78  C   UNL A   1      32.792  26.900  26.770  1.00  0.00     0.019 C 
ATOM     79  C   UNL A   1      31.618  28.295  24.945  1.00  0.00     0.134 C 
ATOM     80  C   UNL A   1      31.850  25.783  26.385  1.00  0.00     0.022 C 
ATOM     81  N   UNL A   1      30.724  27.138  24.746  1.00  0.00    -0.342 N 
ATOM     82  C   UNL A   1      30.526  26.381  25.956  1.00  0.00     0.119 C 
BRANCH  81  83
ATOM     83  C   UNL A   1      30.184  26.851  23.506  1.00  0.00     0.225 C 
ATOM     84  O   UNL A   1      29.277  27.571  23.061  1.00  0.00    -0.275 OA
BRANCH  83  85
ATOM     85  C   UNL A   1      30.663  25.682  22.591  1.00  0.00     0.081 C 
ATOM     86  C   UNL A   1      30.718  24.261  23.136  1.00  0.00     0.030 C 
ATOM     87  C   UNL A   1      31.838  25.958  21.668  1.00  0.00     0.030 C 
ATOM     88  C   UNL A   1      32.074  23.730  23.579  1.00  0.00     0.103 C 
ATOM     89  C   UNL A   1      33.190  25.611  22.250  1.00  0.00     0.103 C 
ATOM     90  N   UNL A   1      33.279  24.253  22.824  1.00  0.00    -0.198 NA
BRANCH  90  91
ATOM     91  S   UNL A   1      34.681  23.964  23.825  1.00  0.00     0.243 S 
ATOM     92  O   UNL A   1      35.718  23.466  22.946  1.00  0.00    -0.207 OA
ATOM     93  O   UNL A   1      34.843  25.186  24.585  1.00  0.00    -0.207 OA
BRANCH  91  94
ATOM     94  C   UNL A   1      34.326  22.664  24.982  1.00  0.00     0.082 A 
ATOM     95  C   UNL A   1      34.021  21.389  24.490  1.00  0.00     0.022 A 
ATOM     96  C   UNL A   1      34.159  22.932  26.342  1.00  0.00     0.022 A 
ATOM     97  C   UNL A   1      33.578  20.390  25.355  1.00  0.00     0.001 A 
ATOM     98  C   UNL A   1      33.805  21.901  27.211  1.00  0.00     0.001 A 
ATOM     99  C   UNL A   1      33.492  20.639  26.719  1.00  0.00     0.000 A 
ENDBRANCH  91  94
ENDBRANCH  90  91
ENDBRANCH  83  85
ENDBRANCH  81  83
ENDBRANCH  75  77
ENDBRANCH  74  75
ENDBRANCH  73  74
ENDBRANCH  72  73
ENDBRANCH  71  72
ENDBRANCH   1  71
TORSDOF 24
ENDMDL
MODEL 3
REMARK VINA RESULT:      -9.3      5.437      9.933
REMARK SMILES O=C(OCCOCCOCCOC(=O)[C@H]1CCCN(C(=O)C2CCN(S(=O)(=O)c3ccccc3)CC2)C1)c1ccc(-c2c3nc(c(-c4ccc(S(=O)(=O)[O-])cc4)c4ccc([nH]4)c(-c4ccc(S(=O)(=O)[O-])cc4)c4nc(c(-c5ccc(S(=O)(=O)[O-])cc5)c5ccc2[nH]5)C=C4)C=C3)cc1
REMARK SMILES IDX 8 1 7 2 6 3 5 4 4 5 3 6 2 7 1 8 38 9 39 10 97 11 40 12 96 13
REMARK SMILES IDX 41 14 42 15 43 16 90 17 44 18 95 19 89 20 91 21 45 22 94 23
REMARK SMILES IDX 88 24 87 25 46 27 76 28 57 29 75 30 58 31 61 32 74 33 92 34
REMARK SMILES IDX 59 35 60 36 73 38 93 39 62 40 47 41 48 42 56 43 49 44 55 45
REMARK SMILES IDX 50 46 51 47 52 48 53 49 54 50 77 51 78 52 86 53 79 54 85 55
REMARK SMILES IDX 80 56 81 57 82 58 83 59 84 60 63 61 64 62 72 63 65 64 71 65
REMARK SMILES IDX 66 66 67 67 68 68 69 69 70 70 9 71 10 72 11 73 12 74 13 75
REMARK SMILES IDX 14 76 15 77 16 78 37 79 17 80 19 81 18 82 20 83 21 84 22 85
REMARK SMILES IDX 23 86 36 87 24 88 35 89 25 90 26 91 27 92 28 93 29 94 30 95
REMARK SMILES IDX 34 96 31 97 33 98 32 99
REMARK H PARENT 91 26 61 37
REMARK Flexibility Score: inf
ROOT
ATOM      1  C   UNL A   1      33.591  34.048  28.527  1.00  0.00     0.188 C 
ENDROOT
BRANCH   1   2
ATOM      2  C   UNL A   1      33.453  34.880  29.804  1.00  0.00     0.188 C 
BRANCH   2   3
ATOM      3  O   UNL A   1      34.608  34.976  30.638  1.00  0.00    -0.376 OA
BRANCH   3   4
ATOM      4  C   UNL A   1      34.511  34.229  31.858  1.00  0.00     0.202 C 
BRANCH   4   5
ATOM      5  C   UNL A   1      34.379  35.022  33.180  1.00  0.00     0.261 C 
BRANCH   5   6
ATOM      6  O   UNL A   1      35.599  35.153  33.926  1.00  0.00    -0.460 OA
BRANCH   6   7
ATOM      7  C   UNL A   1      36.389  34.175  34.431  1.00  0.00     0.338 C 
ATOM      8  O   UNL A   1      35.944  33.466  35.332  1.00  0.00    -0.246 OA
BRANCH   7   9
ATOM      9  C   UNL A   1      37.778  33.913  33.948  1.00  0.00     0.060 A 
ATOM     10  C   UNL A   1      38.821  33.383  34.712  1.00  0.00     0.016 A 
ATOM     11  C   UNL A   1      38.032  34.177  32.600  1.00  0.00     0.016 A 
ATOM     12  C   UNL A   1      40.116  33.255  34.205  1.00  0.00     0.010 A 
ATOM     13  C   UNL A   1      39.309  33.986  32.071  1.00  0.00     0.010 A 
ATOM     14  C   UNL A   1      40.384  33.574  32.880  1.00  0.00    -0.014 A 
BRANCH  14  15
ATOM     15  C   UNL A   1      41.783  33.665  32.368  1.00  0.00     0.031 A 
ATOM     16  C   UNL A   1      42.500  34.965  32.616  1.00  0.00     0.074 A 
ATOM     17  C   UNL A   1      42.381  32.666  31.683  1.00  0.00     0.049 A 
ATOM     18  N   UNL A   1      43.512  35.492  31.988  1.00  0.00    -0.248 NA
ATOM     19  C   UNL A   1      41.953  35.813  33.694  1.00  0.00     0.031 C 
ATOM     20  C   UNL A   1      41.807  31.343  31.455  1.00  0.00     0.029 A 
ATOM     21  N   UNL A   1      43.565  32.626  30.980  1.00  0.00    -0.354 N 
ATOM     22  C   UNL A   1      43.709  36.735  32.580  1.00  0.00     0.074 A 
ATOM     23  C   UNL A   1      42.659  36.923  33.552  1.00  0.00     0.031 C 
ATOM     24  C   UNL A   1      42.563  30.668  30.574  1.00  0.00     0.029 A 
ATOM     25  C   UNL A   1      43.677  31.509  30.165  1.00  0.00     0.049 A 
ATOM     26  H   UNL A   1      44.260  33.320  31.048  1.00  0.00     0.167 HD
ATOM     27  C   UNL A   1      44.711  37.617  32.358  1.00  0.00     0.031 A 
ATOM     28  C   UNL A   1      44.521  31.254  29.140  1.00  0.00     0.031 A 
ATOM     29  C   UNL A   1      45.758  37.367  31.408  1.00  0.00     0.049 A 
ATOM     30  C   UNL A   1      45.543  32.314  28.819  1.00  0.00     0.074 A 
ATOM     31  C   UNL A   1      46.899  38.104  31.158  1.00  0.00     0.029 A 
ATOM     32  N   UNL A   1      45.791  36.265  30.561  1.00  0.00    -0.354 N 
ATOM     33  N   UNL A   1      45.651  33.532  29.298  1.00  0.00    -0.248 NA
ATOM     34  C   UNL A   1      46.555  31.963  27.816  1.00  0.00     0.031 C 
ATOM     35  C   UNL A   1      47.606  37.466  30.131  1.00  0.00     0.029 A 
ATOM     36  C   UNL A   1      46.927  36.309  29.777  1.00  0.00     0.049 A 
ATOM     37  H   UNL A   1      45.107  35.558  30.527  1.00  0.00     0.167 HD
ATOM     38  C   UNL A   1      46.730  34.100  28.637  1.00  0.00     0.074 A 
ATOM     39  C   UNL A   1      47.225  33.102  27.708  1.00  0.00     0.031 C 
ATOM     40  C   UNL A   1      47.300  35.318  28.805  1.00  0.00     0.031 A 
BRANCH  27  41
ATOM     41  C   UNL A   1      44.730  38.877  33.184  1.00  0.00    -0.014 A 
ATOM     42  C   UNL A   1      44.113  40.052  32.713  1.00  0.00     0.010 A 
ATOM     43  C   UNL A   1      45.364  38.901  34.439  1.00  0.00     0.010 A 
ATOM     44  C   UNL A   1      44.183  41.239  33.446  1.00  0.00     0.020 A 
ATOM     45  C   UNL A   1      45.409  40.080  35.193  1.00  0.00     0.020 A 
ATOM     46  C   UNL A   1      44.836  41.247  34.681  1.00  0.00     0.054 A 
BRANCH  46  47
ATOM     47  S   UNL A   1      44.904  42.803  35.613  1.00  0.00     0.124 S 
ATOM     48  O   UNL A   1      46.344  43.020  35.729  1.00  0.00    -0.237 OA
ATOM     49  O   UNL A   1      44.198  43.732  34.736  1.00  0.00    -0.237 OA
ATOM     50  O   UNL A   1      44.218  42.487  36.863  1.00  0.00    -0.744 OA
ENDBRANCH  46  47
ENDBRANCH  27  41
BRANCH  28  51
ATOM     51  C   UNL A   1      44.330  30.082  28.217  1.00  0.00    -0.014 A 
ATOM     52  C   UNL A   1      45.122  28.922  28.249  1.00  0.00     0.010 A 
ATOM     53  C   UNL A   1      43.267  30.116  27.294  1.00  0.00     0.010 A 
ATOM     54  C   UNL A   1      44.794  27.801  27.463  1.00  0.00     0.020 A 
ATOM     55  C   UNL A   1      42.938  29.011  26.502  1.00  0.00     0.020 A 
ATOM     56  C   UNL A   1      43.681  27.843  26.618  1.00  0.00     0.054 A 
BRANCH  56  57
ATOM     57  S   UNL A   1      43.105  26.366  25.733  1.00  0.00     0.124 S 
ATOM     58  O   UNL A   1      44.357  25.726  25.341  1.00  0.00    -0.237 OA
ATOM     59  O   UNL A   1      42.326  25.647  26.740  1.00  0.00    -0.237 OA
ATOM     60  O   UNL A   1      42.314  26.931  24.642  1.00  0.00    -0.744 OA
ENDBRANCH  56  57
ENDBRANCH  28  51
BRANCH  40  61
ATOM     61  C   UNL A   1      48.519  35.584  27.979  1.00  0.00    -0.014 A 
ATOM     62  C   UNL A   1      48.441  36.259  26.750  1.00  0.00     0.010 A 
ATOM     63  C   UNL A   1      49.762  35.126  28.452  1.00  0.00     0.010 A 
ATOM     64  C   UNL A   1      49.596  36.445  25.988  1.00  0.00     0.020 A 
ATOM     65  C   UNL A   1      50.916  35.327  27.701  1.00  0.00     0.020 A 
ATOM     66  C   UNL A   1      50.822  35.971  26.466  1.00  0.00     0.054 A 
BRANCH  66  67
ATOM     67  S   UNL A   1      52.312  36.228  25.467  1.00  0.00     0.124 S 
ATOM     68  O   UNL A   1      53.344  35.625  26.305  1.00  0.00    -0.237 OA
ATOM     69  O   UNL A   1      51.999  35.509  24.235  1.00  0.00    -0.237 OA
ATOM     70  O   UNL A   1      52.388  37.681  25.332  1.00  0.00    -0.744 OA
ENDBRANCH  66  67
ENDBRANCH  40  61
ENDBRANCH  14  15
ENDBRANCH   7   9
ENDBRANCH   6   7
ENDBRANCH   5   6
ENDBRANCH   4   5
ENDBRANCH   3   4
ENDBRANCH   2   3
ENDBRANCH   1   2
BRANCH   1  71
ATOM     71  O   UNL A   1      32.452  33.853  27.703  1.00  0.00    -0.376 OA
BRANCH  71  72
ATOM     72  C   UNL A   1      32.190  32.551  27.199  1.00  0.00     0.202 C 
BRANCH  72  73
ATOM     73  C   UNL A   1      33.212  31.415  27.381  1.00  0.00     0.261 C 
BRANCH  73  74
ATOM     74  O   UNL A   1      33.313  30.495  26.292  1.00  0.00    -0.463 OA
BRANCH  74  75
ATOM     75  C   UNL A   1      33.243  29.162  26.587  1.00  0.00     0.310 C 
ATOM     76  O   UNL A   1      33.650  28.649  27.618  1.00  0.00    -0.252 OA
BRANCH  75  77
ATOM     77  C   UNL A   1      32.509  28.436  25.469  1.00  0.00     0.119 C 
ATOM     78  C   UNL A   1      31.399  29.359  24.939  1.00  0.00     0.019 C 
ATOM     79  C   UNL A   1      33.496  27.967  24.377  1.00  0.00     0.134 C 
ATOM     80  C   UNL A   1      30.828  28.845  23.638  1.00  0.00     0.022 C 
ATOM     81  N   UNL A   1      32.831  27.622  23.106  1.00  0.00    -0.342 N 
ATOM     82  C   UNL A   1      31.955  28.667  22.642  1.00  0.00     0.119 C 
BRANCH  81  83
ATOM     83  C   UNL A   1      33.047  26.403  22.488  1.00  0.00     0.225 C 
ATOM     84  O   UNL A   1      34.167  26.156  22.016  1.00  0.00    -0.275 OA
BRANCH  83  85
ATOM     85  C   UNL A   1      31.972  25.279  22.367  1.00  0.00     0.081 C 
ATOM     86  C   UNL A   1      30.874  25.158  23.415  1.00  0.00     0.030 C 
ATOM     87  C   UNL A   1      32.448  23.909  21.914  1.00  0.00     0.030 C 
ATOM     88  C   UNL A   1      31.050  24.103  24.499  1.00  0.00     0.103 C 
ATOM     89  C   UNL A   1      32.819  22.969  23.039  1.00  0.00     0.103 C 
ATOM     90  N   UNL A   1      31.797  22.848  24.099  1.00  0.00    -0.198 NA
BRANCH  90  91
ATOM     91  S   UNL A   1      32.345  22.082  25.571  1.00  0.00     0.243 S 
ATOM     92  O   UNL A   1      31.780  22.843  26.665  1.00  0.00    -0.207 OA
ATOM     93  O   UNL A   1      32.050  20.678  25.381  1.00  0.00    -0.207 OA
BRANCH  91  94
ATOM     94  C   UNL A   1      34.110  22.240  25.699  1.00  0.00     0.082 A 
ATOM     95  C   UNL A   1      34.650  23.478  26.066  1.00  0.00     0.022 A 
ATOM     96  C   UNL A   1      34.960  21.223  25.260  1.00  0.00     0.022 A 
ATOM     97  C   UNL A   1      36.028  23.685  26.018  1.00  0.00     0.001 A 
ATOM     98  C   UNL A   1      36.341  21.410  25.305  1.00  0.00     0.001 A 
ATOM     99  C   UNL A   1      36.875  22.643  25.659  1.00  0.00     0.000 A 
ENDBRANCH  91  94
ENDBRANCH  90  91
ENDBRANCH  83  85
ENDBRANCH  81  83
ENDBRANCH  75  77
ENDBRANCH  74  75
ENDBRANCH  73  74
ENDBRANCH  72  73
ENDBRANCH  71  72
ENDBRANCH   1  71
TORSDOF 24
ENDMDL
