MODEL 1
REMARK VINA RESULT:     -10.4      0.000      0.000
REMARK SMILES Cc1ccn2c([C@@H]3CCCC[C@@H]3C(=O)OCCOCCOCCOC(=O)c3ccc(-c4c5nc(c(-c6ccc(S(=O)(=O)[O-])cc6)c6ccc([nH]6)c(-c6ccc(S(=O)(=O)[O-])cc6)c6nc(c(-c7ccc(S(=O)(=O)[O-])cc7)c7ccc4[nH]7)C=C6)C=C5)cc3)nnc2c1
REMARK SMILES IDX 20 1 19 2 18 3 17 4 16 5 15 6 13 7 14 8 12 9 7 10 8 11 9 12
REMARK SMILES IDX 11 13 10 14 6 15 1 16 2 17 3 18 90 19 4 20 89 21 5 22 88 23
REMARK SMILES IDX 87 24 21 25 22 26 23 27 24 28 25 29 26 30 27 31 28 32 86 33
REMARK SMILES IDX 29 34 85 35 30 36 31 37 32 38 79 39 33 40 84 41 78 42 80 43
REMARK SMILES IDX 34 44 83 45 77 46 76 47 35 49 65 50 46 51 64 52 47 53 50 54
REMARK SMILES IDX 63 55 81 56 48 57 49 58 62 60 82 61 51 62 36 63 37 64 45 65
REMARK SMILES IDX 38 66 44 67 39 68 40 69 41 70 42 71 43 72 66 73 67 74 75 75
REMARK SMILES IDX 68 76 74 77 69 78 70 79 71 80 72 81 73 82 52 83 53 84 61 85
REMARK SMILES IDX 54 86 60 87 55 88 56 89 57 90 58 91 59 92
REMARK H PARENT 80 48 50 59
REMARK Flexibility Score: inf
ROOT
ATOM      1  C   UNL A   1      33.798  33.397  27.937  1.00  0.00     0.188 C 
ENDROOT
BRANCH   1   2
ATOM      2  C   UNL A   1      34.598  32.064  27.801  1.00  0.00     0.188 C 
BRANCH   2   3
ATOM      3  O   UNL A   1      33.841  30.907  28.138  1.00  0.00    -0.376 OA
BRANCH   3   4
ATOM      4  C   UNL A   1      33.538  29.988  27.097  1.00  0.00     0.202 C 
BRANCH   4   5
ATOM      5  C   UNL A   1      34.599  29.000  26.562  1.00  0.00     0.261 C 
BRANCH   5   6
ATOM      6  O   UNL A   1      34.062  27.762  26.109  1.00  0.00    -0.463 OA
BRANCH   6   7
ATOM      7  C   UNL A   1      33.493  27.805  24.873  1.00  0.00     0.309 C 
ATOM      8  O   UNL A   1      34.028  28.217  23.867  1.00  0.00    -0.252 OA
BRANCH   7   9
ATOM      9  C   UNL A   1      32.177  27.078  24.907  1.00  0.00     0.110 C 
ATOM     10  C   UNL A   1      32.026  26.274  23.643  1.00  0.00     0.072 C 
ATOM     11  C   UNL A   1      31.487  27.075  22.473  1.00  0.00     0.012 C 
ATOM     12  C   UNL A   1      30.741  28.395  22.772  1.00  0.00     0.001 C 
ATOM     13  C   UNL A   1      30.957  27.914  25.235  1.00  0.00     0.016 C 
ATOM     14  C   UNL A   1      30.794  28.976  24.181  1.00  0.00     0.001 C 
BRANCH  10  15
ATOM     15  C   UNL A   1      33.001  25.092  23.496  1.00  0.00     0.141 A 
ATOM     16  C   UNL A   1      35.840  20.512  25.002  1.00  0.00     0.044 C 
ATOM     17  C   UNL A   1      35.298  21.903  24.835  1.00  0.00    -0.046 A 
ATOM     18  C   UNL A   1      34.513  22.600  25.867  1.00  0.00     0.022 A 
ATOM     19  C   UNL A   1      35.436  22.479  23.633  1.00  0.00     0.053 A 
ATOM     20  C   UNL A   1      33.822  23.737  25.579  1.00  0.00     0.095 A 
ATOM     21  C   UNL A   1      34.554  23.522  23.304  1.00  0.00     0.161 A 
ATOM     22  N   UNL A   1      33.788  24.197  24.261  1.00  0.00    -0.286 N 
ATOM     23  N   UNL A   1      34.078  23.761  22.129  1.00  0.00    -0.130 NA
ATOM     24  N   UNL A   1      33.026  24.586  22.275  1.00  0.00    -0.134 NA
ENDBRANCH  10  15
ENDBRANCH   7   9
ENDBRANCH   6   7
ENDBRANCH   5   6
ENDBRANCH   4   5
ENDBRANCH   3   4
ENDBRANCH   2   3
ENDBRANCH   1   2
BRANCH   1  25
ATOM     25  O   UNL A   1      34.453  34.480  28.566  1.00  0.00    -0.376 OA
BRANCH  25  26
ATOM     26  C   UNL A   1      33.540  35.439  29.094  1.00  0.00     0.202 C 
BRANCH  26  27
ATOM     27  C   UNL A   1      33.079  35.355  30.602  1.00  0.00     0.261 C 
BRANCH  27  28
ATOM     28  O   UNL A   1      33.605  34.273  31.456  1.00  0.00    -0.460 OA
BRANCH  28  29
ATOM     29  C   UNL A   1      34.392  34.599  32.542  1.00  0.00     0.338 C 
ATOM     30  O   UNL A   1      34.017  35.281  33.478  1.00  0.00    -0.246 OA
BRANCH  29  31
ATOM     31  C   UNL A   1      35.641  33.718  32.631  1.00  0.00     0.060 A 
ATOM     32  C   UNL A   1      36.952  34.172  32.555  1.00  0.00     0.016 A 
ATOM     33  C   UNL A   1      35.454  32.319  32.672  1.00  0.00     0.016 A 
ATOM     34  C   UNL A   1      38.024  33.231  32.450  1.00  0.00     0.010 A 
ATOM     35  C   UNL A   1      36.515  31.400  32.444  1.00  0.00     0.010 A 
ATOM     36  C   UNL A   1      37.830  31.829  32.258  1.00  0.00    -0.014 A 
BRANCH  36  37
ATOM     37  C   UNL A   1      38.946  30.755  32.115  1.00  0.00     0.031 A 
ATOM     38  C   UNL A   1      39.806  30.933  33.302  1.00  0.00     0.074 A 
ATOM     39  C   UNL A   1      39.751  30.222  31.124  1.00  0.00     0.049 A 
ATOM     40  N   UNL A   1      40.930  31.576  33.336  1.00  0.00    -0.248 NA
ATOM     41  C   UNL A   1      39.241  30.599  34.609  1.00  0.00     0.031 C 
ATOM     42  C   UNL A   1      40.452  30.878  30.038  1.00  0.00     0.029 A 
ATOM     43  N   UNL A   1      40.139  28.860  30.899  1.00  0.00    -0.354 N 
ATOM     44  C   UNL A   1      41.366  31.430  34.633  1.00  0.00     0.074 A 
ATOM     45  C   UNL A   1      40.206  31.057  35.408  1.00  0.00     0.031 C 
ATOM     46  C   UNL A   1      40.874  29.997  29.128  1.00  0.00     0.029 A 
ATOM     47  C   UNL A   1      40.616  28.645  29.567  1.00  0.00     0.049 A 
ATOM     48  H   UNL A   1      40.086  28.154  31.583  1.00  0.00     0.167 HD
ATOM     49  C   UNL A   1      42.680  31.161  34.837  1.00  0.00     0.031 A 
ATOM     50  C   UNL A   1      41.410  27.690  28.991  1.00  0.00     0.031 A 
ATOM     51  C   UNL A   1      43.525  31.671  33.786  1.00  0.00     0.049 A 
ATOM     52  C   UNL A   1      42.815  27.971  29.419  1.00  0.00     0.074 A 
ATOM     53  C   UNL A   1      43.933  32.919  33.368  1.00  0.00     0.029 A 
ATOM     54  N   UNL A   1      43.766  30.798  32.755  1.00  0.00    -0.354 N 
ATOM     55  N   UNL A   1      43.553  28.963  28.998  1.00  0.00    -0.248 NA
ATOM     56  C   UNL A   1      43.215  27.396  30.702  1.00  0.00     0.031 C 
ATOM     57  C   UNL A   1      44.366  32.776  32.021  1.00  0.00     0.029 A 
ATOM     58  C   UNL A   1      44.268  31.436  31.649  1.00  0.00     0.049 A 
ATOM     59  H   UNL A   1      43.597  29.830  32.803  1.00  0.00     0.167 HD
ATOM     60  C   UNL A   1      44.127  29.453  30.164  1.00  0.00     0.074 A 
ATOM     61  C   UNL A   1      44.002  28.377  31.143  1.00  0.00     0.031 C 
ATOM     62  C   UNL A   1      44.370  30.784  30.352  1.00  0.00     0.031 A 
BRANCH  49  63
ATOM     63  C   UNL A   1      43.071  29.976  35.684  1.00  0.00    -0.014 A 
ATOM     64  C   UNL A   1      42.692  28.654  35.356  1.00  0.00     0.010 A 
ATOM     65  C   UNL A   1      44.033  30.128  36.695  1.00  0.00     0.010 A 
ATOM     66  C   UNL A   1      43.154  27.547  36.052  1.00  0.00     0.020 A 
ATOM     67  C   UNL A   1      44.544  29.013  37.378  1.00  0.00     0.020 A 
ATOM     68  C   UNL A   1      44.074  27.735  37.069  1.00  0.00     0.054 A 
BRANCH  68  69
ATOM     69  S   UNL A   1      44.641  26.267  37.952  1.00  0.00     0.124 S 
ATOM     70  O   UNL A   1      44.330  26.617  39.336  1.00  0.00    -0.237 OA
ATOM     71  O   UNL A   1      43.816  25.215  37.368  1.00  0.00    -0.237 OA
ATOM     72  O   UNL A   1      46.063  26.202  37.628  1.00  0.00    -0.744 OA
ENDBRANCH  68  69
ENDBRANCH  49  63
BRANCH  50  73
ATOM     73  C   UNL A   1      40.938  26.349  28.570  1.00  0.00    -0.014 A 
ATOM     74  C   UNL A   1      41.782  25.240  28.748  1.00  0.00     0.010 A 
ATOM     75  C   UNL A   1      39.649  26.114  28.044  1.00  0.00     0.010 A 
ATOM     76  C   UNL A   1      41.454  23.992  28.222  1.00  0.00     0.020 A 
ATOM     77  C   UNL A   1      39.304  24.854  27.521  1.00  0.00     0.020 A 
ATOM     78  C   UNL A   1      40.247  23.826  27.548  1.00  0.00     0.054 A 
BRANCH  78  79
ATOM     79  S   UNL A   1      40.019  22.297  26.600  1.00  0.00     0.124 S 
ATOM     80  O   UNL A   1      40.176  21.283  27.640  1.00  0.00    -0.237 OA
ATOM     81  O   UNL A   1      38.665  22.445  26.071  1.00  0.00    -0.237 OA
ATOM     82  O   UNL A   1      41.084  22.340  25.603  1.00  0.00    -0.744 OA
ENDBRANCH  78  79
ENDBRANCH  50  73
BRANCH  62  83
ATOM     83  C   UNL A   1      44.642  31.683  29.170  1.00  0.00    -0.014 A 
ATOM     84  C   UNL A   1      43.798  32.797  29.014  1.00  0.00     0.010 A 
ATOM     85  C   UNL A   1      45.524  31.382  28.121  1.00  0.00     0.010 A 
ATOM     86  C   UNL A   1      43.797  33.546  27.833  1.00  0.00     0.020 A 
ATOM     87  C   UNL A   1      45.556  32.142  26.945  1.00  0.00     0.020 A 
ATOM     88  C   UNL A   1      44.667  33.204  26.797  1.00  0.00     0.054 A 
BRANCH  88  89
ATOM     89  S   UNL A   1      44.589  34.140  25.248  1.00  0.00     0.124 S 
ATOM     90  O   UNL A   1      44.517  33.076  24.248  1.00  0.00    -0.237 OA
ATOM     91  O   UNL A   1      43.372  34.929  25.410  1.00  0.00    -0.237 OA
ATOM     92  O   UNL A   1      45.831  34.910  25.238  1.00  0.00    -0.744 OA
ENDBRANCH  88  89
ENDBRANCH  62  83
ENDBRANCH  36  37
ENDBRANCH  29  31
ENDBRANCH  28  29
ENDBRANCH  27  28
ENDBRANCH  26  27
ENDBRANCH  25  26
ENDBRANCH   1  25
TORSDOF 21
ENDMDL
MODEL 2
REMARK VINA RESULT:     -10.2      1.842      3.479
REMARK SMILES Cc1ccn2c([C@@H]3CCCC[C@@H]3C(=O)OCCOCCOCCOC(=O)c3ccc(-c4c5nc(c(-c6ccc(S(=O)(=O)[O-])cc6)c6ccc([nH]6)c(-c6ccc(S(=O)(=O)[O-])cc6)c6nc(c(-c7ccc(S(=O)(=O)[O-])cc7)c7ccc4[nH]7)C=C6)C=C5)cc3)nnc2c1
REMARK SMILES IDX 20 1 19 2 18 3 17 4 16 5 15 6 13 7 14 8 12 9 7 10 8 11 9 12
REMARK SMILES IDX 11 13 10 14 6 15 1 16 2 17 3 18 90 19 4 20 89 21 5 22 88 23
REMARK SMILES IDX 87 24 21 25 22 26 23 27 24 28 25 29 26 30 27 31 28 32 86 33
REMARK SMILES IDX 29 34 85 35 30 36 31 37 32 38 79 39 33 40 84 41 78 42 80 43
REMARK SMILES IDX 34 44 83 45 77 46 76 47 35 49 65 50 46 51 64 52 47 53 50 54
REMARK SMILES IDX 63 55 81 56 48 57 49 58 62 60 82 61 51 62 36 63 37 64 45 65
REMARK SMILES IDX 38 66 44 67 39 68 40 69 41 70 42 71 43 72 66 73 67 74 75 75
REMARK SMILES IDX 68 76 74 77 69 78 70 79 71 80 72 81 73 82 52 83 53 84 61 85
REMARK SMILES IDX 54 86 60 87 55 88 56 89 57 90 58 91 59 92
REMARK H PARENT 80 48 50 59
REMARK Flexibility Score: inf
ROOT
ATOM      1  C   UNL A   1      36.148  32.223  27.828  1.00  0.00     0.188 C 
ENDROOT
BRANCH   1   2
ATOM      2  C   UNL A   1      36.589  30.952  28.620  1.00  0.00     0.188 C 
BRANCH   2   3
ATOM      3  O   UNL A   1      35.594  29.935  28.667  1.00  0.00    -0.376 OA
BRANCH   3   4
ATOM      4  C   UNL A   1      35.059  29.475  27.433  1.00  0.00     0.202 C 
BRANCH   4   5
ATOM      5  C   UNL A   1      33.799  28.583  27.385  1.00  0.00     0.261 C 
BRANCH   5   6
ATOM      6  O   UNL A   1      33.594  27.938  26.133  1.00  0.00    -0.463 OA
BRANCH   6   7
ATOM      7  C   UNL A   1      32.688  26.922  26.156  1.00  0.00     0.309 C 
ATOM      8  O   UNL A   1      31.753  26.831  26.920  1.00  0.00    -0.252 OA
BRANCH   7   9
ATOM      9  C   UNL A   1      32.905  26.035  24.961  1.00  0.00     0.110 C 
ATOM     10  C   UNL A   1      31.611  25.348  24.615  1.00  0.00     0.072 C 
ATOM     11  C   UNL A   1      31.354  24.092  25.426  1.00  0.00     0.012 C 
ATOM     12  C   UNL A   1      32.554  23.413  26.123  1.00  0.00     0.001 C 
ATOM     13  C   UNL A   1      34.086  25.088  25.034  1.00  0.00     0.016 C 
ATOM     14  C   UNL A   1      33.887  24.148  26.192  1.00  0.00     0.001 C 
BRANCH  10  15
ATOM     15  C   UNL A   1      30.499  26.270  24.086  1.00  0.00     0.141 A 
ATOM     16  C   UNL A   1      28.203  30.458  21.171  1.00  0.00     0.044 C 
ATOM     17  C   UNL A   1      28.962  29.604  22.147  1.00  0.00    -0.046 A 
ATOM     18  C   UNL A   1      30.429  29.500  22.166  1.00  0.00     0.022 A 
ATOM     19  C   UNL A   1      28.249  28.806  22.953  1.00  0.00     0.053 A 
ATOM     20  C   UNL A   1      31.058  28.524  22.878  1.00  0.00     0.095 A 
ATOM     21  C   UNL A   1      28.897  27.688  23.504  1.00  0.00     0.161 A 
ATOM     22  N   UNL A   1      30.290  27.556  23.529  1.00  0.00    -0.286 N 
ATOM     23  N   UNL A   1      28.355  26.539  23.728  1.00  0.00    -0.130 NA
ATOM     24  N   UNL A   1      29.345  25.650  23.914  1.00  0.00    -0.134 NA
ENDBRANCH  10  15
ENDBRANCH   7   9
ENDBRANCH   6   7
ENDBRANCH   5   6
ENDBRANCH   4   5
ENDBRANCH   3   4
ENDBRANCH   2   3
ENDBRANCH   1   2
BRANCH   1  25
ATOM     25  O   UNL A   1      35.864  33.384  28.583  1.00  0.00    -0.376 OA
BRANCH  25  26
ATOM     26  C   UNL A   1      34.555  33.361  29.147  1.00  0.00     0.202 C 
BRANCH  26  27
ATOM     27  C   UNL A   1      34.328  33.785  30.652  1.00  0.00     0.261 C 
BRANCH  27  28
ATOM     28  O   UNL A   1      34.434  32.762  31.711  1.00  0.00    -0.460 OA
BRANCH  28  29
ATOM     29  C   UNL A   1      35.283  32.986  32.776  1.00  0.00     0.338 C 
ATOM     30  O   UNL A   1      34.951  33.532  33.813  1.00  0.00    -0.246 OA
BRANCH  29  31
ATOM     31  C   UNL A   1      36.565  32.156  32.672  1.00  0.00     0.060 A 
ATOM     32  C   UNL A   1      37.850  32.672  32.546  1.00  0.00     0.016 A 
ATOM     33  C   UNL A   1      36.432  30.754  32.573  1.00  0.00     0.016 A 
ATOM     34  C   UNL A   1      38.941  31.796  32.257  1.00  0.00     0.010 A 
ATOM     35  C   UNL A   1      37.502  29.911  32.165  1.00  0.00     0.010 A 
ATOM     36  C   UNL A   1      38.782  30.415  31.927  1.00  0.00    -0.014 A 
BRANCH  36  37
ATOM     37  C   UNL A   1      39.920  29.413  31.583  1.00  0.00     0.031 A 
ATOM     38  C   UNL A   1      40.865  29.499  32.713  1.00  0.00     0.074 A 
ATOM     39  C   UNL A   1      40.661  29.024  30.481  1.00  0.00     0.049 A 
ATOM     40  N   UNL A   1      41.965  30.182  32.734  1.00  0.00    -0.248 NA
ATOM     41  C   UNL A   1      40.417  29.001  34.014  1.00  0.00     0.031 C 
ATOM     42  C   UNL A   1      41.250  29.823  29.425  1.00  0.00     0.029 A 
ATOM     43  N   UNL A   1      41.078  27.713  30.077  1.00  0.00    -0.354 N 
ATOM     44  C   UNL A   1      42.508  29.916  33.970  1.00  0.00     0.074 A 
ATOM     45  C   UNL A   1      41.427  29.412  34.784  1.00  0.00     0.031 C 
ATOM     46  C   UNL A   1      41.629  29.065  28.393  1.00  0.00     0.029 A 
ATOM     47  C   UNL A   1      41.454  27.664  28.697  1.00  0.00     0.049 A 
ATOM     48  H   UNL A   1      41.104  26.935  30.681  1.00  0.00     0.167 HD
ATOM     49  C   UNL A   1      43.842  29.684  34.043  1.00  0.00     0.031 A 
ATOM     50  C   UNL A   1      42.232  26.811  27.961  1.00  0.00     0.031 A 
ATOM     51  C   UNL A   1      44.583  30.340  32.994  1.00  0.00     0.049 A 
ATOM     52  C   UNL A   1      43.656  27.105  28.311  1.00  0.00     0.074 A 
ATOM     53  C   UNL A   1      44.913  31.642  32.688  1.00  0.00     0.029 A 
ATOM     54  N   UNL A   1      44.771  29.595  31.858  1.00  0.00    -0.354 N 
ATOM     55  N   UNL A   1      44.323  28.168  27.947  1.00  0.00    -0.248 NA
ATOM     56  C   UNL A   1      44.177  26.414  29.488  1.00  0.00     0.031 C 
ATOM     57  C   UNL A   1      45.241  31.665  31.305  1.00  0.00     0.029 A 
ATOM     58  C   UNL A   1      45.161  30.370  30.795  1.00  0.00     0.049 A 
ATOM     59  H   UNL A   1      44.640  28.621  31.811  1.00  0.00     0.167 HD
ATOM     60  C   UNL A   1      44.971  28.554  29.114  1.00  0.00     0.074 A 
ATOM     61  C   UNL A   1      44.962  27.375  29.975  1.00  0.00     0.031 C 
ATOM     62  C   UNL A   1      45.182  29.866  29.430  1.00  0.00     0.031 A 
BRANCH  49  63
ATOM     63  C   UNL A   1      44.341  28.433  34.721  1.00  0.00    -0.014 A 
ATOM     64  C   UNL A   1      44.770  28.424  36.068  1.00  0.00     0.010 A 
ATOM     65  C   UNL A   1      44.163  27.185  34.103  1.00  0.00     0.010 A 
ATOM     66  C   UNL A   1      45.107  27.257  36.740  1.00  0.00     0.020 A 
ATOM     67  C   UNL A   1      44.456  25.994  34.786  1.00  0.00     0.020 A 
ATOM     68  C   UNL A   1      44.955  26.045  36.088  1.00  0.00     0.054 A 
BRANCH  68  69
ATOM     69  S   UNL A   1      45.413  24.556  36.998  1.00  0.00     0.124 S 
ATOM     70  O   UNL A   1      46.871  24.592  36.911  1.00  0.00    -0.237 OA
ATOM     71  O   UNL A   1      44.854  24.815  38.321  1.00  0.00    -0.237 OA
ATOM     72  O   UNL A   1      44.768  23.484  36.244  1.00  0.00    -0.744 OA
ENDBRANCH  68  69
ENDBRANCH  49  63
BRANCH  50  73
ATOM     73  C   UNL A   1      41.775  25.505  27.431  1.00  0.00    -0.014 A 
ATOM     74  C   UNL A   1      40.674  24.871  28.029  1.00  0.00     0.010 A 
ATOM     75  C   UNL A   1      42.360  24.880  26.307  1.00  0.00     0.010 A 
ATOM     76  C   UNL A   1      40.309  23.573  27.677  1.00  0.00     0.020 A 
ATOM     77  C   UNL A   1      41.990  23.574  25.936  1.00  0.00     0.020 A 
ATOM     78  C   UNL A   1      41.018  22.906  26.681  1.00  0.00     0.054 A 
BRANCH  78  79
ATOM     79  S   UNL A   1      40.731  21.125  26.496  1.00  0.00     0.124 S 
ATOM     80  O   UNL A   1      40.619  20.701  27.890  1.00  0.00    -0.237 OA
ATOM     81  O   UNL A   1      39.490  21.078  25.727  1.00  0.00    -0.237 OA
ATOM     82  O   UNL A   1      41.918  20.650  25.791  1.00  0.00    -0.744 OA
ENDBRANCH  78  79
ENDBRANCH  50  73
BRANCH  62  83
ATOM     83  C   UNL A   1      45.327  30.899  28.337  1.00  0.00    -0.014 A 
ATOM     84  C   UNL A   1      46.636  31.284  28.000  1.00  0.00     0.010 A 
ATOM     85  C   UNL A   1      44.268  31.638  27.789  1.00  0.00     0.010 A 
ATOM     86  C   UNL A   1      46.878  32.400  27.192  1.00  0.00     0.020 A 
ATOM     87  C   UNL A   1      44.494  32.739  26.952  1.00  0.00     0.020 A 
ATOM     88  C   UNL A   1      45.803  33.131  26.685  1.00  0.00     0.054 A 
BRANCH  88  89
ATOM     89  S   UNL A   1      46.143  34.618  25.707  1.00  0.00     0.124 S 
ATOM     90  O   UNL A   1      45.859  35.688  26.662  1.00  0.00    -0.237 OA
ATOM     91  O   UNL A   1      47.551  34.455  25.353  1.00  0.00    -0.237 OA
ATOM     92  O   UNL A   1      45.209  34.526  24.588  1.00  0.00    -0.744 OA
ENDBRANCH  88  89
ENDBRANCH  62  83
ENDBRANCH  36  37
ENDBRANCH  29  31
ENDBRANCH  28  29
ENDBRANCH  27  28
ENDBRANCH  26  27
ENDBRANCH  25  26
ENDBRANCH   1  25
TORSDOF 21
ENDMDL
MODEL 3
REMARK VINA RESULT:     -10.0      2.799      9.676
REMARK SMILES Cc1ccn2c([C@@H]3CCCC[C@@H]3C(=O)OCCOCCOCCOC(=O)c3ccc(-c4c5nc(c(-c6ccc(S(=O)(=O)[O-])cc6)c6ccc([nH]6)c(-c6ccc(S(=O)(=O)[O-])cc6)c6nc(c(-c7ccc(S(=O)(=O)[O-])cc7)c7ccc4[nH]7)C=C6)C=C5)cc3)nnc2c1
REMARK SMILES IDX 20 1 19 2 18 3 17 4 16 5 15 6 13 7 14 8 12 9 7 10 8 11 9 12
REMARK SMILES IDX 11 13 10 14 6 15 1 16 2 17 3 18 90 19 4 20 89 21 5 22 88 23
REMARK SMILES IDX 87 24 21 25 22 26 23 27 24 28 25 29 26 30 27 31 28 32 86 33
REMARK SMILES IDX 29 34 85 35 30 36 31 37 32 38 79 39 33 40 84 41 78 42 80 43
REMARK SMILES IDX 34 44 83 45 77 46 76 47 35 49 65 50 46 51 64 52 47 53 50 54
REMARK SMILES IDX 63 55 81 56 48 57 49 58 62 60 82 61 51 62 36 63 37 64 45 65
REMARK SMILES IDX 38 66 44 67 39 68 40 69 41 70 42 71 43 72 66 73 67 74 75 75
REMARK SMILES IDX 68 76 74 77 69 78 70 79 71 80 72 81 73 82 52 83 53 84 61 85
REMARK SMILES IDX 54 86 60 87 55 88 56 89 57 90 58 91 59 92
REMARK H PARENT 80 48 50 59
REMARK Flexibility Score: inf
ROOT
ATOM      1  C   UNL A   1      40.628  20.881  26.867  1.00  0.00     0.188 C 
ENDROOT
BRANCH   1   2
ATOM      2  C   UNL A   1      39.510  21.729  26.183  1.00  0.00     0.188 C 
BRANCH   2   3
ATOM      3  O   UNL A   1      39.357  23.029  26.744  1.00  0.00    -0.376 OA
BRANCH   3   4
ATOM      4  C   UNL A   1      38.222  23.789  26.351  1.00  0.00     0.202 C 
BRANCH   4   5
ATOM      5  C   UNL A   1      37.205  23.245  25.324  1.00  0.00     0.261 C 
BRANCH   5   6
ATOM      6  O   UNL A   1      36.058  24.071  25.151  1.00  0.00    -0.463 OA
BRANCH   6   7
ATOM      7  C   UNL A   1      34.911  23.574  25.688  1.00  0.00     0.309 C 
ATOM      8  O   UNL A   1      34.687  23.445  26.872  1.00  0.00    -0.252 OA
BRANCH   7   9
ATOM      9  C   UNL A   1      33.887  23.401  24.600  1.00  0.00     0.110 C 
ATOM     10  C   UNL A   1      32.509  23.508  25.197  1.00  0.00     0.072 C 
ATOM     11  C   UNL A   1      32.004  22.210  25.799  1.00  0.00     0.012 C 
ATOM     12  C   UNL A   1      32.672  20.889  25.353  1.00  0.00     0.001 C 
ATOM     13  C   UNL A   1      34.059  22.191  23.704  1.00  0.00     0.016 C 
ATOM     14  C   UNL A   1      33.960  20.944  24.541  1.00  0.00     0.001 C 
BRANCH  10  15
ATOM     15  C   UNL A   1      32.130  24.902  25.725  1.00  0.00     0.141 A 
ATOM     16  C   UNL A   1      32.018  30.492  25.955  1.00  0.00     0.044 C 
ATOM     17  C   UNL A   1      32.391  29.037  25.998  1.00  0.00    -0.046 A 
ATOM     18  C   UNL A   1      33.307  28.404  25.036  1.00  0.00     0.022 A 
ATOM     19  C   UNL A   1      31.753  28.263  26.886  1.00  0.00     0.053 A 
ATOM     20  C   UNL A   1      33.408  27.049  24.946  1.00  0.00     0.095 A 
ATOM     21  C   UNL A   1      31.712  26.881  26.636  1.00  0.00     0.161 A 
ATOM     22  N   UNL A   1      32.563  26.251  25.720  1.00  0.00    -0.286 N 
ATOM     23  N   UNL A   1      30.728  26.095  26.913  1.00  0.00    -0.130 NA
ATOM     24  N   UNL A   1      30.906  24.957  26.221  1.00  0.00    -0.134 NA
ENDBRANCH  10  15
ENDBRANCH   7   9
ENDBRANCH   6   7
ENDBRANCH   5   6
ENDBRANCH   4   5
ENDBRANCH   3   4
ENDBRANCH   2   3
ENDBRANCH   1   2
BRANCH   1  25
ATOM     25  O   UNL A   1      41.749  20.539  26.076  1.00  0.00    -0.376 OA
BRANCH  25  26
ATOM     26  C   UNL A   1      42.456  21.685  25.606  1.00  0.00     0.202 C 
BRANCH  26  27
ATOM     27  C   UNL A   1      43.579  22.350  26.495  1.00  0.00     0.261 C 
BRANCH  27  28
ATOM     28  O   UNL A   1      44.836  22.786  25.858  1.00  0.00    -0.460 OA
BRANCH  28  29
ATOM     29  C   UNL A   1      44.834  23.930  25.085  1.00  0.00     0.338 C 
ATOM     30  O   UNL A   1      45.150  23.962  23.910  1.00  0.00    -0.246 OA
BRANCH  29  31
ATOM     31  C   UNL A   1      44.046  25.066  25.742  1.00  0.00     0.060 A 
ATOM     32  C   UNL A   1      43.050  25.815  25.127  1.00  0.00     0.016 A 
ATOM     33  C   UNL A   1      44.440  25.473  27.036  1.00  0.00     0.016 A 
ATOM     34  C   UNL A   1      42.531  26.977  25.779  1.00  0.00     0.010 A 
ATOM     35  C   UNL A   1      44.005  26.696  27.618  1.00  0.00     0.010 A 
ATOM     36  C   UNL A   1      43.082  27.526  26.977  1.00  0.00    -0.014 A 
BRANCH  36  37
ATOM     37  C   UNL A   1      42.582  28.793  27.725  1.00  0.00     0.031 A 
ATOM     38  C   UNL A   1      43.800  29.573  28.021  1.00  0.00     0.074 A 
ATOM     39  C   UNL A   1      41.658  29.124  28.701  1.00  0.00     0.049 A 
ATOM     40  N   UNL A   1      44.431  29.596  29.151  1.00  0.00    -0.248 NA
ATOM     41  C   UNL A   1      44.521  30.162  26.892  1.00  0.00     0.031 C 
ATOM     42  C   UNL A   1      41.326  28.447  29.939  1.00  0.00     0.029 A 
ATOM     43  N   UNL A   1      40.775  30.251  28.777  1.00  0.00    -0.354 N 
ATOM     44  C   UNL A   1      45.462  30.485  28.947  1.00  0.00     0.074 A 
ATOM     45  C   UNL A   1      45.617  30.599  27.515  1.00  0.00     0.031 C 
ATOM     46  C   UNL A   1      40.185  28.911  30.457  1.00  0.00     0.029 A 
ATOM     47  C   UNL A   1      39.698  30.036  29.694  1.00  0.00     0.049 A 
ATOM     48  H   UNL A   1      40.896  31.080  28.258  1.00  0.00     0.167 HD
ATOM     49  C   UNL A   1      45.741  31.375  29.931  1.00  0.00     0.031 A 
ATOM     50  C   UNL A   1      38.857  30.874  30.376  1.00  0.00     0.031 A 
ATOM     51  C   UNL A   1      45.381  30.890  31.241  1.00  0.00     0.049 A 
ATOM     52  C   UNL A   1      39.650  31.480  31.490  1.00  0.00     0.074 A 
ATOM     53  C   UNL A   1      45.857  29.922  32.098  1.00  0.00     0.029 A 
ATOM     54  N   UNL A   1      44.113  31.212  31.655  1.00  0.00    -0.354 N 
ATOM     55  N   UNL A   1      40.043  30.855  32.569  1.00  0.00    -0.248 NA
ATOM     56  C   UNL A   1      40.413  32.678  31.149  1.00  0.00     0.031 C 
ATOM     57  C   UNL A   1      44.801  29.625  33.003  1.00  0.00     0.029 A 
ATOM     58  C   UNL A   1      43.713  30.450  32.723  1.00  0.00     0.049 A 
ATOM     59  H   UNL A   1      43.557  31.907  31.235  1.00  0.00     0.167 HD
ATOM     60  C   UNL A   1      41.367  31.256  32.705  1.00  0.00     0.074 A 
ATOM     61  C   UNL A   1      41.492  32.470  31.904  1.00  0.00     0.031 C 
ATOM     62  C   UNL A   1      42.334  30.421  33.186  1.00  0.00     0.031 A 
BRANCH  49  63
ATOM     63  C   UNL A   1      45.807  32.846  29.605  1.00  0.00    -0.014 A 
ATOM     64  C   UNL A   1      44.646  33.634  29.434  1.00  0.00     0.010 A 
ATOM     65  C   UNL A   1      47.029  33.528  29.702  1.00  0.00     0.010 A 
ATOM     66  C   UNL A   1      44.693  35.010  29.264  1.00  0.00     0.020 A 
ATOM     67  C   UNL A   1      47.087  34.925  29.577  1.00  0.00     0.020 A 
ATOM     68  C   UNL A   1      45.920  35.649  29.328  1.00  0.00     0.054 A 
BRANCH  68  69
ATOM     69  S   UNL A   1      45.934  37.437  29.093  1.00  0.00     0.124 S 
ATOM     70  O   UNL A   1      46.876  37.864  30.125  1.00  0.00    -0.237 OA
ATOM     71  O   UNL A   1      46.405  37.568  27.717  1.00  0.00    -0.237 OA
ATOM     72  O   UNL A   1      44.543  37.821  29.318  1.00  0.00    -0.744 OA
ENDBRANCH  68  69
ENDBRANCH  49  63
BRANCH  50  73
ATOM     73  C   UNL A   1      37.652  31.510  29.792  1.00  0.00    -0.014 A 
ATOM     74  C   UNL A   1      37.799  32.676  29.022  1.00  0.00     0.010 A 
ATOM     75  C   UNL A   1      36.354  30.972  29.923  1.00  0.00     0.010 A 
ATOM     76  C   UNL A   1      36.691  33.401  28.591  1.00  0.00     0.020 A 
ATOM     77  C   UNL A   1      35.228  31.690  29.480  1.00  0.00     0.020 A 
ATOM     78  C   UNL A   1      35.411  32.940  28.887  1.00  0.00     0.054 A 
BRANCH  78  79
ATOM     79  S   UNL A   1      34.024  34.074  28.606  1.00  0.00     0.124 S 
ATOM     80  O   UNL A   1      33.154  33.266  27.755  1.00  0.00    -0.237 OA
ATOM     81  O   UNL A   1      33.527  34.316  29.958  1.00  0.00    -0.237 OA
ATOM     82  O   UNL A   1      34.640  35.227  27.955  1.00  0.00    -0.744 OA
ENDBRANCH  78  79
ENDBRANCH  50  73
BRANCH  62  83
ATOM     83  C   UNL A   1      41.976  29.318  34.155  1.00  0.00    -0.014 A 
ATOM     84  C   UNL A   1      42.186  29.582  35.520  1.00  0.00     0.010 A 
ATOM     85  C   UNL A   1      41.651  28.004  33.787  1.00  0.00     0.010 A 
ATOM     86  C   UNL A   1      42.129  28.559  36.472  1.00  0.00     0.020 A 
ATOM     87  C   UNL A   1      41.560  26.976  34.734  1.00  0.00     0.020 A 
ATOM     88  C   UNL A   1      41.831  27.257  36.071  1.00  0.00     0.054 A 
BRANCH  88  89
ATOM     89  S   UNL A   1      41.842  25.937  37.312  1.00  0.00     0.124 S 
ATOM     90  O   UNL A   1      42.274  24.780  36.528  1.00  0.00    -0.237 OA
ATOM     91  O   UNL A   1      42.808  26.425  38.291  1.00  0.00    -0.237 OA
ATOM     92  O   UNL A   1      40.459  25.881  37.781  1.00  0.00    -0.744 OA
ENDBRANCH  88  89
ENDBRANCH  62  83
ENDBRANCH  36  37
ENDBRANCH  29  31
ENDBRANCH  28  29
ENDBRANCH  27  28
ENDBRANCH  26  27
ENDBRANCH  25  26
ENDBRANCH   1  25
TORSDOF 21
ENDMDL
