MODEL 1
REMARK VINA RESULT:      -9.5      0.000      0.000
REMARK SMILES CC1(C)CCSC[C@@]1(Nc1ccccc1Br)C(=O)OCCOCCOCCOC(=O)c1ccc(-c2c3nc(c(-c4ccc(S(=O)(=O)[O-])cc4)c4ccc([nH]4)c(-c4ccc(S(=O)(=O)[O-])cc4)c4nc(c(-c5ccc(S(=O)(=O)[O-])cc5)c5ccc2[nH]5)C=C4)C=C3)cc1
REMARK SMILES IDX 24 1 23 2 22 3 21 4 20 5 19 6 17 7 18 8 8 9 1 10 2 11 3 12
REMARK SMILES IDX 4 13 5 14 7 15 6 16 9 17 10 19 11 20 15 21 12 22 14 23 16 24
REMARK SMILES IDX 13 25 25 26 26 27 27 28 28 29 29 30 30 31 31 32 32 33 90 34
REMARK SMILES IDX 33 35 89 36 34 37 35 38 36 39 83 40 37 41 88 42 82 43 84 44
REMARK SMILES IDX 38 45 87 46 81 47 80 48 39 50 69 51 50 52 68 53 51 54 54 55
REMARK SMILES IDX 67 56 85 57 52 58 53 59 66 61 86 62 55 63 40 64 41 65 49 66
REMARK SMILES IDX 42 67 48 68 43 69 44 70 45 71 46 72 47 73 70 74 71 75 79 76
REMARK SMILES IDX 72 77 78 78 73 79 74 80 75 81 76 82 77 83 56 84 57 85 65 86
REMARK SMILES IDX 58 87 64 88 59 89 60 90 61 91 62 92 63 93
REMARK H PARENT 9 18 84 49 54 60
REMARK Flexibility Score: inf
ROOT
ATOM      1  C   UNL A   1      34.891  32.012  27.783  1.00  0.00     0.188 C 
ENDROOT
BRANCH   1   2
ATOM      2  C   UNL A   1      34.028  30.801  27.472  1.00  0.00     0.188 C 
BRANCH   2   3
ATOM      3  O   UNL A   1      32.706  31.022  26.992  1.00  0.00    -0.376 OA
BRANCH   3   4
ATOM      4  C   UNL A   1      31.930  29.814  26.863  1.00  0.00     0.202 C 
BRANCH   4   5
ATOM      5  C   UNL A   1      32.464  28.523  27.527  1.00  0.00     0.261 C 
BRANCH   5   6
ATOM      6  O   UNL A   1      32.682  27.423  26.615  1.00  0.00    -0.461 OA
BRANCH   6   7
ATOM      7  C   UNL A   1      31.644  26.634  26.221  1.00  0.00     0.333 C 
ATOM      8  O   UNL A   1      30.671  26.425  26.934  1.00  0.00    -0.249 OA
BRANCH   7   9
ATOM      9  C   UNL A   1      31.852  26.072  24.746  1.00  0.00     0.150 C 
ATOM     10  C   UNL A   1      30.625  28.179  23.818  1.00  0.00     0.014 C 
ATOM     11  C   UNL A   1      30.744  26.637  23.721  1.00  0.00     0.000 C 
ATOM     12  C   UNL A   1      29.306  26.080  23.941  1.00  0.00     0.014 C 
ATOM     13  C   UNL A   1      31.099  26.249  22.254  1.00  0.00     0.020 C 
ATOM     14  C   UNL A   1      32.387  26.835  21.706  1.00  0.00     0.070 C 
ATOM     15  C   UNL A   1      33.276  26.583  24.342  1.00  0.00     0.110 C 
ATOM     16  S   UNL A   1      33.842  26.313  22.621  1.00  0.00    -0.159 SA
BRANCH   9  17
ATOM     17  N   UNL A   1      31.758  24.552  24.731  1.00  0.00    -0.368 N 
ATOM     18  H   UNL A   1      31.192  24.124  24.049  1.00  0.00     0.161 HD
BRANCH  17  19
ATOM     19  C   UNL A   1      32.439  23.737  25.642  1.00  0.00     0.049 A 
ATOM     20  C   UNL A   1      33.833  23.602  25.481  1.00  0.00     0.027 A 
ATOM     21  C   UNL A   1      31.873  23.155  26.780  1.00  0.00     0.041 A 
ATOM     22  C   UNL A   1      34.639  23.020  26.462  1.00  0.00     0.002 A 
ATOM     23  C   UNL A   1      32.685  22.631  27.782  1.00  0.00     0.018 A 
ATOM     24  Br  UNL A   1      30.022  22.851  27.018  1.00  0.00    -0.049 Br
ATOM     25  C   UNL A   1      34.064  22.562  27.635  1.00  0.00     0.001 A 
ENDBRANCH  17  19
ENDBRANCH   9  17
ENDBRANCH   7   9
ENDBRANCH   6   7
ENDBRANCH   5   6
ENDBRANCH   4   5
ENDBRANCH   3   4
ENDBRANCH   2   3
ENDBRANCH   1   2
BRANCH   1  26
ATOM     26  O   UNL A   1      34.269  32.946  28.653  1.00  0.00    -0.376 OA
BRANCH  26  27
ATOM     27  C   UNL A   1      35.151  33.431  29.655  1.00  0.00     0.202 C 
BRANCH  27  28
ATOM     28  C   UNL A   1      35.127  32.625  30.961  1.00  0.00     0.261 C 
BRANCH  28  29
ATOM     29  O   UNL A   1      35.710  31.306  30.880  1.00  0.00    -0.460 OA
BRANCH  29  30
ATOM     30  C   UNL A   1      36.692  31.038  31.789  1.00  0.00     0.338 C 
ATOM     31  O   UNL A   1      36.602  31.150  32.997  1.00  0.00    -0.246 OA
BRANCH  30  32
ATOM     32  C   UNL A   1      37.917  30.509  31.118  1.00  0.00     0.060 A 
ATOM     33  C   UNL A   1      38.852  29.818  31.897  1.00  0.00     0.016 A 
ATOM     34  C   UNL A   1      38.203  30.748  29.769  1.00  0.00     0.016 A 
ATOM     35  C   UNL A   1      40.063  29.389  31.334  1.00  0.00     0.010 A 
ATOM     36  C   UNL A   1      39.426  30.326  29.209  1.00  0.00     0.010 A 
ATOM     37  C   UNL A   1      40.377  29.650  29.987  1.00  0.00    -0.014 A 
BRANCH  37  38
ATOM     38  C   UNL A   1      41.759  29.351  29.488  1.00  0.00     0.031 A 
ATOM     39  C   UNL A   1      42.012  28.020  28.836  1.00  0.00     0.074 A 
ATOM     40  C   UNL A   1      42.776  30.237  29.541  1.00  0.00     0.049 A 
ATOM     41  N   UNL A   1      43.082  27.589  28.220  1.00  0.00    -0.248 NA
ATOM     42  C   UNL A   1      40.924  27.036  28.930  1.00  0.00     0.031 C 
ATOM     43  C   UNL A   1      42.718  31.528  30.203  1.00  0.00     0.029 A 
ATOM     44  N   UNL A   1      44.031  30.224  28.968  1.00  0.00    -0.354 N 
ATOM     45  C   UNL A   1      42.813  26.270  27.884  1.00  0.00     0.074 A 
ATOM     46  C   UNL A   1      41.468  25.984  28.340  1.00  0.00     0.031 C 
ATOM     47  C   UNL A   1      43.786  32.261  29.841  1.00  0.00     0.029 A 
ATOM     48  C   UNL A   1      44.687  31.439  29.038  1.00  0.00     0.049 A 
ATOM     49  H   UNL A   1      44.423  29.423  28.550  1.00  0.00     0.167 HD
ATOM     50  C   UNL A   1      43.625  25.357  27.300  1.00  0.00     0.031 A 
ATOM     51  C   UNL A   1      45.876  31.836  28.529  1.00  0.00     0.031 A 
ATOM     52  C   UNL A   1      44.996  25.597  26.938  1.00  0.00     0.049 A 
ATOM     53  C   UNL A   1      46.772  30.795  27.900  1.00  0.00     0.074 A 
ATOM     54  C   UNL A   1      45.914  24.708  26.406  1.00  0.00     0.029 A 
ATOM     55  N   UNL A   1      45.659  26.804  27.097  1.00  0.00    -0.354 N 
ATOM     56  N   UNL A   1      46.504  29.548  27.593  1.00  0.00    -0.248 NA
ATOM     57  C   UNL A   1      48.161  31.194  27.621  1.00  0.00     0.031 C 
ATOM     58  C   UNL A   1      47.148  25.358  26.306  1.00  0.00     0.029 A 
ATOM     59  C   UNL A   1      46.980  26.676  26.699  1.00  0.00     0.049 A 
ATOM     60  H   UNL A   1      45.251  27.631  27.441  1.00  0.00     0.167 HD
ATOM     61  C   UNL A   1      47.692  29.012  27.105  1.00  0.00     0.074 A 
ATOM     62  C   UNL A   1      48.668  30.080  27.109  1.00  0.00     0.031 C 
ATOM     63  C   UNL A   1      47.954  27.740  26.713  1.00  0.00     0.031 A 
BRANCH  50  64
ATOM     64  C   UNL A   1      43.062  23.972  27.140  1.00  0.00    -0.014 A 
ATOM     65  C   UNL A   1      43.252  22.984  28.123  1.00  0.00     0.010 A 
ATOM     66  C   UNL A   1      42.382  23.640  25.953  1.00  0.00     0.010 A 
ATOM     67  C   UNL A   1      42.836  21.671  27.891  1.00  0.00     0.020 A 
ATOM     68  C   UNL A   1      41.934  22.336  25.732  1.00  0.00     0.020 A 
ATOM     69  C   UNL A   1      42.190  21.354  26.690  1.00  0.00     0.054 A 
BRANCH  69  70
ATOM     70  S   UNL A   1      41.697  19.635  26.396  1.00  0.00     0.124 S 
ATOM     71  O   UNL A   1      42.519  19.282  25.241  1.00  0.00    -0.237 OA
ATOM     72  O   UNL A   1      42.062  18.978  27.649  1.00  0.00    -0.237 OA
ATOM     73  O   UNL A   1      40.263  19.724  26.136  1.00  0.00    -0.744 OA
ENDBRANCH  69  70
ENDBRANCH  50  64
BRANCH  51  74
ATOM     74  C   UNL A   1      46.354  33.254  28.642  1.00  0.00    -0.014 A 
ATOM     75  C   UNL A   1      47.051  33.690  29.790  1.00  0.00     0.010 A 
ATOM     76  C   UNL A   1      46.076  34.199  27.638  1.00  0.00     0.010 A 
ATOM     77  C   UNL A   1      47.449  35.027  29.929  1.00  0.00     0.020 A 
ATOM     78  C   UNL A   1      46.509  35.525  27.751  1.00  0.00     0.020 A 
ATOM     79  C   UNL A   1      47.182  35.935  28.902  1.00  0.00     0.054 A 
BRANCH  79  80
ATOM     80  S   UNL A   1      47.753  37.653  29.067  1.00  0.00     0.124 S 
ATOM     81  O   UNL A   1      49.044  37.611  28.386  1.00  0.00    -0.237 OA
ATOM     82  O   UNL A   1      46.702  38.403  28.385  1.00  0.00    -0.237 OA
ATOM     83  O   UNL A   1      47.815  37.854  30.513  1.00  0.00    -0.744 OA
ENDBRANCH  79  80
ENDBRANCH  51  74
BRANCH  63  84
ATOM     84  C   UNL A   1      49.349  27.426  26.233  1.00  0.00    -0.014 A 
ATOM     85  C   UNL A   1      49.742  27.667  24.903  1.00  0.00     0.010 A 
ATOM     86  C   UNL A   1      50.303  26.945  27.148  1.00  0.00     0.010 A 
ATOM     87  C   UNL A   1      51.054  27.408  24.494  1.00  0.00     0.020 A 
ATOM     88  C   UNL A   1      51.622  26.712  26.751  1.00  0.00     0.020 A 
ATOM     89  C   UNL A   1      51.987  26.935  25.422  1.00  0.00     0.054 A 
BRANCH  89  90
ATOM     90  S   UNL A   1      53.697  26.655  24.880  1.00  0.00     0.124 S 
ATOM     91  O   UNL A   1      53.901  27.747  23.933  1.00  0.00    -0.237 OA
ATOM     92  O   UNL A   1      54.448  26.756  26.128  1.00  0.00    -0.237 OA
ATOM     93  O   UNL A   1      53.659  25.318  24.289  1.00  0.00    -0.744 OA
ENDBRANCH  89  90
ENDBRANCH  63  84
ENDBRANCH  37  38
ENDBRANCH  30  32
ENDBRANCH  29  30
ENDBRANCH  28  29
ENDBRANCH  27  28
ENDBRANCH  26  27
ENDBRANCH   1  26
TORSDOF 22
ENDMDL
MODEL 2
REMARK VINA RESULT:      -9.0      1.391      8.359
REMARK SMILES CC1(C)CCSC[C@@]1(Nc1ccccc1Br)C(=O)OCCOCCOCCOC(=O)c1ccc(-c2c3nc(c(-c4ccc(S(=O)(=O)[O-])cc4)c4ccc([nH]4)c(-c4ccc(S(=O)(=O)[O-])cc4)c4nc(c(-c5ccc(S(=O)(=O)[O-])cc5)c5ccc2[nH]5)C=C4)C=C3)cc1
REMARK SMILES IDX 24 1 23 2 22 3 21 4 20 5 19 6 17 7 18 8 8 9 1 10 2 11 3 12
REMARK SMILES IDX 4 13 5 14 7 15 6 16 9 17 10 19 11 20 15 21 12 22 14 23 16 24
REMARK SMILES IDX 13 25 25 26 26 27 27 28 28 29 29 30 30 31 31 32 32 33 90 34
REMARK SMILES IDX 33 35 89 36 34 37 35 38 36 39 83 40 37 41 88 42 82 43 84 44
REMARK SMILES IDX 38 45 87 46 81 47 80 48 39 50 69 51 50 52 68 53 51 54 54 55
REMARK SMILES IDX 67 56 85 57 52 58 53 59 66 61 86 62 55 63 40 64 41 65 49 66
REMARK SMILES IDX 42 67 48 68 43 69 44 70 45 71 46 72 47 73 70 74 71 75 79 76
REMARK SMILES IDX 72 77 78 78 73 79 74 80 75 81 76 82 77 83 56 84 57 85 65 86
REMARK SMILES IDX 58 87 64 88 59 89 60 90 61 91 62 92 63 93
REMARK H PARENT 9 18 84 49 54 60
REMARK Flexibility Score: inf
ROOT
ATOM      1  C   UNL A   1      34.693  31.668  27.795  1.00  0.00     0.188 C 
ENDROOT
BRANCH   1   2
ATOM      2  C   UNL A   1      33.338  31.050  27.498  1.00  0.00     0.188 C 
BRANCH   2   3
ATOM      3  O   UNL A   1      33.245  30.112  26.431  1.00  0.00    -0.376 OA
BRANCH   3   4
ATOM      4  C   UNL A   1      32.106  29.233  26.532  1.00  0.00     0.202 C 
BRANCH   4   5
ATOM      5  C   UNL A   1      32.282  27.883  27.267  1.00  0.00     0.261 C 
BRANCH   5   6
ATOM      6  O   UNL A   1      32.672  26.782  26.416  1.00  0.00    -0.461 OA
BRANCH   6   7
ATOM      7  C   UNL A   1      31.811  25.756  26.172  1.00  0.00     0.333 C 
ATOM      8  O   UNL A   1      30.788  25.590  26.823  1.00  0.00    -0.249 OA
BRANCH   7   9
ATOM      9  C   UNL A   1      32.288  24.858  24.948  1.00  0.00     0.150 C 
ATOM     10  C   UNL A   1      33.553  23.315  26.629  1.00  0.00     0.014 C 
ATOM     11  C   UNL A   1      33.651  24.063  25.275  1.00  0.00     0.000 C 
ATOM     12  C   UNL A   1      34.924  24.957  25.369  1.00  0.00     0.014 C 
ATOM     13  C   UNL A   1      33.974  23.033  24.151  1.00  0.00     0.020 C 
ATOM     14  C   UNL A   1      32.970  21.909  23.973  1.00  0.00     0.070 C 
ATOM     15  C   UNL A   1      31.109  23.850  24.732  1.00  0.00     0.110 C 
ATOM     16  S   UNL A   1      31.332  22.495  23.520  1.00  0.00    -0.159 SA
BRANCH   9  17
ATOM     17  N   UNL A   1      32.544  25.719  23.716  1.00  0.00    -0.368 N 
ATOM     18  H   UNL A   1      33.342  25.531  23.171  1.00  0.00     0.161 HD
BRANCH  17  19
ATOM     19  C   UNL A   1      31.697  26.762  23.326  1.00  0.00     0.049 A 
ATOM     20  C   UNL A   1      30.318  26.484  23.240  1.00  0.00     0.027 A 
ATOM     21  C   UNL A   1      32.088  28.092  23.149  1.00  0.00     0.041 A 
ATOM     22  C   UNL A   1      29.366  27.497  23.101  1.00  0.00     0.002 A 
ATOM     23  C   UNL A   1      31.135  29.103  23.072  1.00  0.00     0.018 A 
ATOM     24  Br  UNL A   1      33.865  28.650  22.823  1.00  0.00    -0.049 Br
ATOM     25  C   UNL A   1      29.776  28.818  23.050  1.00  0.00     0.001 A 
ENDBRANCH  17  19
ENDBRANCH   9  17
ENDBRANCH   7   9
ENDBRANCH   6   7
ENDBRANCH   5   6
ENDBRANCH   4   5
ENDBRANCH   3   4
ENDBRANCH   2   3
ENDBRANCH   1   2
BRANCH   1  26
ATOM     26  O   UNL A   1      34.623  33.026  28.202  1.00  0.00    -0.376 OA
BRANCH  26  27
ATOM     27  C   UNL A   1      35.401  33.290  29.360  1.00  0.00     0.202 C 
BRANCH  27  28
ATOM     28  C   UNL A   1      34.974  32.494  30.602  1.00  0.00     0.261 C 
BRANCH  28  29
ATOM     29  O   UNL A   1      35.812  31.362  30.925  1.00  0.00    -0.460 OA
BRANCH  29  30
ATOM     30  C   UNL A   1      36.997  31.660  31.531  1.00  0.00     0.338 C 
ATOM     31  O   UNL A   1      37.142  32.352  32.521  1.00  0.00    -0.246 OA
BRANCH  30  32
ATOM     32  C   UNL A   1      38.136  30.964  30.861  1.00  0.00     0.060 A 
ATOM     33  C   UNL A   1      39.009  30.211  31.653  1.00  0.00     0.016 A 
ATOM     34  C   UNL A   1      38.408  31.103  29.495  1.00  0.00     0.016 A 
ATOM     35  C   UNL A   1      40.149  29.622  31.086  1.00  0.00     0.010 A 
ATOM     36  C   UNL A   1      39.560  30.519  28.930  1.00  0.00     0.010 A 
ATOM     37  C   UNL A   1      40.452  29.779  29.720  1.00  0.00    -0.014 A 
BRANCH  37  38
ATOM     38  C   UNL A   1      41.776  29.301  29.206  1.00  0.00     0.031 A 
ATOM     39  C   UNL A   1      42.991  30.150  29.460  1.00  0.00     0.074 A 
ATOM     40  C   UNL A   1      41.945  28.119  28.577  1.00  0.00     0.049 A 
ATOM     41  N   UNL A   1      44.250  29.886  29.225  1.00  0.00    -0.248 NA
ATOM     42  C   UNL A   1      42.741  31.487  30.014  1.00  0.00     0.031 C 
ATOM     43  C   UNL A   1      40.870  27.223  28.188  1.00  0.00     0.029 A 
ATOM     44  N   UNL A   1      43.086  27.429  28.219  1.00  0.00    -0.354 N 
ATOM     45  C   UNL A   1      44.943  31.037  29.568  1.00  0.00     0.074 A 
ATOM     46  C   UNL A   1      43.965  31.990  30.053  1.00  0.00     0.031 C 
ATOM     47  C   UNL A   1      41.389  26.033  27.837  1.00  0.00     0.029 A 
ATOM     48  C   UNL A   1      42.847  26.124  27.829  1.00  0.00     0.049 A 
ATOM     49  H   UNL A   1      43.985  27.828  28.239  1.00  0.00     0.167 HD
ATOM     50  C   UNL A   1      46.264  31.307  29.441  1.00  0.00     0.031 A 
ATOM     51  C   UNL A   1      43.698  25.129  27.491  1.00  0.00     0.031 A 
ATOM     52  C   UNL A   1      47.229  30.409  28.865  1.00  0.00     0.049 A 
ATOM     53  C   UNL A   1      45.165  25.459  27.336  1.00  0.00     0.074 A 
ATOM     54  C   UNL A   1      48.576  30.627  28.632  1.00  0.00     0.029 A 
ATOM     55  N   UNL A   1      46.947  29.133  28.400  1.00  0.00    -0.354 N 
ATOM     56  N   UNL A   1      45.804  26.556  27.662  1.00  0.00    -0.248 NA
ATOM     57  C   UNL A   1      46.012  24.440  26.695  1.00  0.00     0.031 C 
ATOM     58  C   UNL A   1      49.093  29.510  27.967  1.00  0.00     0.029 A 
ATOM     59  C   UNL A   1      48.088  28.563  27.858  1.00  0.00     0.049 A 
ATOM     60  H   UNL A   1      46.066  28.696  28.448  1.00  0.00     0.167 HD
ATOM     61  C   UNL A   1      47.120  26.368  27.247  1.00  0.00     0.074 A 
ATOM     62  C   UNL A   1      47.198  25.033  26.693  1.00  0.00     0.031 C 
ATOM     63  C   UNL A   1      48.161  27.235  27.298  1.00  0.00     0.031 A 
BRANCH  50  64
ATOM     64  C   UNL A   1      46.701  32.691  29.832  1.00  0.00    -0.014 A 
ATOM     65  C   UNL A   1      46.518  33.789  28.970  1.00  0.00     0.010 A 
ATOM     66  C   UNL A   1      47.362  32.883  31.060  1.00  0.00     0.010 A 
ATOM     67  C   UNL A   1      47.053  35.036  29.299  1.00  0.00     0.020 A 
ATOM     68  C   UNL A   1      47.868  34.137  31.406  1.00  0.00     0.020 A 
ATOM     69  C   UNL A   1      47.735  35.199  30.510  1.00  0.00     0.054 A 
BRANCH  69  70
ATOM     70  S   UNL A   1      48.455  36.818  30.892  1.00  0.00     0.124 S 
ATOM     71  O   UNL A   1      47.534  37.724  30.209  1.00  0.00    -0.237 OA
ATOM     72  O   UNL A   1      48.402  36.854  32.352  1.00  0.00    -0.237 OA
ATOM     73  O   UNL A   1      49.796  36.745  30.321  1.00  0.00    -0.744 OA
ENDBRANCH  69  70
ENDBRANCH  50  64
BRANCH  51  74
ATOM     74  C   UNL A   1      43.217  23.738  27.192  1.00  0.00    -0.014 A 
ATOM     75  C   UNL A   1      43.046  22.797  28.230  1.00  0.00     0.010 A 
ATOM     76  C   UNL A   1      42.976  23.319  25.872  1.00  0.00     0.010 A 
ATOM     77  C   UNL A   1      42.654  21.480  27.953  1.00  0.00     0.020 A 
ATOM     78  C   UNL A   1      42.542  22.019  25.593  1.00  0.00     0.020 A 
ATOM     79  C   UNL A   1      42.395  21.102  26.634  1.00  0.00     0.054 A 
BRANCH  79  80
ATOM     80  S   UNL A   1      41.831  19.408  26.291  1.00  0.00     0.124 S 
ATOM     81  O   UNL A   1      42.536  19.098  25.051  1.00  0.00    -0.237 OA
ATOM     82  O   UNL A   1      42.281  18.679  27.474  1.00  0.00    -0.237 OA
ATOM     83  O   UNL A   1      40.382  19.550  26.169  1.00  0.00    -0.744 OA
ENDBRANCH  79  80
ENDBRANCH  51  74
BRANCH  63  84
ATOM     84  C   UNL A   1      49.491  26.769  26.761  1.00  0.00    -0.014 A 
ATOM     85  C   UNL A   1      49.852  26.968  25.415  1.00  0.00     0.010 A 
ATOM     86  C   UNL A   1      50.424  26.184  27.636  1.00  0.00     0.010 A 
ATOM     87  C   UNL A   1      51.109  26.566  24.952  1.00  0.00     0.020 A 
ATOM     88  C   UNL A   1      51.691  25.807  27.184  1.00  0.00     0.020 A 
ATOM     89  C   UNL A   1      52.022  25.991  25.841  1.00  0.00     0.054 A 
BRANCH  89  90
ATOM     90  S   UNL A   1      53.666  25.524  25.228  1.00  0.00     0.124 S 
ATOM     91  O   UNL A   1      53.997  26.646  24.354  1.00  0.00    -0.237 OA
ATOM     92  O   UNL A   1      54.450  25.430  26.457  1.00  0.00    -0.237 OA
ATOM     93  O   UNL A   1      53.434  24.252  24.546  1.00  0.00    -0.744 OA
ENDBRANCH  89  90
ENDBRANCH  63  84
ENDBRANCH  37  38
ENDBRANCH  30  32
ENDBRANCH  29  30
ENDBRANCH  28  29
ENDBRANCH  27  28
ENDBRANCH  26  27
ENDBRANCH   1  26
TORSDOF 22
ENDMDL
MODEL 3
REMARK VINA RESULT:      -8.5      6.306      8.769
REMARK SMILES CC1(C)CCSC[C@@]1(Nc1ccccc1Br)C(=O)OCCOCCOCCOC(=O)c1ccc(-c2c3nc(c(-c4ccc(S(=O)(=O)[O-])cc4)c4ccc([nH]4)c(-c4ccc(S(=O)(=O)[O-])cc4)c4nc(c(-c5ccc(S(=O)(=O)[O-])cc5)c5ccc2[nH]5)C=C4)C=C3)cc1
REMARK SMILES IDX 24 1 23 2 22 3 21 4 20 5 19 6 17 7 18 8 8 9 1 10 2 11 3 12
REMARK SMILES IDX 4 13 5 14 7 15 6 16 9 17 10 19 11 20 15 21 12 22 14 23 16 24
REMARK SMILES IDX 13 25 25 26 26 27 27 28 28 29 29 30 30 31 31 32 32 33 90 34
REMARK SMILES IDX 33 35 89 36 34 37 35 38 36 39 83 40 37 41 88 42 82 43 84 44
REMARK SMILES IDX 38 45 87 46 81 47 80 48 39 50 69 51 50 52 68 53 51 54 54 55
REMARK SMILES IDX 67 56 85 57 52 58 53 59 66 61 86 62 55 63 40 64 41 65 49 66
REMARK SMILES IDX 42 67 48 68 43 69 44 70 45 71 46 72 47 73 70 74 71 75 79 76
REMARK SMILES IDX 72 77 78 78 73 79 74 80 75 81 76 82 77 83 56 84 57 85 65 86
REMARK SMILES IDX 58 87 64 88 59 89 60 90 61 91 62 92 63 93
REMARK H PARENT 9 18 84 49 54 60
REMARK Flexibility Score: inf
ROOT
ATOM      1  C   UNL A   1      35.033  31.913  27.810  1.00  0.00     0.188 C 
ENDROOT
BRANCH   1   2
ATOM      2  C   UNL A   1      33.670  31.274  27.606  1.00  0.00     0.188 C 
BRANCH   2   3
ATOM      3  O   UNL A   1      33.598  29.854  27.529  1.00  0.00    -0.376 OA
BRANCH   3   4
ATOM      4  C   UNL A   1      32.398  29.371  26.892  1.00  0.00     0.202 C 
BRANCH   4   5
ATOM      5  C   UNL A   1      31.665  28.164  27.523  1.00  0.00     0.261 C 
BRANCH   5   6
ATOM      6  O   UNL A   1      31.710  26.954  26.733  1.00  0.00    -0.461 OA
BRANCH   6   7
ATOM      7  C   UNL A   1      32.781  26.687  25.935  1.00  0.00     0.333 C 
ATOM      8  O   UNL A   1      33.934  26.875  26.300  1.00  0.00    -0.249 OA
BRANCH   7   9
ATOM      9  C   UNL A   1      32.338  26.089  24.528  1.00  0.00     0.150 C 
ATOM     10  C   UNL A   1      32.548  28.475  23.495  1.00  0.00     0.014 C 
ATOM     11  C   UNL A   1      31.665  27.205  23.580  1.00  0.00     0.000 C 
ATOM     12  C   UNL A   1      30.257  27.689  24.038  1.00  0.00     0.014 C 
ATOM     13  C   UNL A   1      31.443  26.647  22.142  1.00  0.00     0.020 C 
ATOM     14  C   UNL A   1      32.698  26.273  21.375  1.00  0.00     0.070 C 
ATOM     15  C   UNL A   1      33.674  25.572  23.896  1.00  0.00     0.110 C 
ATOM     16  S   UNL A   1      33.644  24.967  22.168  1.00  0.00    -0.159 SA
BRANCH   9  17
ATOM     17  N   UNL A   1      31.319  24.971  24.716  1.00  0.00    -0.368 N 
ATOM     18  H   UNL A   1      30.403  25.213  24.986  1.00  0.00     0.161 HD
BRANCH  17  19
ATOM     19  C   UNL A   1      31.625  23.620  24.522  1.00  0.00     0.049 A 
ATOM     20  C   UNL A   1      31.310  23.053  23.270  1.00  0.00     0.027 A 
ATOM     21  C   UNL A   1      32.342  22.821  25.417  1.00  0.00     0.041 A 
ATOM     22  C   UNL A   1      31.786  21.798  22.885  1.00  0.00     0.002 A 
ATOM     23  C   UNL A   1      32.866  21.599  25.008  1.00  0.00     0.018 A 
ATOM     24  Br  UNL A   1      32.534  23.189  27.261  1.00  0.00    -0.049 Br
ATOM     25  C   UNL A   1      32.597  21.080  23.747  1.00  0.00     0.001 A 
ENDBRANCH  17  19
ENDBRANCH   9  17
ENDBRANCH   7   9
ENDBRANCH   6   7
ENDBRANCH   5   6
ENDBRANCH   4   5
ENDBRANCH   3   4
ENDBRANCH   2   3
ENDBRANCH   1   2
BRANCH   1  26
ATOM     26  O   UNL A   1      35.051  33.309  27.551  1.00  0.00    -0.376 OA
BRANCH  26  27
ATOM     27  C   UNL A   1      35.160  34.083  28.736  1.00  0.00     0.202 C 
BRANCH  27  28
ATOM     28  C   UNL A   1      33.971  35.021  28.989  1.00  0.00     0.261 C 
BRANCH  28  29
ATOM     29  O   UNL A   1      33.062  34.596  30.028  1.00  0.00    -0.460 OA
BRANCH  29  30
ATOM     30  C   UNL A   1      33.201  35.230  31.228  1.00  0.00     0.338 C 
ATOM     31  O   UNL A   1      32.527  36.159  31.630  1.00  0.00    -0.246 OA
BRANCH  30  32
ATOM     32  C   UNL A   1      34.268  34.591  32.055  1.00  0.00     0.060 A 
ATOM     33  C   UNL A   1      35.382  35.360  32.407  1.00  0.00     0.016 A 
ATOM     34  C   UNL A   1      34.235  33.239  32.418  1.00  0.00     0.016 A 
ATOM     35  C   UNL A   1      36.455  34.777  33.097  1.00  0.00     0.010 A 
ATOM     36  C   UNL A   1      35.320  32.654  33.101  1.00  0.00     0.010 A 
ATOM     37  C   UNL A   1      36.450  33.412  33.441  1.00  0.00    -0.014 A 
BRANCH  37  38
ATOM     38  C   UNL A   1      37.697  32.794  33.996  1.00  0.00     0.031 A 
ATOM     39  C   UNL A   1      38.575  31.999  33.071  1.00  0.00     0.074 A 
ATOM     40  C   UNL A   1      38.105  32.964  35.272  1.00  0.00     0.049 A 
ATOM     41  N   UNL A   1      39.757  31.481  33.291  1.00  0.00    -0.248 NA
ATOM     42  C   UNL A   1      38.024  31.718  31.738  1.00  0.00     0.031 C 
ATOM     43  C   UNL A   1      37.338  33.636  36.307  1.00  0.00     0.029 A 
ATOM     44  N   UNL A   1      39.293  32.653  35.901  1.00  0.00    -0.354 N 
ATOM     45  C   UNL A   1      40.078  30.782  32.136  1.00  0.00     0.074 A 
ATOM     46  C   UNL A   1      38.977  30.966  31.211  1.00  0.00     0.031 C 
ATOM     47  C   UNL A   1      38.132  33.868  37.368  1.00  0.00     0.029 A 
ATOM     48  C   UNL A   1      39.426  33.227  37.152  1.00  0.00     0.049 A 
ATOM     49  H   UNL A   1      39.982  32.077  35.497  1.00  0.00     0.167 HD
ATOM     50  C   UNL A   1      41.159  30.008  31.882  1.00  0.00     0.031 A 
ATOM     51  C   UNL A   1      40.460  33.223  38.025  1.00  0.00     0.031 A 
ATOM     52  C   UNL A   1      42.207  29.733  32.828  1.00  0.00     0.049 A 
ATOM     53  C   UNL A   1      41.647  32.336  37.728  1.00  0.00     0.074 A 
ATOM     54  C   UNL A   1      43.305  28.903  32.679  1.00  0.00     0.029 A 
ATOM     55  N   UNL A   1      42.274  30.254  34.112  1.00  0.00    -0.354 N 
ATOM     56  N   UNL A   1      41.934  31.677  36.631  1.00  0.00    -0.248 NA
ATOM     57  C   UNL A   1      42.614  32.131  38.819  1.00  0.00     0.031 C 
ATOM     58  C   UNL A   1      43.998  28.871  33.894  1.00  0.00     0.029 A 
ATOM     59  C   UNL A   1      43.379  29.743  34.774  1.00  0.00     0.049 A 
ATOM     60  H   UNL A   1      41.631  30.893  34.496  1.00  0.00     0.167 HD
ATOM     61  C   UNL A   1      43.099  30.966  36.908  1.00  0.00     0.074 A 
ATOM     62  C   UNL A   1      43.493  31.313  38.257  1.00  0.00     0.031 C 
ATOM     63  C   UNL A   1      43.765  30.084  36.122  1.00  0.00     0.031 A 
BRANCH  50  64
ATOM     64  C   UNL A   1      41.179  29.310  30.550  1.00  0.00    -0.014 A 
ATOM     65  C   UNL A   1      40.392  28.169  30.308  1.00  0.00     0.010 A 
ATOM     66  C   UNL A   1      42.051  29.771  29.546  1.00  0.00     0.010 A 
ATOM     67  C   UNL A   1      40.529  27.462  29.112  1.00  0.00     0.020 A 
ATOM     68  C   UNL A   1      42.165  29.085  28.335  1.00  0.00     0.020 A 
ATOM     69  C   UNL A   1      41.424  27.918  28.138  1.00  0.00     0.054 A 
BRANCH  69  70
ATOM     70  S   UNL A   1      41.613  26.958  26.612  1.00  0.00     0.124 S 
ATOM     71  O   UNL A   1      42.752  26.103  26.936  1.00  0.00    -0.237 OA
ATOM     72  O   UNL A   1      40.327  26.275  26.503  1.00  0.00    -0.237 OA
ATOM     73  O   UNL A   1      41.866  27.973  25.593  1.00  0.00    -0.744 OA
ENDBRANCH  69  70
ENDBRANCH  50  64
BRANCH  51  74
ATOM     74  C   UNL A   1      40.423  34.008  39.304  1.00  0.00    -0.014 A 
ATOM     75  C   UNL A   1      39.855  33.455  40.472  1.00  0.00     0.010 A 
ATOM     76  C   UNL A   1      40.901  35.329  39.361  1.00  0.00     0.010 A 
ATOM     77  C   UNL A   1      39.764  34.203  41.654  1.00  0.00     0.020 A 
ATOM     78  C   UNL A   1      40.852  36.066  40.550  1.00  0.00     0.020 A 
ATOM     79  C   UNL A   1      40.272  35.504  41.687  1.00  0.00     0.054 A 
BRANCH  79  80
ATOM     80  S   UNL A   1      40.201  36.445  43.240  1.00  0.00     0.124 S 
ATOM     81  O   UNL A   1      39.225  35.683  44.013  1.00  0.00    -0.237 OA
ATOM     82  O   UNL A   1      41.580  36.375  43.717  1.00  0.00    -0.237 OA
ATOM     83  O   UNL A   1      39.763  37.772  42.815  1.00  0.00    -0.744 OA
ENDBRANCH  79  80
ENDBRANCH  51  74
BRANCH  63  84
ATOM     84  C   UNL A   1      45.007  29.440  36.683  1.00  0.00    -0.014 A 
ATOM     85  C   UNL A   1      46.265  30.065  36.594  1.00  0.00     0.010 A 
ATOM     86  C   UNL A   1      44.901  28.219  37.375  1.00  0.00     0.010 A 
ATOM     87  C   UNL A   1      47.395  29.467  37.162  1.00  0.00     0.020 A 
ATOM     88  C   UNL A   1      46.023  27.633  37.968  1.00  0.00     0.020 A 
ATOM     89  C   UNL A   1      47.266  28.256  37.848  1.00  0.00     0.054 A 
BRANCH  89  90
ATOM     90  S   UNL A   1      48.737  27.526  38.621  1.00  0.00     0.124 S 
ATOM     91  O   UNL A   1      48.360  27.497  40.031  1.00  0.00    -0.237 OA
ATOM     92  O   UNL A   1      48.829  26.224  37.967  1.00  0.00    -0.237 OA
ATOM     93  O   UNL A   1      49.808  28.463  38.283  1.00  0.00    -0.744 OA
ENDBRANCH  89  90
ENDBRANCH  63  84
ENDBRANCH  37  38
ENDBRANCH  30  32
ENDBRANCH  29  30
ENDBRANCH  28  29
ENDBRANCH  27  28
ENDBRANCH  26  27
ENDBRANCH   1  26
TORSDOF 22
ENDMDL
