MODEL 1
REMARK VINA RESULT:     -11.3      0.000      0.000
REMARK SMILES Cc1cc(S(F)(F)(F)(F)F)cc2c1O[C@H](C(F)(F)F)C(C(=O)OCCOCCOCCOC(=O)c1ccc(-c3c4nc(c(-c5ccc(S(=O)(=O)[O-])cc5)c5ccc([nH]5)c(-c5ccc(S(=O)(=O)[O-])cc5)c5nc(c(-c6ccc(S(=O)(=O)[O-])cc6)c6ccc3[nH]6)C=C5)C=C4)cc1)=C2
REMARK SMILES IDX 28 1 27 2 26 3 25 4 24 5 23 6 21 7 22 8 20 9 1 10 2 11 3 12
REMARK SMILES IDX 13 13 4 14 12 15 14 16 11 17 95 18 15 19 5 20 6 21 7 22 8 23
REMARK SMILES IDX 9 24 10 25 16 26 17 27 18 28 19 29 29 30 30 31 31 32 32 33
REMARK SMILES IDX 33 34 34 35 35 36 36 37 94 38 37 39 93 40 38 41 39 42 40 43
REMARK SMILES IDX 87 44 41 45 92 46 86 47 88 48 42 49 91 50 85 51 84 52 43 54
REMARK SMILES IDX 73 55 54 56 72 57 55 58 58 59 71 60 89 61 56 62 57 63 70 65
REMARK SMILES IDX 90 66 59 67 44 68 45 69 53 70 46 71 52 72 47 73 48 74 49 75
REMARK SMILES IDX 50 76 51 77 74 78 75 79 83 80 76 81 82 82 77 83 78 84 79 85
REMARK SMILES IDX 80 86 81 87 60 88 61 89 69 90 62 91 68 92 63 93 64 94 65 95
REMARK SMILES IDX 66 96 67 97
REMARK H PARENT 88 53 58 64
REMARK Flexibility Score: inf
ROOT
ATOM      1  C   UNL A   1      32.171  29.760  25.584  1.00  0.00     0.188 C 
ENDROOT
BRANCH   1   2
ATOM      2  C   UNL A   1      32.042  29.275  24.149  1.00  0.00     0.188 C 
BRANCH   2   3
ATOM      3  O   UNL A   1      30.668  29.146  23.815  1.00  0.00    -0.376 OA
BRANCH   3   4
ATOM      4  C   UNL A   1      30.298  27.776  23.858  1.00  0.00     0.202 C 
BRANCH   4   5
ATOM      5  C   UNL A   1      30.686  27.106  22.550  1.00  0.00     0.261 C 
BRANCH   5   6
ATOM      6  O   UNL A   1      31.658  26.103  22.803  1.00  0.00    -0.460 OA
BRANCH   6   7
ATOM      7  C   UNL A   1      31.250  24.792  23.164  1.00  0.00     0.338 C 
ATOM      8  O   UNL A   1      30.024  24.465  23.090  1.00  0.00    -0.246 OA
BRANCH   7   9
ATOM      9  C   UNL A   1      32.278  23.780  23.641  1.00  0.00     0.087 C 
ATOM     10  C   UNL A   1      36.533  21.396  25.441  1.00  0.00     0.048 C 
ATOM     11  C   UNL A   1      35.139  21.025  24.962  1.00  0.00    -0.007 A 
ATOM     12  C   UNL A   1      34.843  19.681  24.886  1.00  0.00     0.031 A 
ATOM     13  C   UNL A   1      34.198  21.958  24.527  1.00  0.00     0.130 A 
ATOM     14  C   UNL A   1      33.626  19.249  24.377  1.00  0.00     0.108 A 
ATOM     15  C   UNL A   1      32.958  21.515  24.015  1.00  0.00     0.019 A 
ATOM     16  O   UNL A   1      34.452  23.403  24.582  1.00  0.00    -0.475 OA
ATOM     17  C   UNL A   1      32.687  20.146  23.951  1.00  0.00     0.036 A 
ATOM     18  C   UNL A   1      31.989  22.515  23.565  1.00  0.00     0.027 C 
ATOM     19  C   UNL A   1      33.494  24.247  24.142  1.00  0.00     0.316 C 
BRANCH  14  20
ATOM     20  S   UNL A   1      33.277  17.476  24.278  1.00  0.00     0.310 S 
ATOM     21  F   UNL A   1      34.536  17.025  25.132  1.00  0.00    -0.094 F 
ATOM     22  F   UNL A   1      34.219  17.476  23.016  1.00  0.00    -0.094 F 
ATOM     23  F   UNL A   1      32.954  15.969  24.073  1.00  0.00    -0.094 F 
ATOM     24  F   UNL A   1      32.451  17.461  25.625  1.00  0.00    -0.094 F 
ATOM     25  F   UNL A   1      33.685  18.976  24.564  1.00  0.00    -0.094 F 
ENDBRANCH  14  20
BRANCH  19  26
ATOM     26  C   UNL A   1      33.069  24.947  25.422  1.00  0.00     0.430 C 
ATOM     27  F   UNL A   1      33.821  24.520  26.432  1.00  0.00    -0.167 F 
ATOM     28  F   UNL A   1      33.222  26.260  25.279  1.00  0.00    -0.167 F 
ATOM     29  F   UNL A   1      31.792  24.675  25.673  1.00  0.00    -0.167 F 
ENDBRANCH  19  26
ENDBRANCH   7   9
ENDBRANCH   6   7
ENDBRANCH   5   6
ENDBRANCH   4   5
ENDBRANCH   3   4
ENDBRANCH   2   3
ENDBRANCH   1   2
BRANCH   1  30
ATOM     30  O   UNL A   1      33.529  30.073  25.857  1.00  0.00    -0.376 OA
BRANCH  30  31
ATOM     31  C   UNL A   1      33.734  30.100  27.262  1.00  0.00     0.202 C 
BRANCH  31  32
ATOM     32  C   UNL A   1      34.925  29.225  27.617  1.00  0.00     0.261 C 
BRANCH  32  33
ATOM     33  O   UNL A   1      36.034  30.048  27.949  1.00  0.00    -0.460 OA
BRANCH  33  34
ATOM     34  C   UNL A   1      36.991  29.600  28.898  1.00  0.00     0.338 C 
ATOM     35  O   UNL A   1      36.629  29.324  30.084  1.00  0.00    -0.246 OA
BRANCH  34  36
ATOM     36  C   UNL A   1      38.449  29.449  28.493  1.00  0.00     0.060 A 
ATOM     37  C   UNL A   1      39.424  29.647  29.464  1.00  0.00     0.016 A 
ATOM     38  C   UNL A   1      38.835  29.158  27.269  1.00  0.00     0.016 A 
ATOM     39  C   UNL A   1      40.680  29.046  29.228  1.00  0.00     0.010 A 
ATOM     40  C   UNL A   1      40.195  29.059  26.952  1.00  0.00     0.010 A 
ATOM     41  C   UNL A   1      41.105  29.002  27.902  1.00  0.00    -0.014 A 
BRANCH  41  42
ATOM     42  C   UNL A   1      42.581  28.890  27.559  1.00  0.00     0.031 A 
ATOM     43  C   UNL A   1      42.986  27.627  27.124  1.00  0.00     0.074 A 
ATOM     44  C   UNL A   1      43.442  29.960  27.737  1.00  0.00     0.049 A 
ATOM     45  N   UNL A   1      44.216  27.240  26.781  1.00  0.00    -0.248 NA
ATOM     46  C   UNL A   1      42.079  26.480  26.968  1.00  0.00     0.031 C 
ATOM     47  C   UNL A   1      43.040  31.240  28.167  1.00  0.00     0.029 A 
ATOM     48  N   UNL A   1      44.804  29.990  27.540  1.00  0.00    -0.354 N 
ATOM     49  C   UNL A   1      44.206  25.961  26.399  1.00  0.00     0.074 A 
ATOM     50  C   UNL A   1      42.833  25.452  26.520  1.00  0.00     0.031 C 
ATOM     51  C   UNL A   1      44.146  32.026  28.239  1.00  0.00     0.029 A 
ATOM     52  C   UNL A   1      45.257  31.253  27.854  1.00  0.00     0.049 A 
ATOM     53  H   UNL A   1      45.359  29.239  27.227  1.00  0.00     0.167 HD
ATOM     54  C   UNL A   1      45.288  25.200  25.953  1.00  0.00     0.031 A 
ATOM     55  C   UNL A   1      46.561  31.721  27.817  1.00  0.00     0.031 A 
ATOM     56  C   UNL A   1      46.586  25.682  25.876  1.00  0.00     0.049 A 
ATOM     57  C   UNL A   1      47.653  30.942  27.427  1.00  0.00     0.074 A 
ATOM     58  C   UNL A   1      47.687  24.930  25.422  1.00  0.00     0.029 A 
ATOM     59  N   UNL A   1      47.042  26.936  26.214  1.00  0.00    -0.354 N 
ATOM     60  N   UNL A   1      47.638  29.676  27.009  1.00  0.00    -0.248 NA
ATOM     61  C   UNL A   1      49.043  31.417  27.414  1.00  0.00     0.031 C 
ATOM     62  C   UNL A   1      48.793  25.717  25.494  1.00  0.00     0.029 A 
ATOM     63  C   UNL A   1      48.401  26.973  25.996  1.00  0.00     0.049 A 
ATOM     64  H   UNL A   1      46.492  27.678  26.553  1.00  0.00     0.167 HD
ATOM     65  C   UNL A   1      48.874  29.276  26.705  1.00  0.00     0.074 A 
ATOM     66  C   UNL A   1      49.797  30.389  26.969  1.00  0.00     0.031 C 
ATOM     67  C   UNL A   1      49.270  28.031  26.215  1.00  0.00     0.031 A 
BRANCH  54  68
ATOM     68  C   UNL A   1      45.030  23.763  25.532  1.00  0.00    -0.014 A 
ATOM     69  C   UNL A   1      44.705  23.446  24.217  1.00  0.00     0.010 A 
ATOM     70  C   UNL A   1      45.117  22.785  26.407  1.00  0.00     0.010 A 
ATOM     71  C   UNL A   1      44.985  22.125  23.799  1.00  0.00     0.020 A 
ATOM     72  C   UNL A   1      44.879  21.459  26.026  1.00  0.00     0.020 A 
ATOM     73  C   UNL A   1      44.815  21.126  24.755  1.00  0.00     0.054 A 
BRANCH  73  74
ATOM     74  S   UNL A   1      44.513  19.411  24.260  1.00  0.00     0.124 S 
ATOM     75  O   UNL A   1      43.160  18.952  24.810  1.00  0.00    -0.237 OA
ATOM     76  O   UNL A   1      44.503  19.315  22.733  1.00  0.00    -0.237 OA
ATOM     77  O   UNL A   1      45.751  18.411  24.886  1.00  0.00    -0.744 OA
ENDBRANCH  73  74
ENDBRANCH  54  68
BRANCH  55  78
ATOM     78  C   UNL A   1      46.817  33.162  28.224  1.00  0.00    -0.014 A 
ATOM     79  C   UNL A   1      46.727  34.198  27.300  1.00  0.00     0.010 A 
ATOM     80  C   UNL A   1      47.141  33.459  29.465  1.00  0.00     0.010 A 
ATOM     81  C   UNL A   1      46.486  35.489  27.820  1.00  0.00     0.020 A 
ATOM     82  C   UNL A   1      47.396  34.782  29.842  1.00  0.00     0.020 A 
ATOM     83  C   UNL A   1      47.079  35.782  29.047  1.00  0.00     0.054 A 
BRANCH  83  84
ATOM     84  S   UNL A   1      47.405  37.494  29.535  1.00  0.00     0.124 S 
ATOM     85  O   UNL A   1      48.778  37.922  29.010  1.00  0.00    -0.237 OA
ATOM     86  O   UNL A   1      46.327  38.406  28.946  1.00  0.00    -0.237 OA
ATOM     87  O   UNL A   1      47.383  37.615  31.240  1.00  0.00    -0.744 OA
ENDBRANCH  83  84
ENDBRANCH  55  78
BRANCH  67  88
ATOM     88  C   UNL A   1      50.743  27.822  25.902  1.00  0.00    -0.014 A 
ATOM     89  C   UNL A   1      51.547  27.219  26.864  1.00  0.00     0.010 A 
ATOM     90  C   UNL A   1      51.297  28.195  24.769  1.00  0.00     0.010 A 
ATOM     91  C   UNL A   1      52.729  26.600  26.400  1.00  0.00     0.020 A 
ATOM     92  C   UNL A   1      52.663  27.998  24.541  1.00  0.00     0.020 A 
ATOM     93  C   UNL A   1      53.373  27.220  25.331  1.00  0.00     0.054 A 
BRANCH  93  94
ATOM     94  S   UNL A   1      55.139  26.961  25.035  1.00  0.00     0.124 S 
ATOM     95  O   UNL A   1      55.449  25.463  25.080  1.00  0.00    -0.237 OA
ATOM     96  O   UNL A   1      55.513  27.518  23.661  1.00  0.00    -0.237 OA
ATOM     97  O   UNL A   1      56.044  27.765  26.243  1.00  0.00    -0.744 OA
ENDBRANCH  93  94
ENDBRANCH  67  88
ENDBRANCH  41  42
ENDBRANCH  34  36
ENDBRANCH  33  34
ENDBRANCH  32  33
ENDBRANCH  31  32
ENDBRANCH  30  31
ENDBRANCH   1  30
TORSDOF 22
ENDMDL
MODEL 2
REMARK VINA RESULT:     -11.2      1.196      7.863
REMARK SMILES Cc1cc(S(F)(F)(F)(F)F)cc2c1O[C@H](C(F)(F)F)C(C(=O)OCCOCCOCCOC(=O)c1ccc(-c3c4nc(c(-c5ccc(S(=O)(=O)[O-])cc5)c5ccc([nH]5)c(-c5ccc(S(=O)(=O)[O-])cc5)c5nc(c(-c6ccc(S(=O)(=O)[O-])cc6)c6ccc3[nH]6)C=C5)C=C4)cc1)=C2
REMARK SMILES IDX 28 1 27 2 26 3 25 4 24 5 23 6 21 7 22 8 20 9 1 10 2 11 3 12
REMARK SMILES IDX 13 13 4 14 12 15 14 16 11 17 95 18 15 19 5 20 6 21 7 22 8 23
REMARK SMILES IDX 9 24 10 25 16 26 17 27 18 28 19 29 29 30 30 31 31 32 32 33
REMARK SMILES IDX 33 34 34 35 35 36 36 37 94 38 37 39 93 40 38 41 39 42 40 43
REMARK SMILES IDX 87 44 41 45 92 46 86 47 88 48 42 49 91 50 85 51 84 52 43 54
REMARK SMILES IDX 73 55 54 56 72 57 55 58 58 59 71 60 89 61 56 62 57 63 70 65
REMARK SMILES IDX 90 66 59 67 44 68 45 69 53 70 46 71 52 72 47 73 48 74 49 75
REMARK SMILES IDX 50 76 51 77 74 78 75 79 83 80 76 81 82 82 77 83 78 84 79 85
REMARK SMILES IDX 80 86 81 87 60 88 61 89 69 90 62 91 68 92 63 93 64 94 65 95
REMARK SMILES IDX 66 96 67 97
REMARK H PARENT 88 53 58 64
REMARK Flexibility Score: inf
ROOT
ATOM      1  C   UNL A   1      32.046  29.856  25.912  1.00  0.00     0.188 C 
ENDROOT
BRANCH   1   2
ATOM      2  C   UNL A   1      31.918  29.405  24.467  1.00  0.00     0.188 C 
BRANCH   2   3
ATOM      3  O   UNL A   1      30.631  28.843  24.258  1.00  0.00    -0.376 OA
BRANCH   3   4
ATOM      4  C   UNL A   1      30.736  27.428  24.203  1.00  0.00     0.202 C 
BRANCH   4   5
ATOM      5  C   UNL A   1      30.931  26.991  22.760  1.00  0.00     0.261 C 
BRANCH   5   6
ATOM      6  O   UNL A   1      31.824  25.890  22.716  1.00  0.00    -0.460 OA
BRANCH   6   7
ATOM      7  C   UNL A   1      31.393  24.607  23.145  1.00  0.00     0.338 C 
ATOM      8  O   UNL A   1      30.155  24.320  23.145  1.00  0.00    -0.246 OA
BRANCH   7   9
ATOM      9  C   UNL A   1      32.411  23.576  23.606  1.00  0.00     0.087 C 
ATOM     10  C   UNL A   1      36.664  21.114  25.301  1.00  0.00     0.048 C 
ATOM     11  C   UNL A   1      35.243  20.771  24.880  1.00  0.00    -0.007 A 
ATOM     12  C   UNL A   1      34.910  19.435  24.842  1.00  0.00     0.031 A 
ATOM     13  C   UNL A   1      34.312  21.721  24.460  1.00  0.00     0.130 A 
ATOM     14  C   UNL A   1      33.664  19.027  24.386  1.00  0.00     0.108 A 
ATOM     15  C   UNL A   1      33.043  21.302  24.002  1.00  0.00     0.019 A 
ATOM     16  O   UNL A   1      34.606  23.159  24.476  1.00  0.00    -0.475 OA
ATOM     17  C   UNL A   1      32.734  19.940  23.976  1.00  0.00     0.036 A 
ATOM     18  C   UNL A   1      32.086  22.319  23.567  1.00  0.00     0.027 C 
ATOM     19  C   UNL A   1      33.656  24.020  24.053  1.00  0.00     0.316 C 
BRANCH  14  20
ATOM     20  S   UNL A   1      33.265  17.262  24.337  1.00  0.00     0.310 S 
ATOM     21  F   UNL A   1      34.472  16.807  25.261  1.00  0.00    -0.094 F 
ATOM     22  F   UNL A   1      34.260  17.186  23.118  1.00  0.00    -0.094 F 
ATOM     23  F   UNL A   1      32.905  15.758  24.172  1.00  0.00    -0.094 F 
ATOM     24  F   UNL A   1      32.382  17.321  25.645  1.00  0.00    -0.094 F 
ATOM     25  F   UNL A   1      33.707  18.759  24.585  1.00  0.00    -0.094 F 
ENDBRANCH  14  20
BRANCH  19  26
ATOM     26  C   UNL A   1      33.296  24.756  25.332  1.00  0.00     0.430 C 
ATOM     27  F   UNL A   1      33.529  26.057  25.176  1.00  0.00    -0.167 F 
ATOM     28  F   UNL A   1      32.008  24.567  25.605  1.00  0.00    -0.167 F 
ATOM     29  F   UNL A   1      34.034  24.291  26.335  1.00  0.00    -0.167 F 
ENDBRANCH  19  26
ENDBRANCH   7   9
ENDBRANCH   6   7
ENDBRANCH   5   6
ENDBRANCH   4   5
ENDBRANCH   3   4
ENDBRANCH   2   3
ENDBRANCH   1   2
BRANCH   1  30
ATOM     30  O   UNL A   1      33.372  30.307  26.151  1.00  0.00    -0.376 OA
BRANCH  30  31
ATOM     31  C   UNL A   1      33.565  30.488  27.546  1.00  0.00     0.202 C 
BRANCH  31  32
ATOM     32  C   UNL A   1      34.958  30.017  27.930  1.00  0.00     0.261 C 
BRANCH  32  33
ATOM     33  O   UNL A   1      35.501  30.891  28.909  1.00  0.00    -0.460 OA
BRANCH  33  34
ATOM     34  C   UNL A   1      36.342  30.377  29.931  1.00  0.00     0.338 C 
ATOM     35  O   UNL A   1      35.905  30.266  31.119  1.00  0.00    -0.246 OA
BRANCH  34  36
ATOM     36  C   UNL A   1      37.766  29.956  29.603  1.00  0.00     0.060 A 
ATOM     37  C   UNL A   1      38.049  29.557  28.301  1.00  0.00     0.016 A 
ATOM     38  C   UNL A   1      38.738  29.933  30.489  1.00  0.00     0.016 A 
ATOM     39  C   UNL A   1      39.399  29.646  27.894  1.00  0.00     0.010 A 
ATOM     40  C   UNL A   1      40.023  29.510  30.132  1.00  0.00     0.010 A 
ATOM     41  C   UNL A   1      40.357  29.367  28.867  1.00  0.00    -0.014 A 
BRANCH  41  42
ATOM     42  C   UNL A   1      41.753  28.911  28.478  1.00  0.00     0.031 A 
ATOM     43  C   UNL A   1      42.709  29.927  28.436  1.00  0.00     0.074 A 
ATOM     44  C   UNL A   1      42.008  27.594  28.134  1.00  0.00     0.049 A 
ATOM     45  N   UNL A   1      43.998  29.820  28.106  1.00  0.00    -0.248 NA
ATOM     46  C   UNL A   1      42.432  31.333  28.766  1.00  0.00     0.031 C 
ATOM     47  C   UNL A   1      41.052  26.561  28.182  1.00  0.00     0.029 A 
ATOM     48  N   UNL A   1      43.194  27.050  27.696  1.00  0.00    -0.354 N 
ATOM     49  C   UNL A   1      44.599  31.008  28.203  1.00  0.00     0.074 A 
ATOM     50  C   UNL A   1      43.599  31.999  28.623  1.00  0.00     0.031 C 
ATOM     51  C   UNL A   1      41.650  25.414  27.767  1.00  0.00     0.029 A 
ATOM     52  C   UNL A   1      42.990  25.709  27.454  1.00  0.00     0.049 A 
ATOM     53  H   UNL A   1      44.043  27.535  27.576  1.00  0.00     0.167 HD
ATOM     54  C   UNL A   1      45.941  31.302  27.959  1.00  0.00     0.031 A 
ATOM     55  C   UNL A   1      43.906  24.782  26.986  1.00  0.00     0.031 A 
ATOM     56  C   UNL A   1      46.868  30.364  27.531  1.00  0.00     0.049 A 
ATOM     57  C   UNL A   1      45.236  25.088  26.685  1.00  0.00     0.074 A 
ATOM     58  C   UNL A   1      48.227  30.643  27.288  1.00  0.00     0.029 A 
ATOM     59  N   UNL A   1      46.657  29.030  27.266  1.00  0.00    -0.354 N 
ATOM     60  N   UNL A   1      45.846  26.267  26.819  1.00  0.00    -0.248 NA
ATOM     61  C   UNL A   1      46.207  24.121  26.157  1.00  0.00     0.031 C 
ATOM     62  C   UNL A   1      48.825  29.495  26.872  1.00  0.00     0.029 A 
ATOM     63  C   UNL A   1      47.849  28.480  26.849  1.00  0.00     0.049 A 
ATOM     64  H   UNL A   1      45.802  28.551  27.358  1.00  0.00     0.167 HD
ATOM     65  C   UNL A   1      47.124  26.168  26.450  1.00  0.00     0.074 A 
ATOM     66  C   UNL A   1      47.373  24.788  26.011  1.00  0.00     0.031 C 
ATOM     67  C   UNL A   1      48.094  27.171  26.464  1.00  0.00     0.031 A 
BRANCH  54  68
ATOM     68  C   UNL A   1      46.413  32.731  28.173  1.00  0.00    -0.014 A 
ATOM     69  C   UNL A   1      46.620  33.237  29.453  1.00  0.00     0.010 A 
ATOM     70  C   UNL A   1      46.643  33.519  27.145  1.00  0.00     0.010 A 
ATOM     71  C   UNL A   1      47.513  34.326  29.564  1.00  0.00     0.020 A 
ATOM     72  C   UNL A   1      47.076  34.836  27.335  1.00  0.00     0.020 A 
ATOM     73  C   UNL A   1      47.505  35.240  28.512  1.00  0.00     0.054 A 
BRANCH  73  74
ATOM     74  S   UNL A   1      48.071  36.942  28.758  1.00  0.00     0.124 S 
ATOM     75  O   UNL A   1      49.559  36.936  29.121  1.00  0.00    -0.237 OA
ATOM     76  O   UNL A   1      47.863  37.741  27.471  1.00  0.00    -0.237 OA
ATOM     77  O   UNL A   1      47.179  37.661  30.028  1.00  0.00    -0.744 OA
ENDBRANCH  73  74
ENDBRANCH  54  68
BRANCH  55  78
ATOM     78  C   UNL A   1      43.439  23.349  26.786  1.00  0.00    -0.014 A 
ATOM     79  C   UNL A   1      43.123  22.865  25.521  1.00  0.00     0.010 A 
ATOM     80  C   UNL A   1      43.314  22.537  27.814  1.00  0.00     0.010 A 
ATOM     81  C   UNL A   1      43.186  21.465  25.347  1.00  0.00     0.020 A 
ATOM     82  C   UNL A   1      42.866  21.223  27.639  1.00  0.00     0.020 A 
ATOM     83  C   UNL A   1      42.801  20.688  26.438  1.00  0.00     0.054 A 
BRANCH  83  84
ATOM     84  S   UNL A   1      42.226  18.987  26.211  1.00  0.00     0.124 S 
ATOM     85  O   UNL A   1      43.112  18.283  25.180  1.00  0.00    -0.237 OA
ATOM     86  O   UNL A   1      42.303  18.241  27.544  1.00  0.00    -0.237 OA
ATOM     87  O   UNL A   1      40.609  19.001  25.657  1.00  0.00    -0.744 OA
ENDBRANCH  83  84
ENDBRANCH  55  78
BRANCH  67  88
ATOM     88  C   UNL A   1      49.505  26.807  26.031  1.00  0.00    -0.014 A 
ATOM     89  C   UNL A   1      50.367  26.254  26.973  1.00  0.00     0.010 A 
ATOM     90  C   UNL A   1      49.955  27.001  24.810  1.00  0.00     0.010 A 
ATOM     91  C   UNL A   1      51.444  25.491  26.471  1.00  0.00     0.020 A 
ATOM     92  C   UNL A   1      51.271  26.667  24.471  1.00  0.00     0.020 A 
ATOM     93  C   UNL A   1      52.007  25.930  25.274  1.00  0.00     0.054 A 
BRANCH  93  94
ATOM     94  S   UNL A   1      53.708  25.494  24.834  1.00  0.00     0.124 S 
ATOM     95  O   UNL A   1      54.677  26.198  25.787  1.00  0.00    -0.237 OA
ATOM     96  O   UNL A   1      53.892  23.979  24.947  1.00  0.00    -0.237 OA
ATOM     97  O   UNL A   1      54.027  25.990  23.229  1.00  0.00    -0.744 OA
ENDBRANCH  93  94
ENDBRANCH  67  88
ENDBRANCH  41  42
ENDBRANCH  34  36
ENDBRANCH  33  34
ENDBRANCH  32  33
ENDBRANCH  31  32
ENDBRANCH  30  31
ENDBRANCH   1  30
TORSDOF 22
ENDMDL
MODEL 3
REMARK VINA RESULT:     -10.8      2.440      9.014
REMARK SMILES Cc1cc(S(F)(F)(F)(F)F)cc2c1O[C@H](C(F)(F)F)C(C(=O)OCCOCCOCCOC(=O)c1ccc(-c3c4nc(c(-c5ccc(S(=O)(=O)[O-])cc5)c5ccc([nH]5)c(-c5ccc(S(=O)(=O)[O-])cc5)c5nc(c(-c6ccc(S(=O)(=O)[O-])cc6)c6ccc3[nH]6)C=C5)C=C4)cc1)=C2
REMARK SMILES IDX 28 1 27 2 26 3 25 4 24 5 23 6 21 7 22 8 20 9 1 10 2 11 3 12
REMARK SMILES IDX 13 13 4 14 12 15 14 16 11 17 95 18 15 19 5 20 6 21 7 22 8 23
REMARK SMILES IDX 9 24 10 25 16 26 17 27 18 28 19 29 29 30 30 31 31 32 32 33
REMARK SMILES IDX 33 34 34 35 35 36 36 37 94 38 37 39 93 40 38 41 39 42 40 43
REMARK SMILES IDX 87 44 41 45 92 46 86 47 88 48 42 49 91 50 85 51 84 52 43 54
REMARK SMILES IDX 73 55 54 56 72 57 55 58 58 59 71 60 89 61 56 62 57 63 70 65
REMARK SMILES IDX 90 66 59 67 44 68 45 69 53 70 46 71 52 72 47 73 48 74 49 75
REMARK SMILES IDX 50 76 51 77 74 78 75 79 83 80 76 81 82 82 77 83 78 84 79 85
REMARK SMILES IDX 80 86 81 87 60 88 61 89 69 90 62 91 68 92 63 93 64 94 65 95
REMARK SMILES IDX 66 96 67 97
REMARK H PARENT 88 53 58 64
REMARK Flexibility Score: inf
ROOT
ATOM      1  C   UNL A   1      40.796  21.250  27.193  1.00  0.00     0.188 C 
ENDROOT
BRANCH   1   2
ATOM      2  C   UNL A   1      39.812  21.436  26.050  1.00  0.00     0.188 C 
BRANCH   2   3
ATOM      3  O   UNL A   1      38.841  22.406  26.413  1.00  0.00    -0.376 OA
BRANCH   3   4
ATOM      4  C   UNL A   1      37.794  22.409  25.454  1.00  0.00     0.202 C 
BRANCH   4   5
ATOM      5  C   UNL A   1      37.392  20.978  25.139  1.00  0.00     0.261 C 
BRANCH   5   6
ATOM      6  O   UNL A   1      36.046  20.953  24.689  1.00  0.00    -0.460 OA
BRANCH   6   7
ATOM      7  C   UNL A   1      35.036  21.621  25.430  1.00  0.00     0.338 C 
ATOM      8  O   UNL A   1      34.678  21.172  26.564  1.00  0.00    -0.246 OA
BRANCH   7   9
ATOM      9  C   UNL A   1      34.381  22.872  24.868  1.00  0.00     0.087 C 
ATOM     10  C   UNL A   1      32.080  26.422  21.847  1.00  0.00     0.048 C 
ATOM     11  C   UNL A   1      32.574  26.296  23.280  1.00  0.00    -0.007 A 
ATOM     12  C   UNL A   1      32.489  27.422  24.069  1.00  0.00     0.031 A 
ATOM     13  C   UNL A   1      33.172  25.145  23.792  1.00  0.00     0.130 A 
ATOM     14  C   UNL A   1      32.996  27.423  25.362  1.00  0.00     0.108 A 
ATOM     15  C   UNL A   1      33.682  25.149  25.109  1.00  0.00     0.019 A 
ATOM     16  O   UNL A   1      33.294  23.914  23.001  1.00  0.00    -0.475 OA
ATOM     17  C   UNL A   1      33.580  26.305  25.886  1.00  0.00     0.036 A 
ATOM     18  C   UNL A   1      34.305  23.928  25.621  1.00  0.00     0.027 C 
ATOM     19  C   UNL A   1      33.887  22.839  23.563  1.00  0.00     0.316 C 
BRANCH  14  20
ATOM     20  S   UNL A   1      32.879  28.925  26.366  1.00  0.00     0.310 S 
ATOM     21  F   UNL A   1      33.238  28.217  27.740  1.00  0.00    -0.094 F 
ATOM     22  F   UNL A   1      31.382  28.503  26.619  1.00  0.00    -0.094 F 
ATOM     23  F   UNL A   1      32.673  30.241  27.169  1.00  0.00    -0.094 F 
ATOM     24  F   UNL A   1      34.415  29.262  26.223  1.00  0.00    -0.094 F 
ATOM     25  F   UNL A   1      33.131  27.540  25.647  1.00  0.00    -0.094 F 
ENDBRANCH  14  20
BRANCH  19  26
ATOM     26  C   UNL A   1      32.732  21.859  23.680  1.00  0.00     0.430 C 
ATOM     27  F   UNL A   1      33.208  20.637  23.902  1.00  0.00    -0.167 F 
ATOM     28  F   UNL A   1      31.946  22.219  24.691  1.00  0.00    -0.167 F 
ATOM     29  F   UNL A   1      32.031  21.863  22.551  1.00  0.00    -0.167 F 
ENDBRANCH  19  26
ENDBRANCH   7   9
ENDBRANCH   6   7
ENDBRANCH   5   6
ENDBRANCH   4   5
ENDBRANCH   3   4
ENDBRANCH   2   3
ENDBRANCH   1   2
BRANCH   1  30
ATOM     30  O   UNL A   1      40.795  19.890  27.601  1.00  0.00    -0.376 OA
BRANCH  30  31
ATOM     31  C   UNL A   1      42.093  19.343  27.427  1.00  0.00     0.202 C 
BRANCH  31  32
ATOM     32  C   UNL A   1      42.241  18.834  26.002  1.00  0.00     0.261 C 
BRANCH  32  33
ATOM     33  O   UNL A   1      43.615  18.826  25.642  1.00  0.00    -0.460 OA
BRANCH  33  34
ATOM     34  C   UNL A   1      44.113  19.786  24.722  1.00  0.00     0.338 C 
ATOM     35  O   UNL A   1      44.333  19.456  23.515  1.00  0.00    -0.246 OA
BRANCH  34  36
ATOM     36  C   UNL A   1      44.381  21.210  25.182  1.00  0.00     0.060 A 
ATOM     37  C   UNL A   1      44.467  22.207  24.216  1.00  0.00     0.016 A 
ATOM     38  C   UNL A   1      44.553  21.546  26.443  1.00  0.00     0.016 A 
ATOM     39  C   UNL A   1      44.226  23.529  24.651  1.00  0.00     0.010 A 
ATOM     40  C   UNL A   1      44.824  22.871  26.801  1.00  0.00     0.010 A 
ATOM     41  C   UNL A   1      44.666  23.848  25.934  1.00  0.00    -0.014 A 
BRANCH  41  42
ATOM     42  C   UNL A   1      44.957  25.288  26.322  1.00  0.00     0.031 A 
ATOM     43  C   UNL A   1      46.284  25.683  26.148  1.00  0.00     0.074 A 
ATOM     44  C   UNL A   1      43.973  26.098  26.865  1.00  0.00     0.049 A 
ATOM     45  N   UNL A   1      46.823  26.872  26.427  1.00  0.00    -0.248 NA
ATOM     46  C   UNL A   1      47.338  24.813  25.605  1.00  0.00     0.031 C 
ATOM     47  C   UNL A   1      42.630  25.710  27.036  1.00  0.00     0.029 A 
ATOM     48  N   UNL A   1      44.101  27.388  27.327  1.00  0.00    -0.354 N 
ATOM     49  C   UNL A   1      48.118  26.877  26.105  1.00  0.00     0.074 A 
ATOM     50  C   UNL A   1      48.470  25.551  25.578  1.00  0.00     0.031 C 
ATOM     51  C   UNL A   1      41.961  26.747  27.604  1.00  0.00     0.029 A 
ATOM     52  C   UNL A   1      42.874  27.802  27.796  1.00  0.00     0.049 A 
ATOM     53  H   UNL A   1      44.927  27.924  27.323  1.00  0.00     0.167 HD
ATOM     54  C   UNL A   1      49.020  27.936  26.230  1.00  0.00     0.031 A 
ATOM     55  C   UNL A   1      42.549  29.023  28.365  1.00  0.00     0.031 A 
ATOM     56  C   UNL A   1      48.684  29.172  26.760  1.00  0.00     0.049 A 
ATOM     57  C   UNL A   1      43.465  30.063  28.544  1.00  0.00     0.074 A 
ATOM     58  C   UNL A   1      49.579  30.252  26.885  1.00  0.00     0.029 A 
ATOM     59  N   UNL A   1      47.463  29.576  27.251  1.00  0.00    -0.354 N 
ATOM     60  N   UNL A   1      44.750  30.081  28.188  1.00  0.00    -0.248 NA
ATOM     61  C   UNL A   1      43.141  31.349  29.174  1.00  0.00     0.031 C 
ATOM     62  C   UNL A   1      48.909  31.290  27.454  1.00  0.00     0.029 A 
ATOM     63  C   UNL A   1      47.585  30.874  27.693  1.00  0.00     0.049 A 
ATOM     64  H   UNL A   1      46.644  29.031  27.282  1.00  0.00     0.167 HD
ATOM     65  C   UNL A   1      45.298  31.256  28.503  1.00  0.00     0.074 A 
ATOM     66  C   UNL A   1      44.273  32.085  29.150  1.00  0.00     0.031 C 
ATOM     67  C   UNL A   1      46.611  31.671  28.276  1.00  0.00     0.031 A 
BRANCH  54  68
ATOM     68  C   UNL A   1      50.449  27.720  25.760  1.00  0.00    -0.014 A 
ATOM     69  C   UNL A   1      51.450  27.342  26.649  1.00  0.00     0.010 A 
ATOM     70  C   UNL A   1      50.766  27.880  24.493  1.00  0.00     0.010 A 
ATOM     71  C   UNL A   1      52.568  26.679  26.095  1.00  0.00     0.020 A 
ATOM     72  C   UNL A   1      52.080  27.684  24.054  1.00  0.00     0.020 A 
ATOM     73  C   UNL A   1      52.968  27.098  24.828  1.00  0.00     0.054 A 
BRANCH  73  74
ATOM     74  S   UNL A   1      54.667  26.838  24.259  1.00  0.00     0.124 S 
ATOM     75  O   UNL A   1      55.166  25.477  24.751  1.00  0.00    -0.237 OA
ATOM     76  O   UNL A   1      54.706  26.874  22.730  1.00  0.00    -0.237 OA
ATOM     77  O   UNL A   1      55.672  28.073  24.884  1.00  0.00    -0.744 OA
ENDBRANCH  73  74
ENDBRANCH  54  68
BRANCH  55  78
ATOM     78  C   UNL A   1      41.116  29.244  28.821  1.00  0.00    -0.014 A 
ATOM     79  C   UNL A   1      40.770  29.170  30.166  1.00  0.00     0.010 A 
ATOM     80  C   UNL A   1      40.168  29.502  27.945  1.00  0.00     0.010 A 
ATOM     81  C   UNL A   1      39.594  29.851  30.553  1.00  0.00     0.020 A 
ATOM     82  C   UNL A   1      38.844  29.687  28.357  1.00  0.00     0.020 A 
ATOM     83  C   UNL A   1      38.552  29.861  29.629  1.00  0.00     0.054 A 
BRANCH  83  84
ATOM     84  S   UNL A   1      36.840  30.106  30.162  1.00  0.00     0.124 S 
ATOM     85  O   UNL A   1      36.571  29.266  31.414  1.00  0.00    -0.237 OA
ATOM     86  O   UNL A   1      36.612  31.585  30.481  1.00  0.00    -0.237 OA
ATOM     87  O   UNL A   1      35.778  29.623  28.912  1.00  0.00    -0.744 OA
ENDBRANCH  83  84
ENDBRANCH  55  78
BRANCH  67  88
ATOM     88  C   UNL A   1      46.997  33.081  28.691  1.00  0.00    -0.014 A 
ATOM     89  C   UNL A   1      46.795  34.119  27.787  1.00  0.00     0.010 A 
ATOM     90  C   UNL A   1      47.525  33.366  29.862  1.00  0.00     0.010 A 
ATOM     91  C   UNL A   1      46.684  35.417  28.332  1.00  0.00     0.020 A 
ATOM     92  C   UNL A   1      47.882  34.680  30.185  1.00  0.00     0.020 A 
ATOM     93  C   UNL A   1      47.477  35.690  29.445  1.00  0.00     0.054 A 
BRANCH  93  94
ATOM     94  S   UNL A   1      47.934  37.390  29.865  1.00  0.00     0.124 S 
ATOM     95  O   UNL A   1      48.902  37.932  28.810  1.00  0.00    -0.237 OA
ATOM     96  O   UNL A   1      46.678  38.262  29.901  1.00  0.00    -0.237 OA
ATOM     97  O   UNL A   1      48.691  37.415  31.398  1.00  0.00    -0.744 OA
ENDBRANCH  93  94
ENDBRANCH  67  88
ENDBRANCH  41  42
ENDBRANCH  34  36
ENDBRANCH  33  34
ENDBRANCH  32  33
ENDBRANCH  31  32
ENDBRANCH  30  31
ENDBRANCH   1  30
TORSDOF 22
ENDMDL
