MODEL 1
REMARK VINA RESULT:      -9.8      0.000      0.000
REMARK SMILES CC(=O)N1CCN(C(=O)c2ccc(=O)n(CCC(=O)OCCOCCOCCOC(=O)c3ccc(-c4c5nc(c(-c6ccc(S(=O)(=O)[O-])cc6)c6ccc([nH]6)c(-c6ccc(S(=O)(=O)[O-])cc6)c6nc(c(-c7ccc(S(=O)(=O)[O-])cc7)c7ccc4[nH]7)C=C6)C=C5)cc3)n2)CC1
REMARK SMILES IDX 24 1 23 2 22 3 21 4 20 5 18 6 19 7 17 8 16 9 15 10 10 11
REMARK SMILES IDX 11 12 92 13 12 14 13 15 14 16 8 17 1 18 2 19 3 20 4 21 5 22
REMARK SMILES IDX 94 23 6 24 93 25 7 26 9 27 25 28 26 29 27 30 28 31 29 32
REMARK SMILES IDX 30 33 31 34 32 35 33 36 91 37 34 38 90 39 35 40 36 41 37 42
REMARK SMILES IDX 84 43 38 44 89 45 83 46 85 47 39 48 88 49 82 50 81 51 40 53
REMARK SMILES IDX 70 54 51 55 69 56 52 57 55 58 68 59 86 60 53 61 54 62 67 64
REMARK SMILES IDX 87 65 56 66 41 67 42 68 50 69 43 70 49 71 44 72 45 73 46 74
REMARK SMILES IDX 47 75 48 76 71 77 72 78 80 79 73 80 79 81 74 82 75 83 76 84
REMARK SMILES IDX 77 85 78 86 57 87 58 88 66 89 59 90 65 91 60 92 61 93 62 94
REMARK SMILES IDX 63 95 64 96
REMARK H PARENT 85 52 55 63
REMARK Flexibility Score: inf
ROOT
ATOM      1  C   UNL A   1      39.244  23.668  26.876  1.00  0.00     0.188 C 
ENDROOT
BRANCH   1   2
ATOM      2  O   UNL A   1      37.837  23.579  26.725  1.00  0.00    -0.376 OA
BRANCH   2   3
ATOM      3  C   UNL A   1      37.384  23.839  25.396  1.00  0.00     0.202 C 
BRANCH   3   4
ATOM      4  C   UNL A   1      35.857  23.736  25.179  1.00  0.00     0.261 C 
BRANCH   4   5
ATOM      5  O   UNL A   1      35.259  22.522  25.698  1.00  0.00    -0.463 OA
BRANCH   5   6
ATOM      6  C   UNL A   1      34.713  21.661  24.804  1.00  0.00     0.307 C 
ATOM      7  O   UNL A   1      34.649  20.448  24.960  1.00  0.00    -0.252 OA
BRANCH   6   8
ATOM      8  C   UNL A   1      34.171  22.350  23.565  1.00  0.00     0.146 C 
BRANCH   8   9
ATOM      9  C   UNL A   1      32.651  22.429  23.384  1.00  0.00     0.160 C 
BRANCH   9  10
ATOM     10  N   UNL A   1      31.934  23.235  24.379  1.00  0.00    -0.229 N 
ATOM     11  C   UNL A   1      31.220  25.325  24.954  1.00  0.00     0.149 A 
ATOM     12  C   UNL A   1      30.574  24.862  26.190  1.00  0.00     0.042 A 
ATOM     13  N   UNL A   1      31.883  24.595  24.115  1.00  0.00    -0.164 NA
ATOM     14  C   UNL A   1      30.589  23.550  26.392  1.00  0.00     0.076 A 
ATOM     15  C   UNL A   1      31.215  22.644  25.414  1.00  0.00     0.266 A 
ATOM     16  O   UNL A   1      31.055  21.446  25.604  1.00  0.00    -0.268 OA
BRANCH  11  17
ATOM     17  C   UNL A   1      31.064  26.800  24.688  1.00  0.00     0.274 C 
ATOM     18  C   UNL A   1      35.304  30.299  27.917  1.00  0.00     0.114 C 
ATOM     19  C   UNL A   1      33.983  30.644  27.284  1.00  0.00     0.219 C 
ATOM     20  O   UNL A   1      33.699  31.823  27.068  1.00  0.00    -0.275 OA
ATOM     21  N   UNL A   1      33.162  29.601  26.900  1.00  0.00    -0.339 N 
ATOM     22  C   UNL A   1      31.971  29.900  26.099  1.00  0.00     0.141 C 
ATOM     23  C   UNL A   1      33.328  28.177  27.245  1.00  0.00     0.141 C 
ATOM     24  C   UNL A   1      31.988  29.061  24.821  1.00  0.00     0.141 C 
ATOM     25  C   UNL A   1      33.201  27.258  26.009  1.00  0.00     0.141 C 
ATOM     26  N   UNL A   1      32.063  27.640  25.155  1.00  0.00    -0.334 N 
ATOM     27  O   UNL A   1      30.110  27.147  24.002  1.00  0.00    -0.267 OA
ENDBRANCH  11  17
ENDBRANCH   9  10
ENDBRANCH   8   9
ENDBRANCH   6   8
ENDBRANCH   5   6
ENDBRANCH   4   5
ENDBRANCH   3   4
ENDBRANCH   2   3
ENDBRANCH   1   2
BRANCH   1  28
ATOM     28  C   UNL A   1      39.951  22.333  26.890  1.00  0.00     0.188 C 
BRANCH  28  29
ATOM     29  O   UNL A   1      40.869  22.110  25.816  1.00  0.00    -0.376 OA
BRANCH  29  30
ATOM     30  C   UNL A   1      42.237  22.243  26.178  1.00  0.00     0.202 C 
BRANCH  30  31
ATOM     31  C   UNL A   1      42.959  23.453  25.549  1.00  0.00     0.261 C 
BRANCH  31  32
ATOM     32  O   UNL A   1      42.310  24.709  25.811  1.00  0.00    -0.460 OA
BRANCH  32  33
ATOM     33  C   UNL A   1      43.142  25.772  26.021  1.00  0.00     0.338 C 
ATOM     34  O   UNL A   1      44.016  26.166  25.275  1.00  0.00    -0.246 OA
BRANCH  33  35
ATOM     35  C   UNL A   1      42.638  26.538  27.198  1.00  0.00     0.060 A 
ATOM     36  C   UNL A   1      41.599  26.056  27.998  1.00  0.00     0.016 A 
ATOM     37  C   UNL A   1      43.145  27.829  27.426  1.00  0.00     0.016 A 
ATOM     38  C   UNL A   1      41.084  26.854  29.025  1.00  0.00     0.010 A 
ATOM     39  C   UNL A   1      42.609  28.639  28.432  1.00  0.00     0.010 A 
ATOM     40  C   UNL A   1      41.593  28.146  29.261  1.00  0.00    -0.014 A 
BRANCH  40  41
ATOM     41  C   UNL A   1      41.258  28.844  30.528  1.00  0.00     0.031 A 
ATOM     42  C   UNL A   1      42.032  28.667  31.801  1.00  0.00     0.074 A 
ATOM     43  C   UNL A   1      40.193  29.669  30.496  1.00  0.00     0.049 A 
ATOM     44  N   UNL A   1      41.899  29.324  32.926  1.00  0.00    -0.248 NA
ATOM     45  C   UNL A   1      43.069  27.628  31.829  1.00  0.00     0.031 C 
ATOM     46  C   UNL A   1      39.348  29.883  29.318  1.00  0.00     0.029 A 
ATOM     47  N   UNL A   1      39.648  30.487  31.452  1.00  0.00    -0.354 N 
ATOM     48  C   UNL A   1      42.851  28.802  33.793  1.00  0.00     0.074 A 
ATOM     49  C   UNL A   1      43.523  27.736  33.075  1.00  0.00     0.031 C 
ATOM     50  C   UNL A   1      38.418  30.801  29.609  1.00  0.00     0.029 A 
ATOM     51  C   UNL A   1      38.576  31.218  30.999  1.00  0.00     0.049 A 
ATOM     52  H   UNL A   1      39.991  30.544  32.374  1.00  0.00     0.167 HD
ATOM     53  C   UNL A   1      43.140  29.193  35.059  1.00  0.00     0.031 A 
ATOM     54  C   UNL A   1      37.806  32.136  31.617  1.00  0.00     0.031 A 
ATOM     55  C   UNL A   1      42.441  30.246  35.761  1.00  0.00     0.049 A 
ATOM     56  C   UNL A   1      38.132  32.534  33.026  1.00  0.00     0.074 A 
ATOM     57  C   UNL A   1      42.708  30.754  37.022  1.00  0.00     0.029 A 
ATOM     58  N   UNL A   1      41.338  30.941  35.284  1.00  0.00    -0.354 N 
ATOM     59  N   UNL A   1      39.110  32.111  33.791  1.00  0.00    -0.248 NA
ATOM     60  C   UNL A   1      37.271  33.546  33.653  1.00  0.00     0.031 C 
ATOM     61  C   UNL A   1      41.718  31.686  37.342  1.00  0.00     0.029 A 
ATOM     62  C   UNL A   1      40.887  31.835  36.244  1.00  0.00     0.049 A 
ATOM     63  H   UNL A   1      40.935  30.817  34.395  1.00  0.00     0.167 HD
ATOM     64  C   UNL A   1      38.994  32.817  34.981  1.00  0.00     0.074 A 
ATOM     65  C   UNL A   1      37.865  33.712  34.828  1.00  0.00     0.031 C 
ATOM     66  C   UNL A   1      39.758  32.725  36.098  1.00  0.00     0.031 A 
BRANCH  53  67
ATOM     67  C   UNL A   1      44.276  28.517  35.793  1.00  0.00    -0.014 A 
ATOM     68  C   UNL A   1      45.592  29.002  35.656  1.00  0.00     0.010 A 
ATOM     69  C   UNL A   1      44.071  27.301  36.471  1.00  0.00     0.010 A 
ATOM     70  C   UNL A   1      46.679  28.268  36.141  1.00  0.00     0.020 A 
ATOM     71  C   UNL A   1      45.154  26.579  36.985  1.00  0.00     0.020 A 
ATOM     72  C   UNL A   1      46.454  27.053  36.793  1.00  0.00     0.054 A 
BRANCH  72  73
ATOM     73  S   UNL A   1      47.880  26.088  37.370  1.00  0.00     0.124 S 
ATOM     74  O   UNL A   1      49.004  26.937  36.986  1.00  0.00    -0.237 OA
ATOM     75  O   UNL A   1      47.631  25.979  38.805  1.00  0.00    -0.237 OA
ATOM     76  O   UNL A   1      47.766  24.833  36.629  1.00  0.00    -0.744 OA
ENDBRANCH  72  73
ENDBRANCH  53  67
BRANCH  54  77
ATOM     77  C   UNL A   1      36.696  32.768  30.853  1.00  0.00    -0.014 A 
ATOM     78  C   UNL A   1      36.957  33.836  29.973  1.00  0.00     0.010 A 
ATOM     79  C   UNL A   1      35.363  32.387  31.086  1.00  0.00     0.010 A 
ATOM     80  C   UNL A   1      35.908  34.554  29.396  1.00  0.00     0.020 A 
ATOM     81  C   UNL A   1      34.310  33.080  30.481  1.00  0.00     0.020 A 
ATOM     82  C   UNL A   1      34.589  34.180  29.667  1.00  0.00     0.054 A 
BRANCH  82  83
ATOM     83  S   UNL A   1      33.245  35.173  28.964  1.00  0.00     0.124 S 
ATOM     84  O   UNL A   1      32.644  34.235  28.019  1.00  0.00    -0.237 OA
ATOM     85  O   UNL A   1      32.435  35.489  30.138  1.00  0.00    -0.237 OA
ATOM     86  O   UNL A   1      33.936  36.310  28.362  1.00  0.00    -0.744 OA
ENDBRANCH  82  83
ENDBRANCH  54  77
BRANCH  66  87
ATOM     87  C   UNL A   1      39.413  33.602  37.278  1.00  0.00    -0.014 A 
ATOM     88  C   UNL A   1      39.944  34.903  37.363  1.00  0.00     0.010 A 
ATOM     89  C   UNL A   1      38.688  33.092  38.371  1.00  0.00     0.010 A 
ATOM     90  C   UNL A   1      39.808  35.654  38.533  1.00  0.00     0.020 A 
ATOM     91  C   UNL A   1      38.518  33.854  39.531  1.00  0.00     0.020 A 
ATOM     92  C   UNL A   1      39.107  35.117  39.616  1.00  0.00     0.054 A 
BRANCH  92  93
ATOM     93  S   UNL A   1      38.999  36.080  41.150  1.00  0.00     0.124 S 
ATOM     94  O   UNL A   1      37.787  35.546  41.765  1.00  0.00    -0.237 OA
ATOM     95  O   UNL A   1      40.249  35.745  41.828  1.00  0.00    -0.237 OA
ATOM     96  O   UNL A   1      38.905  37.462  40.683  1.00  0.00    -0.744 OA
ENDBRANCH  92  93
ENDBRANCH  66  87
ENDBRANCH  40  41
ENDBRANCH  33  35
ENDBRANCH  32  33
ENDBRANCH  31  32
ENDBRANCH  30  31
ENDBRANCH  29  30
ENDBRANCH  28  29
ENDBRANCH   1  28
TORSDOF 23
ENDMDL
MODEL 2
REMARK VINA RESULT:      -9.4      5.756     11.715
REMARK SMILES CC(=O)N1CCN(C(=O)c2ccc(=O)n(CCC(=O)OCCOCCOCCOC(=O)c3ccc(-c4c5nc(c(-c6ccc(S(=O)(=O)[O-])cc6)c6ccc([nH]6)c(-c6ccc(S(=O)(=O)[O-])cc6)c6nc(c(-c7ccc(S(=O)(=O)[O-])cc7)c7ccc4[nH]7)C=C6)C=C5)cc3)n2)CC1
REMARK SMILES IDX 24 1 23 2 22 3 21 4 20 5 18 6 19 7 17 8 16 9 15 10 10 11
REMARK SMILES IDX 11 12 92 13 12 14 13 15 14 16 8 17 1 18 2 19 3 20 4 21 5 22
REMARK SMILES IDX 94 23 6 24 93 25 7 26 9 27 25 28 26 29 27 30 28 31 29 32
REMARK SMILES IDX 30 33 31 34 32 35 33 36 91 37 34 38 90 39 35 40 36 41 37 42
REMARK SMILES IDX 84 43 38 44 89 45 83 46 85 47 39 48 88 49 82 50 81 51 40 53
REMARK SMILES IDX 70 54 51 55 69 56 52 57 55 58 68 59 86 60 53 61 54 62 67 64
REMARK SMILES IDX 87 65 56 66 41 67 42 68 50 69 43 70 49 71 44 72 45 73 46 74
REMARK SMILES IDX 47 75 48 76 71 77 72 78 80 79 73 80 79 81 74 82 75 83 76 84
REMARK SMILES IDX 77 85 78 86 57 87 58 88 66 89 59 90 65 91 60 92 61 93 62 94
REMARK SMILES IDX 63 95 64 96
REMARK H PARENT 85 52 55 63
REMARK Flexibility Score: inf
ROOT
ATOM      1  C   UNL A   1      31.967  30.539  26.320  1.00  0.00     0.188 C 
ENDROOT
BRANCH   1   2
ATOM      2  O   UNL A   1      32.429  29.207  26.482  1.00  0.00    -0.376 OA
BRANCH   2   3
ATOM      3  C   UNL A   1      32.233  28.388  25.329  1.00  0.00     0.202 C 
BRANCH   3   4
ATOM      4  C   UNL A   1      32.748  28.979  23.996  1.00  0.00     0.261 C 
BRANCH   4   5
ATOM      5  O   UNL A   1      32.340  28.242  22.816  1.00  0.00    -0.463 OA
BRANCH   5   6
ATOM      6  C   UNL A   1      33.299  27.567  22.137  1.00  0.00     0.307 C 
ATOM      7  O   UNL A   1      34.426  27.996  21.921  1.00  0.00    -0.252 OA
BRANCH   6   8
ATOM      8  C   UNL A   1      32.846  26.199  21.663  1.00  0.00     0.146 C 
BRANCH   8   9
ATOM      9  C   UNL A   1      31.441  25.724  22.051  1.00  0.00     0.160 C 
BRANCH   9  10
ATOM     10  N   UNL A   1      31.368  24.859  23.234  1.00  0.00    -0.229 N 
ATOM     11  C   UNL A   1      32.298  23.091  24.338  1.00  0.00     0.149 A 
ATOM     12  C   UNL A   1      31.342  23.167  25.452  1.00  0.00     0.042 A 
ATOM     13  N   UNL A   1      32.310  23.843  23.284  1.00  0.00    -0.164 NA
ATOM     14  C   UNL A   1      30.486  24.182  25.408  1.00  0.00     0.076 A 
ATOM     15  C   UNL A   1      30.526  25.153  24.302  1.00  0.00     0.266 A 
ATOM     16  O   UNL A   1      29.803  26.134  24.416  1.00  0.00    -0.268 OA
BRANCH  11  17
ATOM     17  C   UNL A   1      33.341  22.014  24.490  1.00  0.00     0.274 C 
ATOM     18  C   UNL A   1      38.773  24.240  26.974  1.00  0.00     0.114 C 
ATOM     19  C   UNL A   1      38.462  23.005  26.173  1.00  0.00     0.219 C 
ATOM     20  O   UNL A   1      39.262  22.069  26.157  1.00  0.00    -0.275 OA
ATOM     21  N   UNL A   1      37.236  22.945  25.535  1.00  0.00    -0.339 N 
ATOM     22  C   UNL A   1      36.822  21.679  24.923  1.00  0.00     0.141 C 
ATOM     23  C   UNL A   1      36.280  24.053  25.360  1.00  0.00     0.141 C 
ATOM     24  C   UNL A   1      35.455  21.268  25.469  1.00  0.00     0.141 C 
ATOM     25  C   UNL A   1      34.841  23.651  25.751  1.00  0.00     0.141 C 
ATOM     26  N   UNL A   1      34.477  22.325  25.220  1.00  0.00    -0.334 N 
ATOM     27  O   UNL A   1      33.074  20.908  24.033  1.00  0.00    -0.267 OA
ENDBRANCH  11  17
ENDBRANCH   9  10
ENDBRANCH   8   9
ENDBRANCH   6   8
ENDBRANCH   5   6
ENDBRANCH   4   5
ENDBRANCH   3   4
ENDBRANCH   2   3
ENDBRANCH   1   2
BRANCH   1  28
ATOM     28  C   UNL A   1      32.736  31.562  27.122  1.00  0.00     0.188 C 
BRANCH  28  29
ATOM     29  O   UNL A   1      34.040  31.159  27.549  1.00  0.00    -0.376 OA
BRANCH  29  30
ATOM     30  C   UNL A   1      34.868  32.228  27.988  1.00  0.00     0.202 C 
BRANCH  30  31
ATOM     31  C   UNL A   1      35.300  32.148  29.467  1.00  0.00     0.261 C 
BRANCH  31  32
ATOM     32  O   UNL A   1      35.920  30.900  29.818  1.00  0.00    -0.460 OA
BRANCH  32  33
ATOM     33  C   UNL A   1      36.843  30.960  30.824  1.00  0.00     0.338 C 
ATOM     34  O   UNL A   1      36.618  31.146  32.003  1.00  0.00    -0.246 OA
BRANCH  33  35
ATOM     35  C   UNL A   1      38.157  30.503  30.283  1.00  0.00     0.060 A 
ATOM     36  C   UNL A   1      38.370  30.337  28.913  1.00  0.00     0.016 A 
ATOM     37  C   UNL A   1      39.158  30.118  31.192  1.00  0.00     0.016 A 
ATOM     38  C   UNL A   1      39.580  29.804  28.457  1.00  0.00     0.010 A 
ATOM     39  C   UNL A   1      40.356  29.555  30.737  1.00  0.00     0.010 A 
ATOM     40  C   UNL A   1      40.589  29.421  29.362  1.00  0.00    -0.014 A 
BRANCH  40  41
ATOM     41  C   UNL A   1      41.961  29.156  28.859  1.00  0.00     0.031 A 
ATOM     42  C   UNL A   1      43.023  30.210  28.753  1.00  0.00     0.074 A 
ATOM     43  C   UNL A   1      42.229  27.889  28.484  1.00  0.00     0.049 A 
ATOM     44  N   UNL A   1      44.287  30.056  28.448  1.00  0.00    -0.248 NA
ATOM     45  C   UNL A   1      42.629  31.602  29.006  1.00  0.00     0.031 C 
ATOM     46  C   UNL A   1      41.254  26.796  28.512  1.00  0.00     0.029 A 
ATOM     47  N   UNL A   1      43.380  27.300  28.029  1.00  0.00    -0.354 N 
ATOM     48  C   UNL A   1      44.852  31.325  28.495  1.00  0.00     0.074 A 
ATOM     49  C   UNL A   1      43.778  32.244  28.813  1.00  0.00     0.031 C 
ATOM     50  C   UNL A   1      41.858  25.663  28.130  1.00  0.00     0.029 A 
ATOM     51  C   UNL A   1      43.250  25.951  27.801  1.00  0.00     0.049 A 
ATOM     52  H   UNL A   1      44.218  27.796  27.881  1.00  0.00     0.167 HD
ATOM     53  C   UNL A   1      46.149  31.674  28.307  1.00  0.00     0.031 A 
ATOM     54  C   UNL A   1      44.146  25.034  27.385  1.00  0.00     0.031 A 
ATOM     55  C   UNL A   1      47.200  30.740  27.970  1.00  0.00     0.049 A 
ATOM     56  C   UNL A   1      45.570  25.452  27.160  1.00  0.00     0.074 A 
ATOM     57  C   UNL A   1      48.554  30.995  27.825  1.00  0.00     0.029 A 
ATOM     58  N   UNL A   1      47.026  29.388  27.711  1.00  0.00    -0.354 N 
ATOM     59  N   UNL A   1      46.111  26.635  27.324  1.00  0.00    -0.248 NA
ATOM     60  C   UNL A   1      46.511  24.414  26.719  1.00  0.00     0.031 C 
ATOM     61  C   UNL A   1      49.180  29.824  27.392  1.00  0.00     0.029 A 
ATOM     62  C   UNL A   1      48.237  28.810  27.361  1.00  0.00     0.049 A 
ATOM     63  H   UNL A   1      46.168  28.909  27.768  1.00  0.00     0.167 HD
ATOM     64  C   UNL A   1      47.458  26.482  27.023  1.00  0.00     0.074 A 
ATOM     65  C   UNL A   1      47.655  25.085  26.690  1.00  0.00     0.031 C 
ATOM     66  C   UNL A   1      48.437  27.419  27.023  1.00  0.00     0.031 A 
BRANCH  53  67
ATOM     67  C   UNL A   1      46.549  33.123  28.479  1.00  0.00    -0.014 A 
ATOM     68  C   UNL A   1      46.641  33.967  27.354  1.00  0.00     0.010 A 
ATOM     69  C   UNL A   1      47.005  33.600  29.721  1.00  0.00     0.010 A 
ATOM     70  C   UNL A   1      47.218  35.237  27.458  1.00  0.00     0.020 A 
ATOM     71  C   UNL A   1      47.555  34.882  29.836  1.00  0.00     0.020 A 
ATOM     72  C   UNL A   1      47.683  35.683  28.698  1.00  0.00     0.054 A 
BRANCH  72  73
ATOM     73  S   UNL A   1      48.476  37.312  28.804  1.00  0.00     0.124 S 
ATOM     74  O   UNL A   1      47.903  38.011  27.658  1.00  0.00    -0.237 OA
ATOM     75  O   UNL A   1      48.047  37.791  30.116  1.00  0.00    -0.237 OA
ATOM     76  O   UNL A   1      49.902  37.007  28.697  1.00  0.00    -0.744 OA
ENDBRANCH  72  73
ENDBRANCH  53  67
BRANCH  54  77
ATOM     77  C   UNL A   1      43.701  23.623  27.224  1.00  0.00    -0.014 A 
ATOM     78  C   UNL A   1      43.474  23.093  25.939  1.00  0.00     0.010 A 
ATOM     79  C   UNL A   1      43.390  22.840  28.349  1.00  0.00     0.010 A 
ATOM     80  C   UNL A   1      42.880  21.839  25.782  1.00  0.00     0.020 A 
ATOM     81  C   UNL A   1      42.830  21.568  28.196  1.00  0.00     0.020 A 
ATOM     82  C   UNL A   1      42.548  21.090  26.914  1.00  0.00     0.054 A 
BRANCH  82  83
ATOM     83  S   UNL A   1      41.714  19.497  26.685  1.00  0.00     0.124 S 
ATOM     84  O   UNL A   1      40.753  19.502  27.785  1.00  0.00    -0.237 OA
ATOM     85  O   UNL A   1      41.141  19.627  25.348  1.00  0.00    -0.237 OA
ATOM     86  O   UNL A   1      42.795  18.523  26.804  1.00  0.00    -0.744 OA
ENDBRANCH  82  83
ENDBRANCH  54  77
BRANCH  66  87
ATOM     87  C   UNL A   1      49.836  26.996  26.640  1.00  0.00    -0.014 A 
ATOM     88  C   UNL A   1      50.211  26.960  25.283  1.00  0.00     0.010 A 
ATOM     89  C   UNL A   1      50.728  26.493  27.605  1.00  0.00     0.010 A 
ATOM     90  C   UNL A   1      51.421  26.382  24.893  1.00  0.00     0.020 A 
ATOM     91  C   UNL A   1      51.957  25.946  27.221  1.00  0.00     0.020 A 
ATOM     92  C   UNL A   1      52.280  25.865  25.866  1.00  0.00     0.054 A 
BRANCH  92  93
ATOM     93  S   UNL A   1      53.816  25.057  25.334  1.00  0.00     0.124 S 
ATOM     94  O   UNL A   1      54.736  25.405  26.412  1.00  0.00    -0.237 OA
ATOM     95  O   UNL A   1      53.430  23.650  25.264  1.00  0.00    -0.237 OA
ATOM     96  O   UNL A   1      54.104  25.681  24.043  1.00  0.00    -0.744 OA
ENDBRANCH  92  93
ENDBRANCH  66  87
ENDBRANCH  40  41
ENDBRANCH  33  35
ENDBRANCH  32  33
ENDBRANCH  31  32
ENDBRANCH  30  31
ENDBRANCH  29  30
ENDBRANCH  28  29
ENDBRANCH   1  28
TORSDOF 23
ENDMDL
MODEL 3
REMARK VINA RESULT:      -9.0      5.582     10.060
REMARK SMILES CC(=O)N1CCN(C(=O)c2ccc(=O)n(CCC(=O)OCCOCCOCCOC(=O)c3ccc(-c4c5nc(c(-c6ccc(S(=O)(=O)[O-])cc6)c6ccc([nH]6)c(-c6ccc(S(=O)(=O)[O-])cc6)c6nc(c(-c7ccc(S(=O)(=O)[O-])cc7)c7ccc4[nH]7)C=C6)C=C5)cc3)n2)CC1
REMARK SMILES IDX 24 1 23 2 22 3 21 4 20 5 18 6 19 7 17 8 16 9 15 10 10 11
REMARK SMILES IDX 11 12 92 13 12 14 13 15 14 16 8 17 1 18 2 19 3 20 4 21 5 22
REMARK SMILES IDX 94 23 6 24 93 25 7 26 9 27 25 28 26 29 27 30 28 31 29 32
REMARK SMILES IDX 30 33 31 34 32 35 33 36 91 37 34 38 90 39 35 40 36 41 37 42
REMARK SMILES IDX 84 43 38 44 89 45 83 46 85 47 39 48 88 49 82 50 81 51 40 53
REMARK SMILES IDX 70 54 51 55 69 56 52 57 55 58 68 59 86 60 53 61 54 62 67 64
REMARK SMILES IDX 87 65 56 66 41 67 42 68 50 69 43 70 49 71 44 72 45 73 46 74
REMARK SMILES IDX 47 75 48 76 71 77 72 78 80 79 73 80 79 81 74 82 75 83 76 84
REMARK SMILES IDX 77 85 78 86 57 87 58 88 66 89 59 90 65 91 60 92 61 93 62 94
REMARK SMILES IDX 63 95 64 96
REMARK H PARENT 85 52 55 63
REMARK Flexibility Score: inf
ROOT
ATOM      1  C   UNL A   1      39.723  23.791  26.675  1.00  0.00     0.188 C 
ENDROOT
BRANCH   1   2
ATOM      2  O   UNL A   1      38.308  23.902  26.655  1.00  0.00    -0.376 OA
BRANCH   2   3
ATOM      3  C   UNL A   1      37.674  22.981  25.767  1.00  0.00     0.202 C 
BRANCH   3   4
ATOM      4  C   UNL A   1      36.139  22.861  25.916  1.00  0.00     0.261 C 
BRANCH   4   5
ATOM      5  O   UNL A   1      35.633  21.505  25.833  1.00  0.00    -0.463 OA
BRANCH   5   6
ATOM      6  C   UNL A   1      34.772  21.220  24.826  1.00  0.00     0.307 C 
ATOM      7  O   UNL A   1      34.266  20.120  24.638  1.00  0.00    -0.252 OA
BRANCH   6   8
ATOM      8  C   UNL A   1      34.479  22.412  23.934  1.00  0.00     0.146 C 
BRANCH   8   9
ATOM      9  C   UNL A   1      33.033  22.641  23.478  1.00  0.00     0.160 C 
BRANCH   9  10
ATOM     10  N   UNL A   1      32.170  23.340  24.437  1.00  0.00    -0.229 N 
ATOM     11  C   UNL A   1      31.251  25.342  25.036  1.00  0.00     0.149 A 
ATOM     12  C   UNL A   1      30.530  24.771  26.182  1.00  0.00     0.042 A 
ATOM     13  N   UNL A   1      32.041  24.706  24.232  1.00  0.00    -0.164 NA
ATOM     14  C   UNL A   1      30.624  23.453  26.324  1.00  0.00     0.076 A 
ATOM     15  C   UNL A   1      31.405  22.647  25.369  1.00  0.00     0.266 A 
ATOM     16  O   UNL A   1      31.317  21.433  25.488  1.00  0.00    -0.268 OA
BRANCH  11  17
ATOM     17  C   UNL A   1      31.010  26.815  24.825  1.00  0.00     0.274 C 
ATOM     18  C   UNL A   1      35.205  30.428  27.985  1.00  0.00     0.114 C 
ATOM     19  C   UNL A   1      33.843  30.724  27.420  1.00  0.00     0.219 C 
ATOM     20  O   UNL A   1      33.490  31.893  27.254  1.00  0.00    -0.275 OA
ATOM     21  N   UNL A   1      33.059  29.651  27.037  1.00  0.00    -0.339 N 
ATOM     22  C   UNL A   1      31.820  29.913  26.296  1.00  0.00     0.141 C 
ATOM     23  C   UNL A   1      33.311  28.228  27.328  1.00  0.00     0.141 C 
ATOM     24  C   UNL A   1      31.825  29.115  24.992  1.00  0.00     0.141 C 
ATOM     25  C   UNL A   1      33.176  27.341  26.070  1.00  0.00     0.141 C 
ATOM     26  N   UNL A   1      31.984  27.691  25.276  1.00  0.00    -0.334 N 
ATOM     27  O   UNL A   1      30.011  27.133  24.191  1.00  0.00    -0.267 OA
ENDBRANCH  11  17
ENDBRANCH   9  10
ENDBRANCH   8   9
ENDBRANCH   6   8
ENDBRANCH   5   6
ENDBRANCH   4   5
ENDBRANCH   3   4
ENDBRANCH   2   3
ENDBRANCH   1   2
BRANCH   1  28
ATOM     28  C   UNL A   1      40.234  22.492  27.251  1.00  0.00     0.188 C 
BRANCH  28  29
ATOM     29  O   UNL A   1      40.862  21.609  26.317  1.00  0.00    -0.376 OA
BRANCH  29  30
ATOM     30  C   UNL A   1      40.814  20.236  26.686  1.00  0.00     0.202 C 
BRANCH  30  31
ATOM     31  C   UNL A   1      42.087  19.430  26.353  1.00  0.00     0.261 C 
BRANCH  31  32
ATOM     32  O   UNL A   1      42.515  19.571  24.988  1.00  0.00    -0.460 OA
BRANCH  32  33
ATOM     33  C   UNL A   1      43.862  19.707  24.802  1.00  0.00     0.338 C 
ATOM     34  O   UNL A   1      44.600  18.918  24.247  1.00  0.00    -0.246 OA
BRANCH  33  35
ATOM     35  C   UNL A   1      44.247  21.104  25.161  1.00  0.00     0.060 A 
ATOM     36  C   UNL A   1      43.712  22.208  24.493  1.00  0.00     0.016 A 
ATOM     37  C   UNL A   1      45.263  21.295  26.113  1.00  0.00     0.016 A 
ATOM     38  C   UNL A   1      44.181  23.493  24.788  1.00  0.00     0.010 A 
ATOM     39  C   UNL A   1      45.754  22.577  26.384  1.00  0.00     0.010 A 
ATOM     40  C   UNL A   1      45.195  23.691  25.744  1.00  0.00    -0.014 A 
BRANCH  40  41
ATOM     41  C   UNL A   1      45.456  25.059  26.262  1.00  0.00     0.031 A 
ATOM     42  C   UNL A   1      44.481  25.825  27.105  1.00  0.00     0.074 A 
ATOM     43  C   UNL A   1      46.641  25.610  25.932  1.00  0.00     0.049 A 
ATOM     44  N   UNL A   1      44.662  26.971  27.711  1.00  0.00    -0.248 NA
ATOM     45  C   UNL A   1      43.140  25.254  27.286  1.00  0.00     0.031 C 
ATOM     46  C   UNL A   1      47.645  24.963  25.084  1.00  0.00     0.029 A 
ATOM     47  N   UNL A   1      47.211  26.809  26.273  1.00  0.00    -0.354 N 
ATOM     48  C   UNL A   1      43.472  27.253  28.370  1.00  0.00     0.074 A 
ATOM     49  C   UNL A   1      42.557  26.176  28.048  1.00  0.00     0.031 C 
ATOM     50  C   UNL A   1      48.723  25.755  25.003  1.00  0.00     0.029 A 
ATOM     51  C   UNL A   1      48.477  26.976  25.763  1.00  0.00     0.049 A 
ATOM     52  H   UNL A   1      46.758  27.485  26.828  1.00  0.00     0.167 HD
ATOM     53  C   UNL A   1      43.187  28.304  29.179  1.00  0.00     0.031 A 
ATOM     54  C   UNL A   1      49.358  27.988  25.897  1.00  0.00     0.031 A 
ATOM     55  C   UNL A   1      44.110  29.378  29.469  1.00  0.00     0.049 A 
ATOM     56  C   UNL A   1      49.008  29.151  26.777  1.00  0.00     0.074 A 
ATOM     57  C   UNL A   1      43.930  30.449  30.329  1.00  0.00     0.029 A 
ATOM     58  N   UNL A   1      45.371  29.532  28.908  1.00  0.00    -0.354 N 
ATOM     59  N   UNL A   1      47.921  29.343  27.486  1.00  0.00    -0.248 NA
ATOM     60  C   UNL A   1      50.005  30.223  26.899  1.00  0.00     0.031 C 
ATOM     61  C   UNL A   1      45.037  31.294  30.218  1.00  0.00     0.029 A 
ATOM     62  C   UNL A   1      45.955  30.705  29.365  1.00  0.00     0.049 A 
ATOM     63  H   UNL A   1      45.788  28.903  28.277  1.00  0.00     0.167 HD
ATOM     64  C   UNL A   1      48.110  30.547  28.152  1.00  0.00     0.074 A 
ATOM     65  C   UNL A   1      49.425  31.029  27.780  1.00  0.00     0.031 C 
ATOM     66  C   UNL A   1      47.263  31.191  28.992  1.00  0.00     0.031 A 
BRANCH  53  67
ATOM     67  C   UNL A   1      41.832  28.365  29.849  1.00  0.00    -0.014 A 
ATOM     68  C   UNL A   1      40.727  28.904  29.159  1.00  0.00     0.010 A 
ATOM     69  C   UNL A   1      41.691  28.059  31.215  1.00  0.00     0.010 A 
ATOM     70  C   UNL A   1      39.529  29.174  29.827  1.00  0.00     0.020 A 
ATOM     71  C   UNL A   1      40.484  28.298  31.880  1.00  0.00     0.020 A 
ATOM     72  C   UNL A   1      39.418  28.880  31.189  1.00  0.00     0.054 A 
BRANCH  72  73
ATOM     73  S   UNL A   1      37.873  29.286  32.051  1.00  0.00     0.124 S 
ATOM     74  O   UNL A   1      38.230  30.506  32.769  1.00  0.00    -0.237 OA
ATOM     75  O   UNL A   1      36.928  29.454  30.949  1.00  0.00    -0.237 OA
ATOM     76  O   UNL A   1      37.632  28.115  32.893  1.00  0.00    -0.744 OA
ENDBRANCH  72  73
ENDBRANCH  53  67
BRANCH  54  77
ATOM     77  C   UNL A   1      50.674  27.883  25.210  1.00  0.00    -0.014 A 
ATOM     78  C   UNL A   1      51.788  27.351  25.889  1.00  0.00     0.010 A 
ATOM     79  C   UNL A   1      50.852  28.418  23.923  1.00  0.00     0.010 A 
ATOM     80  C   UNL A   1      53.063  27.419  25.325  1.00  0.00     0.020 A 
ATOM     81  C   UNL A   1      52.122  28.454  23.338  1.00  0.00     0.020 A 
ATOM     82  C   UNL A   1      53.224  27.985  24.058  1.00  0.00     0.054 A 
BRANCH  82  83
ATOM     83  S   UNL A   1      54.899  28.126  23.377  1.00  0.00     0.124 S 
ATOM     84  O   UNL A   1      55.390  26.757  23.508  1.00  0.00    -0.237 OA
ATOM     85  O   UNL A   1      54.650  28.578  22.011  1.00  0.00    -0.237 OA
ATOM     86  O   UNL A   1      55.541  29.106  24.248  1.00  0.00    -0.744 OA
ENDBRANCH  82  83
ENDBRANCH  54  77
BRANCH  66  87
ATOM     87  C   UNL A   1      47.703  32.510  29.583  1.00  0.00    -0.014 A 
ATOM     88  C   UNL A   1      48.358  32.536  30.829  1.00  0.00     0.010 A 
ATOM     89  C   UNL A   1      47.339  33.728  28.982  1.00  0.00     0.010 A 
ATOM     90  C   UNL A   1      48.591  33.746  31.488  1.00  0.00     0.020 A 
ATOM     91  C   UNL A   1      47.602  34.945  29.621  1.00  0.00     0.020 A 
ATOM     92  C   UNL A   1      48.197  34.943  30.884  1.00  0.00     0.054 A 
BRANCH  92  93
ATOM     93  S   UNL A   1      48.445  36.498  31.785  1.00  0.00     0.124 S 
ATOM     94  O   UNL A   1      47.537  36.346  32.918  1.00  0.00    -0.237 OA
ATOM     95  O   UNL A   1      49.869  36.457  32.109  1.00  0.00    -0.237 OA
ATOM     96  O   UNL A   1      48.065  37.523  30.814  1.00  0.00    -0.744 OA
ENDBRANCH  92  93
ENDBRANCH  66  87
ENDBRANCH  40  41
ENDBRANCH  33  35
ENDBRANCH  32  33
ENDBRANCH  31  32
ENDBRANCH  30  31
ENDBRANCH  29  30
ENDBRANCH  28  29
ENDBRANCH   1  28
TORSDOF 23
ENDMDL
