MODEL 1
REMARK VINA RESULT:      -9.8      0.000      0.000
REMARK SMILES O=C(CCC(=O)OCCOCCOCCOC(=O)c1ccc(-c2c3nc(c(-c4ccc(S(=O)(=O)[O-])cc4)c4ccc([nH]4)c(-c4ccc(S(=O)(=O)[O-])cc4)c4nc(c(-c5ccc(S(=O)(=O)[O-])cc5)c5ccc2[nH]5)C=C4)C=C3)cc1)/[NH+]=C1\S[C@H]2CS(=O)(=O)C[C@@H]2N1c1ccc(Oc2ccccc2)cc1
REMARK SMILES IDX 11 1 10 2 9 3 8 4 7 5 5 6 6 7 4 8 3 9 2 10 1 11 79 12 80 13
REMARK SMILES IDX 81 15 89 16 82 17 88 18 83 19 87 20 84 21 85 22 86 23 90 24
REMARK SMILES IDX 91 25 102 26 92 27 101 28 93 29 94 30 95 31 96 32 100 33
REMARK SMILES IDX 97 34 99 35 98 36 12 37 13 38 14 39 15 40 16 41 17 42 18 43
REMARK SMILES IDX 19 44 20 45 78 46 21 47 77 48 22 49 23 50 24 51 71 52 25 53
REMARK SMILES IDX 76 54 70 55 72 56 26 57 75 58 69 59 68 60 27 62 57 63 38 64
REMARK SMILES IDX 56 65 39 66 42 67 55 68 73 69 40 70 41 71 54 73 74 74 43 75
REMARK SMILES IDX 28 76 29 77 37 78 30 79 36 80 31 81 32 82 33 83 34 84 35 85
REMARK SMILES IDX 58 86 59 87 67 88 60 89 66 90 61 91 62 92 63 93 64 94 65 95
REMARK SMILES IDX 44 96 45 97 53 98 46 99 52 100 47 101 48 102 49 103 50 104
REMARK SMILES IDX 51 105
REMARK H PARENT 79 14 72 61 42 72
REMARK Flexibility Score: inf
ROOT
ATOM      1  C   UNL A   1      35.707  21.150  25.411  1.00  0.00     0.188 C 
ENDROOT
BRANCH   1   2
ATOM      2  O   UNL A   1      34.943  22.280  25.892  1.00  0.00    -0.376 OA
BRANCH   2   3
ATOM      3  C   UNL A   1      35.015  23.586  25.273  1.00  0.00     0.202 C 
BRANCH   3   4
ATOM      4  C   UNL A   1      34.370  23.962  23.884  1.00  0.00     0.261 C 
BRANCH   4   5
ATOM      5  O   UNL A   1      33.462  23.040  23.269  1.00  0.00    -0.463 OA
BRANCH   5   6
ATOM      6  C   UNL A   1      32.148  23.253  23.433  1.00  0.00     0.306 C 
ATOM      7  O   UNL A   1      31.489  24.022  22.748  1.00  0.00    -0.252 OA
BRANCH   6   8
ATOM      8  C   UNL A   1      31.585  22.404  24.557  1.00  0.00     0.135 C 
BRANCH   8   9
ATOM      9  C   UNL A   1      30.680  23.116  25.589  1.00  0.00     0.139 C 
BRANCH   9  10
ATOM     10  C   UNL A   1      31.398  24.052  26.581  1.00  0.00     0.308 C 
ATOM     11  O   UNL A   1      31.706  23.531  27.659  1.00  0.00    -0.247 OA
ATOM     12  N   UNL A   1      31.842  25.355  26.316  1.00  0.00    -0.204 N 
ATOM     13  C   UNL A   1      31.248  26.281  25.644  1.00  0.00     0.319 C 
ATOM     14  H   UNL A   1      32.719  25.594  26.692  1.00  0.00     0.316 HD
ATOM     15  S   UNL A   1      29.869  26.019  24.699  1.00  0.00    -0.029 SA
ATOM     16  N   UNL A   1      31.477  27.646  25.479  1.00  0.00    -0.217 N 
ATOM     17  C   UNL A   1      29.977  27.452  23.687  1.00  0.00     0.120 C 
ATOM     18  C   UNL A   1      30.419  28.407  24.763  1.00  0.00     0.212 C 
ATOM     19  C   UNL A   1      28.823  28.069  22.939  1.00  0.00     0.156 C 
ATOM     20  C   UNL A   1      30.768  29.640  23.949  1.00  0.00     0.188 C 
ATOM     21  S   UNL A   1      29.393  29.754  22.781  1.00  0.00     0.155 S 
ATOM     22  O   UNL A   1      29.934  29.940  21.452  1.00  0.00    -0.229 OA
ATOM     23  O   UNL A   1      28.383  30.625  23.344  1.00  0.00    -0.229 OA
BRANCH  16  24
ATOM     24  C   UNL A   1      32.409  28.352  26.204  1.00  0.00     0.128 A 
ATOM     25  C   UNL A   1      32.084  29.582  26.787  1.00  0.00     0.056 A 
ATOM     26  C   UNL A   1      33.703  27.852  26.290  1.00  0.00     0.056 A 
ATOM     27  C   UNL A   1      33.071  30.360  27.364  1.00  0.00     0.051 A 
ATOM     28  C   UNL A   1      34.689  28.624  26.868  1.00  0.00     0.051 A 
ATOM     29  C   UNL A   1      34.383  29.900  27.363  1.00  0.00     0.127 A 
BRANCH  29  30
ATOM     30  O   UNL A   1      35.317  30.786  27.860  1.00  0.00    -0.457 OA
BRANCH  30  31
ATOM     31  C   UNL A   1      36.427  30.209  28.419  1.00  0.00     0.127 A 
ATOM     32  C   UNL A   1      36.327  29.750  29.729  1.00  0.00     0.047 A 
ATOM     33  C   UNL A   1      37.578  29.996  27.655  1.00  0.00     0.047 A 
ATOM     34  C   UNL A   1      37.375  29.017  30.269  1.00  0.00     0.004 A 
ATOM     35  C   UNL A   1      38.620  29.250  28.198  1.00  0.00     0.004 A 
ATOM     36  C   UNL A   1      38.515  28.759  29.501  1.00  0.00     0.000 A 
ENDBRANCH  30  31
ENDBRANCH  29  30
ENDBRANCH  16  24
ENDBRANCH   9  10
ENDBRANCH   8   9
ENDBRANCH   6   8
ENDBRANCH   5   6
ENDBRANCH   4   5
ENDBRANCH   3   4
ENDBRANCH   2   3
ENDBRANCH   1   2
BRANCH   1  37
ATOM     37  C   UNL A   1      37.141  21.567  24.788  1.00  0.00     0.188 C 
BRANCH  37  38
ATOM     38  O   UNL A   1      38.306  20.798  25.162  1.00  0.00    -0.376 OA
BRANCH  38  39
ATOM     39  C   UNL A   1      39.404  21.183  26.022  1.00  0.00     0.202 C 
BRANCH  39  40
ATOM     40  C   UNL A   1      40.528  20.290  26.606  1.00  0.00     0.261 C 
BRANCH  40  41
ATOM     41  O   UNL A   1      41.558  21.012  27.229  1.00  0.00    -0.460 OA
BRANCH  41  42
ATOM     42  C   UNL A   1      42.597  21.235  26.389  1.00  0.00     0.338 C 
ATOM     43  O   UNL A   1      42.854  20.666  25.354  1.00  0.00    -0.246 OA
BRANCH  42  44
ATOM     44  C   UNL A   1      43.086  22.547  26.809  1.00  0.00     0.060 A 
ATOM     45  C   UNL A   1      42.971  23.575  25.869  1.00  0.00     0.016 A 
ATOM     46  C   UNL A   1      43.443  22.790  28.141  1.00  0.00     0.016 A 
ATOM     47  C   UNL A   1      43.205  24.877  26.268  1.00  0.00     0.010 A 
ATOM     48  C   UNL A   1      43.734  24.086  28.528  1.00  0.00     0.010 A 
ATOM     49  C   UNL A   1      43.651  25.114  27.575  1.00  0.00    -0.014 A 
BRANCH  49  50
ATOM     50  C   UNL A   1      44.421  26.340  27.796  1.00  0.00     0.031 A 
ATOM     51  C   UNL A   1      43.691  27.438  28.514  1.00  0.00     0.074 A 
ATOM     52  C   UNL A   1      45.702  26.439  27.418  1.00  0.00     0.049 A 
ATOM     53  N   UNL A   1      44.107  28.625  28.848  1.00  0.00    -0.248 NA
ATOM     54  C   UNL A   1      42.299  27.150  28.916  1.00  0.00     0.031 C 
ATOM     55  C   UNL A   1      46.488  25.388  26.773  1.00  0.00     0.029 A 
ATOM     56  N   UNL A   1      46.564  27.493  27.530  1.00  0.00    -0.354 N 
ATOM     57  C   UNL A   1      43.031  29.219  29.496  1.00  0.00     0.074 A 
ATOM     58  C   UNL A   1      41.936  28.283  29.488  1.00  0.00     0.031 C 
ATOM     59  C   UNL A   1      47.725  25.861  26.533  1.00  0.00     0.029 A 
ATOM     60  C   UNL A   1      47.796  27.251  26.979  1.00  0.00     0.049 A 
ATOM     61  H   UNL A   1      46.324  28.344  27.965  1.00  0.00     0.167 HD
ATOM     62  C   UNL A   1      42.967  30.447  30.050  1.00  0.00     0.031 A 
ATOM     63  C   UNL A   1      48.844  28.084  26.838  1.00  0.00     0.031 A 
ATOM     64  C   UNL A   1      44.056  31.377  29.997  1.00  0.00     0.049 A 
ATOM     65  C   UNL A   1      48.716  29.487  27.376  1.00  0.00     0.074 A 
ATOM     66  C   UNL A   1      44.115  32.662  30.498  1.00  0.00     0.029 A 
ATOM     67  N   UNL A   1      45.275  31.118  29.387  1.00  0.00    -0.354 N 
ATOM     68  N   UNL A   1      47.701  30.041  28.002  1.00  0.00    -0.248 NA
ATOM     69  C   UNL A   1      49.872  30.372  27.197  1.00  0.00     0.031 C 
ATOM     70  C   UNL A   1      45.351  33.202  30.133  1.00  0.00     0.029 A 
ATOM     71  C   UNL A   1      46.088  32.229  29.474  1.00  0.00     0.049 A 
ATOM     72  H   UNL A   1      45.523  30.267  28.958  1.00  0.00     0.167 HD
ATOM     73  C   UNL A   1      48.110  31.333  28.320  1.00  0.00     0.074 A 
ATOM     74  C   UNL A   1      49.466  31.468  27.826  1.00  0.00     0.031 C 
ATOM     75  C   UNL A   1      47.434  32.317  28.964  1.00  0.00     0.031 A 
BRANCH  62  76
ATOM     76  C   UNL A   1      41.664  30.849  30.681  1.00  0.00    -0.014 A 
ATOM     77  C   UNL A   1      40.770  31.719  30.029  1.00  0.00     0.010 A 
ATOM     78  C   UNL A   1      41.337  30.360  31.958  1.00  0.00     0.010 A 
ATOM     79  C   UNL A   1      39.589  32.118  30.657  1.00  0.00     0.020 A 
ATOM     80  C   UNL A   1      40.141  30.732  32.576  1.00  0.00     0.020 A 
ATOM     81  C   UNL A   1      39.280  31.620  31.927  1.00  0.00     0.054 A 
BRANCH  81  82
ATOM     82  S   UNL A   1      37.725  32.129  32.706  1.00  0.00     0.124 S 
ATOM     83  O   UNL A   1      38.188  33.077  33.716  1.00  0.00    -0.237 OA
ATOM     84  O   UNL A   1      36.986  32.712  31.589  1.00  0.00    -0.237 OA
ATOM     85  O   UNL A   1      37.173  30.881  33.229  1.00  0.00    -0.744 OA
ENDBRANCH  81  82
ENDBRANCH  62  76
BRANCH  63  86
ATOM     86  C   UNL A   1      50.077  27.621  26.147  1.00  0.00    -0.014 A 
ATOM     87  C   UNL A   1      51.088  26.944  26.850  1.00  0.00     0.010 A 
ATOM     88  C   UNL A   1      50.241  27.846  24.767  1.00  0.00     0.010 A 
ATOM     89  C   UNL A   1      52.245  26.515  26.191  1.00  0.00     0.020 A 
ATOM     90  C   UNL A   1      51.382  27.394  24.098  1.00  0.00     0.020 A 
ATOM     91  C   UNL A   1      52.383  26.740  24.818  1.00  0.00     0.054 A 
BRANCH  91  92
ATOM     92  S   UNL A   1      53.869  26.129  23.976  1.00  0.00     0.124 S 
ATOM     93  O   UNL A   1      53.408  25.999  22.598  1.00  0.00    -0.237 OA
ATOM     94  O   UNL A   1      54.832  27.199  24.225  1.00  0.00    -0.237 OA
ATOM     95  O   UNL A   1      54.158  24.871  24.661  1.00  0.00    -0.744 OA
ENDBRANCH  91  92
ENDBRANCH  63  86
BRANCH  75  96
ATOM     96  C   UNL A   1      48.166  33.609  29.209  1.00  0.00    -0.014 A 
ATOM     97  C   UNL A   1      48.964  33.792  30.351  1.00  0.00     0.010 A 
ATOM     98  C   UNL A   1      48.111  34.622  28.234  1.00  0.00     0.010 A 
ATOM     99  C   UNL A   1      49.669  34.984  30.529  1.00  0.00     0.020 A 
ATOM    100  C   UNL A   1      48.843  35.799  28.392  1.00  0.00     0.020 A 
ATOM    101  C   UNL A   1      49.605  35.978  29.547  1.00  0.00     0.054 A 
BRANCH 101 102
ATOM    102  S   UNL A   1      50.570  37.496  29.781  1.00  0.00     0.124 S 
ATOM    103  O   UNL A   1      51.619  37.346  28.776  1.00  0.00    -0.237 OA
ATOM    104  O   UNL A   1      49.587  38.543  29.515  1.00  0.00    -0.237 OA
ATOM    105  O   UNL A   1      51.020  37.410  31.169  1.00  0.00    -0.744 OA
ENDBRANCH 101 102
ENDBRANCH  75  96
ENDBRANCH  49  50
ENDBRANCH  42  44
ENDBRANCH  41  42
ENDBRANCH  40  41
ENDBRANCH  39  40
ENDBRANCH  38  39
ENDBRANCH  37  38
ENDBRANCH   1  37
TORSDOF 25
ENDMDL
MODEL 2
REMARK VINA RESULT:      -9.0      2.856      3.672
REMARK SMILES O=C(CCC(=O)OCCOCCOCCOC(=O)c1ccc(-c2c3nc(c(-c4ccc(S(=O)(=O)[O-])cc4)c4ccc([nH]4)c(-c4ccc(S(=O)(=O)[O-])cc4)c4nc(c(-c5ccc(S(=O)(=O)[O-])cc5)c5ccc2[nH]5)C=C4)C=C3)cc1)/[NH+]=C1\S[C@H]2CS(=O)(=O)C[C@@H]2N1c1ccc(Oc2ccccc2)cc1
REMARK SMILES IDX 11 1 10 2 9 3 8 4 7 5 5 6 6 7 4 8 3 9 2 10 1 11 79 12 80 13
REMARK SMILES IDX 81 15 89 16 82 17 88 18 83 19 87 20 84 21 85 22 86 23 90 24
REMARK SMILES IDX 91 25 102 26 92 27 101 28 93 29 94 30 95 31 96 32 100 33
REMARK SMILES IDX 97 34 99 35 98 36 12 37 13 38 14 39 15 40 16 41 17 42 18 43
REMARK SMILES IDX 19 44 20 45 78 46 21 47 77 48 22 49 23 50 24 51 71 52 25 53
REMARK SMILES IDX 76 54 70 55 72 56 26 57 75 58 69 59 68 60 27 62 57 63 38 64
REMARK SMILES IDX 56 65 39 66 42 67 55 68 73 69 40 70 41 71 54 73 74 74 43 75
REMARK SMILES IDX 28 76 29 77 37 78 30 79 36 80 31 81 32 82 33 83 34 84 35 85
REMARK SMILES IDX 58 86 59 87 67 88 60 89 66 90 61 91 62 92 63 93 64 94 65 95
REMARK SMILES IDX 44 96 45 97 53 98 46 99 52 100 47 101 48 102 49 103 50 104
REMARK SMILES IDX 51 105
REMARK H PARENT 79 14 72 61 42 72
REMARK Flexibility Score: inf
ROOT
ATOM      1  C   UNL A   1      34.758  23.902  25.663  1.00  0.00     0.188 C 
ENDROOT
BRANCH   1   2
ATOM      2  O   UNL A   1      34.812  24.942  24.659  1.00  0.00    -0.376 OA
BRANCH   2   3
ATOM      3  C   UNL A   1      33.968  24.932  23.483  1.00  0.00     0.202 C 
BRANCH   3   4
ATOM      4  C   UNL A   1      33.391  23.633  22.800  1.00  0.00     0.261 C 
BRANCH   4   5
ATOM      5  O   UNL A   1      32.086  23.174  23.173  1.00  0.00    -0.463 OA
BRANCH   5   6
ATOM      6  C   UNL A   1      31.991  21.975  23.766  1.00  0.00     0.306 C 
ATOM      7  O   UNL A   1      32.225  20.914  23.205  1.00  0.00    -0.252 OA
BRANCH   6   8
ATOM      8  C   UNL A   1      31.580  22.106  25.220  1.00  0.00     0.135 C 
BRANCH   8   9
ATOM      9  C   UNL A   1      30.782  23.371  25.612  1.00  0.00     0.139 C 
BRANCH   9  10
ATOM     10  C   UNL A   1      31.520  24.379  26.514  1.00  0.00     0.308 C 
ATOM     11  O   UNL A   1      31.902  23.926  27.599  1.00  0.00    -0.247 OA
ATOM     12  N   UNL A   1      31.907  25.680  26.159  1.00  0.00    -0.204 N 
ATOM     13  C   UNL A   1      31.249  26.550  25.473  1.00  0.00     0.319 C 
ATOM     14  H   UNL A   1      32.795  25.964  26.473  1.00  0.00     0.316 HD
ATOM     15  S   UNL A   1      29.831  26.197  24.620  1.00  0.00    -0.029 SA
ATOM     16  N   UNL A   1      31.424  27.911  25.226  1.00  0.00    -0.217 N 
ATOM     17  C   UNL A   1      29.839  27.578  23.531  1.00  0.00     0.120 C 
ATOM     18  C   UNL A   1      30.305  28.602  24.531  1.00  0.00     0.212 C 
ATOM     19  C   UNL A   1      28.627  28.120  22.816  1.00  0.00     0.156 C 
ATOM     20  C   UNL A   1      30.571  29.799  23.636  1.00  0.00     0.188 C 
ATOM     21  S   UNL A   1      29.132  29.810  22.541  1.00  0.00     0.155 S 
ATOM     22  O   UNL A   1      29.597  29.941  21.177  1.00  0.00    -0.229 OA
ATOM     23  O   UNL A   1      28.126  30.678  23.112  1.00  0.00    -0.229 OA
BRANCH  16  24
ATOM     24  C   UNL A   1      32.369  28.682  25.863  1.00  0.00     0.128 A 
ATOM     25  C   UNL A   1      33.733  28.387  25.747  1.00  0.00     0.056 A 
ATOM     26  C   UNL A   1      31.940  29.720  26.680  1.00  0.00     0.056 A 
ATOM     27  C   UNL A   1      34.657  29.059  26.526  1.00  0.00     0.051 A 
ATOM     28  C   UNL A   1      32.860  30.395  27.455  1.00  0.00     0.051 A 
ATOM     29  C   UNL A   1      34.214  30.033  27.415  1.00  0.00     0.127 A 
BRANCH  29  30
ATOM     30  O   UNL A   1      35.188  30.574  28.228  1.00  0.00    -0.457 OA
BRANCH  30  31
ATOM     31  C   UNL A   1      34.889  31.802  28.758  1.00  0.00     0.127 A 
ATOM     32  C   UNL A   1      34.981  31.950  30.138  1.00  0.00     0.047 A 
ATOM     33  C   UNL A   1      34.612  32.887  27.922  1.00  0.00     0.047 A 
ATOM     34  C   UNL A   1      34.845  33.217  30.691  1.00  0.00     0.004 A 
ATOM     35  C   UNL A   1      34.489  34.156  28.481  1.00  0.00     0.004 A 
ATOM     36  C   UNL A   1      34.610  34.318  29.863  1.00  0.00     0.000 A 
ENDBRANCH  30  31
ENDBRANCH  29  30
ENDBRANCH  16  24
ENDBRANCH   9  10
ENDBRANCH   8   9
ENDBRANCH   6   8
ENDBRANCH   5   6
ENDBRANCH   4   5
ENDBRANCH   3   4
ENDBRANCH   2   3
ENDBRANCH   1   2
BRANCH   1  37
ATOM     37  C   UNL A   1      35.410  22.505  25.171  1.00  0.00     0.188 C 
BRANCH  37  38
ATOM     38  O   UNL A   1      36.723  22.146  25.659  1.00  0.00    -0.376 OA
BRANCH  38  39
ATOM     39  C   UNL A   1      37.717  21.299  25.035  1.00  0.00     0.202 C 
BRANCH  39  40
ATOM     40  C   UNL A   1      38.908  20.565  25.701  1.00  0.00     0.261 C 
BRANCH  40  41
ATOM     41  O   UNL A   1      39.960  21.416  26.075  1.00  0.00    -0.460 OA
BRANCH  41  42
ATOM     42  C   UNL A   1      41.117  20.736  26.261  1.00  0.00     0.338 C 
ATOM     43  O   UNL A   1      41.344  19.572  26.025  1.00  0.00    -0.246 OA
BRANCH  42  44
ATOM     44  C   UNL A   1      42.103  21.802  26.430  1.00  0.00     0.060 A 
ATOM     45  C   UNL A   1      43.429  21.391  26.594  1.00  0.00     0.016 A 
ATOM     46  C   UNL A   1      41.757  23.143  26.222  1.00  0.00     0.016 A 
ATOM     47  C   UNL A   1      44.435  22.337  26.538  1.00  0.00     0.010 A 
ATOM     48  C   UNL A   1      42.758  24.098  26.223  1.00  0.00     0.010 A 
ATOM     49  C   UNL A   1      44.086  23.689  26.422  1.00  0.00    -0.014 A 
BRANCH  49  50
ATOM     50  C   UNL A   1      45.052  24.665  26.933  1.00  0.00     0.031 A 
ATOM     51  C   UNL A   1      44.808  25.139  28.335  1.00  0.00     0.074 A 
ATOM     52  C   UNL A   1      46.101  25.059  26.199  1.00  0.00     0.049 A 
ATOM     53  N   UNL A   1      45.485  25.992  29.048  1.00  0.00    -0.248 NA
ATOM     54  C   UNL A   1      43.637  24.565  29.031  1.00  0.00     0.031 C 
ATOM     55  C   UNL A   1      46.431  24.589  24.854  1.00  0.00     0.029 A 
ATOM     56  N   UNL A   1      47.086  25.956  26.500  1.00  0.00    -0.354 N 
ATOM     57  C   UNL A   1      44.824  26.052  30.269  1.00  0.00     0.074 A 
ATOM     58  C   UNL A   1      43.681  25.178  30.199  1.00  0.00     0.031 C 
ATOM     59  C   UNL A   1      47.545  25.218  24.438  1.00  0.00     0.029 A 
ATOM     60  C   UNL A   1      47.977  26.152  25.476  1.00  0.00     0.049 A 
ATOM     61  H   UNL A   1      47.151  26.417  27.368  1.00  0.00     0.167 HD
ATOM     62  C   UNL A   1      45.149  26.781  31.357  1.00  0.00     0.031 A 
ATOM     63  C   UNL A   1      49.007  27.016  25.398  1.00  0.00     0.031 A 
ATOM     64  C   UNL A   1      46.263  27.681  31.380  1.00  0.00     0.049 A 
ATOM     65  C   UNL A   1      49.292  27.894  26.591  1.00  0.00     0.074 A 
ATOM     66  C   UNL A   1      46.689  28.496  32.409  1.00  0.00     0.029 A 
ATOM     67  N   UNL A   1      47.118  27.894  30.307  1.00  0.00    -0.354 N 
ATOM     68  N   UNL A   1      48.674  27.938  27.750  1.00  0.00    -0.248 NA
ATOM     69  C   UNL A   1      50.414  28.831  26.468  1.00  0.00     0.031 C 
ATOM     70  C   UNL A   1      47.765  29.251  31.934  1.00  0.00     0.029 A 
ATOM     71  C   UNL A   1      48.057  28.850  30.638  1.00  0.00     0.049 A 
ATOM     72  H   UNL A   1      47.062  27.431  29.440  1.00  0.00     0.167 HD
ATOM     73  C   UNL A   1      49.353  28.886  28.508  1.00  0.00     0.074 A 
ATOM     74  C   UNL A   1      50.434  29.379  27.677  1.00  0.00     0.031 C 
ATOM     75  C   UNL A   1      49.115  29.310  29.775  1.00  0.00     0.031 A 
BRANCH  62  76
ATOM     76  C   UNL A   1      44.246  26.670  32.552  1.00  0.00    -0.014 A 
ATOM     77  C   UNL A   1      43.192  27.578  32.763  1.00  0.00     0.010 A 
ATOM     78  C   UNL A   1      44.468  25.647  33.492  1.00  0.00     0.010 A 
ATOM     79  C   UNL A   1      42.398  27.485  33.908  1.00  0.00     0.020 A 
ATOM     80  C   UNL A   1      43.655  25.532  34.622  1.00  0.00     0.020 A 
ATOM     81  C   UNL A   1      42.633  26.460  34.830  1.00  0.00     0.054 A 
BRANCH  81  82
ATOM     82  S   UNL A   1      41.567  26.343  36.290  1.00  0.00     0.124 S 
ATOM     83  O   UNL A   1      41.124  27.725  36.453  1.00  0.00    -0.237 OA
ATOM     84  O   UNL A   1      40.538  25.401  35.857  1.00  0.00    -0.237 OA
ATOM     85  O   UNL A   1      42.461  25.848  37.335  1.00  0.00    -0.744 OA
ENDBRANCH  81  82
ENDBRANCH  62  76
BRANCH  63  86
ATOM     86  C   UNL A   1      49.814  27.102  24.152  1.00  0.00    -0.014 A 
ATOM     87  C   UNL A   1      49.233  27.517  22.941  1.00  0.00     0.010 A 
ATOM     88  C   UNL A   1      51.184  26.779  24.174  1.00  0.00     0.010 A 
ATOM     89  C   UNL A   1      50.001  27.591  21.775  1.00  0.00     0.020 A 
ATOM     90  C   UNL A   1      51.962  26.879  23.017  1.00  0.00     0.020 A 
ATOM     91  C   UNL A   1      51.363  27.276  21.822  1.00  0.00     0.054 A 
BRANCH  91  92
ATOM     92  S   UNL A   1      52.349  27.428  20.307  1.00  0.00     0.124 S 
ATOM     93  O   UNL A   1      52.402  26.048  19.836  1.00  0.00    -0.237 OA
ATOM     94  O   UNL A   1      51.545  28.343  19.500  1.00  0.00    -0.237 OA
ATOM     95  O   UNL A   1      53.618  27.978  20.779  1.00  0.00    -0.744 OA
ENDBRANCH  91  92
ENDBRANCH  63  86
BRANCH  75  96
ATOM     96  C   UNL A   1      50.064  30.325  30.352  1.00  0.00    -0.014 A 
ATOM     97  C   UNL A   1      51.231  29.933  31.030  1.00  0.00     0.010 A 
ATOM     98  C   UNL A   1      49.816  31.694  30.138  1.00  0.00     0.010 A 
ATOM     99  C   UNL A   1      52.118  30.896  31.514  1.00  0.00     0.020 A 
ATOM    100  C   UNL A   1      50.718  32.657  30.589  1.00  0.00     0.020 A 
ATOM    101  C   UNL A   1      51.856  32.252  31.288  1.00  0.00     0.054 A 
BRANCH 101 102
ATOM    102  S   UNL A   1      53.049  33.480  31.885  1.00  0.00     0.124 S 
ATOM    103  O   UNL A   1      52.491  34.724  31.363  1.00  0.00    -0.237 OA
ATOM    104  O   UNL A   1      52.976  33.316  33.335  1.00  0.00    -0.237 OA
ATOM    105  O   UNL A   1      54.311  33.059  31.279  1.00  0.00    -0.744 OA
ENDBRANCH 101 102
ENDBRANCH  75  96
ENDBRANCH  49  50
ENDBRANCH  42  44
ENDBRANCH  41  42
ENDBRANCH  40  41
ENDBRANCH  39  40
ENDBRANCH  38  39
ENDBRANCH  37  38
ENDBRANCH   1  37
TORSDOF 25
ENDMDL
MODEL 3
REMARK VINA RESULT:      -7.6      4.981     12.019
REMARK SMILES O=C(CCC(=O)OCCOCCOCCOC(=O)c1ccc(-c2c3nc(c(-c4ccc(S(=O)(=O)[O-])cc4)c4ccc([nH]4)c(-c4ccc(S(=O)(=O)[O-])cc4)c4nc(c(-c5ccc(S(=O)(=O)[O-])cc5)c5ccc2[nH]5)C=C4)C=C3)cc1)/[NH+]=C1\S[C@H]2CS(=O)(=O)C[C@@H]2N1c1ccc(Oc2ccccc2)cc1
REMARK SMILES IDX 11 1 10 2 9 3 8 4 7 5 5 6 6 7 4 8 3 9 2 10 1 11 79 12 80 13
REMARK SMILES IDX 81 15 89 16 82 17 88 18 83 19 87 20 84 21 85 22 86 23 90 24
REMARK SMILES IDX 91 25 102 26 92 27 101 28 93 29 94 30 95 31 96 32 100 33
REMARK SMILES IDX 97 34 99 35 98 36 12 37 13 38 14 39 15 40 16 41 17 42 18 43
REMARK SMILES IDX 19 44 20 45 78 46 21 47 77 48 22 49 23 50 24 51 71 52 25 53
REMARK SMILES IDX 76 54 70 55 72 56 26 57 75 58 69 59 68 60 27 62 57 63 38 64
REMARK SMILES IDX 56 65 39 66 42 67 55 68 73 69 40 70 41 71 54 73 74 74 43 75
REMARK SMILES IDX 28 76 29 77 37 78 30 79 36 80 31 81 32 82 33 83 34 84 35 85
REMARK SMILES IDX 58 86 59 87 67 88 60 89 66 90 61 91 62 92 63 93 64 94 65 95
REMARK SMILES IDX 44 96 45 97 53 98 46 99 52 100 47 101 48 102 49 103 50 104
REMARK SMILES IDX 51 105
REMARK H PARENT 79 14 72 61 42 72
REMARK Flexibility Score: inf
ROOT
ATOM      1  C   UNL A   1      36.348  34.698  33.116  1.00  0.00     0.188 C 
ENDROOT
BRANCH   1   2
ATOM      2  O   UNL A   1      36.289  34.108  34.435  1.00  0.00    -0.376 OA
BRANCH   2   3
ATOM      3  C   UNL A   1      37.234  33.108  34.883  1.00  0.00     0.202 C 
BRANCH   3   4
ATOM      4  C   UNL A   1      38.197  33.270  36.121  1.00  0.00     0.261 C 
BRANCH   4   5
ATOM      5  O   UNL A   1      39.586  32.953  35.966  1.00  0.00    -0.463 OA
BRANCH   5   6
ATOM      6  C   UNL A   1      40.398  33.914  35.500  1.00  0.00     0.306 C 
ATOM      7  O   UNL A   1      40.466  35.040  35.971  1.00  0.00    -0.252 OA
BRANCH   6   8
ATOM      8  C   UNL A   1      41.232  33.418  34.335  1.00  0.00     0.135 C 
BRANCH   8   9
ATOM      9  C   UNL A   1      42.260  32.301  34.633  1.00  0.00     0.139 C 
BRANCH   9  10
ATOM     10  C   UNL A   1      42.901  31.631  33.402  1.00  0.00     0.308 C 
ATOM     11  O   UNL A   1      42.880  32.310  32.369  1.00  0.00    -0.247 OA
ATOM     12  N   UNL A   1      43.608  30.420  33.393  1.00  0.00    -0.204 N 
ATOM     13  C   UNL A   1      43.338  29.332  34.029  1.00  0.00     0.319 C 
ATOM     14  H   UNL A   1      44.414  30.398  32.828  1.00  0.00     0.316 HD
ATOM     15  S   UNL A   1      42.166  29.220  35.244  1.00  0.00    -0.029 SA
ATOM     16  N   UNL A   1      43.828  28.029  33.955  1.00  0.00    -0.217 N 
ATOM     17  C   UNL A   1      42.731  27.740  36.007  1.00  0.00     0.120 C 
ATOM     18  C   UNL A   1      43.092  27.005  34.744  1.00  0.00     0.212 C 
ATOM     19  C   UNL A   1      41.885  26.835  36.866  1.00  0.00     0.156 C 
ATOM     20  C   UNL A   1      43.812  25.788  35.296  1.00  0.00     0.188 C 
ATOM     21  S   UNL A   1      42.756  25.288  36.676  1.00  0.00     0.155 S 
ATOM     22  O   UNL A   1      43.590  25.077  37.839  1.00  0.00    -0.229 OA
ATOM     23  O   UNL A   1      41.815  24.298  36.198  1.00  0.00    -0.229 OA
BRANCH  16  24
ATOM     24  C   UNL A   1      44.692  27.598  32.974  1.00  0.00     0.128 A 
ATOM     25  C   UNL A   1      46.078  27.701  33.142  1.00  0.00     0.056 A 
ATOM     26  C   UNL A   1      44.160  27.120  31.783  1.00  0.00     0.056 A 
ATOM     27  C   UNL A   1      46.927  27.426  32.086  1.00  0.00     0.051 A 
ATOM     28  C   UNL A   1      45.006  26.842  30.729  1.00  0.00     0.051 A 
ATOM     29  C   UNL A   1      46.387  27.041  30.864  1.00  0.00     0.127 A 
BRANCH  29  30
ATOM     30  O   UNL A   1      47.298  26.893  29.839  1.00  0.00    -0.457 OA
BRANCH  30  31
ATOM     31  C   UNL A   1      48.610  26.832  30.229  1.00  0.00     0.127 A 
ATOM     32  C   UNL A   1      49.339  28.017  30.236  1.00  0.00     0.047 A 
ATOM     33  C   UNL A   1      49.154  25.635  30.704  1.00  0.00     0.047 A 
ATOM     34  C   UNL A   1      50.617  28.020  30.780  1.00  0.00     0.004 A 
ATOM     35  C   UNL A   1      50.431  25.647  31.258  1.00  0.00     0.004 A 
ATOM     36  C   UNL A   1      51.157  26.840  31.298  1.00  0.00     0.000 A 
ENDBRANCH  30  31
ENDBRANCH  29  30
ENDBRANCH  16  24
ENDBRANCH   9  10
ENDBRANCH   8   9
ENDBRANCH   6   8
ENDBRANCH   5   6
ENDBRANCH   4   5
ENDBRANCH   3   4
ENDBRANCH   2   3
ENDBRANCH   1   2
BRANCH   1  37
ATOM     37  C   UNL A   1      34.900  34.820  32.406  1.00  0.00     0.188 C 
BRANCH  37  38
ATOM     38  O   UNL A   1      34.624  33.992  31.253  1.00  0.00    -0.376 OA
BRANCH  38  39
ATOM     39  C   UNL A   1      35.503  33.061  30.579  1.00  0.00     0.202 C 
BRANCH  39  40
ATOM     40  C   UNL A   1      35.644  31.535  30.808  1.00  0.00     0.261 C 
BRANCH  40  41
ATOM     41  O   UNL A   1      36.962  31.119  31.055  1.00  0.00    -0.460 OA
BRANCH  41  42
ATOM     42  C   UNL A   1      37.152  29.820  30.725  1.00  0.00     0.338 C 
ATOM     43  O   UNL A   1      36.314  28.974  30.516  1.00  0.00    -0.246 OA
BRANCH  42  44
ATOM     44  C   UNL A   1      38.551  29.787  30.301  1.00  0.00     0.060 A 
ATOM     45  C   UNL A   1      38.780  29.916  28.928  1.00  0.00     0.016 A 
ATOM     46  C   UNL A   1      39.589  29.839  31.240  1.00  0.00     0.016 A 
ATOM     47  C   UNL A   1      40.072  30.114  28.481  1.00  0.00     0.010 A 
ATOM     48  C   UNL A   1      40.890  29.979  30.789  1.00  0.00     0.010 A 
ATOM     49  C   UNL A   1      41.123  30.075  29.408  1.00  0.00    -0.014 A 
BRANCH  49  50
ATOM     50  C   UNL A   1      42.444  29.709  28.892  1.00  0.00     0.031 A 
ATOM     51  C   UNL A   1      42.584  28.288  28.430  1.00  0.00     0.074 A 
ATOM     52  C   UNL A   1      43.432  30.608  28.803  1.00  0.00     0.049 A 
ATOM     53  N   UNL A   1      43.621  27.680  27.932  1.00  0.00    -0.248 NA
ATOM     54  C   UNL A   1      41.381  27.437  28.543  1.00  0.00     0.031 C 
ATOM     55  C   UNL A   1      43.342  32.019  29.174  1.00  0.00     0.029 A 
ATOM     56  N   UNL A   1      44.716  30.450  28.363  1.00  0.00    -0.354 N 
ATOM     57  C   UNL A   1      43.194  26.383  27.673  1.00  0.00     0.074 A 
ATOM     58  C   UNL A   1      41.819  26.277  28.090  1.00  0.00     0.031 C 
ATOM     59  C   UNL A   1      44.537  32.600  28.957  1.00  0.00     0.029 A 
ATOM     60  C   UNL A   1      45.472  31.589  28.465  1.00  0.00     0.049 A 
ATOM     61  H   UNL A   1      45.065  29.600  28.008  1.00  0.00     0.167 HD
ATOM     62  C   UNL A   1      43.897  25.367  27.132  1.00  0.00     0.031 A 
ATOM     63  C   UNL A   1      46.781  31.768  28.208  1.00  0.00     0.031 A 
ATOM     64  C   UNL A   1      45.279  25.488  26.774  1.00  0.00     0.049 A 
ATOM     65  C   UNL A   1      47.574  30.590  27.697  1.00  0.00     0.074 A 
ATOM     66  C   UNL A   1      46.115  24.529  26.238  1.00  0.00     0.029 A 
ATOM     67  N   UNL A   1      46.030  26.644  26.936  1.00  0.00    -0.354 N 
ATOM     68  N   UNL A   1      47.163  29.369  27.439  1.00  0.00    -0.248 NA
ATOM     69  C   UNL A   1      48.999  30.817  27.436  1.00  0.00     0.031 C 
ATOM     70  C   UNL A   1      47.391  25.090  26.137  1.00  0.00     0.029 A 
ATOM     71  C   UNL A   1      47.331  26.418  26.536  1.00  0.00     0.049 A 
ATOM     72  H   UNL A   1      45.685  27.498  27.284  1.00  0.00     0.167 HD
ATOM     73  C   UNL A   1      48.275  28.688  26.954  1.00  0.00     0.074 A 
ATOM     74  C   UNL A   1      49.369  29.640  26.946  1.00  0.00     0.031 C 
ATOM     75  C   UNL A   1      48.388  27.398  26.547  1.00  0.00     0.031 A 
BRANCH  62  76
ATOM     76  C   UNL A   1      43.190  24.051  26.974  1.00  0.00    -0.014 A 
ATOM     77  C   UNL A   1      42.614  23.670  25.748  1.00  0.00     0.010 A 
ATOM     78  C   UNL A   1      43.086  23.188  28.079  1.00  0.00     0.010 A 
ATOM     79  C   UNL A   1      41.918  22.464  25.640  1.00  0.00     0.020 A 
ATOM     80  C   UNL A   1      42.418  21.966  27.966  1.00  0.00     0.020 A 
ATOM     81  C   UNL A   1      41.827  21.618  26.750  1.00  0.00     0.054 A 
BRANCH  81  82
ATOM     82  S   UNL A   1      40.946  20.044  26.573  1.00  0.00     0.124 S 
ATOM     83  O   UNL A   1      40.872  19.582  27.957  1.00  0.00    -0.237 OA
ATOM     84  O   UNL A   1      39.677  20.455  25.979  1.00  0.00    -0.237 OA
ATOM     85  O   UNL A   1      41.813  19.257  25.699  1.00  0.00    -0.744 OA
ENDBRANCH  81  82
ENDBRANCH  62  76
BRANCH  63  86
ATOM     86  C   UNL A   1      47.415  33.092  28.448  1.00  0.00    -0.014 A 
ATOM     87  C   UNL A   1      47.979  33.826  27.390  1.00  0.00     0.010 A 
ATOM     88  C   UNL A   1      47.445  33.636  29.746  1.00  0.00     0.010 A 
ATOM     89  C   UNL A   1      48.575  35.069  27.628  1.00  0.00     0.020 A 
ATOM     90  C   UNL A   1      48.013  34.891  29.984  1.00  0.00     0.020 A 
ATOM     91  C   UNL A   1      48.584  35.595  28.923  1.00  0.00     0.054 A 
BRANCH  91  92
ATOM     92  S   UNL A   1      49.317  37.231  29.197  1.00  0.00     0.124 S 
ATOM     93  O   UNL A   1      49.775  37.589  27.859  1.00  0.00    -0.237 OA
ATOM     94  O   UNL A   1      48.186  38.001  29.709  1.00  0.00    -0.237 OA
ATOM     95  O   UNL A   1      50.376  36.973  30.172  1.00  0.00    -0.744 OA
ENDBRANCH  91  92
ENDBRANCH  63  86
BRANCH  75  96
ATOM     96  C   UNL A   1      49.726  26.956  26.020  1.00  0.00    -0.014 A 
ATOM     97  C   UNL A   1      50.083  27.151  24.676  1.00  0.00     0.010 A 
ATOM     98  C   UNL A   1      50.666  26.408  26.912  1.00  0.00     0.010 A 
ATOM     99  C   UNL A   1      51.349  26.774  24.224  1.00  0.00     0.020 A 
ATOM    100  C   UNL A   1      51.943  26.062  26.473  1.00  0.00     0.020 A 
ATOM    101  C   UNL A   1      52.271  26.234  25.127  1.00  0.00     0.054 A 
BRANCH 101 102
ATOM    102  S   UNL A   1      53.925  25.797  24.525  1.00  0.00     0.124 S 
ATOM    103  O   UNL A   1      54.032  24.396  24.921  1.00  0.00    -0.237 OA
ATOM    104  O   UNL A   1      53.815  26.040  23.088  1.00  0.00    -0.237 OA
ATOM    105  O   UNL A   1      54.808  26.717  25.241  1.00  0.00    -0.744 OA
ENDBRANCH 101 102
ENDBRANCH  75  96
ENDBRANCH  49  50
ENDBRANCH  42  44
ENDBRANCH  41  42
ENDBRANCH  40  41
ENDBRANCH  39  40
ENDBRANCH  38  39
ENDBRANCH  37  38
ENDBRANCH   1  37
TORSDOF 25
ENDMDL
