MODEL 1
REMARK VINA RESULT:      -9.3      0.000      0.000
REMARK SMILES C[C@H](c1ccccc1Cl)N(C)c1cccc(F)c1C(=O)OCCOCCOCCOC(=O)c1ccc(-c2c3nc(c(-c4ccc(S(=O)(=O)[O-])cc4)c4ccc([nH]4)c(-c4ccc(S(=O)(=O)[O-])cc4)c4nc(c(-c5ccc(S(=O)(=O)[O-])cc5)c5ccc2[nH]5)C=C4)C=C3)cc1
REMARK SMILES IDX 25 1 24 2 23 3 22 4 21 5 19 6 20 7 18 8 12 9 13 10 14 11
REMARK SMILES IDX 16 12 15 13 17 14 10 15 11 16 2 17 1 18 3 19 4 20 8 21 5 22
REMARK SMILES IDX 7 23 9 24 6 25 26 26 27 27 28 28 29 29 30 30 31 31 32 32
REMARK SMILES IDX 33 33 34 34 92 35 35 36 91 37 36 38 37 39 38 40 85 41 39 42
REMARK SMILES IDX 90 43 84 44 86 45 40 46 89 47 83 48 82 49 41 51 71 52 52 53
REMARK SMILES IDX 70 54 53 55 56 56 69 57 87 58 54 59 55 60 68 62 88 63 57 64
REMARK SMILES IDX 42 65 43 66 51 67 44 68 50 69 45 70 46 71 47 72 48 73 49 74
REMARK SMILES IDX 72 75 73 76 81 77 74 78 80 79 75 80 76 81 77 82 78 83 79 84
REMARK SMILES IDX 58 85 59 86 67 87 60 88 66 89 61 90 62 91 63 92 64 93 65 94
REMARK H PARENT 86 50 56 61
REMARK Flexibility Score: inf
ROOT
ATOM      1  C   UNL A   1      38.335  21.370  25.327  1.00  0.00     0.188 C 
ENDROOT
BRANCH   1   2
ATOM      2  O   UNL A   1      37.044  21.815  25.738  1.00  0.00    -0.376 OA
BRANCH   2   3
ATOM      3  C   UNL A   1      36.870  23.232  25.698  1.00  0.00     0.202 C 
BRANCH   3   4
ATOM      4  C   UNL A   1      35.448  23.612  26.100  1.00  0.00     0.261 C 
BRANCH   4   5
ATOM      5  O   UNL A   1      34.626  22.448  26.278  1.00  0.00    -0.460 OA
BRANCH   5   6
ATOM      6  C   UNL A   1      33.277  22.591  26.253  1.00  0.00     0.343 C 
ATOM      7  O   UNL A   1      32.604  23.157  27.094  1.00  0.00    -0.246 OA
BRANCH   6   8
ATOM      8  C   UNL A   1      32.826  22.021  24.962  1.00  0.00     0.119 A 
ATOM      9  C   UNL A   1      32.611  22.775  23.786  1.00  0.00     0.055 A 
ATOM     10  C   UNL A   1      32.356  22.031  22.611  1.00  0.00     0.027 A 
ATOM     11  C   UNL A   1      32.226  20.639  22.598  1.00  0.00     0.005 A 
ATOM     12  C   UNL A   1      32.662  20.621  24.945  1.00  0.00     0.139 A 
ATOM     13  C   UNL A   1      32.362  19.931  23.779  1.00  0.00     0.040 A 
ATOM     14  F   UNL A   1      32.797  19.899  26.069  1.00  0.00    -0.206 F 
BRANCH   9  15
ATOM     15  N   UNL A   1      32.641  24.161  23.666  1.00  0.00    -0.367 N 
ATOM     16  C   UNL A   1      33.820  24.832  23.147  1.00  0.00     0.144 C 
BRANCH  15  17
ATOM     17  C   UNL A   1      31.638  25.014  24.366  1.00  0.00     0.110 C 
ATOM     18  C   UNL A   1      30.277  24.934  23.676  1.00  0.00     0.036 C 
BRANCH  17  19
ATOM     19  C   UNL A   1      32.214  26.368  24.773  1.00  0.00    -0.007 A 
ATOM     20  C   UNL A   1      32.814  26.428  26.057  1.00  0.00     0.007 A 
ATOM     21  C   UNL A   1      32.251  27.539  23.996  1.00  0.00     0.046 A 
ATOM     22  C   UNL A   1      33.411  27.590  26.546  1.00  0.00     0.000 A 
ATOM     23  C   UNL A   1      32.854  28.706  24.494  1.00  0.00     0.021 A 
ATOM     24  Cl  UNL A   1      31.649  27.649  22.382  1.00  0.00    -0.084 Cl
ATOM     25  C   UNL A   1      33.431  28.734  25.762  1.00  0.00     0.002 A 
ENDBRANCH  17  19
ENDBRANCH  15  17
ENDBRANCH   9  15
ENDBRANCH   6   8
ENDBRANCH   5   6
ENDBRANCH   4   5
ENDBRANCH   3   4
ENDBRANCH   2   3
ENDBRANCH   1   2
BRANCH   1  26
ATOM     26  C   UNL A   1      39.481  21.925  26.190  1.00  0.00     0.188 C 
BRANCH  26  27
ATOM     27  O   UNL A   1      40.785  21.358  26.115  1.00  0.00    -0.376 OA
BRANCH  27  28
ATOM     28  C   UNL A   1      41.033  20.112  26.742  1.00  0.00     0.202 C 
BRANCH  28  29
ATOM     29  C   UNL A   1      42.287  19.364  26.278  1.00  0.00     0.261 C 
BRANCH  29  30
ATOM     30  O   UNL A   1      42.713  19.696  24.946  1.00  0.00    -0.460 OA
BRANCH  30  31
ATOM     31  C   UNL A   1      44.057  19.718  24.759  1.00  0.00     0.338 C 
ATOM     32  O   UNL A   1      44.763  18.791  24.401  1.00  0.00    -0.246 OA
BRANCH  31  33
ATOM     33  C   UNL A   1      44.579  21.090  24.949  1.00  0.00     0.060 A 
ATOM     34  C   UNL A   1      45.254  21.382  26.141  1.00  0.00     0.016 A 
ATOM     35  C   UNL A   1      44.330  22.104  24.019  1.00  0.00     0.016 A 
ATOM     36  C   UNL A   1      45.645  22.693  26.425  1.00  0.00     0.010 A 
ATOM     37  C   UNL A   1      44.708  23.421  24.313  1.00  0.00     0.010 A 
ATOM     38  C   UNL A   1      45.337  23.729  25.532  1.00  0.00    -0.014 A 
BRANCH  38  39
ATOM     39  C   UNL A   1      45.539  25.145  25.937  1.00  0.00     0.031 A 
ATOM     40  C   UNL A   1      46.918  25.739  25.854  1.00  0.00     0.074 A 
ATOM     41  C   UNL A   1      44.515  25.902  26.367  1.00  0.00     0.049 A 
ATOM     42  N   UNL A   1      47.318  26.942  26.176  1.00  0.00    -0.248 NA
ATOM     43  C   UNL A   1      47.986  24.860  25.353  1.00  0.00     0.031 C 
ATOM     44  C   UNL A   1      43.133  25.451  26.487  1.00  0.00     0.029 A 
ATOM     45  N   UNL A   1      44.478  27.209  26.787  1.00  0.00    -0.354 N 
ATOM     46  C   UNL A   1      48.685  26.964  25.928  1.00  0.00     0.074 A 
ATOM     47  C   UNL A   1      49.046  25.649  25.442  1.00  0.00     0.031 C 
ATOM     48  C   UNL A   1      42.374  26.469  26.930  1.00  0.00     0.029 A 
ATOM     49  C   UNL A   1      43.229  27.630  27.176  1.00  0.00     0.049 A 
ATOM     50  H   UNL A   1      45.272  27.790  26.807  1.00  0.00     0.167 HD
ATOM     51  C   UNL A   1      49.562  27.982  26.094  1.00  0.00     0.031 A 
ATOM     52  C   UNL A   1      42.823  28.806  27.699  1.00  0.00     0.031 A 
ATOM     53  C   UNL A   1      49.216  29.281  26.607  1.00  0.00     0.049 A 
ATOM     54  C   UNL A   1      43.831  29.901  27.936  1.00  0.00     0.074 A 
ATOM     55  C   UNL A   1      50.041  30.375  26.802  1.00  0.00     0.029 A 
ATOM     56  N   UNL A   1      47.949  29.658  27.022  1.00  0.00    -0.354 N 
ATOM     57  N   UNL A   1      45.114  29.915  27.663  1.00  0.00    -0.248 NA
ATOM     58  C   UNL A   1      43.336  31.138  28.560  1.00  0.00     0.031 C 
ATOM     59  C   UNL A   1      49.284  31.396  27.386  1.00  0.00     0.029 A 
ATOM     60  C   UNL A   1      47.974  30.958  27.499  1.00  0.00     0.049 A 
ATOM     61  H   UNL A   1      47.149  29.085  26.985  1.00  0.00     0.167 HD
ATOM     62  C   UNL A   1      45.573  31.166  28.065  1.00  0.00     0.074 A 
ATOM     63  C   UNL A   1      44.429  31.888  28.583  1.00  0.00     0.031 C 
ATOM     64  C   UNL A   1      46.831  31.670  28.011  1.00  0.00     0.031 A 
BRANCH  51  65
ATOM     65  C   UNL A   1      51.003  27.712  25.753  1.00  0.00    -0.014 A 
ATOM     66  C   UNL A   1      51.508  27.985  24.470  1.00  0.00     0.010 A 
ATOM     67  C   UNL A   1      51.867  27.205  26.740  1.00  0.00     0.010 A 
ATOM     68  C   UNL A   1      52.847  27.719  24.169  1.00  0.00     0.020 A 
ATOM     69  C   UNL A   1      53.211  26.961  26.449  1.00  0.00     0.020 A 
ATOM     70  C   UNL A   1      53.688  27.203  25.159  1.00  0.00     0.054 A 
BRANCH  70  71
ATOM     71  S   UNL A   1      55.424  26.878  24.744  1.00  0.00     0.124 S 
ATOM     72  O   UNL A   1      56.125  27.692  25.733  1.00  0.00    -0.237 OA
ATOM     73  O   UNL A   1      55.533  25.434  24.928  1.00  0.00    -0.237 OA
ATOM     74  O   UNL A   1      55.542  27.338  23.362  1.00  0.00    -0.744 OA
ENDBRANCH  70  71
ENDBRANCH  51  65
BRANCH  52  75
ATOM     75  C   UNL A   1      41.395  29.006  28.070  1.00  0.00    -0.014 A 
ATOM     76  C   UNL A   1      40.416  29.188  27.078  1.00  0.00     0.010 A 
ATOM     77  C   UNL A   1      41.010  29.032  29.423  1.00  0.00     0.010 A 
ATOM     78  C   UNL A   1      39.082  29.412  27.432  1.00  0.00     0.020 A 
ATOM     79  C   UNL A   1      39.673  29.226  29.780  1.00  0.00     0.020 A 
ATOM     80  C   UNL A   1      38.719  29.427  28.781  1.00  0.00     0.054 A 
BRANCH  80  81
ATOM     81  S   UNL A   1      36.975  29.672  29.218  1.00  0.00     0.124 S 
ATOM     82  O   UNL A   1      36.880  28.972  30.494  1.00  0.00    -0.237 OA
ATOM     83  O   UNL A   1      36.868  31.128  29.282  1.00  0.00    -0.237 OA
ATOM     84  O   UNL A   1      36.256  29.051  28.105  1.00  0.00    -0.744 OA
ENDBRANCH  80  81
ENDBRANCH  52  75
BRANCH  64  85
ATOM     85  C   UNL A   1      47.042  33.081  28.495  1.00  0.00    -0.014 A 
ATOM     86  C   UNL A   1      46.743  34.186  27.680  1.00  0.00     0.010 A 
ATOM     87  C   UNL A   1      47.486  33.304  29.812  1.00  0.00     0.010 A 
ATOM     88  C   UNL A   1      46.904  35.488  28.164  1.00  0.00     0.020 A 
ATOM     89  C   UNL A   1      47.624  34.603  30.309  1.00  0.00     0.020 A 
ATOM     90  C   UNL A   1      47.344  35.688  29.477  1.00  0.00     0.054 A 
BRANCH  90  91
ATOM     91  S   UNL A   1      47.495  37.385  30.102  1.00  0.00     0.124 S 
ATOM     92  O   UNL A   1      48.055  38.084  28.948  1.00  0.00    -0.237 OA
ATOM     93  O   UNL A   1      46.115  37.729  30.436  1.00  0.00    -0.237 OA
ATOM     94  O   UNL A   1      48.393  37.254  31.248  1.00  0.00    -0.744 OA
ENDBRANCH  90  91
ENDBRANCH  64  85
ENDBRANCH  38  39
ENDBRANCH  31  33
ENDBRANCH  30  31
ENDBRANCH  29  30
ENDBRANCH  28  29
ENDBRANCH  27  28
ENDBRANCH  26  27
ENDBRANCH   1  26
TORSDOF 23
ENDMDL
MODEL 2
REMARK VINA RESULT:      -8.2      9.051     13.258
REMARK SMILES C[C@H](c1ccccc1Cl)N(C)c1cccc(F)c1C(=O)OCCOCCOCCOC(=O)c1ccc(-c2c3nc(c(-c4ccc(S(=O)(=O)[O-])cc4)c4ccc([nH]4)c(-c4ccc(S(=O)(=O)[O-])cc4)c4nc(c(-c5ccc(S(=O)(=O)[O-])cc5)c5ccc2[nH]5)C=C4)C=C3)cc1
REMARK SMILES IDX 25 1 24 2 23 3 22 4 21 5 19 6 20 7 18 8 12 9 13 10 14 11
REMARK SMILES IDX 16 12 15 13 17 14 10 15 11 16 2 17 1 18 3 19 4 20 8 21 5 22
REMARK SMILES IDX 7 23 9 24 6 25 26 26 27 27 28 28 29 29 30 30 31 31 32 32
REMARK SMILES IDX 33 33 34 34 92 35 35 36 91 37 36 38 37 39 38 40 85 41 39 42
REMARK SMILES IDX 90 43 84 44 86 45 40 46 89 47 83 48 82 49 41 51 71 52 52 53
REMARK SMILES IDX 70 54 53 55 56 56 69 57 87 58 54 59 55 60 68 62 88 63 57 64
REMARK SMILES IDX 42 65 43 66 51 67 44 68 50 69 45 70 46 71 47 72 48 73 49 74
REMARK SMILES IDX 72 75 73 76 81 77 74 78 80 79 75 80 76 81 77 82 78 83 79 84
REMARK SMILES IDX 58 85 59 86 67 87 60 88 66 89 61 90 62 91 63 92 64 93 65 94
REMARK H PARENT 86 50 56 61
REMARK Flexibility Score: inf
ROOT
ATOM      1  C   UNL A   1      34.519  30.896  28.176  1.00  0.00     0.188 C 
ENDROOT
BRANCH   1   2
ATOM      2  O   UNL A   1      34.286  30.262  26.920  1.00  0.00    -0.376 OA
BRANCH   2   3
ATOM      3  C   UNL A   1      33.155  29.391  26.902  1.00  0.00     0.202 C 
BRANCH   3   4
ATOM      4  C   UNL A   1      33.590  27.947  26.669  1.00  0.00     0.261 C 
BRANCH   4   5
ATOM      5  O   UNL A   1      32.720  27.282  25.740  1.00  0.00    -0.460 OA
BRANCH   5   6
ATOM      6  C   UNL A   1      31.599  26.679  26.212  1.00  0.00     0.343 C 
ATOM      7  O   UNL A   1      30.922  27.064  27.146  1.00  0.00    -0.246 OA
BRANCH   6   8
ATOM      8  C   UNL A   1      31.325  25.546  25.297  1.00  0.00     0.119 A 
ATOM      9  C   UNL A   1      30.494  25.621  24.156  1.00  0.00     0.055 A 
ATOM     10  C   UNL A   1      30.498  24.488  23.311  1.00  0.00     0.027 A 
ATOM     11  C   UNL A   1      31.198  23.314  23.606  1.00  0.00     0.005 A 
ATOM     12  C   UNL A   1      32.002  24.348  25.602  1.00  0.00     0.139 A 
ATOM     13  C   UNL A   1      31.941  23.238  24.771  1.00  0.00     0.040 A 
ATOM     14  F   UNL A   1      32.741  24.240  26.719  1.00  0.00    -0.206 F 
BRANCH   9  15
ATOM     15  N   UNL A   1      29.694  26.695  23.776  1.00  0.00    -0.367 N 
ATOM     16  C   UNL A   1      28.256  26.653  23.980  1.00  0.00     0.144 C 
BRANCH  15  17
ATOM     17  C   UNL A   1      30.210  27.749  22.856  1.00  0.00     0.110 C 
ATOM     18  C   UNL A   1      31.603  27.391  22.342  1.00  0.00     0.036 C 
BRANCH  17  19
ATOM     19  C   UNL A   1      29.919  29.157  23.370  1.00  0.00    -0.007 A 
ATOM     20  C   UNL A   1      30.775  29.634  24.396  1.00  0.00     0.007 A 
ATOM     21  C   UNL A   1      28.928  30.039  22.904  1.00  0.00     0.046 A 
ATOM     22  C   UNL A   1      30.647  30.914  24.936  1.00  0.00     0.000 A 
ATOM     23  C   UNL A   1      28.806  31.327  23.452  1.00  0.00     0.021 A 
ATOM     24  Cl  UNL A   1      27.843  29.679  21.610  1.00  0.00    -0.084 Cl
ATOM     25  C   UNL A   1      29.659  31.764  24.462  1.00  0.00     0.002 A 
ENDBRANCH  17  19
ENDBRANCH  15  17
ENDBRANCH   9  15
ENDBRANCH   6   8
ENDBRANCH   5   6
ENDBRANCH   4   5
ENDBRANCH   3   4
ENDBRANCH   2   3
ENDBRANCH   1   2
BRANCH   1  26
ATOM     26  C   UNL A   1      35.185  32.277  28.055  1.00  0.00     0.188 C 
BRANCH  26  27
ATOM     27  O   UNL A   1      35.632  32.970  29.217  1.00  0.00    -0.376 OA
BRANCH  27  28
ATOM     28  C   UNL A   1      35.074  32.638  30.476  1.00  0.00     0.202 C 
BRANCH  28  29
ATOM     29  C   UNL A   1      36.070  32.217  31.561  1.00  0.00     0.261 C 
BRANCH  29  30
ATOM     30  O   UNL A   1      37.450  32.374  31.190  1.00  0.00    -0.460 OA
BRANCH  30  31
ATOM     31  C   UNL A   1      38.072  31.237  30.790  1.00  0.00     0.338 C 
ATOM     32  O   UNL A   1      37.954  30.677  29.713  1.00  0.00    -0.246 OA
BRANCH  31  33
ATOM     33  C   UNL A   1      39.038  30.791  31.819  1.00  0.00     0.060 A 
ATOM     34  C   UNL A   1      38.553  30.049  32.903  1.00  0.00     0.016 A 
ATOM     35  C   UNL A   1      40.382  31.173  31.777  1.00  0.00     0.016 A 
ATOM     36  C   UNL A   1      39.399  29.722  33.966  1.00  0.00     0.010 A 
ATOM     37  C   UNL A   1      41.225  30.859  32.852  1.00  0.00     0.010 A 
ATOM     38  C   UNL A   1      40.730  30.161  33.968  1.00  0.00    -0.014 A 
BRANCH  38  39
ATOM     39  C   UNL A   1      41.559  30.020  35.194  1.00  0.00     0.031 A 
ATOM     40  C   UNL A   1      41.490  31.089  36.250  1.00  0.00     0.074 A 
ATOM     41  C   UNL A   1      42.361  28.956  35.378  1.00  0.00     0.049 A 
ATOM     42  N   UNL A   1      42.142  31.173  37.381  1.00  0.00    -0.248 NA
ATOM     43  C   UNL A   1      40.576  32.212  35.991  1.00  0.00     0.031 C 
ATOM     44  C   UNL A   1      42.513  27.851  34.439  1.00  0.00     0.029 A 
ATOM     45  N   UNL A   1      43.199  28.633  36.415  1.00  0.00    -0.354 N 
ATOM     46  C   UNL A   1      41.726  32.363  37.966  1.00  0.00     0.074 A 
ATOM     47  C   UNL A   1      40.777  32.972  37.058  1.00  0.00     0.031 C 
ATOM     48  C   UNL A   1      43.377  26.955  34.949  1.00  0.00     0.029 A 
ATOM     49  C   UNL A   1      43.880  27.453  36.228  1.00  0.00     0.049 A 
ATOM     50  H   UNL A   1      43.304  29.192  37.218  1.00  0.00     0.167 HD
ATOM     51  C   UNL A   1      42.104  32.904  39.149  1.00  0.00     0.031 A 
ATOM     52  C   UNL A   1      44.822  26.854  36.987  1.00  0.00     0.031 A 
ATOM     53  C   UNL A   1      43.070  32.321  40.041  1.00  0.00     0.049 A 
ATOM     54  C   UNL A   1      45.273  27.510  38.266  1.00  0.00     0.074 A 
ATOM     55  C   UNL A   1      43.507  32.799  41.264  1.00  0.00     0.029 A 
ATOM     56  N   UNL A   1      43.762  31.145  39.802  1.00  0.00    -0.354 N 
ATOM     57  N   UNL A   1      44.844  28.618  38.822  1.00  0.00    -0.248 NA
ATOM     58  C   UNL A   1      46.342  26.836  39.019  1.00  0.00     0.031 C 
ATOM     59  C   UNL A   1      44.503  31.939  41.740  1.00  0.00     0.029 A 
ATOM     60  C   UNL A   1      44.643  30.894  40.840  1.00  0.00     0.049 A 
ATOM     61  H   UNL A   1      43.645  30.572  39.010  1.00  0.00     0.167 HD
ATOM     62  C   UNL A   1      45.578  28.763  39.996  1.00  0.00     0.074 A 
ATOM     63  C   UNL A   1      46.465  27.621  40.081  1.00  0.00     0.031 C 
ATOM     64  C   UNL A   1      45.522  29.755  40.918  1.00  0.00     0.031 A 
BRANCH  51  65
ATOM     65  C   UNL A   1      41.492  34.227  39.527  1.00  0.00    -0.014 A 
ATOM     66  C   UNL A   1      40.355  34.291  40.351  1.00  0.00     0.010 A 
ATOM     67  C   UNL A   1      42.083  35.420  39.074  1.00  0.00     0.010 A 
ATOM     68  C   UNL A   1      39.796  35.528  40.684  1.00  0.00     0.020 A 
ATOM     69  C   UNL A   1      41.541  36.658  39.425  1.00  0.00     0.020 A 
ATOM     70  C   UNL A   1      40.389  36.703  40.214  1.00  0.00     0.054 A 
BRANCH  70  71
ATOM     71  S   UNL A   1      39.649  38.295  40.671  1.00  0.00     0.124 S 
ATOM     72  O   UNL A   1      39.663  38.224  42.129  1.00  0.00    -0.237 OA
ATOM     73  O   UNL A   1      40.573  39.260  40.081  1.00  0.00    -0.237 OA
ATOM     74  O   UNL A   1      38.324  38.250  40.057  1.00  0.00    -0.744 OA
ENDBRANCH  70  71
ENDBRANCH  51  65
BRANCH  52  75
ATOM     75  C   UNL A   1      45.436  25.572  36.543  1.00  0.00    -0.014 A 
ATOM     76  C   UNL A   1      46.571  25.571  35.714  1.00  0.00     0.010 A 
ATOM     77  C   UNL A   1      44.874  24.342  36.934  1.00  0.00     0.010 A 
ATOM     78  C   UNL A   1      47.123  24.365  35.269  1.00  0.00     0.020 A 
ATOM     79  C   UNL A   1      45.440  23.136  36.516  1.00  0.00     0.020 A 
ATOM     80  C   UNL A   1      46.554  23.156  35.675  1.00  0.00     0.054 A 
BRANCH  80  81
ATOM     81  S   UNL A   1      47.313  21.601  35.125  1.00  0.00     0.124 S 
ATOM     82  O   UNL A   1      47.467  20.877  36.383  1.00  0.00    -0.237 OA
ATOM     83  O   UNL A   1      46.311  21.070  34.205  1.00  0.00    -0.237 OA
ATOM     84  O   UNL A   1      48.558  22.037  34.494  1.00  0.00    -0.744 OA
ENDBRANCH  80  81
ENDBRANCH  52  75
BRANCH  64  85
ATOM     85  C   UNL A   1      46.421  29.643  42.123  1.00  0.00    -0.014 A 
ATOM     86  C   UNL A   1      46.034  28.914  43.260  1.00  0.00     0.010 A 
ATOM     87  C   UNL A   1      47.703  30.224  42.087  1.00  0.00     0.010 A 
ATOM     88  C   UNL A   1      46.902  28.787  44.348  1.00  0.00     0.020 A 
ATOM     89  C   UNL A   1      48.584  30.077  43.162  1.00  0.00     0.020 A 
ATOM     90  C   UNL A   1      48.172  29.369  44.292  1.00  0.00     0.054 A 
BRANCH  90  91
ATOM     91  S   UNL A   1      49.302  29.145  45.695  1.00  0.00     0.124 S 
ATOM     92  O   UNL A   1      48.383  28.773  46.767  1.00  0.00    -0.237 OA
ATOM     93  O   UNL A   1      50.188  28.081  45.228  1.00  0.00    -0.237 OA
ATOM     94  O   UNL A   1      49.935  30.454  45.843  1.00  0.00    -0.744 OA
ENDBRANCH  90  91
ENDBRANCH  64  85
ENDBRANCH  38  39
ENDBRANCH  31  33
ENDBRANCH  30  31
ENDBRANCH  29  30
ENDBRANCH  28  29
ENDBRANCH  27  28
ENDBRANCH  26  27
ENDBRANCH   1  26
TORSDOF 23
ENDMDL
MODEL 3
REMARK VINA RESULT:      -8.1      3.188      9.046
REMARK SMILES C[C@H](c1ccccc1Cl)N(C)c1cccc(F)c1C(=O)OCCOCCOCCOC(=O)c1ccc(-c2c3nc(c(-c4ccc(S(=O)(=O)[O-])cc4)c4ccc([nH]4)c(-c4ccc(S(=O)(=O)[O-])cc4)c4nc(c(-c5ccc(S(=O)(=O)[O-])cc5)c5ccc2[nH]5)C=C4)C=C3)cc1
REMARK SMILES IDX 25 1 24 2 23 3 22 4 21 5 19 6 20 7 18 8 12 9 13 10 14 11
REMARK SMILES IDX 16 12 15 13 17 14 10 15 11 16 2 17 1 18 3 19 4 20 8 21 5 22
REMARK SMILES IDX 7 23 9 24 6 25 26 26 27 27 28 28 29 29 30 30 31 31 32 32
REMARK SMILES IDX 33 33 34 34 92 35 35 36 91 37 36 38 37 39 38 40 85 41 39 42
REMARK SMILES IDX 90 43 84 44 86 45 40 46 89 47 83 48 82 49 41 51 71 52 52 53
REMARK SMILES IDX 70 54 53 55 56 56 69 57 87 58 54 59 55 60 68 62 88 63 57 64
REMARK SMILES IDX 42 65 43 66 51 67 44 68 50 69 45 70 46 71 47 72 48 73 49 74
REMARK SMILES IDX 72 75 73 76 81 77 74 78 80 79 75 80 76 81 77 82 78 83 79 84
REMARK SMILES IDX 58 85 59 86 67 87 60 88 66 89 61 90 62 91 63 92 64 93 65 94
REMARK H PARENT 86 50 56 61
REMARK Flexibility Score: inf
ROOT
ATOM      1  C   UNL A   1      41.385  20.080  26.051  1.00  0.00     0.188 C 
ENDROOT
BRANCH   1   2
ATOM      2  O   UNL A   1      40.565  21.213  25.768  1.00  0.00    -0.376 OA
BRANCH   2   3
ATOM      3  C   UNL A   1      39.269  21.165  26.366  1.00  0.00     0.202 C 
BRANCH   3   4
ATOM      4  C   UNL A   1      38.409  22.328  25.881  1.00  0.00     0.261 C 
BRANCH   4   5
ATOM      5  O   UNL A   1      37.034  21.940  25.744  1.00  0.00    -0.460 OA
BRANCH   5   6
ATOM      6  C   UNL A   1      36.485  21.906  24.503  1.00  0.00     0.343 C 
ATOM      7  O   UNL A   1      37.010  22.303  23.480  1.00  0.00    -0.246 OA
BRANCH   6   8
ATOM      8  C   UNL A   1      35.191  21.197  24.644  1.00  0.00     0.119 A 
ATOM      9  C   UNL A   1      33.929  21.832  24.665  1.00  0.00     0.055 A 
ATOM     10  C   UNL A   1      32.804  20.976  24.627  1.00  0.00     0.027 A 
ATOM     11  C   UNL A   1      32.900  19.582  24.659  1.00  0.00     0.005 A 
ATOM     12  C   UNL A   1      35.278  19.791  24.707  1.00  0.00     0.139 A 
ATOM     13  C   UNL A   1      34.147  18.986  24.717  1.00  0.00     0.040 A 
ATOM     14  F   UNL A   1      36.471  19.176  24.755  1.00  0.00    -0.206 F 
BRANCH   9  15
ATOM     15  N   UNL A   1      33.684  23.202  24.704  1.00  0.00    -0.367 N 
ATOM     16  C   UNL A   1      33.614  23.974  23.476  1.00  0.00     0.144 C 
BRANCH  15  17
ATOM     17  C   UNL A   1      33.827  23.972  25.973  1.00  0.00     0.110 C 
ATOM     18  C   UNL A   1      33.920  23.032  27.174  1.00  0.00     0.036 C 
BRANCH  17  19
ATOM     19  C   UNL A   1      32.905  25.187  26.018  1.00  0.00    -0.007 A 
ATOM     20  C   UNL A   1      33.535  26.452  25.887  1.00  0.00     0.007 A 
ATOM     21  C   UNL A   1      31.504  25.182  26.130  1.00  0.00     0.046 A 
ATOM     22  C   UNL A   1      32.813  27.645  25.877  1.00  0.00     0.000 A 
ATOM     23  C   UNL A   1      30.782  26.387  26.118  1.00  0.00     0.021 A 
ATOM     24  Cl  UNL A   1      30.546  23.748  26.218  1.00  0.00    -0.084 Cl
ATOM     25  C   UNL A   1      31.432  27.613  25.993  1.00  0.00     0.002 A 
ENDBRANCH  17  19
ENDBRANCH  15  17
ENDBRANCH   9  15
ENDBRANCH   6   8
ENDBRANCH   5   6
ENDBRANCH   4   5
ENDBRANCH   3   4
ENDBRANCH   2   3
ENDBRANCH   1   2
BRANCH   1  26
ATOM     26  C   UNL A   1      42.670  20.427  26.820  1.00  0.00     0.188 C 
BRANCH  26  27
ATOM     27  O   UNL A   1      43.407  21.605  26.507  1.00  0.00    -0.376 OA
BRANCH  27  28
ATOM     28  C   UNL A   1      44.367  21.562  25.466  1.00  0.00     0.202 C 
BRANCH  28  29
ATOM     29  C   UNL A   1      44.168  22.568  24.328  1.00  0.00     0.261 C 
BRANCH  29  30
ATOM     30  O   UNL A   1      44.061  23.935  24.759  1.00  0.00    -0.460 OA
BRANCH  30  31
ATOM     31  C   UNL A   1      45.238  24.600  24.866  1.00  0.00     0.338 C 
ATOM     32  O   UNL A   1      46.294  24.313  24.327  1.00  0.00    -0.246 OA
BRANCH  31  33
ATOM     33  C   UNL A   1      45.061  25.832  25.666  1.00  0.00     0.060 A 
ATOM     34  C   UNL A   1      44.350  26.895  25.094  1.00  0.00     0.016 A 
ATOM     35  C   UNL A   1      45.662  25.986  26.919  1.00  0.00     0.016 A 
ATOM     36  C   UNL A   1      44.271  28.125  25.754  1.00  0.00     0.010 A 
ATOM     37  C   UNL A   1      45.597  27.224  27.571  1.00  0.00     0.010 A 
ATOM     38  C   UNL A   1      44.930  28.311  26.977  1.00  0.00    -0.014 A 
BRANCH  38  39
ATOM     39  C   UNL A   1      45.047  29.673  27.559  1.00  0.00     0.031 A 
ATOM     40  C   UNL A   1      43.904  30.223  28.368  1.00  0.00     0.074 A 
ATOM     41  C   UNL A   1      46.153  30.417  27.383  1.00  0.00     0.049 A 
ATOM     42  N   UNL A   1      43.790  31.391  28.945  1.00  0.00    -0.248 NA
ATOM     43  C   UNL A   1      42.736  29.345  28.538  1.00  0.00     0.031 C 
ATOM     44  C   UNL A   1      47.331  30.001  26.630  1.00  0.00     0.029 A 
ATOM     45  N   UNL A   1      46.465  31.680  27.821  1.00  0.00    -0.354 N 
ATOM     46  C   UNL A   1      42.533  31.396  29.539  1.00  0.00     0.074 A 
ATOM     47  C   UNL A   1      41.920  30.119  29.239  1.00  0.00     0.031 C 
ATOM     48  C   UNL A   1      48.251  30.980  26.674  1.00  0.00     0.029 A 
ATOM     49  C   UNL A   1      47.704  32.117  27.414  1.00  0.00     0.049 A 
ATOM     50  H   UNL A   1      45.860  32.223  28.376  1.00  0.00     0.167 HD
ATOM     51  C   UNL A   1      41.940  32.375  30.263  1.00  0.00     0.031 A 
ATOM     52  C   UNL A   1      48.317  33.305  27.592  1.00  0.00     0.031 A 
ATOM     53  C   UNL A   1      42.530  33.658  30.537  1.00  0.00     0.049 A 
ATOM     54  C   UNL A   1      47.609  34.402  28.344  1.00  0.00     0.074 A 
ATOM     55  C   UNL A   1      42.002  34.707  31.268  1.00  0.00     0.029 A 
ATOM     56  N   UNL A   1      43.770  34.075  30.079  1.00  0.00    -0.354 N 
ATOM     57  N   UNL A   1      46.435  34.376  28.929  1.00  0.00    -0.248 NA
ATOM     58  C   UNL A   1      48.307  35.692  28.456  1.00  0.00     0.031 C 
ATOM     59  C   UNL A   1      42.899  35.779  31.208  1.00  0.00     0.029 A 
ATOM     60  C   UNL A   1      44.013  35.375  30.488  1.00  0.00     0.049 A 
ATOM     61  H   UNL A   1      44.386  33.527  29.541  1.00  0.00     0.167 HD
ATOM     62  C   UNL A   1      46.263  35.638  29.490  1.00  0.00     0.074 A 
ATOM     63  C   UNL A   1      47.460  36.397  29.193  1.00  0.00     0.031 C 
ATOM     64  C   UNL A   1      45.207  36.124  30.189  1.00  0.00     0.031 A 
BRANCH  51  65
ATOM     65  C   UNL A   1      40.551  32.105  30.777  1.00  0.00    -0.014 A 
ATOM     66  C   UNL A   1      40.338  31.263  31.883  1.00  0.00     0.010 A 
ATOM     67  C   UNL A   1      39.450  32.726  30.163  1.00  0.00     0.010 A 
ATOM     68  C   UNL A   1      39.041  31.017  32.341  1.00  0.00     0.020 A 
ATOM     69  C   UNL A   1      38.154  32.501  30.633  1.00  0.00     0.020 A 
ATOM     70  C   UNL A   1      37.957  31.633  31.709  1.00  0.00     0.054 A 
BRANCH  70  71
ATOM     71  S   UNL A   1      36.285  31.305  32.332  1.00  0.00     0.124 S 
ATOM     72  O   UNL A   1      36.285  29.849  32.435  1.00  0.00    -0.237 OA
ATOM     73  O   UNL A   1      36.269  32.025  33.602  1.00  0.00    -0.237 OA
ATOM     74  O   UNL A   1      35.415  31.857  31.296  1.00  0.00    -0.744 OA
ENDBRANCH  70  71
ENDBRANCH  51  65
BRANCH  52  75
ATOM     75  C   UNL A   1      49.670  33.541  27.017  1.00  0.00    -0.014 A 
ATOM     76  C   UNL A   1      49.816  34.082  25.727  1.00  0.00     0.010 A 
ATOM     77  C   UNL A   1      50.823  33.209  27.753  1.00  0.00     0.010 A 
ATOM     78  C   UNL A   1      51.088  34.268  25.177  1.00  0.00     0.020 A 
ATOM     79  C   UNL A   1      52.095  33.422  27.218  1.00  0.00     0.020 A 
ATOM     80  C   UNL A   1      52.219  33.939  25.927  1.00  0.00     0.054 A 
BRANCH  80  81
ATOM     81  S   UNL A   1      53.862  34.232  25.213  1.00  0.00     0.124 S 
ATOM     82  O   UNL A   1      53.534  34.921  23.969  1.00  0.00    -0.237 OA
ATOM     83  O   UNL A   1      54.510  35.047  26.238  1.00  0.00    -0.237 OA
ATOM     84  O   UNL A   1      54.410  32.885  25.060  1.00  0.00    -0.744 OA
ENDBRANCH  80  81
ENDBRANCH  52  75
BRANCH  64  85
ATOM     85  C   UNL A   1      45.301  37.534  30.712  1.00  0.00    -0.014 A 
ATOM     86  C   UNL A   1      46.119  37.854  31.809  1.00  0.00     0.010 A 
ATOM     87  C   UNL A   1      44.609  38.566  30.051  1.00  0.00     0.010 A 
ATOM     88  C   UNL A   1      46.226  39.177  32.250  1.00  0.00     0.020 A 
ATOM     89  C   UNL A   1      44.733  39.893  30.472  1.00  0.00     0.020 A 
ATOM     90  C   UNL A   1      45.532  40.188  31.578  1.00  0.00     0.054 A 
BRANCH  90  91
ATOM     91  S   UNL A   1      45.728  41.905  32.135  1.00  0.00     0.124 S 
ATOM     92  O   UNL A   1      45.374  42.655  30.933  1.00  0.00    -0.237 OA
ATOM     93  O   UNL A   1      44.774  41.996  33.237  1.00  0.00    -0.237 OA
ATOM     94  O   UNL A   1      47.134  41.983  32.528  1.00  0.00    -0.744 OA
ENDBRANCH  90  91
ENDBRANCH  64  85
ENDBRANCH  38  39
ENDBRANCH  31  33
ENDBRANCH  30  31
ENDBRANCH  29  30
ENDBRANCH  28  29
ENDBRANCH  27  28
ENDBRANCH  26  27
ENDBRANCH   1  26
TORSDOF 23
ENDMDL
