MODEL 1
REMARK VINA RESULT:      -9.6      0.000      0.000
REMARK SMILES [NH3+][C@H](C(=O)OCCOCCOCCOC(=O)c1ccc(-c2c3nc(c(-c4ccc(S(=O)(=O)[O-])cc4)c4ccc([nH]4)c(-c4ccc(S(=O)(=O)[O-])cc4)c4nc(c(-c5ccc(S(=O)(=O)[O-])cc5)c5ccc2[nH]5)C=C4)C=C3)cc1)c1cc(F)c(F)c(F)c1F
REMARK SMILES IDX 10 1 9 2 8 3 7 4 6 5 5 6 3 7 4 8 2 9 1 10 77 14 78 15 85 16
REMARK SMILES IDX 79 17 83 18 86 19 80 20 81 21 84 22 82 23 11 24 12 25 13 26
REMARK SMILES IDX 14 27 15 28 16 29 17 30 18 31 76 32 19 33 75 34 20 35 21 36
REMARK SMILES IDX 22 37 69 38 23 39 74 40 68 41 70 42 24 43 73 44 67 45 66 46
REMARK SMILES IDX 25 48 55 49 36 50 54 51 37 52 40 53 53 54 71 55 38 56 39 57
REMARK SMILES IDX 52 59 72 60 41 61 26 62 27 63 35 64 28 65 34 66 29 67 30 68
REMARK SMILES IDX 31 69 32 70 33 71 56 72 57 73 65 74 58 75 64 76 59 77 60 78
REMARK SMILES IDX 61 79 62 80 63 81 42 82 43 83 51 84 44 85 50 86 45 87 46 88
REMARK SMILES IDX 47 89 48 90 49 91
REMARK H PARENT 1 11 1 12 1 13 70 47 40 58
REMARK Flexibility Score: inf
ROOT
ATOM      1  C   UNL A   1      31.686  27.860  26.446  1.00  0.00     0.188 C 
ENDROOT
BRANCH   1   2
ATOM      2  C   UNL A   1      32.763  26.838  26.074  1.00  0.00     0.188 C 
BRANCH   2   3
ATOM      3  O   UNL A   1      32.312  25.661  25.417  1.00  0.00    -0.376 OA
BRANCH   3   4
ATOM      4  C   UNL A   1      31.083  25.100  25.879  1.00  0.00     0.202 C 
BRANCH   4   5
ATOM      5  C   UNL A   1      31.184  23.775  26.651  1.00  0.00     0.261 C 
BRANCH   5   6
ATOM      6  O   UNL A   1      32.451  23.092  26.501  1.00  0.00    -0.459 OA
BRANCH   6   7
ATOM      7  C   UNL A   1      32.477  22.104  25.568  1.00  0.00     0.369 C 
ATOM      8  O   UNL A   1      31.620  21.224  25.481  1.00  0.00    -0.245 OA
BRANCH   7   9
ATOM      9  C   UNL A   1      33.609  22.192  24.513  1.00  0.00     0.326 C 
BRANCH   9  10
ATOM     10  N   UNL A   1      33.390  23.438  23.725  1.00  0.00    -0.342 N 
ATOM     11  H   UNL A   1      32.536  23.895  24.043  1.00  0.00     0.345 HD
ATOM     12  H   UNL A   1      33.304  23.205  22.736  1.00  0.00     0.345 HD
ATOM     13  H   UNL A   1      34.182  24.067  23.858  1.00  0.00     0.345 HD
ENDBRANCH   9  10
BRANCH   9  14
ATOM     14  C   UNL A   1      35.069  22.039  24.920  1.00  0.00     0.063 A 
ATOM     15  C   UNL A   1      35.896  23.159  25.165  1.00  0.00     0.056 A 
ATOM     16  C   UNL A   1      35.699  20.787  24.871  1.00  0.00     0.171 A 
ATOM     17  C   UNL A   1      37.269  23.012  25.369  1.00  0.00     0.162 A 
ATOM     18  C   UNL A   1      37.072  20.648  25.097  1.00  0.00     0.198 A 
ATOM     19  F   UNL A   1      34.988  19.703  24.531  1.00  0.00    -0.203 F 
ATOM     20  F   UNL A   1      38.016  24.106  25.578  1.00  0.00    -0.204 F 
ATOM     21  C   UNL A   1      37.858  21.760  25.347  1.00  0.00     0.197 A 
ATOM     22  F   UNL A   1      37.637  19.433  25.031  1.00  0.00    -0.200 F 
ATOM     23  F   UNL A   1      39.180  21.632  25.527  1.00  0.00    -0.200 F 
ENDBRANCH   9  14
ENDBRANCH   7   9
ENDBRANCH   6   7
ENDBRANCH   5   6
ENDBRANCH   4   5
ENDBRANCH   3   4
ENDBRANCH   2   3
ENDBRANCH   1   2
BRANCH   1  24
ATOM     24  O   UNL A   1      31.249  28.704  25.390  1.00  0.00    -0.376 OA
BRANCH  24  25
ATOM     25  C   UNL A   1      31.544  30.097  25.514  1.00  0.00     0.202 C 
BRANCH  25  26
ATOM     26  C   UNL A   1      32.240  30.556  26.814  1.00  0.00     0.261 C 
BRANCH  26  27
ATOM     27  O   UNL A   1      33.673  30.727  26.745  1.00  0.00    -0.460 OA
BRANCH  27  28
ATOM     28  C   UNL A   1      34.243  31.634  27.572  1.00  0.00     0.338 C 
ATOM     29  O   UNL A   1      33.704  32.627  28.032  1.00  0.00    -0.246 OA
BRANCH  28  30
ATOM     30  C   UNL A   1      35.529  31.078  28.079  1.00  0.00     0.060 A 
ATOM     31  C   UNL A   1      35.590  29.698  28.313  1.00  0.00     0.016 A 
ATOM     32  C   UNL A   1      36.674  31.856  28.258  1.00  0.00     0.016 A 
ATOM     33  C   UNL A   1      36.768  29.094  28.755  1.00  0.00     0.010 A 
ATOM     34  C   UNL A   1      37.853  31.257  28.724  1.00  0.00     0.010 A 
ATOM     35  C   UNL A   1      37.898  29.877  29.004  1.00  0.00    -0.014 A 
BRANCH  35  36
ATOM     36  C   UNL A   1      39.037  29.295  29.761  1.00  0.00     0.031 A 
ATOM     37  C   UNL A   1      39.226  29.723  31.194  1.00  0.00     0.074 A 
ATOM     38  C   UNL A   1      39.858  28.372  29.228  1.00  0.00     0.049 A 
ATOM     39  N   UNL A   1      40.168  29.401  32.040  1.00  0.00    -0.248 NA
ATOM     40  C   UNL A   1      38.209  30.638  31.742  1.00  0.00     0.031 C 
ATOM     41  C   UNL A   1      39.746  27.807  27.884  1.00  0.00     0.029 A 
ATOM     42  N   UNL A   1      40.959  27.746  29.764  1.00  0.00    -0.354 N 
ATOM     43  C   UNL A   1      39.870  30.085  33.213  1.00  0.00     0.074 A 
ATOM     44  C   UNL A   1      38.673  30.855  32.964  1.00  0.00     0.031 C 
ATOM     45  C   UNL A   1      40.745  26.923  27.698  1.00  0.00     0.029 A 
ATOM     46  C   UNL A   1      41.590  26.890  28.891  1.00  0.00     0.049 A 
ATOM     47  H   UNL A   1      41.267  27.896  30.687  1.00  0.00     0.167 HD
ATOM     48  C   UNL A   1      40.531  30.074  34.395  1.00  0.00     0.031 A 
ATOM     49  C   UNL A   1      42.730  26.182  29.029  1.00  0.00     0.031 A 
ATOM     50  C   UNL A   1      41.725  29.313  34.648  1.00  0.00     0.049 A 
ATOM     51  C   UNL A   1      43.504  26.259  30.324  1.00  0.00     0.074 A 
ATOM     52  C   UNL A   1      42.463  29.238  35.817  1.00  0.00     0.029 A 
ATOM     53  N   UNL A   1      42.360  28.503  33.720  1.00  0.00    -0.354 N 
ATOM     54  N   UNL A   1      43.211  26.911  31.424  1.00  0.00    -0.248 NA
ATOM     55  C   UNL A   1      44.761  25.500  30.396  1.00  0.00     0.031 C 
ATOM     56  C   UNL A   1      43.578  28.430  35.576  1.00  0.00     0.029 A 
ATOM     57  C   UNL A   1      43.497  27.946  34.281  1.00  0.00     0.049 A 
ATOM     58  H   UNL A   1      42.048  28.345  32.800  1.00  0.00     0.167 HD
ATOM     59  C   UNL A   1      44.230  26.616  32.326  1.00  0.00     0.074 A 
ATOM     60  C   UNL A   1      45.140  25.717  31.649  1.00  0.00     0.031 C 
ATOM     61  C   UNL A   1      44.396  27.047  33.601  1.00  0.00     0.031 A 
BRANCH  48  62
ATOM     62  C   UNL A   1      39.999  30.953  35.495  1.00  0.00    -0.014 A 
ATOM     63  C   UNL A   1      38.736  30.726  36.070  1.00  0.00     0.010 A 
ATOM     64  C   UNL A   1      40.797  32.004  35.983  1.00  0.00     0.010 A 
ATOM     65  C   UNL A   1      38.267  31.557  37.091  1.00  0.00     0.020 A 
ATOM     66  C   UNL A   1      40.344  32.818  37.024  1.00  0.00     0.020 A 
ATOM     67  C   UNL A   1      39.074  32.599  37.560  1.00  0.00     0.054 A 
BRANCH  67  68
ATOM     68  S   UNL A   1      38.451  33.645  38.905  1.00  0.00     0.124 S 
ATOM     69  O   UNL A   1      39.294  33.231  40.023  1.00  0.00    -0.237 OA
ATOM     70  O   UNL A   1      38.694  34.993  38.399  1.00  0.00    -0.237 OA
ATOM     71  O   UNL A   1      37.044  33.269  39.014  1.00  0.00    -0.744 OA
ENDBRANCH  67  68
ENDBRANCH  48  62
BRANCH  49  72
ATOM     72  C   UNL A   1      43.246  25.360  27.897  1.00  0.00    -0.014 A 
ATOM     73  C   UNL A   1      42.918  23.997  27.784  1.00  0.00     0.010 A 
ATOM     74  C   UNL A   1      44.099  25.935  26.935  1.00  0.00     0.010 A 
ATOM     75  C   UNL A   1      43.446  23.222  26.746  1.00  0.00     0.020 A 
ATOM     76  C   UNL A   1      44.603  25.172  25.879  1.00  0.00     0.020 A 
ATOM     77  C   UNL A   1      44.284  23.815  25.797  1.00  0.00     0.054 A 
BRANCH  77  78
ATOM     78  S   UNL A   1      44.920  22.803  24.432  1.00  0.00     0.124 S 
ATOM     79  O   UNL A   1      45.933  23.677  23.852  1.00  0.00    -0.237 OA
ATOM     80  O   UNL A   1      45.424  21.621  25.128  1.00  0.00    -0.237 OA
ATOM     81  O   UNL A   1      43.741  22.570  23.601  1.00  0.00    -0.744 OA
ENDBRANCH  77  78
ENDBRANCH  49  72
BRANCH  61  82
ATOM     82  C   UNL A   1      45.579  26.523  34.376  1.00  0.00    -0.014 A 
ATOM     83  C   UNL A   1      46.802  27.214  34.405  1.00  0.00     0.010 A 
ATOM     84  C   UNL A   1      45.438  25.350  35.143  1.00  0.00     0.010 A 
ATOM     85  C   UNL A   1      47.873  26.725  35.161  1.00  0.00     0.020 A 
ATOM     86  C   UNL A   1      46.496  24.875  35.922  1.00  0.00     0.020 A 
ATOM     87  C   UNL A   1      47.713  25.558  35.916  1.00  0.00     0.054 A 
BRANCH  87  88
ATOM     88  S   UNL A   1      49.102  24.969  36.923  1.00  0.00     0.124 S 
ATOM     89  O   UNL A   1      48.437  24.073  37.865  1.00  0.00    -0.237 OA
ATOM     90  O   UNL A   1      49.961  24.320  35.936  1.00  0.00    -0.237 OA
ATOM     91  O   UNL A   1      49.650  26.191  37.508  1.00  0.00    -0.744 OA
ENDBRANCH  87  88
ENDBRANCH  61  82
ENDBRANCH  35  36
ENDBRANCH  28  30
ENDBRANCH  27  28
ENDBRANCH  26  27
ENDBRANCH  25  26
ENDBRANCH  24  25
ENDBRANCH   1  24
TORSDOF 22
ENDMDL
MODEL 2
REMARK VINA RESULT:      -9.3      3.123      9.146
REMARK SMILES [NH3+][C@H](C(=O)OCCOCCOCCOC(=O)c1ccc(-c2c3nc(c(-c4ccc(S(=O)(=O)[O-])cc4)c4ccc([nH]4)c(-c4ccc(S(=O)(=O)[O-])cc4)c4nc(c(-c5ccc(S(=O)(=O)[O-])cc5)c5ccc2[nH]5)C=C4)C=C3)cc1)c1cc(F)c(F)c(F)c1F
REMARK SMILES IDX 10 1 9 2 8 3 7 4 6 5 5 6 3 7 4 8 2 9 1 10 77 14 78 15 85 16
REMARK SMILES IDX 79 17 83 18 86 19 80 20 81 21 84 22 82 23 11 24 12 25 13 26
REMARK SMILES IDX 14 27 15 28 16 29 17 30 18 31 76 32 19 33 75 34 20 35 21 36
REMARK SMILES IDX 22 37 69 38 23 39 74 40 68 41 70 42 24 43 73 44 67 45 66 46
REMARK SMILES IDX 25 48 55 49 36 50 54 51 37 52 40 53 53 54 71 55 38 56 39 57
REMARK SMILES IDX 52 59 72 60 41 61 26 62 27 63 35 64 28 65 34 66 29 67 30 68
REMARK SMILES IDX 31 69 32 70 33 71 56 72 57 73 65 74 58 75 64 76 59 77 60 78
REMARK SMILES IDX 61 79 62 80 63 81 42 82 43 83 51 84 44 85 50 86 45 87 46 88
REMARK SMILES IDX 47 89 48 90 49 91
REMARK H PARENT 1 11 1 12 1 13 70 47 40 58
REMARK Flexibility Score: inf
ROOT
ATOM      1  C   UNL A   1      40.956  21.092  26.207  1.00  0.00     0.188 C 
ENDROOT
BRANCH   1   2
ATOM      2  C   UNL A   1      40.262  21.956  27.264  1.00  0.00     0.188 C 
BRANCH   2   3
ATOM      3  O   UNL A   1      39.510  23.060  26.778  1.00  0.00    -0.376 OA
BRANCH   3   4
ATOM      4  C   UNL A   1      38.490  22.770  25.822  1.00  0.00     0.202 C 
BRANCH   4   5
ATOM      5  C   UNL A   1      37.115  23.407  26.075  1.00  0.00     0.261 C 
BRANCH   5   6
ATOM      6  O   UNL A   1      36.374  23.725  24.873  1.00  0.00    -0.459 OA
BRANCH   6   7
ATOM      7  C   UNL A   1      35.113  24.193  25.068  1.00  0.00     0.369 C 
ATOM      8  O   UNL A   1      34.695  25.249  24.592  1.00  0.00    -0.245 OA
BRANCH   7   9
ATOM      9  C   UNL A   1      34.153  23.260  25.851  1.00  0.00     0.326 C 
BRANCH   9  10
ATOM     10  N   UNL A   1      33.016  24.093  26.334  1.00  0.00    -0.342 N 
ATOM     11  H   UNL A   1      33.233  24.461  27.260  1.00  0.00     0.345 HD
ATOM     12  H   UNL A   1      32.173  23.521  26.384  1.00  0.00     0.345 HD
ATOM     13  H   UNL A   1      32.863  24.867  25.688  1.00  0.00     0.345 HD
ENDBRANCH   9  10
BRANCH   9  14
ATOM     14  C   UNL A   1      33.667  21.951  25.242  1.00  0.00     0.063 A 
ATOM     15  C   UNL A   1      33.180  21.881  23.917  1.00  0.00     0.056 A 
ATOM     16  C   UNL A   1      33.498  20.809  26.039  1.00  0.00     0.171 A 
ATOM     17  C   UNL A   1      32.580  20.719  23.429  1.00  0.00     0.162 A 
ATOM     18  C   UNL A   1      32.916  19.643  25.534  1.00  0.00     0.198 A 
ATOM     19  F   UNL A   1      33.837  20.852  27.335  1.00  0.00    -0.203 F 
ATOM     20  F   UNL A   1      32.116  20.707  22.171  1.00  0.00    -0.204 F 
ATOM     21  C   UNL A   1      32.457  19.596  24.228  1.00  0.00     0.197 A 
ATOM     22  F   UNL A   1      32.764  18.576  26.333  1.00  0.00    -0.200 F 
ATOM     23  F   UNL A   1      31.865  18.491  23.755  1.00  0.00    -0.200 F 
ENDBRANCH   9  14
ENDBRANCH   7   9
ENDBRANCH   6   7
ENDBRANCH   5   6
ENDBRANCH   4   5
ENDBRANCH   3   4
ENDBRANCH   2   3
ENDBRANCH   1   2
BRANCH   1  24
ATOM     24  O   UNL A   1      41.979  21.737  25.463  1.00  0.00    -0.376 OA
BRANCH  24  25
ATOM     25  C   UNL A   1      43.305  21.662  25.990  1.00  0.00     0.202 C 
BRANCH  25  26
ATOM     26  C   UNL A   1      44.069  22.993  26.166  1.00  0.00     0.261 C 
BRANCH  26  27
ATOM     27  O   UNL A   1      43.463  23.965  27.047  1.00  0.00    -0.460 OA
BRANCH  27  28
ATOM     28  C   UNL A   1      42.922  25.073  26.490  1.00  0.00     0.338 C 
ATOM     29  O   UNL A   1      42.639  25.221  25.313  1.00  0.00    -0.246 OA
BRANCH  28  30
ATOM     30  C   UNL A   1      42.443  25.971  27.578  1.00  0.00     0.060 A 
ATOM     31  C   UNL A   1      43.143  27.167  27.785  1.00  0.00     0.016 A 
ATOM     32  C   UNL A   1      41.301  25.705  28.336  1.00  0.00     0.016 A 
ATOM     33  C   UNL A   1      42.738  28.079  28.760  1.00  0.00     0.010 A 
ATOM     34  C   UNL A   1      40.904  26.608  29.332  1.00  0.00     0.010 A 
ATOM     35  C   UNL A   1      41.638  27.786  29.570  1.00  0.00    -0.014 A 
BRANCH  35  36
ATOM     36  C   UNL A   1      41.399  28.593  30.796  1.00  0.00     0.031 A 
ATOM     37  C   UNL A   1      40.261  29.580  30.782  1.00  0.00     0.074 A 
ATOM     38  C   UNL A   1      42.127  28.430  31.917  1.00  0.00     0.049 A 
ATOM     39  N   UNL A   1      39.888  30.431  31.701  1.00  0.00    -0.248 NA
ATOM     40  C   UNL A   1      39.434  29.607  29.564  1.00  0.00     0.031 C 
ATOM     41  C   UNL A   1      43.203  27.457  32.099  1.00  0.00     0.029 A 
ATOM     42  N   UNL A   1      42.062  29.089  33.122  1.00  0.00    -0.354 N 
ATOM     43  C   UNL A   1      38.796  31.105  31.168  1.00  0.00     0.074 A 
ATOM     44  C   UNL A   1      38.580  30.581  29.838  1.00  0.00     0.031 C 
ATOM     45  C   UNL A   1      43.705  27.591  33.342  1.00  0.00     0.029 A 
ATOM     46  C   UNL A   1      43.014  28.683  34.028  1.00  0.00     0.049 A 
ATOM     47  H   UNL A   1      41.396  29.788  33.317  1.00  0.00     0.167 HD
ATOM     48  C   UNL A   1      38.036  32.075  31.732  1.00  0.00     0.031 A 
ATOM     49  C   UNL A   1      43.312  29.155  35.257  1.00  0.00     0.031 A 
ATOM     50  C   UNL A   1      38.250  32.604  33.052  1.00  0.00     0.049 A 
ATOM     51  C   UNL A   1      42.513  30.302  35.829  1.00  0.00     0.074 A 
ATOM     52  C   UNL A   1      37.529  33.586  33.709  1.00  0.00     0.029 A 
ATOM     53  N   UNL A   1      39.258  32.203  33.914  1.00  0.00    -0.354 N 
ATOM     54  N   UNL A   1      41.484  30.931  35.312  1.00  0.00    -0.248 NA
ATOM     55  C   UNL A   1      42.915  30.799  37.153  1.00  0.00     0.031 C 
ATOM     56  C   UNL A   1      38.139  33.822  34.944  1.00  0.00     0.029 A 
ATOM     57  C   UNL A   1      39.196  32.938  35.086  1.00  0.00     0.049 A 
ATOM     58  H   UNL A   1      39.919  31.499  33.722  1.00  0.00     0.167 HD
ATOM     59  C   UNL A   1      41.098  31.875  36.260  1.00  0.00     0.074 A 
ATOM     60  C   UNL A   1      41.995  31.726  37.387  1.00  0.00     0.031 C 
ATOM     61  C   UNL A   1      40.090  32.781  36.205  1.00  0.00     0.031 A 
BRANCH  48  62
ATOM     62  C   UNL A   1      36.930  32.662  30.898  1.00  0.00    -0.014 A 
ATOM     63  C   UNL A   1      37.162  33.736  30.020  1.00  0.00     0.010 A 
ATOM     64  C   UNL A   1      35.642  32.101  30.969  1.00  0.00     0.010 A 
ATOM     65  C   UNL A   1      36.117  34.261  29.256  1.00  0.00     0.020 A 
ATOM     66  C   UNL A   1      34.601  32.603  30.185  1.00  0.00     0.020 A 
ATOM     67  C   UNL A   1      34.842  33.691  29.344  1.00  0.00     0.054 A 
BRANCH  67  68
ATOM     68  S   UNL A   1      33.511  34.375  28.320  1.00  0.00     0.124 S 
ATOM     69  O   UNL A   1      34.252  35.218  27.386  1.00  0.00    -0.237 OA
ATOM     70  O   UNL A   1      32.904  33.179  27.743  1.00  0.00    -0.237 OA
ATOM     71  O   UNL A   1      32.673  35.096  29.276  1.00  0.00    -0.744 OA
ENDBRANCH  67  68
ENDBRANCH  48  62
BRANCH  49  72
ATOM     72  C   UNL A   1      44.448  28.575  36.029  1.00  0.00    -0.014 A 
ATOM     73  C   UNL A   1      45.757  29.062  35.865  1.00  0.00     0.010 A 
ATOM     74  C   UNL A   1      44.227  27.505  36.918  1.00  0.00     0.010 A 
ATOM     75  C   UNL A   1      46.824  28.480  36.557  1.00  0.00     0.020 A 
ATOM     76  C   UNL A   1      45.286  26.942  37.635  1.00  0.00     0.020 A 
ATOM     77  C   UNL A   1      46.581  27.424  37.441  1.00  0.00     0.054 A 
BRANCH  77  78
ATOM     78  S   UNL A   1      47.973  26.714  38.365  1.00  0.00     0.124 S 
ATOM     79  O   UNL A   1      47.298  26.076  39.489  1.00  0.00    -0.237 OA
ATOM     80  O   UNL A   1      48.569  25.809  37.385  1.00  0.00    -0.237 OA
ATOM     81  O   UNL A   1      48.789  27.879  38.702  1.00  0.00    -0.744 OA
ENDBRANCH  77  78
ENDBRANCH  49  72
BRANCH  61  82
ATOM     82  C   UNL A   1      39.863  33.658  37.411  1.00  0.00    -0.014 A 
ATOM     83  C   UNL A   1      40.357  34.972  37.466  1.00  0.00     0.010 A 
ATOM     84  C   UNL A   1      39.082  33.177  38.479  1.00  0.00     0.010 A 
ATOM     85  C   UNL A   1      40.101  35.779  38.580  1.00  0.00     0.020 A 
ATOM     86  C   UNL A   1      38.799  33.989  39.580  1.00  0.00     0.020 A 
ATOM     87  C   UNL A   1      39.322  35.281  39.631  1.00  0.00     0.054 A 
BRANCH  87  88
ATOM     88  S   UNL A   1      38.967  36.362  41.045  1.00  0.00     0.124 S 
ATOM     89  O   UNL A   1      37.855  35.666  41.687  1.00  0.00    -0.237 OA
ATOM     90  O   UNL A   1      40.227  36.348  41.783  1.00  0.00    -0.237 OA
ATOM     91  O   UNL A   1      38.628  37.642  40.428  1.00  0.00    -0.744 OA
ENDBRANCH  87  88
ENDBRANCH  61  82
ENDBRANCH  35  36
ENDBRANCH  28  30
ENDBRANCH  27  28
ENDBRANCH  26  27
ENDBRANCH  25  26
ENDBRANCH  24  25
ENDBRANCH   1  24
TORSDOF 22
ENDMDL
MODEL 3
REMARK VINA RESULT:      -9.2      3.199      8.985
REMARK SMILES [NH3+][C@H](C(=O)OCCOCCOCCOC(=O)c1ccc(-c2c3nc(c(-c4ccc(S(=O)(=O)[O-])cc4)c4ccc([nH]4)c(-c4ccc(S(=O)(=O)[O-])cc4)c4nc(c(-c5ccc(S(=O)(=O)[O-])cc5)c5ccc2[nH]5)C=C4)C=C3)cc1)c1cc(F)c(F)c(F)c1F
REMARK SMILES IDX 10 1 9 2 8 3 7 4 6 5 5 6 3 7 4 8 2 9 1 10 77 14 78 15 85 16
REMARK SMILES IDX 79 17 83 18 86 19 80 20 81 21 84 22 82 23 11 24 12 25 13 26
REMARK SMILES IDX 14 27 15 28 16 29 17 30 18 31 76 32 19 33 75 34 20 35 21 36
REMARK SMILES IDX 22 37 69 38 23 39 74 40 68 41 70 42 24 43 73 44 67 45 66 46
REMARK SMILES IDX 25 48 55 49 36 50 54 51 37 52 40 53 53 54 71 55 38 56 39 57
REMARK SMILES IDX 52 59 72 60 41 61 26 62 27 63 35 64 28 65 34 66 29 67 30 68
REMARK SMILES IDX 31 69 32 70 33 71 56 72 57 73 65 74 58 75 64 76 59 77 60 78
REMARK SMILES IDX 61 79 62 80 63 81 42 82 43 83 51 84 44 85 50 86 45 87 46 88
REMARK SMILES IDX 47 89 48 90 49 91
REMARK H PARENT 1 11 1 12 1 13 70 47 40 58
REMARK Flexibility Score: inf
ROOT
ATOM      1  C   UNL A   1      41.285  21.745  26.432  1.00  0.00     0.188 C 
ENDROOT
BRANCH   1   2
ATOM      2  C   UNL A   1      40.302  22.840  26.852  1.00  0.00     0.188 C 
BRANCH   2   3
ATOM      3  O   UNL A   1      38.929  22.593  26.577  1.00  0.00    -0.376 OA
BRANCH   3   4
ATOM      4  C   UNL A   1      38.643  21.597  25.594  1.00  0.00     0.202 C 
BRANCH   4   5
ATOM      5  C   UNL A   1      37.167  21.200  25.433  1.00  0.00     0.261 C 
BRANCH   5   6
ATOM      6  O   UNL A   1      36.237  22.303  25.542  1.00  0.00    -0.459 OA
BRANCH   6   7
ATOM      7  C   UNL A   1      34.923  21.959  25.592  1.00  0.00     0.369 C 
ATOM      8  O   UNL A   1      34.367  21.530  26.604  1.00  0.00    -0.245 OA
BRANCH   7   9
ATOM      9  C   UNL A   1      34.096  22.237  24.310  1.00  0.00     0.326 C 
BRANCH   9  10
ATOM     10  N   UNL A   1      32.769  21.584  24.483  1.00  0.00    -0.342 N 
ATOM     11  H   UNL A   1      32.029  22.262  24.302  1.00  0.00     0.345 HD
ATOM     12  H   UNL A   1      32.683  21.233  25.438  1.00  0.00     0.345 HD
ATOM     13  H   UNL A   1      32.685  20.807  23.828  1.00  0.00     0.345 HD
ENDBRANCH   9  10
BRANCH   9  14
ATOM     14  C   UNL A   1      33.953  23.653  23.766  1.00  0.00     0.063 A 
ATOM     15  C   UNL A   1      34.124  24.789  24.590  1.00  0.00     0.056 A 
ATOM     16  C   UNL A   1      33.452  23.878  22.476  1.00  0.00     0.171 A 
ATOM     17  C   UNL A   1      33.823  26.071  24.125  1.00  0.00     0.162 A 
ATOM     18  C   UNL A   1      33.174  25.167  22.011  1.00  0.00     0.198 A 
ATOM     19  F   UNL A   1      33.163  22.832  21.688  1.00  0.00    -0.203 F 
ATOM     20  F   UNL A   1      33.982  27.115  24.949  1.00  0.00    -0.204 F 
ATOM     21  C   UNL A   1      33.361  26.264  22.835  1.00  0.00     0.197 A 
ATOM     22  F   UNL A   1      32.685  25.337  20.774  1.00  0.00    -0.200 F 
ATOM     23  F   UNL A   1      33.060  27.497  22.403  1.00  0.00    -0.200 F 
ENDBRANCH   9  14
ENDBRANCH   7   9
ENDBRANCH   6   7
ENDBRANCH   5   6
ENDBRANCH   4   5
ENDBRANCH   3   4
ENDBRANCH   2   3
ENDBRANCH   1   2
BRANCH   1  24
ATOM     24  O   UNL A   1      42.165  22.086  25.370  1.00  0.00    -0.376 OA
BRANCH  24  25
ATOM     25  C   UNL A   1      43.462  22.562  25.736  1.00  0.00     0.202 C 
BRANCH  25  26
ATOM     26  C   UNL A   1      43.777  24.045  25.442  1.00  0.00     0.261 C 
BRANCH  26  27
ATOM     27  O   UNL A   1      43.294  25.004  26.409  1.00  0.00    -0.460 OA
BRANCH  27  28
ATOM     28  C   UNL A   1      42.348  25.884  26.008  1.00  0.00     0.338 C 
ATOM     29  O   UNL A   1      41.765  25.877  24.937  1.00  0.00    -0.246 OA
BRANCH  28  30
ATOM     30  C   UNL A   1      41.907  26.683  27.186  1.00  0.00     0.060 A 
ATOM     31  C   UNL A   1      42.492  27.943  27.371  1.00  0.00     0.016 A 
ATOM     32  C   UNL A   1      40.899  26.262  28.056  1.00  0.00     0.016 A 
ATOM     33  C   UNL A   1      42.109  28.767  28.428  1.00  0.00     0.010 A 
ATOM     34  C   UNL A   1      40.527  27.078  29.134  1.00  0.00     0.010 A 
ATOM     35  C   UNL A   1      41.152  28.322  29.344  1.00  0.00    -0.014 A 
BRANCH  35  36
ATOM     36  C   UNL A   1      40.974  29.052  30.627  1.00  0.00     0.031 A 
ATOM     37  C   UNL A   1      39.861  30.063  30.717  1.00  0.00     0.074 A 
ATOM     38  C   UNL A   1      41.735  28.800  31.708  1.00  0.00     0.049 A 
ATOM     39  N   UNL A   1      39.540  30.860  31.702  1.00  0.00    -0.248 NA
ATOM     40  C   UNL A   1      38.994  30.188  29.533  1.00  0.00     0.031 C 
ATOM     41  C   UNL A   1      42.793  27.794  31.790  1.00  0.00     0.029 A 
ATOM     42  N   UNL A   1      41.727  29.380  32.955  1.00  0.00    -0.354 N 
ATOM     43  C   UNL A   1      38.447  31.592  31.252  1.00  0.00     0.074 A 
ATOM     44  C   UNL A   1      38.173  31.160  29.899  1.00  0.00     0.031 C 
ATOM     45  C   UNL A   1      43.339  27.835  33.020  1.00  0.00     0.029 A 
ATOM     46  C   UNL A   1      42.699  28.894  33.799  1.00  0.00     0.049 A 
ATOM     47  H   UNL A   1      41.086  30.079  33.219  1.00  0.00     0.167 HD
ATOM     48  C   UNL A   1      37.731  32.539  31.904  1.00  0.00     0.031 A 
ATOM     49  C   UNL A   1      43.049  29.278  35.044  1.00  0.00     0.031 A 
ATOM     50  C   UNL A   1      38.001  32.976  33.247  1.00  0.00     0.049 A 
ATOM     51  C   UNL A   1      42.298  30.403  35.718  1.00  0.00     0.074 A 
ATOM     52  C   UNL A   1      37.327  33.928  33.991  1.00  0.00     0.029 A 
ATOM     53  N   UNL A   1      39.028  32.496  34.045  1.00  0.00    -0.354 N 
ATOM     54  N   UNL A   1      41.268  31.087  35.279  1.00  0.00    -0.248 NA
ATOM     55  C   UNL A   1      42.757  30.803  37.056  1.00  0.00     0.031 C 
ATOM     56  C   UNL A   1      37.985  34.069  35.217  1.00  0.00     0.029 A 
ATOM     57  C   UNL A   1      39.024  33.155  35.264  1.00  0.00     0.049 A 
ATOM     58  H   UNL A   1      39.664  31.793  33.785  1.00  0.00     0.167 HD
ATOM     59  C   UNL A   1      40.938  31.975  36.299  1.00  0.00     0.074 A 
ATOM     60  C   UNL A   1      41.869  31.733  37.381  1.00  0.00     0.031 C 
ATOM     61  C   UNL A   1      39.951  32.905  36.339  1.00  0.00     0.031 A 
BRANCH  48  62
ATOM     62  C   UNL A   1      36.611  33.203  31.149  1.00  0.00    -0.014 A 
ATOM     63  C   UNL A   1      35.278  33.115  31.585  1.00  0.00     0.010 A 
ATOM     64  C   UNL A   1      36.908  33.961  30.002  1.00  0.00     0.010 A 
ATOM     65  C   UNL A   1      34.257  33.743  30.867  1.00  0.00     0.020 A 
ATOM     66  C   UNL A   1      35.895  34.615  29.297  1.00  0.00     0.020 A 
ATOM     67  C   UNL A   1      34.573  34.488  29.726  1.00  0.00     0.054 A 
BRANCH  67  68
ATOM     68  S   UNL A   1      33.232  35.315  28.828  1.00  0.00     0.124 S 
ATOM     69  O   UNL A   1      32.442  35.879  29.919  1.00  0.00    -0.237 OA
ATOM     70  O   UNL A   1      33.948  36.285  28.004  1.00  0.00    -0.237 OA
ATOM     71  O   UNL A   1      32.587  34.231  28.090  1.00  0.00    -0.744 OA
ENDBRANCH  67  68
ENDBRANCH  48  62
BRANCH  49  72
ATOM     72  C   UNL A   1      44.196  28.624  35.738  1.00  0.00    -0.014 A 
ATOM     73  C   UNL A   1      43.995  27.515  36.578  1.00  0.00     0.010 A 
ATOM     74  C   UNL A   1      45.501  29.130  35.581  1.00  0.00     0.010 A 
ATOM     75  C   UNL A   1      45.070  26.938  37.263  1.00  0.00     0.020 A 
ATOM     76  C   UNL A   1      46.582  28.537  36.238  1.00  0.00     0.020 A 
ATOM     77  C   UNL A   1      46.358  27.451  37.086  1.00  0.00     0.054 A 
BRANCH  77  78
ATOM     78  S   UNL A   1      47.745  26.658  37.947  1.00  0.00     0.124 S 
ATOM     79  O   UNL A   1      48.829  26.809  36.981  1.00  0.00    -0.237 OA
ATOM     80  O   UNL A   1      47.861  27.463  39.161  1.00  0.00    -0.237 OA
ATOM     81  O   UNL A   1      47.279  25.289  38.159  1.00  0.00    -0.744 OA
ENDBRANCH  77  78
ENDBRANCH  49  72
BRANCH  61  82
ATOM     82  C   UNL A   1      39.786  33.706  37.605  1.00  0.00    -0.014 A 
ATOM     83  C   UNL A   1      40.385  34.968  37.760  1.00  0.00     0.010 A 
ATOM     84  C   UNL A   1      38.959  33.213  38.633  1.00  0.00     0.010 A 
ATOM     85  C   UNL A   1      40.186  35.708  38.931  1.00  0.00     0.020 A 
ATOM     86  C   UNL A   1      38.734  33.961  39.791  1.00  0.00     0.020 A 
ATOM     87  C   UNL A   1      39.361  35.199  39.939  1.00  0.00     0.054 A 
BRANCH  87  88
ATOM     88  S   UNL A   1      39.083  36.197  41.428  1.00  0.00     0.124 S 
ATOM     89  O   UNL A   1      40.321  35.985  42.172  1.00  0.00    -0.237 OA
ATOM     90  O   UNL A   1      38.898  37.540  40.884  1.00  0.00    -0.237 OA
ATOM     91  O   UNL A   1      37.889  35.605  42.026  1.00  0.00    -0.744 OA
ENDBRANCH  87  88
ENDBRANCH  61  82
ENDBRANCH  35  36
ENDBRANCH  28  30
ENDBRANCH  27  28
ENDBRANCH  26  27
ENDBRANCH  25  26
ENDBRANCH  24  25
ENDBRANCH   1  24
TORSDOF 22
ENDMDL
