MODEL 1
REMARK VINA RESULT:      -9.2      0.000      0.000
REMARK SMILES CCOc1ccc(OCC(=O)N2CCC[C@H](C(=O)OCCOCCOCCOC(=O)c3ccc(-c4c5nc(c(-c6ccc(S(=O)(=O)[O-])cc6)c6ccc([nH]6)c(-c6ccc(S(=O)(=O)[O-])cc6)c6nc(c(-c7ccc(S(=O)(=O)[O-])cc7)c7ccc4[nH]7)C=C6)C=C5)cc3)C2)cc1
REMARK SMILES IDX 22 1 21 2 20 3 19 4 17 5 18 6 16 7 12 8 13 9 91 10 14 11
REMARK SMILES IDX 15 12 10 13 11 14 9 15 8 16 7 17 4 18 5 19 93 20 6 21 92 22
REMARK SMILES IDX 3 23 2 24 1 25 23 26 24 27 25 28 26 29 27 30 28 31 29 32
REMARK SMILES IDX 30 33 31 34 32 35 90 36 33 37 89 38 34 39 35 40 36 41 83 42
REMARK SMILES IDX 37 43 88 44 82 45 84 46 38 47 87 48 81 49 80 50 39 52 69 53
REMARK SMILES IDX 50 54 68 55 51 56 54 57 67 58 85 59 52 60 53 61 66 63 86 64
REMARK SMILES IDX 55 65 40 66 41 67 49 68 42 69 48 70 43 71 44 72 45 73 46 74
REMARK SMILES IDX 47 75 70 76 71 77 79 78 72 79 78 80 73 81 74 82 75 83 76 84
REMARK SMILES IDX 77 85 56 86 57 87 65 88 58 89 64 90 59 91 60 92 61 93 62 94
REMARK SMILES IDX 63 95
REMARK H PARENT 84 51 54 62
REMARK Flexibility Score: inf
ROOT
ATOM      1  O   UNL A   1      35.431  30.956  28.307  1.00  0.00    -0.376 OA
ENDROOT
BRANCH   1   2
ATOM      2  C   UNL A   1      35.134  29.720  27.664  1.00  0.00     0.202 C 
BRANCH   2   3
ATOM      3  C   UNL A   1      33.920  29.650  26.725  1.00  0.00     0.261 C 
BRANCH   3   4
ATOM      4  O   UNL A   1      33.954  28.650  25.682  1.00  0.00    -0.463 OA
BRANCH   4   5
ATOM      5  C   UNL A   1      33.109  28.825  24.631  1.00  0.00     0.310 C 
ATOM      6  O   UNL A   1      33.474  28.932  23.466  1.00  0.00    -0.252 OA
BRANCH   5   7
ATOM      7  C   UNL A   1      31.626  28.883  24.998  1.00  0.00     0.119 C 
ATOM      8  N   UNL A   1      30.923  26.838  23.848  1.00  0.00    -0.339 N 
ATOM      9  C   UNL A   1      30.025  27.548  22.935  1.00  0.00     0.119 C 
ATOM     10  C   UNL A   1      31.100  27.460  25.160  1.00  0.00     0.134 C 
ATOM     11  C   UNL A   1      30.385  29.021  22.772  1.00  0.00     0.022 C 
ATOM     12  C   UNL A   1      30.661  29.686  24.116  1.00  0.00     0.019 C 
BRANCH   8  13
ATOM     13  C   UNL A   1      31.620  25.723  23.400  1.00  0.00     0.260 C 
ATOM     14  O   UNL A   1      31.866  25.552  22.201  1.00  0.00    -0.271 OA
BRANCH  13  15
ATOM     15  C   UNL A   1      31.919  24.582  24.403  1.00  0.00     0.329 C 
BRANCH  15  16
ATOM     16  O   UNL A   1      32.576  23.392  24.033  1.00  0.00    -0.484 OA
BRANCH  16  17
ATOM     17  C   UNL A   1      33.824  23.146  24.526  1.00  0.00     0.120 A 
ATOM     18  C   UNL A   1      36.487  22.778  25.284  1.00  0.00     0.119 A 
ATOM     19  C   UNL A   1      36.180  23.700  24.291  1.00  0.00     0.050 A 
ATOM     20  C   UNL A   1      35.468  22.090  25.941  1.00  0.00     0.050 A 
ATOM     21  C   UNL A   1      34.846  23.887  23.919  1.00  0.00     0.050 A 
ATOM     22  C   UNL A   1      34.137  22.255  25.547  1.00  0.00     0.050 A 
BRANCH  18  23
ATOM     23  O   UNL A   1      37.788  22.626  25.671  1.00  0.00    -0.494 OA
BRANCH  23  24
ATOM     24  C   UNL A   1      38.300  23.775  26.361  1.00  0.00     0.226 C 
ATOM     25  C   UNL A   1      39.550  23.411  27.148  1.00  0.00     0.049 C 
ENDBRANCH  23  24
ENDBRANCH  18  23
ENDBRANCH  16  17
ENDBRANCH  15  16
ENDBRANCH  13  15
ENDBRANCH   8  13
ENDBRANCH   5   7
ENDBRANCH   4   5
ENDBRANCH   3   4
ENDBRANCH   2   3
ENDBRANCH   1   2
BRANCH   1  26
ATOM     26  C   UNL A   1      34.403  31.922  28.479  1.00  0.00     0.188 C 
BRANCH  26  27
ATOM     27  C   UNL A   1      34.609  33.013  29.533  1.00  0.00     0.188 C 
BRANCH  27  28
ATOM     28  O   UNL A   1      34.360  32.611  30.859  1.00  0.00    -0.376 OA
BRANCH  28  29
ATOM     29  C   UNL A   1      35.064  33.241  31.911  1.00  0.00     0.202 C 
BRANCH  29  30
ATOM     30  C   UNL A   1      36.112  32.452  32.710  1.00  0.00     0.261 C 
BRANCH  30  31
ATOM     31  O   UNL A   1      37.209  31.889  31.973  1.00  0.00    -0.460 OA
BRANCH  31  32
ATOM     32  C   UNL A   1      37.278  30.542  31.846  1.00  0.00     0.338 C 
ATOM     33  O   UNL A   1      36.395  29.738  32.089  1.00  0.00    -0.246 OA
BRANCH  32  34
ATOM     34  C   UNL A   1      38.527  30.256  31.095  1.00  0.00     0.060 A 
ATOM     35  C   UNL A   1      39.668  29.835  31.796  1.00  0.00     0.016 A 
ATOM     36  C   UNL A   1      38.538  30.300  29.700  1.00  0.00     0.016 A 
ATOM     37  C   UNL A   1      40.816  29.440  31.100  1.00  0.00     0.010 A 
ATOM     38  C   UNL A   1      39.695  29.937  29.009  1.00  0.00     0.010 A 
ATOM     39  C   UNL A   1      40.842  29.511  29.703  1.00  0.00    -0.014 A 
BRANCH  39  40
ATOM     40  C   UNL A   1      42.099  29.286  28.949  1.00  0.00     0.031 A 
ATOM     41  C   UNL A   1      42.368  27.914  28.403  1.00  0.00     0.074 A 
ATOM     42  C   UNL A   1      43.016  30.260  28.805  1.00  0.00     0.049 A 
ATOM     43  N   UNL A   1      43.453  27.439  27.847  1.00  0.00    -0.248 NA
ATOM     44  C   UNL A   1      41.265  26.945  28.505  1.00  0.00     0.031 C 
ATOM     45  C   UNL A   1      42.862  31.642  29.252  1.00  0.00     0.029 A 
ATOM     46  N   UNL A   1      44.280  30.216  28.269  1.00  0.00    -0.354 N 
ATOM     47  C   UNL A   1      43.173  26.111  27.556  1.00  0.00     0.074 A 
ATOM     48  C   UNL A   1      41.821  25.853  28.005  1.00  0.00     0.031 C 
ATOM     49  C   UNL A   1      44.004  32.308  29.006  1.00  0.00     0.029 A 
ATOM     50  C   UNL A   1      44.983  31.386  28.428  1.00  0.00     0.049 A 
ATOM     51  H   UNL A   1      44.647  29.422  27.816  1.00  0.00     0.167 HD
ATOM     52  C   UNL A   1      43.973  25.185  26.977  1.00  0.00     0.031 A 
ATOM     53  C   UNL A   1      46.279  31.671  28.184  1.00  0.00     0.031 A 
ATOM     54  C   UNL A   1      45.327  25.435  26.562  1.00  0.00     0.049 A 
ATOM     55  C   UNL A   1      47.183  30.604  27.622  1.00  0.00     0.074 A 
ATOM     56  C   UNL A   1      46.207  24.571  25.933  1.00  0.00     0.029 A 
ATOM     57  N   UNL A   1      46.009  26.627  26.759  1.00  0.00    -0.354 N 
ATOM     58  N   UNL A   1      46.894  29.364  27.301  1.00  0.00    -0.248 NA
ATOM     59  C   UNL A   1      48.589  30.971  27.393  1.00  0.00     0.031 C 
ATOM     60  C   UNL A   1      47.442  25.217  25.817  1.00  0.00     0.029 A 
ATOM     61  C   UNL A   1      47.313  26.506  26.311  1.00  0.00     0.049 A 
ATOM     62  H   UNL A   1      45.622  27.439  27.159  1.00  0.00     0.167 HD
ATOM     63  C   UNL A   1      48.079  28.807  26.827  1.00  0.00     0.074 A 
ATOM     64  C   UNL A   1      49.083  29.850  26.882  1.00  0.00     0.031 C 
ATOM     65  C   UNL A   1      48.312  27.545  26.387  1.00  0.00     0.031 A 
BRANCH  52  66
ATOM     66  C   UNL A   1      43.417  23.794  26.828  1.00  0.00    -0.014 A 
ATOM     67  C   UNL A   1      43.275  22.936  27.933  1.00  0.00     0.010 A 
ATOM     68  C   UNL A   1      43.035  23.337  25.553  1.00  0.00     0.010 A 
ATOM     69  C   UNL A   1      42.813  21.629  27.757  1.00  0.00     0.020 A 
ATOM     70  C   UNL A   1      42.544  22.041  25.377  1.00  0.00     0.020 A 
ATOM     71  C   UNL A   1      42.459  21.187  26.477  1.00  0.00     0.054 A 
BRANCH  71  72
ATOM     72  S   UNL A   1      41.879  19.481  26.275  1.00  0.00     0.124 S 
ATOM     73  O   UNL A   1      42.327  18.862  27.521  1.00  0.00    -0.237 OA
ATOM     74  O   UNL A   1      40.433  19.648  26.143  1.00  0.00    -0.237 OA
ATOM     75  O   UNL A   1      42.564  19.022  25.070  1.00  0.00    -0.744 OA
ENDBRANCH  71  72
ENDBRANCH  52  66
BRANCH  53  76
ATOM     76  C   UNL A   1      46.810  33.019  28.531  1.00  0.00    -0.014 A 
ATOM     77  C   UNL A   1      46.773  34.071  27.602  1.00  0.00     0.010 A 
ATOM     78  C   UNL A   1      47.323  33.261  29.820  1.00  0.00     0.010 A 
ATOM     79  C   UNL A   1      47.232  35.344  27.958  1.00  0.00     0.020 A 
ATOM     80  C   UNL A   1      47.757  34.538  30.187  1.00  0.00     0.020 A 
ATOM     81  C   UNL A   1      47.710  35.572  29.251  1.00  0.00     0.054 A 
BRANCH  81  82
ATOM     82  S   UNL A   1      48.211  37.253  29.715  1.00  0.00     0.124 S 
ATOM     83  O   UNL A   1      47.021  38.029  29.380  1.00  0.00    -0.237 OA
ATOM     84  O   UNL A   1      48.494  37.113  31.143  1.00  0.00    -0.237 OA
ATOM     85  O   UNL A   1      49.381  37.506  28.877  1.00  0.00    -0.744 OA
ENDBRANCH  81  82
ENDBRANCH  53  76
BRANCH  65  86
ATOM     86  C   UNL A   1      49.706  27.205  25.926  1.00  0.00    -0.014 A 
ATOM     87  C   UNL A   1      50.591  26.493  26.754  1.00  0.00     0.010 A 
ATOM     88  C   UNL A   1      50.106  27.525  24.614  1.00  0.00     0.010 A 
ATOM     89  C   UNL A   1      51.854  26.117  26.285  1.00  0.00     0.020 A 
ATOM     90  C   UNL A   1      51.357  27.127  24.133  1.00  0.00     0.020 A 
ATOM     91  C   UNL A   1      52.226  26.432  24.975  1.00  0.00     0.054 A 
BRANCH  91  92
ATOM     92  S   UNL A   1      53.842  25.870  24.368  1.00  0.00     0.124 S 
ATOM     93  O   UNL A   1      53.903  24.504  24.881  1.00  0.00    -0.237 OA
ATOM     94  O   UNL A   1      53.700  25.993  22.919  1.00  0.00    -0.237 OA
ATOM     95  O   UNL A   1      54.787  26.805  24.976  1.00  0.00    -0.744 OA
ENDBRANCH  91  92
ENDBRANCH  65  86
ENDBRANCH  39  40
ENDBRANCH  32  34
ENDBRANCH  31  32
ENDBRANCH  30  31
ENDBRANCH  29  30
ENDBRANCH  28  29
ENDBRANCH  27  28
ENDBRANCH  26  27
ENDBRANCH   1  26
TORSDOF 26
ENDMDL
MODEL 2
REMARK VINA RESULT:      -9.1      3.827      9.365
REMARK SMILES CCOc1ccc(OCC(=O)N2CCC[C@H](C(=O)OCCOCCOCCOC(=O)c3ccc(-c4c5nc(c(-c6ccc(S(=O)(=O)[O-])cc6)c6ccc([nH]6)c(-c6ccc(S(=O)(=O)[O-])cc6)c6nc(c(-c7ccc(S(=O)(=O)[O-])cc7)c7ccc4[nH]7)C=C6)C=C5)cc3)C2)cc1
REMARK SMILES IDX 22 1 21 2 20 3 19 4 17 5 18 6 16 7 12 8 13 9 91 10 14 11
REMARK SMILES IDX 15 12 10 13 11 14 9 15 8 16 7 17 4 18 5 19 93 20 6 21 92 22
REMARK SMILES IDX 3 23 2 24 1 25 23 26 24 27 25 28 26 29 27 30 28 31 29 32
REMARK SMILES IDX 30 33 31 34 32 35 90 36 33 37 89 38 34 39 35 40 36 41 83 42
REMARK SMILES IDX 37 43 88 44 82 45 84 46 38 47 87 48 81 49 80 50 39 52 69 53
REMARK SMILES IDX 50 54 68 55 51 56 54 57 67 58 85 59 52 60 53 61 66 63 86 64
REMARK SMILES IDX 55 65 40 66 41 67 49 68 42 69 48 70 43 71 44 72 45 73 46 74
REMARK SMILES IDX 47 75 70 76 71 77 79 78 72 79 78 80 73 81 74 82 75 83 76 84
REMARK SMILES IDX 77 85 56 86 57 87 65 88 58 89 64 90 59 91 60 92 61 93 62 94
REMARK SMILES IDX 63 95
REMARK H PARENT 84 51 54 62
REMARK Flexibility Score: inf
ROOT
ATOM      1  O   UNL A   1      36.727  22.128  24.507  1.00  0.00    -0.376 OA
ENDROOT
BRANCH   1   2
ATOM      2  C   UNL A   1      35.778  23.067  25.001  1.00  0.00     0.202 C 
BRANCH   2   3
ATOM      3  C   UNL A   1      34.861  22.649  26.160  1.00  0.00     0.261 C 
BRANCH   3   4
ATOM      4  O   UNL A   1      34.040  23.681  26.752  1.00  0.00    -0.463 OA
BRANCH   4   5
ATOM      5  C   UNL A   1      32.711  23.655  26.462  1.00  0.00     0.310 C 
ATOM      6  O   UNL A   1      32.006  22.658  26.556  1.00  0.00    -0.252 OA
BRANCH   5   7
ATOM      7  C   UNL A   1      32.127  24.989  25.994  1.00  0.00     0.119 C 
ATOM      8  N   UNL A   1      32.487  24.681  23.591  1.00  0.00    -0.339 N 
ATOM      9  C   UNL A   1      33.400  25.822  23.486  1.00  0.00     0.119 C 
ATOM     10  C   UNL A   1      31.467  24.791  24.632  1.00  0.00     0.134 C 
ATOM     11  C   UNL A   1      34.048  26.190  24.818  1.00  0.00     0.022 C 
ATOM     12  C   UNL A   1      33.026  26.232  25.948  1.00  0.00     0.019 C 
BRANCH   8  13
ATOM     13  C   UNL A   1      32.702  23.554  22.809  1.00  0.00     0.260 C 
ATOM     14  O   UNL A   1      33.488  23.568  21.855  1.00  0.00    -0.271 OA
BRANCH  13  15
ATOM     15  C   UNL A   1      31.790  22.320  23.019  1.00  0.00     0.329 C 
BRANCH  15  16
ATOM     16  O   UNL A   1      31.898  21.149  22.242  1.00  0.00    -0.484 OA
BRANCH  16  17
ATOM     17  C   UNL A   1      32.356  20.007  22.829  1.00  0.00     0.120 A 
ATOM     18  C   UNL A   1      33.442  17.849  24.232  1.00  0.00     0.119 A 
ATOM     19  C   UNL A   1      33.421  19.106  24.822  1.00  0.00     0.050 A 
ATOM     20  C   UNL A   1      32.866  17.654  22.976  1.00  0.00     0.050 A 
ATOM     21  C   UNL A   1      32.871  20.182  24.120  1.00  0.00     0.050 A 
ATOM     22  C   UNL A   1      32.344  18.737  22.263  1.00  0.00     0.050 A 
BRANCH  18  23
ATOM     23  O   UNL A   1      33.945  16.792  24.935  1.00  0.00    -0.494 OA
BRANCH  23  24
ATOM     24  C   UNL A   1      33.003  16.249  25.872  1.00  0.00     0.226 C 
ATOM     25  C   UNL A   1      32.562  14.859  25.439  1.00  0.00     0.049 C 
ENDBRANCH  23  24
ENDBRANCH  18  23
ENDBRANCH  16  17
ENDBRANCH  15  16
ENDBRANCH  13  15
ENDBRANCH   8  13
ENDBRANCH   5   7
ENDBRANCH   4   5
ENDBRANCH   3   4
ENDBRANCH   2   3
ENDBRANCH   1   2
BRANCH   1  26
ATOM     26  C   UNL A   1      37.605  21.474  25.414  1.00  0.00     0.188 C 
BRANCH  26  27
ATOM     27  C   UNL A   1      38.717  22.302  26.063  1.00  0.00     0.188 C 
BRANCH  27  28
ATOM     28  O   UNL A   1      39.971  21.665  26.124  1.00  0.00    -0.376 OA
BRANCH  28  29
ATOM     29  C   UNL A   1      40.021  20.259  26.268  1.00  0.00     0.202 C 
BRANCH  29  30
ATOM     30  C   UNL A   1      41.339  19.511  26.020  1.00  0.00     0.261 C 
BRANCH  30  31
ATOM     31  O   UNL A   1      42.517  20.032  26.656  1.00  0.00    -0.460 OA
BRANCH  31  32
ATOM     32  C   UNL A   1      43.292  20.904  25.967  1.00  0.00     0.338 C 
ATOM     33  O   UNL A   1      43.744  20.751  24.845  1.00  0.00    -0.246 OA
BRANCH  32  34
ATOM     34  C   UNL A   1      43.249  22.185  26.717  1.00  0.00     0.060 A 
ATOM     35  C   UNL A   1      43.528  23.384  26.043  1.00  0.00     0.016 A 
ATOM     36  C   UNL A   1      42.832  22.209  28.049  1.00  0.00     0.016 A 
ATOM     37  C   UNL A   1      43.372  24.611  26.696  1.00  0.00     0.010 A 
ATOM     38  C   UNL A   1      42.708  23.434  28.709  1.00  0.00     0.010 A 
ATOM     39  C   UNL A   1      42.983  24.640  28.040  1.00  0.00    -0.014 A 
BRANCH  39  40
ATOM     40  C   UNL A   1      42.996  25.906  28.812  1.00  0.00     0.031 A 
ATOM     41  C   UNL A   1      41.763  26.763  28.799  1.00  0.00     0.074 A 
ATOM     42  C   UNL A   1      44.098  26.323  29.461  1.00  0.00     0.049 A 
ATOM     43  N   UNL A   1      41.586  27.971  29.268  1.00  0.00    -0.248 NA
ATOM     44  C   UNL A   1      40.571  26.178  28.163  1.00  0.00     0.031 C 
ATOM     45  C   UNL A   1      45.344  25.569  29.586  1.00  0.00     0.029 A 
ATOM     46  N   UNL A   1      44.352  27.507  30.110  1.00  0.00    -0.354 N 
ATOM     47  C   UNL A   1      40.273  28.302  28.962  1.00  0.00     0.074 A 
ATOM     48  C   UNL A   1      39.702  27.172  28.260  1.00  0.00     0.031 C 
ATOM     49  C   UNL A   1      46.244  26.326  30.237  1.00  0.00     0.029 A 
ATOM     50  C   UNL A   1      45.654  27.631  30.533  1.00  0.00     0.049 A 
ATOM     51  H   UNL A   1      43.667  28.200  30.257  1.00  0.00     0.167 HD
ATOM     52  C   UNL A   1      39.604  29.448  29.232  1.00  0.00     0.031 A 
ATOM     53  C   UNL A   1      46.309  28.690  31.053  1.00  0.00     0.031 A 
ATOM     54  C   UNL A   1      40.184  30.582  29.901  1.00  0.00     0.049 A 
ATOM     55  C   UNL A   1      45.576  29.989  31.265  1.00  0.00     0.074 A 
ATOM     56  C   UNL A   1      39.578  31.775  30.252  1.00  0.00     0.029 A 
ATOM     57  N   UNL A   1      41.511  30.676  30.295  1.00  0.00    -0.354 N 
ATOM     58  N   UNL A   1      44.318  30.276  31.020  1.00  0.00    -0.248 NA
ATOM     59  C   UNL A   1      46.350  31.110  31.819  1.00  0.00     0.031 C 
ATOM     60  C   UNL A   1      40.555  32.618  30.790  1.00  0.00     0.029 A 
ATOM     61  C   UNL A   1      41.755  31.925  30.838  1.00  0.00     0.049 A 
ATOM     62  H   UNL A   1      42.180  29.960  30.201  1.00  0.00     0.167 HD
ATOM     63  C   UNL A   1      44.150  31.605  31.397  1.00  0.00     0.074 A 
ATOM     64  C   UNL A   1      45.427  32.061  31.906  1.00  0.00     0.031 C 
ATOM     65  C   UNL A   1      43.036  32.377  31.326  1.00  0.00     0.031 A 
BRANCH  52  66
ATOM     66  C   UNL A   1      38.188  29.551  28.734  1.00  0.00    -0.014 A 
ATOM     67  C   UNL A   1      37.899  29.906  27.403  1.00  0.00     0.010 A 
ATOM     68  C   UNL A   1      37.125  29.289  29.618  1.00  0.00     0.010 A 
ATOM     69  C   UNL A   1      36.574  30.053  26.984  1.00  0.00     0.020 A 
ATOM     70  C   UNL A   1      35.799  29.405  29.194  1.00  0.00     0.020 A 
ATOM     71  C   UNL A   1      35.533  29.810  27.885  1.00  0.00     0.054 A 
BRANCH  71  72
ATOM     72  S   UNL A   1      33.824  30.024  27.318  1.00  0.00     0.124 S 
ATOM     73  O   UNL A   1      33.131  28.965  28.050  1.00  0.00    -0.237 OA
ATOM     74  O   UNL A   1      33.513  31.387  27.744  1.00  0.00    -0.237 OA
ATOM     75  O   UNL A   1      33.910  29.829  25.873  1.00  0.00    -0.744 OA
ENDBRANCH  71  72
ENDBRANCH  52  66
BRANCH  53  76
ATOM     76  C   UNL A   1      47.764  28.574  31.350  1.00  0.00    -0.014 A 
ATOM     77  C   UNL A   1      48.212  28.145  32.611  1.00  0.00     0.010 A 
ATOM     78  C   UNL A   1      48.712  28.860  30.349  1.00  0.00     0.010 A 
ATOM     79  C   UNL A   1      49.580  27.996  32.861  1.00  0.00     0.020 A 
ATOM     80  C   UNL A   1      50.077  28.686  30.587  1.00  0.00     0.020 A 
ATOM     81  C   UNL A   1      50.503  28.257  31.845  1.00  0.00     0.054 A 
BRANCH  81  82
ATOM     82  S   UNL A   1      52.265  27.965  32.167  1.00  0.00     0.124 S 
ATOM     83  O   UNL A   1      52.832  28.004  30.823  1.00  0.00    -0.237 OA
ATOM     84  O   UNL A   1      52.615  29.088  33.034  1.00  0.00    -0.237 OA
ATOM     85  O   UNL A   1      52.282  26.656  32.817  1.00  0.00    -0.744 OA
ENDBRANCH  81  82
ENDBRANCH  53  76
BRANCH  65  86
ATOM     86  C   UNL A   1      43.135  33.802  31.807  1.00  0.00    -0.014 A 
ATOM     87  C   UNL A   1      42.960  34.123  33.166  1.00  0.00     0.010 A 
ATOM     88  C   UNL A   1      43.494  34.822  30.906  1.00  0.00     0.010 A 
ATOM     89  C   UNL A   1      43.131  35.437  33.612  1.00  0.00     0.020 A 
ATOM     90  C   UNL A   1      43.692  36.132  31.353  1.00  0.00     0.020 A 
ATOM     91  C   UNL A   1      43.502  36.433  32.702  1.00  0.00     0.054 A 
BRANCH  91  92
ATOM     92  S   UNL A   1      43.786  38.116  33.319  1.00  0.00     0.124 S 
ATOM     93  O   UNL A   1      45.015  37.954  34.091  1.00  0.00    -0.237 OA
ATOM     94  O   UNL A   1      43.914  38.891  32.087  1.00  0.00    -0.237 OA
ATOM     95  O   UNL A   1      42.590  38.404  34.108  1.00  0.00    -0.744 OA
ENDBRANCH  91  92
ENDBRANCH  65  86
ENDBRANCH  39  40
ENDBRANCH  32  34
ENDBRANCH  31  32
ENDBRANCH  30  31
ENDBRANCH  29  30
ENDBRANCH  28  29
ENDBRANCH  27  28
ENDBRANCH  26  27
ENDBRANCH   1  26
TORSDOF 26
ENDMDL
MODEL 3
REMARK VINA RESULT:      -8.9      5.720     10.332
REMARK SMILES CCOc1ccc(OCC(=O)N2CCC[C@H](C(=O)OCCOCCOCCOC(=O)c3ccc(-c4c5nc(c(-c6ccc(S(=O)(=O)[O-])cc6)c6ccc([nH]6)c(-c6ccc(S(=O)(=O)[O-])cc6)c6nc(c(-c7ccc(S(=O)(=O)[O-])cc7)c7ccc4[nH]7)C=C6)C=C5)cc3)C2)cc1
REMARK SMILES IDX 22 1 21 2 20 3 19 4 17 5 18 6 16 7 12 8 13 9 91 10 14 11
REMARK SMILES IDX 15 12 10 13 11 14 9 15 8 16 7 17 4 18 5 19 93 20 6 21 92 22
REMARK SMILES IDX 3 23 2 24 1 25 23 26 24 27 25 28 26 29 27 30 28 31 29 32
REMARK SMILES IDX 30 33 31 34 32 35 90 36 33 37 89 38 34 39 35 40 36 41 83 42
REMARK SMILES IDX 37 43 88 44 82 45 84 46 38 47 87 48 81 49 80 50 39 52 69 53
REMARK SMILES IDX 50 54 68 55 51 56 54 57 67 58 85 59 52 60 53 61 66 63 86 64
REMARK SMILES IDX 55 65 40 66 41 67 49 68 42 69 48 70 43 71 44 72 45 73 46 74
REMARK SMILES IDX 47 75 70 76 71 77 79 78 72 79 78 80 73 81 74 82 75 83 76 84
REMARK SMILES IDX 77 85 56 86 57 87 65 88 58 89 64 90 59 91 60 92 61 93 62 94
REMARK SMILES IDX 63 95
REMARK H PARENT 84 51 54 62
REMARK Flexibility Score: inf
ROOT
ATOM      1  O   UNL A   1      35.670  30.377  28.317  1.00  0.00    -0.376 OA
ENDROOT
BRANCH   1   2
ATOM      2  C   UNL A   1      35.443  29.306  27.407  1.00  0.00     0.202 C 
BRANCH   2   3
ATOM      3  C   UNL A   1      34.058  29.170  26.757  1.00  0.00     0.261 C 
BRANCH   3   4
ATOM      4  O   UNL A   1      33.971  28.370  25.557  1.00  0.00    -0.463 OA
BRANCH   4   5
ATOM      5  C   UNL A   1      33.143  28.817  24.575  1.00  0.00     0.310 C 
ATOM      6  O   UNL A   1      33.522  29.189  23.471  1.00  0.00    -0.252 OA
BRANCH   5   7
ATOM      7  C   UNL A   1      31.658  28.828  24.939  1.00  0.00     0.119 C 
ATOM      8  N   UNL A   1      30.999  26.824  23.693  1.00  0.00    -0.339 N 
ATOM      9  C   UNL A   1      30.089  27.557  22.811  1.00  0.00     0.119 C 
ATOM     10  C   UNL A   1      31.160  27.387  25.033  1.00  0.00     0.134 C 
ATOM     11  C   UNL A   1      30.419  29.044  22.717  1.00  0.00     0.022 C 
ATOM     12  C   UNL A   1      30.678  29.651  24.092  1.00  0.00     0.019 C 
BRANCH   8  13
ATOM     13  C   UNL A   1      31.720  25.746  23.197  1.00  0.00     0.260 C 
ATOM     14  O   UNL A   1      32.338  25.817  22.129  1.00  0.00    -0.271 OA
BRANCH  13  15
ATOM     15  C   UNL A   1      31.581  24.372  23.899  1.00  0.00     0.329 C 
BRANCH  15  16
ATOM     16  O   UNL A   1      31.482  23.159  23.190  1.00  0.00    -0.484 OA
BRANCH  16  17
ATOM     17  C   UNL A   1      31.934  22.013  23.777  1.00  0.00     0.120 A 
ATOM     18  C   UNL A   1      32.773  19.522  24.722  1.00  0.00     0.119 A 
ATOM     19  C   UNL A   1      32.538  19.694  23.364  1.00  0.00     0.050 A 
ATOM     20  C   UNL A   1      32.654  20.603  25.596  1.00  0.00     0.050 A 
ATOM     21  C   UNL A   1      32.125  20.943  22.893  1.00  0.00     0.050 A 
ATOM     22  C   UNL A   1      32.211  21.843  25.129  1.00  0.00     0.050 A 
BRANCH  18  23
ATOM     23  O   UNL A   1      33.213  18.311  25.173  1.00  0.00    -0.494 OA
BRANCH  23  24
ATOM     24  C   UNL A   1      32.924  17.240  24.262  1.00  0.00     0.226 C 
ATOM     25  C   UNL A   1      33.070  15.895  24.957  1.00  0.00     0.049 C 
ENDBRANCH  23  24
ENDBRANCH  18  23
ENDBRANCH  16  17
ENDBRANCH  15  16
ENDBRANCH  13  15
ENDBRANCH   8  13
ENDBRANCH   5   7
ENDBRANCH   4   5
ENDBRANCH   3   4
ENDBRANCH   2   3
ENDBRANCH   1   2
BRANCH   1  26
ATOM     26  C   UNL A   1      34.846  31.534  28.258  1.00  0.00     0.188 C 
BRANCH  26  27
ATOM     27  C   UNL A   1      35.500  32.897  28.499  1.00  0.00     0.188 C 
BRANCH  27  28
ATOM     28  O   UNL A   1      35.095  33.913  27.614  1.00  0.00    -0.376 OA
BRANCH  28  29
ATOM     29  C   UNL A   1      34.414  35.040  28.129  1.00  0.00     0.202 C 
BRANCH  29  30
ATOM     30  C   UNL A   1      33.358  34.859  29.229  1.00  0.00     0.261 C 
BRANCH  30  31
ATOM     31  O   UNL A   1      33.382  35.795  30.319  1.00  0.00    -0.460 OA
BRANCH  31  32
ATOM     32  C   UNL A   1      33.107  35.342  31.566  1.00  0.00     0.338 C 
ATOM     33  O   UNL A   1      32.019  35.328  32.115  1.00  0.00    -0.246 OA
BRANCH  32  34
ATOM     34  C   UNL A   1      34.318  34.615  32.023  1.00  0.00     0.060 A 
ATOM     35  C   UNL A   1      35.519  35.321  32.193  1.00  0.00     0.016 A 
ATOM     36  C   UNL A   1      34.239  33.268  32.382  1.00  0.00     0.016 A 
ATOM     37  C   UNL A   1      36.638  34.684  32.741  1.00  0.00     0.010 A 
ATOM     38  C   UNL A   1      35.367  32.626  32.898  1.00  0.00     0.010 A 
ATOM     39  C   UNL A   1      36.573  33.327  33.075  1.00  0.00    -0.014 A 
BRANCH  39  40
ATOM     40  C   UNL A   1      37.789  32.578  33.474  1.00  0.00     0.031 A 
ATOM     41  C   UNL A   1      38.368  32.830  34.837  1.00  0.00     0.074 A 
ATOM     42  C   UNL A   1      38.409  31.739  32.625  1.00  0.00     0.049 A 
ATOM     43  N   UNL A   1      39.497  32.415  35.349  1.00  0.00    -0.248 NA
ATOM     44  C   UNL A   1      37.565  33.672  35.738  1.00  0.00     0.031 C 
ATOM     45  C   UNL A   1      37.931  31.377  31.292  1.00  0.00     0.029 A 
ATOM     46  N   UNL A   1      39.600  31.067  32.752  1.00  0.00    -0.354 N 
ATOM     47  C   UNL A   1      39.553  32.964  36.624  1.00  0.00     0.074 A 
ATOM     48  C   UNL A   1      38.350  33.748  36.802  1.00  0.00     0.031 C 
ATOM     49  C   UNL A   1      38.841  30.577  30.708  1.00  0.00     0.029 A 
ATOM     50  C   UNL A   1      39.983  30.410  31.607  1.00  0.00     0.049 A 
ATOM     51  H   UNL A   1      40.129  31.057  33.583  1.00  0.00     0.167 HD
ATOM     52  C   UNL A   1      40.524  32.835  37.558  1.00  0.00     0.031 A 
ATOM     53  C   UNL A   1      41.140  29.788  31.298  1.00  0.00     0.031 A 
ATOM     54  C   UNL A   1      41.734  32.081  37.366  1.00  0.00     0.049 A 
ATOM     55  C   UNL A   1      42.249  29.729  32.317  1.00  0.00     0.074 A 
ATOM     56  C   UNL A   1      42.762  31.861  38.266  1.00  0.00     0.029 A 
ATOM     57  N   UNL A   1      42.094  31.448  36.186  1.00  0.00    -0.354 N 
ATOM     58  N   UNL A   1      42.272  30.207  33.540  1.00  0.00    -0.248 NA
ATOM     59  C   UNL A   1      43.491  29.052  31.915  1.00  0.00     0.031 C 
ATOM     60  C   UNL A   1      43.775  31.159  37.606  1.00  0.00     0.029 A 
ATOM     61  C   UNL A   1      43.350  30.881  36.316  1.00  0.00     0.049 A 
ATOM     62  H   UNL A   1      41.538  31.408  35.374  1.00  0.00     0.167 HD
ATOM     63  C   UNL A   1      43.524  29.882  34.053  1.00  0.00     0.074 A 
ATOM     64  C   UNL A   1      44.223  29.148  33.018  1.00  0.00     0.031 C 
ATOM     65  C   UNL A   1      44.047  30.168  35.273  1.00  0.00     0.031 A 
BRANCH  52  66
ATOM     66  C   UNL A   1      40.341  33.590  38.847  1.00  0.00    -0.014 A 
ATOM     67  C   UNL A   1      39.618  33.045  39.924  1.00  0.00     0.010 A 
ATOM     68  C   UNL A   1      40.903  34.873  38.981  1.00  0.00     0.010 A 
ATOM     69  C   UNL A   1      39.412  33.792  41.086  1.00  0.00     0.020 A 
ATOM     70  C   UNL A   1      40.726  35.611  40.153  1.00  0.00     0.020 A 
ATOM     71  C   UNL A   1      39.960  35.075  41.190  1.00  0.00     0.054 A 
BRANCH  71  72
ATOM     72  S   UNL A   1      39.664  36.029  42.703  1.00  0.00     0.124 S 
ATOM     73  O   UNL A   1      38.364  35.515  43.131  1.00  0.00    -0.237 OA
ATOM     74  O   UNL A   1      40.795  35.652  43.546  1.00  0.00    -0.237 OA
ATOM     75  O   UNL A   1      39.665  37.416  42.245  1.00  0.00    -0.744 OA
ENDBRANCH  71  72
ENDBRANCH  52  66
BRANCH  53  76
ATOM     76  C   UNL A   1      41.325  29.223  29.933  1.00  0.00    -0.014 A 
ATOM     77  C   UNL A   1      41.889  29.993  28.903  1.00  0.00     0.010 A 
ATOM     78  C   UNL A   1      40.968  27.886  29.671  1.00  0.00     0.010 A 
ATOM     79  C   UNL A   1      42.100  29.434  27.638  1.00  0.00     0.020 A 
ATOM     80  C   UNL A   1      41.202  27.317  28.417  1.00  0.00     0.020 A 
ATOM     81  C   UNL A   1      41.766  28.097  27.406  1.00  0.00     0.054 A 
BRANCH  81  82
ATOM     82  S   UNL A   1      42.137  27.371  25.785  1.00  0.00     0.124 S 
ATOM     83  O   UNL A   1      42.067  28.534  24.906  1.00  0.00    -0.237 OA
ATOM     84  O   UNL A   1      43.472  26.813  25.990  1.00  0.00    -0.237 OA
ATOM     85  O   UNL A   1      41.077  26.382  25.601  1.00  0.00    -0.744 OA
ENDBRANCH  81  82
ENDBRANCH  53  76
BRANCH  65  86
ATOM     86  C   UNL A   1      45.445  29.691  35.570  1.00  0.00    -0.014 A 
ATOM     87  C   UNL A   1      46.559  30.513  35.324  1.00  0.00     0.010 A 
ATOM     88  C   UNL A   1      45.642  28.440  36.185  1.00  0.00     0.010 A 
ATOM     89  C   UNL A   1      47.845  30.088  35.675  1.00  0.00     0.020 A 
ATOM     90  C   UNL A   1      46.922  28.024  36.562  1.00  0.00     0.020 A 
ATOM     91  C   UNL A   1      48.017  28.848  36.298  1.00  0.00     0.054 A 
BRANCH  91  92
ATOM     92  S   UNL A   1      49.687  28.352  36.809  1.00  0.00     0.124 S 
ATOM     93  O   UNL A   1      50.409  29.621  36.762  1.00  0.00    -0.237 OA
ATOM     94  O   UNL A   1      49.463  27.804  38.145  1.00  0.00    -0.237 OA
ATOM     95  O   UNL A   1      50.083  27.374  35.799  1.00  0.00    -0.744 OA
ENDBRANCH  91  92
ENDBRANCH  65  86
ENDBRANCH  39  40
ENDBRANCH  32  34
ENDBRANCH  31  32
ENDBRANCH  30  31
ENDBRANCH  29  30
ENDBRANCH  28  29
ENDBRANCH  27  28
ENDBRANCH  26  27
ENDBRANCH   1  26
TORSDOF 26
ENDMDL
