MODEL 1
REMARK VINA RESULT:     -10.9      0.000      0.000
REMARK SMILES Cc1cc(C(=O)OCCOCCOCCOC(=O)c2ccc(-c3c4nc(c(-c5ccc(S(=O)(=O)[O-])cc5)c5ccc([nH]5)c(-c5ccc(S(=O)(=O)[O-])cc5)c5nc(c(-c6ccc(S(=O)(=O)[O-])cc6)c6ccc3[nH]6)C=C5)C=C4)cc2)ccc1NS(=O)(=O)c1ccc(C#N)cc1C
REMARK SMILES IDX 11 1 10 2 9 3 8 4 7 5 5 6 6 7 4 8 1 9 2 10 3 11 81 12 80 13
REMARK SMILES IDX 79 14 82 15 83 17 84 18 85 19 86 20 87 21 93 22 88 23 92 24
REMARK SMILES IDX 94 25 89 26 90 27 91 28 12 29 13 30 14 31 15 32 16 33 17 34
REMARK SMILES IDX 18 35 19 36 20 37 78 38 21 39 77 40 22 41 23 42 24 43 71 44
REMARK SMILES IDX 25 45 76 46 70 47 72 48 26 49 75 50 69 51 68 52 27 54 57 55
REMARK SMILES IDX 38 56 56 57 39 58 42 59 55 60 73 61 40 62 41 63 54 65 74 66
REMARK SMILES IDX 43 67 28 68 29 69 37 70 30 71 36 72 31 73 32 74 33 75 34 76
REMARK SMILES IDX 35 77 58 78 59 79 67 80 60 81 66 82 61 83 62 84 63 85 64 86
REMARK SMILES IDX 65 87 44 88 45 89 53 90 46 91 52 92 47 93 48 94 49 95 50 96
REMARK SMILES IDX 51 97
REMARK H PARENT 82 16 72 53 42 64
REMARK Flexibility Score: inf
ROOT
ATOM      1  C   UNL A   1      41.935  19.083  26.839  1.00  0.00     0.188 C 
ENDROOT
BRANCH   1   2
ATOM      2  O   UNL A   1      41.081  19.918  27.635  1.00  0.00    -0.376 OA
BRANCH   2   3
ATOM      3  C   UNL A   1      41.155  21.348  27.790  1.00  0.00     0.202 C 
BRANCH   3   4
ATOM      4  C   UNL A   1      40.327  22.750  27.205  1.00  0.00     0.261 C 
BRANCH   4   5
ATOM      5  O   UNL A   1      38.722  23.119  26.352  1.00  0.00    -0.460 OA
BRANCH   5   6
ATOM      6  C   UNL A   1      37.549  22.509  25.628  1.00  0.00     0.338 C 
ATOM      7  O   UNL A   1      37.113  21.356  25.669  1.00  0.00    -0.246 OA
BRANCH   6   8
ATOM      8  C   UNL A   1      36.557  23.280  24.851  1.00  0.00     0.060 A 
ATOM      9  C   UNL A   1      34.018  26.119  25.408  1.00  0.00     0.046 C 
ATOM     10  C   UNL A   1      34.621  24.822  24.918  1.00  0.00    -0.026 A 
ATOM     11  C   UNL A   1      35.802  24.332  25.484  1.00  0.00     0.021 A 
ATOM     12  C   UNL A   1      34.179  24.135  23.786  1.00  0.00     0.052 A 
ATOM     13  C   UNL A   1      35.065  23.355  23.030  1.00  0.00     0.028 A 
ATOM     14  C   UNL A   1      36.263  22.911  23.568  1.00  0.00     0.018 A 
BRANCH  12  15
ATOM     15  N   UNL A   1      32.797  24.049  23.438  1.00  0.00    -0.279 N 
ATOM     16  H   UNL A   1      32.430  24.650  22.750  1.00  0.00     0.180 HD
BRANCH  15  17
ATOM     17  S   UNL A   1      31.766  22.898  24.211  1.00  0.00     0.262 S 
ATOM     18  O   UNL A   1      31.688  23.279  25.604  1.00  0.00    -0.201 OA
ATOM     19  O   UNL A   1      30.579  22.962  23.377  1.00  0.00    -0.201 OA
BRANCH  17  20
ATOM     20  C   UNL A   1      32.359  21.188  24.182  1.00  0.00     0.090 A 
ATOM     21  C   UNL A   1      32.219  20.411  23.025  1.00  0.00     0.024 A 
ATOM     22  C   UNL A   1      33.050  20.604  25.266  1.00  0.00    -0.029 A 
ATOM     23  C   UNL A   1      32.437  19.021  23.043  1.00  0.00     0.021 A 
ATOM     24  C   UNL A   1      33.285  19.207  25.271  1.00  0.00     0.024 A 
ATOM     25  C   UNL A   1      33.755  21.375  26.349  1.00  0.00     0.046 C 
ATOM     26  C   UNL A   1      32.927  18.402  24.188  1.00  0.00     0.052 A 
BRANCH  26  27
ATOM     27  C   UNL A   1      33.107  16.991  24.245  1.00  0.00     0.099 C 
ATOM     28  N   UNL A   1      33.231  15.821  24.327  1.00  0.00    -0.192 NA
ENDBRANCH  26  27
ENDBRANCH  17  20
ENDBRANCH  15  17
ENDBRANCH  12  15
ENDBRANCH   6   8
ENDBRANCH   5   6
ENDBRANCH   4   5
ENDBRANCH   3   4
ENDBRANCH   2   3
ENDBRANCH   1   2
BRANCH   1  29
ATOM     29  C   UNL A   1      42.761  19.691  25.742  1.00  0.00     0.188 C 
BRANCH  29  30
ATOM     30  O   UNL A   1      43.725  18.742  25.352  1.00  0.00    -0.376 OA
BRANCH  30  31
ATOM     31  C   UNL A   1      44.989  19.228  25.001  1.00  0.00     0.202 C 
BRANCH  31  32
ATOM     32  C   UNL A   1      44.950  20.600  24.320  1.00  0.00     0.261 C 
BRANCH  32  33
ATOM     33  O   UNL A   1      45.171  21.759  25.183  1.00  0.00    -0.460 OA
BRANCH  33  34
ATOM     34  C   UNL A   1      45.304  23.061  24.701  1.00  0.00     0.338 C 
ATOM     35  O   UNL A   1      45.708  23.281  23.571  1.00  0.00    -0.246 OA
BRANCH  34  36
ATOM     36  C   UNL A   1      44.514  24.046  25.503  1.00  0.00     0.060 A 
ATOM     37  C   UNL A   1      44.172  25.400  25.341  1.00  0.00     0.016 A 
ATOM     38  C   UNL A   1      44.053  23.500  26.625  1.00  0.00     0.016 A 
ATOM     39  C   UNL A   1      43.737  26.278  26.456  1.00  0.00     0.010 A 
ATOM     40  C   UNL A   1      43.868  24.378  27.671  1.00  0.00     0.010 A 
ATOM     41  C   UNL A   1      43.701  25.838  27.773  1.00  0.00    -0.014 A 
BRANCH  41  42
ATOM     42  C   UNL A   1      43.337  26.819  29.260  1.00  0.00     0.031 A 
ATOM     43  C   UNL A   1      42.048  28.081  29.576  1.00  0.00     0.074 A 
ATOM     44  C   UNL A   1      44.075  26.582  30.366  1.00  0.00     0.049 A 
ATOM     45  N   UNL A   1      42.280  29.264  30.103  1.00  0.00    -0.248 NA
ATOM     46  C   UNL A   1      40.591  28.236  28.963  1.00  0.00     0.031 C 
ATOM     47  C   UNL A   1      43.850  27.014  31.745  1.00  0.00     0.029 A 
ATOM     48  N   UNL A   1      45.220  25.795  30.465  1.00  0.00    -0.354 N 
ATOM     49  C   UNL A   1      41.138  30.072  29.853  1.00  0.00     0.074 A 
ATOM     50  C   UNL A   1      40.458  29.525  28.765  1.00  0.00     0.031 C 
ATOM     51  C   UNL A   1      44.970  26.769  32.458  1.00  0.00     0.029 A 
ATOM     52  C   UNL A   1      45.982  26.290  31.521  1.00  0.00     0.049 A 
ATOM     53  H   UNL A   1      45.449  25.027  29.893  1.00  0.00     0.167 HD
ATOM     54  C   UNL A   1      40.559  30.881  30.783  1.00  0.00     0.031 A 
ATOM     55  C   UNL A   1      47.158  26.895  31.195  1.00  0.00     0.031 A 
ATOM     56  C   UNL A   1      41.474  30.916  31.893  1.00  0.00     0.049 A 
ATOM     57  C   UNL A   1      47.013  28.380  31.467  1.00  0.00     0.074 A 
ATOM     58  C   UNL A   1      41.602  30.083  32.991  1.00  0.00     0.029 A 
ATOM     59  N   UNL A   1      42.736  31.410  31.611  1.00  0.00    -0.354 N 
ATOM     60  N   UNL A   1      45.873  29.033  31.469  1.00  0.00    -0.248 NA
ATOM     61  C   UNL A   1      48.125  29.199  31.929  1.00  0.00     0.031 C 
ATOM     62  C   UNL A   1      43.002  29.985  33.276  1.00  0.00     0.029 A 
ATOM     63  C   UNL A   1      43.698  30.791  32.387  1.00  0.00     0.049 A 
ATOM     64  H   UNL A   1      42.923  32.111  30.946  1.00  0.00     0.167 HD
ATOM     65  C   UNL A   1      46.063  30.287  31.977  1.00  0.00     0.074 A 
ATOM     66  C   UNL A   1      47.493  30.345  32.237  1.00  0.00     0.031 C 
ATOM     67  C   UNL A   1      45.081  31.211  32.205  1.00  0.00     0.031 A 
BRANCH  54  68
ATOM     68  C   UNL A   1      39.072  31.289  30.781  1.00  0.00    -0.014 A 
ATOM     69  C   UNL A   1      38.681  32.391  30.002  1.00  0.00     0.010 A 
ATOM     70  C   UNL A   1      38.018  30.709  31.542  1.00  0.00     0.010 A 
ATOM     71  C   UNL A   1      37.363  32.902  30.021  1.00  0.00     0.020 A 
ATOM     72  C   UNL A   1      36.712  31.232  31.610  1.00  0.00     0.020 A 
ATOM     73  C   UNL A   1      36.389  32.331  30.838  1.00  0.00     0.054 A 
BRANCH  73  74
ATOM     74  S   UNL A   1      34.706  33.007  30.852  1.00  0.00     0.124 S 
ATOM     75  O   UNL A   1      34.143  32.477  29.613  1.00  0.00    -0.237 OA
ATOM     76  O   UNL A   1      34.157  32.450  32.086  1.00  0.00    -0.237 OA
ATOM     77  O   UNL A   1      34.906  34.455  30.865  1.00  0.00    -0.744 OA
ENDBRANCH  73  74
ENDBRANCH  54  68
BRANCH  55  78
ATOM     78  C   UNL A   1      47.905  26.159  30.098  1.00  0.00    -0.014 A 
ATOM     79  C   UNL A   1      47.466  26.395  28.765  1.00  0.00     0.010 A 
ATOM     80  C   UNL A   1      49.181  25.586  30.248  1.00  0.00     0.010 A 
ATOM     81  C   UNL A   1      48.316  26.246  27.656  1.00  0.00     0.020 A 
ATOM     82  C   UNL A   1      50.029  25.388  29.121  1.00  0.00     0.020 A 
ATOM     83  C   UNL A   1      49.612  25.785  27.843  1.00  0.00     0.054 A 
BRANCH  83  84
ATOM     84  S   UNL A   1      50.761  25.910  26.423  1.00  0.00     0.124 S 
ATOM     85  O   UNL A   1      49.859  25.847  25.278  1.00  0.00    -0.237 OA
ATOM     86  O   UNL A   1      51.390  27.212  26.654  1.00  0.00    -0.237 OA
ATOM     87  O   UNL A   1      51.636  24.754  26.582  1.00  0.00    -0.744 OA
ENDBRANCH  83  84
ENDBRANCH  55  78
BRANCH  67  88
ATOM     88  C   UNL A   1      45.357  32.697  32.278  1.00  0.00    -0.014 A 
ATOM     89  C   UNL A   1      45.630  33.477  31.148  1.00  0.00     0.010 A 
ATOM     90  C   UNL A   1      45.155  33.387  33.501  1.00  0.00     0.010 A 
ATOM     91  C   UNL A   1      45.828  34.854  31.256  1.00  0.00     0.020 A 
ATOM     92  C   UNL A   1      45.237  34.770  33.598  1.00  0.00     0.020 A 
ATOM     93  C   UNL A   1      45.641  35.487  32.483  1.00  0.00     0.054 A 
BRANCH  93  94
ATOM     94  S   UNL A   1      45.952  37.255  32.627  1.00  0.00     0.124 S 
ATOM     95  O   UNL A   1      44.633  37.748  33.016  1.00  0.00    -0.237 OA
ATOM     96  O   UNL A   1      46.979  37.324  33.664  1.00  0.00    -0.237 OA
ATOM     97  O   UNL A   1      46.396  37.636  31.289  1.00  0.00    -0.744 OA
ENDBRANCH  93  94
ENDBRANCH  67  88
ENDBRANCH  41  42
ENDBRANCH  34  36
ENDBRANCH  33  34
ENDBRANCH  32  33
ENDBRANCH  31  32
ENDBRANCH  30  31
ENDBRANCH  29  30
ENDBRANCH   1  29
TORSDOF 24
ENDMDL
MODEL 2
REMARK VINA RESULT:     -10.4      6.502     13.301
REMARK SMILES Cc1cc(C(=O)OCCOCCOCCOC(=O)c2ccc(-c3c4nc(c(-c5ccc(S(=O)(=O)[O-])cc5)c5ccc([nH]5)c(-c5ccc(S(=O)(=O)[O-])cc5)c5nc(c(-c6ccc(S(=O)(=O)[O-])cc6)c6ccc3[nH]6)C=C5)C=C4)cc2)ccc1NS(=O)(=O)c1ccc(C#N)cc1C
REMARK SMILES IDX 11 1 10 2 9 3 8 4 7 5 5 6 6 7 4 8 1 9 2 10 3 11 81 12 80 13
REMARK SMILES IDX 79 14 82 15 83 17 84 18 85 19 86 20 87 21 93 22 88 23 92 24
REMARK SMILES IDX 94 25 89 26 90 27 91 28 12 29 13 30 14 31 15 32 16 33 17 34
REMARK SMILES IDX 18 35 19 36 20 37 78 38 21 39 77 40 22 41 23 42 24 43 71 44
REMARK SMILES IDX 25 45 76 46 70 47 72 48 26 49 75 50 69 51 68 52 27 54 57 55
REMARK SMILES IDX 38 56 56 57 39 58 42 59 55 60 73 61 40 62 41 63 54 65 74 66
REMARK SMILES IDX 43 67 28 68 29 69 37 70 30 71 36 72 31 73 32 74 33 75 34 76
REMARK SMILES IDX 35 77 58 78 59 79 67 80 60 81 66 82 61 83 62 84 63 85 64 86
REMARK SMILES IDX 65 87 44 88 45 89 53 90 46 91 52 92 47 93 48 94 49 95 50 96
REMARK SMILES IDX 51 97
REMARK H PARENT 82 16 72 53 42 64
REMARK Flexibility Score: inf
ROOT
ATOM      1  C   UNL A   1      43.037  38.954  26.851  1.00  0.00     0.188 C 
ENDROOT
BRANCH   1   2
ATOM      2  O   UNL A   1      43.015  37.523  26.743  1.00  0.00    -0.376 OA
BRANCH   2   3
ATOM      3  C   UNL A   1      41.942  36.635  27.111  1.00  0.00     0.202 C 
BRANCH   3   4
ATOM      4  C   UNL A   1      41.250  35.984  28.557  1.00  0.00     0.261 C 
BRANCH   4   5
ATOM      5  O   UNL A   1      40.955  34.303  29.281  1.00  0.00    -0.460 OA
BRANCH   5   6
ATOM      6  C   UNL A   1      40.226  33.542  30.359  1.00  0.00     0.338 C 
ATOM      7  O   UNL A   1      39.114  33.746  30.851  1.00  0.00    -0.246 OA
BRANCH   6   8
ATOM      8  C   UNL A   1      40.666  32.241  30.904  1.00  0.00     0.060 A 
ATOM      9  C   UNL A   1      41.794  28.795  29.611  1.00  0.00     0.046 C 
ATOM     10  C   UNL A   1      41.100  29.846  30.447  1.00  0.00    -0.026 A 
ATOM     11  C   UNL A   1      41.044  31.174  30.011  1.00  0.00     0.021 A 
ATOM     12  C   UNL A   1      40.648  29.633  31.750  1.00  0.00     0.052 A 
ATOM     13  C   UNL A   1      40.595  30.687  32.672  1.00  0.00     0.028 A 
ATOM     14  C   UNL A   1      40.593  32.007  32.248  1.00  0.00     0.018 A 
BRANCH  12  15
ATOM     15  N   UNL A   1      40.064  28.396  32.161  1.00  0.00    -0.279 N 
ATOM     16  H   UNL A   1      40.536  27.827  32.810  1.00  0.00     0.180 HD
BRANCH  15  17
ATOM     17  S   UNL A   1      38.537  27.892  31.529  1.00  0.00     0.262 S 
ATOM     18  O   UNL A   1      38.809  26.842  30.570  1.00  0.00    -0.201 OA
ATOM     19  O   UNL A   1      37.802  27.588  32.744  1.00  0.00    -0.201 OA
BRANCH  17  20
ATOM     20  C   UNL A   1      37.611  29.168  30.638  1.00  0.00     0.090 A 
ATOM     21  C   UNL A   1      37.287  28.991  29.287  1.00  0.00     0.024 A 
ATOM     22  C   UNL A   1      37.111  30.326  31.271  1.00  0.00    -0.029 A 
ATOM     23  C   UNL A   1      36.794  30.052  28.505  1.00  0.00     0.021 A 
ATOM     24  C   UNL A   1      36.596  31.384  30.481  1.00  0.00     0.024 A 
ATOM     25  C   UNL A   1      36.881  30.463  32.751  1.00  0.00     0.046 C 
ATOM     26  C   UNL A   1      36.491  31.275  29.093  1.00  0.00     0.052 A 
BRANCH  26  27
ATOM     27  C   UNL A   1      36.039  32.378  28.314  1.00  0.00     0.099 C 
ATOM     28  N   UNL A   1      35.704  33.309  27.673  1.00  0.00    -0.192 NA
ENDBRANCH  26  27
ENDBRANCH  17  20
ENDBRANCH  15  17
ENDBRANCH  12  15
ENDBRANCH   6   8
ENDBRANCH   5   6
ENDBRANCH   4   5
ENDBRANCH   3   4
ENDBRANCH   2   3
ENDBRANCH   1   2
BRANCH   1  29
ATOM     29  C   UNL A   1      41.879  39.672  27.482  1.00  0.00     0.188 C 
BRANCH  29  30
ATOM     30  O   UNL A   1      41.736  40.914  26.833  1.00  0.00    -0.376 OA
BRANCH  30  31
ATOM     31  C   UNL A   1      42.019  40.952  25.465  1.00  0.00     0.202 C 
BRANCH  31  32
ATOM     32  C   UNL A   1      43.117  41.955  25.094  1.00  0.00     0.261 C 
BRANCH  32  33
ATOM     33  O   UNL A   1      43.835  42.573  26.207  1.00  0.00    -0.460 OA
BRANCH  33  34
ATOM     34  C   UNL A   1      45.224  42.692  26.254  1.00  0.00     0.338 C 
ATOM     35  O   UNL A   1      45.781  43.736  25.957  1.00  0.00    -0.246 OA
BRANCH  34  36
ATOM     36  C   UNL A   1      45.856  41.625  27.090  1.00  0.00     0.060 A 
ATOM     37  C   UNL A   1      46.788  40.601  26.842  1.00  0.00     0.016 A 
ATOM     38  C   UNL A   1      45.411  41.663  28.344  1.00  0.00     0.016 A 
ATOM     39  C   UNL A   1      46.954  39.411  27.712  1.00  0.00     0.010 A 
ATOM     40  C   UNL A   1      45.422  40.455  29.005  1.00  0.00     0.010 A 
ATOM     41  C   UNL A   1      46.139  39.182  28.815  1.00  0.00    -0.014 A 
BRANCH  41  42
ATOM     42  C   UNL A   1      46.113  37.714  29.888  1.00  0.00     0.031 A 
ATOM     43  C   UNL A   1      45.645  35.980  29.533  1.00  0.00     0.074 A 
ATOM     44  C   UNL A   1      46.552  37.855  31.157  1.00  0.00     0.049 A 
ATOM     45  N   UNL A   1      44.820  35.267  30.271  1.00  0.00    -0.248 NA
ATOM     46  C   UNL A   1      45.736  35.148  28.183  1.00  0.00     0.031 C 
ATOM     47  C   UNL A   1      46.886  36.830  32.146  1.00  0.00     0.029 A 
ATOM     48  N   UNL A   1      46.862  39.042  31.818  1.00  0.00    -0.354 N 
ATOM     49  C   UNL A   1      44.426  34.141  29.500  1.00  0.00     0.074 A 
ATOM     50  C   UNL A   1      44.624  34.452  28.155  1.00  0.00     0.031 C 
ATOM     51  C   UNL A   1      47.028  37.426  33.349  1.00  0.00     0.029 A 
ATOM     52  C   UNL A   1      46.664  38.830  33.180  1.00  0.00     0.049 A 
ATOM     53  H   UNL A   1      47.165  39.879  31.398  1.00  0.00     0.167 HD
ATOM     54  C   UNL A   1      44.366  32.869  29.984  1.00  0.00     0.031 A 
ATOM     55  C   UNL A   1      45.620  39.487  33.757  1.00  0.00     0.031 A 
ATOM     56  C   UNL A   1      44.523  32.987  31.409  1.00  0.00     0.049 A 
ATOM     57  C   UNL A   1      44.560  38.462  34.112  1.00  0.00     0.074 A 
ATOM     58  C   UNL A   1      45.659  33.019  32.198  1.00  0.00     0.029 A 
ATOM     59  N   UNL A   1      43.561  33.744  32.055  1.00  0.00    -0.354 N 
ATOM     60  N   UNL A   1      44.405  37.305  33.511  1.00  0.00    -0.248 NA
ATOM     61  C   UNL A   1      43.711  38.597  35.288  1.00  0.00     0.031 C 
ATOM     62  C   UNL A   1      45.394  33.932  33.270  1.00  0.00     0.029 A 
ATOM     63  C   UNL A   1      44.094  34.401  33.149  1.00  0.00     0.049 A 
ATOM     64  H   UNL A   1      42.620  33.807  31.773  1.00  0.00     0.167 HD
ATOM     65  C   UNL A   1      43.529  36.533  34.220  1.00  0.00     0.074 A 
ATOM     66  C   UNL A   1      43.113  37.394  35.316  1.00  0.00     0.031 C 
ATOM     67  C   UNL A   1      43.197  35.237  33.933  1.00  0.00     0.031 A 
BRANCH  54  68
ATOM     68  C   UNL A   1      44.530  31.598  29.125  1.00  0.00    -0.014 A 
ATOM     69  C   UNL A   1      45.402  30.594  29.576  1.00  0.00     0.010 A 
ATOM     70  C   UNL A   1      43.937  31.330  27.859  1.00  0.00     0.010 A 
ATOM     71  C   UNL A   1      45.697  29.445  28.807  1.00  0.00     0.020 A 
ATOM     72  C   UNL A   1      44.253  30.217  27.058  1.00  0.00     0.020 A 
ATOM     73  C   UNL A   1      45.134  29.271  27.543  1.00  0.00     0.054 A 
BRANCH  73  74
ATOM     74  S   UNL A   1      45.532  27.793  26.570  1.00  0.00     0.124 S 
ATOM     75  O   UNL A   1      44.707  26.767  27.203  1.00  0.00    -0.237 OA
ATOM     76  O   UNL A   1      45.126  28.188  25.223  1.00  0.00    -0.237 OA
ATOM     77  O   UNL A   1      46.972  27.623  26.755  1.00  0.00    -0.744 OA
ENDBRANCH  73  74
ENDBRANCH  54  68
BRANCH  55  78
ATOM     78  C   UNL A   1      45.488  40.915  33.260  1.00  0.00    -0.014 A 
ATOM     79  C   UNL A   1      44.290  41.233  32.558  1.00  0.00     0.010 A 
ATOM     80  C   UNL A   1      46.240  42.001  33.743  1.00  0.00     0.010 A 
ATOM     81  C   UNL A   1      43.776  42.539  32.502  1.00  0.00     0.020 A 
ATOM     82  C   UNL A   1      45.746  43.333  33.647  1.00  0.00     0.020 A 
ATOM     83  C   UNL A   1      44.485  43.580  33.088  1.00  0.00     0.054 A 
BRANCH  83  84
ATOM     84  S   UNL A   1      43.626  45.188  33.259  1.00  0.00     0.124 S 
ATOM     85  O   UNL A   1      44.590  45.987  34.007  1.00  0.00    -0.237 OA
ATOM     86  O   UNL A   1      43.437  45.582  31.861  1.00  0.00    -0.237 OA
ATOM     87  O   UNL A   1      42.406  44.854  33.986  1.00  0.00    -0.744 OA
ENDBRANCH  83  84
ENDBRANCH  55  78
BRANCH  67  88
ATOM     88  C   UNL A   1      41.905  34.601  34.399  1.00  0.00    -0.014 A 
ATOM     89  C   UNL A   1      41.857  33.605  35.382  1.00  0.00     0.010 A 
ATOM     90  C   UNL A   1      40.665  35.144  33.973  1.00  0.00     0.010 A 
ATOM     91  C   UNL A   1      40.639  33.083  35.817  1.00  0.00     0.020 A 
ATOM     92  C   UNL A   1      39.448  34.711  34.485  1.00  0.00     0.020 A 
ATOM     93  C   UNL A   1      39.445  33.633  35.355  1.00  0.00     0.054 A 
BRANCH  93  94
ATOM     94  S   UNL A   1      37.877  32.918  35.879  1.00  0.00     0.124 S 
ATOM     95  O   UNL A   1      37.677  33.578  37.168  1.00  0.00    -0.237 OA
ATOM     96  O   UNL A   1      36.960  33.325  34.817  1.00  0.00    -0.237 OA
ATOM     97  O   UNL A   1      38.156  31.486  35.943  1.00  0.00    -0.744 OA
ENDBRANCH  93  94
ENDBRANCH  67  88
ENDBRANCH  41  42
ENDBRANCH  34  36
ENDBRANCH  33  34
ENDBRANCH  32  33
ENDBRANCH  31  32
ENDBRANCH  30  31
ENDBRANCH  29  30
ENDBRANCH   1  29
TORSDOF 24
ENDMDL
MODEL 3
REMARK VINA RESULT:     -10.1      5.122      6.811
REMARK SMILES Cc1cc(C(=O)OCCOCCOCCOC(=O)c2ccc(-c3c4nc(c(-c5ccc(S(=O)(=O)[O-])cc5)c5ccc([nH]5)c(-c5ccc(S(=O)(=O)[O-])cc5)c5nc(c(-c6ccc(S(=O)(=O)[O-])cc6)c6ccc3[nH]6)C=C5)C=C4)cc2)ccc1NS(=O)(=O)c1ccc(C#N)cc1C
REMARK SMILES IDX 11 1 10 2 9 3 8 4 7 5 5 6 6 7 4 8 1 9 2 10 3 11 81 12 80 13
REMARK SMILES IDX 79 14 82 15 83 17 84 18 85 19 86 20 87 21 93 22 88 23 92 24
REMARK SMILES IDX 94 25 89 26 90 27 91 28 12 29 13 30 14 31 15 32 16 33 17 34
REMARK SMILES IDX 18 35 19 36 20 37 78 38 21 39 77 40 22 41 23 42 24 43 71 44
REMARK SMILES IDX 25 45 76 46 70 47 72 48 26 49 75 50 69 51 68 52 27 54 57 55
REMARK SMILES IDX 38 56 56 57 39 58 42 59 55 60 73 61 40 62 41 63 54 65 74 66
REMARK SMILES IDX 43 67 28 68 29 69 37 70 30 71 36 72 31 73 32 74 33 75 34 76
REMARK SMILES IDX 35 77 58 78 59 79 67 80 60 81 66 82 61 83 62 84 63 85 64 86
REMARK SMILES IDX 65 87 44 88 45 89 53 90 46 91 52 92 47 93 48 94 49 95 50 96
REMARK SMILES IDX 51 97
REMARK H PARENT 82 16 72 53 42 64
REMARK Flexibility Score: inf
ROOT
ATOM      1  C   UNL A   1      43.970  27.485  25.468  1.00  0.00     0.188 C 
ENDROOT
BRANCH   1   2
ATOM      2  O   UNL A   1      43.038  26.530  24.939  1.00  0.00    -0.376 OA
BRANCH   2   3
ATOM      3  C   UNL A   1      42.155  25.668  25.681  1.00  0.00     0.202 C 
BRANCH   3   4
ATOM      4  C   UNL A   1      40.551  25.718  26.327  1.00  0.00     0.261 C 
BRANCH   4   5
ATOM      5  O   UNL A   1      39.145  24.531  26.560  1.00  0.00    -0.460 OA
BRANCH   5   6
ATOM      6  C   UNL A   1      38.549  23.229  26.091  1.00  0.00     0.338 C 
ATOM      7  O   UNL A   1      39.016  22.088  26.136  1.00  0.00    -0.246 OA
BRANCH   6   8
ATOM      8  C   UNL A   1      37.150  23.066  25.645  1.00  0.00     0.060 A 
ATOM      9  C   UNL A   1      33.670  22.484  27.184  1.00  0.00     0.046 C 
ATOM     10  C   UNL A   1      34.853  22.367  26.249  1.00  0.00    -0.026 A 
ATOM     11  C   UNL A   1      36.097  22.890  26.614  1.00  0.00     0.021 A 
ATOM     12  C   UNL A   1      34.762  21.923  24.929  1.00  0.00     0.052 A 
ATOM     13  C   UNL A   1      35.658  22.385  23.954  1.00  0.00     0.028 A 
ATOM     14  C   UNL A   1      36.871  22.953  24.311  1.00  0.00     0.018 A 
BRANCH  12  15
ATOM     15  N   UNL A   1      33.884  20.867  24.539  1.00  0.00    -0.279 N 
ATOM     16  H   UNL A   1      34.214  19.940  24.524  1.00  0.00     0.180 HD
BRANCH  15  17
ATOM     17  S   UNL A   1      32.248  21.202  24.094  1.00  0.00     0.262 S 
ATOM     18  O   UNL A   1      32.039  20.605  22.793  1.00  0.00    -0.201 OA
ATOM     19  O   UNL A   1      31.522  20.698  25.246  1.00  0.00    -0.201 OA
BRANCH  17  20
ATOM     20  C   UNL A   1      31.840  22.958  23.920  1.00  0.00     0.090 A 
ATOM     21  C   UNL A   1      31.211  23.644  24.967  1.00  0.00     0.024 A 
ATOM     22  C   UNL A   1      32.206  23.715  22.786  1.00  0.00    -0.029 A 
ATOM     23  C   UNL A   1      30.660  24.925  24.779  1.00  0.00     0.021 A 
ATOM     24  C   UNL A   1      31.665  25.013  22.610  1.00  0.00     0.024 A 
ATOM     25  C   UNL A   1      33.302  23.344  21.824  1.00  0.00     0.046 C 
ATOM     26  C   UNL A   1      30.844  25.598  23.575  1.00  0.00     0.052 A 
BRANCH  26  27
ATOM     27  C   UNL A   1      30.253  26.873  23.345  1.00  0.00     0.099 C 
ATOM     28  N   UNL A   1      29.734  27.919  23.183  1.00  0.00    -0.192 NA
ENDBRANCH  26  27
ENDBRANCH  17  20
ENDBRANCH  15  17
ENDBRANCH  12  15
ENDBRANCH   6   8
ENDBRANCH   5   6
ENDBRANCH   4   5
ENDBRANCH   3   4
ENDBRANCH   2   3
ENDBRANCH   1   2
BRANCH   1  29
ATOM     29  C   UNL A   1      45.355  27.571  24.894  1.00  0.00     0.188 C 
BRANCH  29  30
ATOM     30  O   UNL A   1      46.188  26.722  25.647  1.00  0.00    -0.376 OA
BRANCH  30  31
ATOM     31  C   UNL A   1      47.251  26.113  24.973  1.00  0.00     0.202 C 
BRANCH  31  32
ATOM     32  C   UNL A   1      47.427  24.630  25.321  1.00  0.00     0.261 C 
BRANCH  32  33
ATOM     33  O   UNL A   1      47.285  24.273  26.732  1.00  0.00    -0.460 OA
BRANCH  33  34
ATOM     34  C   UNL A   1      48.260  24.538  27.693  1.00  0.00     0.338 C 
ATOM     35  O   UNL A   1      49.444  24.573  27.403  1.00  0.00    -0.246 OA
BRANCH  34  36
ATOM     36  C   UNL A   1      47.689  25.182  28.916  1.00  0.00     0.060 A 
ATOM     37  C   UNL A   1      48.207  25.546  30.172  1.00  0.00     0.016 A 
ATOM     38  C   UNL A   1      46.394  25.451  28.764  1.00  0.00     0.016 A 
ATOM     39  C   UNL A   1      47.366  25.789  31.370  1.00  0.00     0.010 A 
ATOM     40  C   UNL A   1      45.658  25.458  29.929  1.00  0.00     0.010 A 
ATOM     41  C   UNL A   1      45.988  25.605  31.357  1.00  0.00    -0.014 A 
BRANCH  41  42
ATOM     42  C   UNL A   1      44.841  25.716  32.763  1.00  0.00     0.031 A 
ATOM     43  C   UNL A   1      43.874  27.129  33.411  1.00  0.00     0.074 A 
ATOM     44  C   UNL A   1      44.580  24.584  33.452  1.00  0.00     0.049 A 
ATOM     45  N   UNL A   1      43.840  27.488  34.677  1.00  0.00    -0.248 NA
ATOM     46  C   UNL A   1      43.274  28.393  32.659  1.00  0.00     0.031 C 
ATOM     47  C   UNL A   1      43.531  24.314  34.435  1.00  0.00     0.029 A 
ATOM     48  N   UNL A   1      45.223  23.354  33.332  1.00  0.00    -0.354 N 
ATOM     49  C   UNL A   1      43.304  28.803  34.731  1.00  0.00     0.074 A 
ATOM     50  C   UNL A   1      43.489  29.392  33.481  1.00  0.00     0.031 C 
ATOM     51  C   UNL A   1      43.810  23.144  35.048  1.00  0.00     0.029 A 
ATOM     52  C   UNL A   1      45.112  22.700  34.557  1.00  0.00     0.049 A 
ATOM     53  H   UNL A   1      45.675  23.009  32.529  1.00  0.00     0.167 HD
ATOM     54  C   UNL A   1      42.363  29.205  35.629  1.00  0.00     0.031 A 
ATOM     55  C   UNL A   1      46.258  22.549  35.277  1.00  0.00     0.031 A 
ATOM     56  C   UNL A   1      42.260  28.140  36.590  1.00  0.00     0.049 A 
ATOM     57  C   UNL A   1      46.169  23.450  36.494  1.00  0.00     0.074 A 
ATOM     58  C   UNL A   1      41.486  26.993  36.596  1.00  0.00     0.029 A 
ATOM     59  N   UNL A   1      43.423  27.846  37.282  1.00  0.00    -0.354 N 
ATOM     60  N   UNL A   1      45.442  24.540  36.567  1.00  0.00    -0.248 NA
ATOM     61  C   UNL A   1      46.759  23.086  37.776  1.00  0.00     0.031 C 
ATOM     62  C   UNL A   1      42.278  25.960  37.194  1.00  0.00     0.029 A 
ATOM     63  C   UNL A   1      43.495  26.499  37.586  1.00  0.00     0.049 A 
ATOM     64  H   UNL A   1      44.108  28.509  37.526  1.00  0.00     0.167 HD
ATOM     65  C   UNL A   1      45.399  24.979  37.861  1.00  0.00     0.074 A 
ATOM     66  C   UNL A   1      46.251  24.040  38.575  1.00  0.00     0.031 C 
ATOM     67  C   UNL A   1      44.666  26.038  38.319  1.00  0.00     0.031 A 
BRANCH  54  68
ATOM     68  C   UNL A   1      41.355  30.348  35.386  1.00  0.00    -0.014 A 
ATOM     69  C   UNL A   1      40.379  30.179  34.390  1.00  0.00     0.010 A 
ATOM     70  C   UNL A   1      41.325  31.621  36.022  1.00  0.00     0.010 A 
ATOM     71  C   UNL A   1      39.483  31.210  34.024  1.00  0.00     0.020 A 
ATOM     72  C   UNL A   1      40.473  32.675  35.641  1.00  0.00     0.020 A 
ATOM     73  C   UNL A   1      39.547  32.459  34.640  1.00  0.00     0.054 A 
BRANCH  73  74
ATOM     74  S   UNL A   1      38.393  33.771  34.151  1.00  0.00     0.124 S 
ATOM     75  O   UNL A   1      38.617  33.866  32.711  1.00  0.00    -0.237 OA
ATOM     76  O   UNL A   1      37.103  33.217  34.555  1.00  0.00    -0.237 OA
ATOM     77  O   UNL A   1      38.833  34.934  34.919  1.00  0.00    -0.744 OA
ENDBRANCH  73  74
ENDBRANCH  54  68
BRANCH  55  78
ATOM     78  C   UNL A   1      47.445  22.176  34.407  1.00  0.00    -0.014 A 
ATOM     79  C   UNL A   1      48.490  23.139  34.315  1.00  0.00     0.010 A 
ATOM     80  C   UNL A   1      47.761  20.864  34.010  1.00  0.00     0.010 A 
ATOM     81  C   UNL A   1      49.817  22.782  34.024  1.00  0.00     0.020 A 
ATOM     82  C   UNL A   1      49.097  20.507  33.668  1.00  0.00     0.020 A 
ATOM     83  C   UNL A   1      50.125  21.457  33.746  1.00  0.00     0.054 A 
BRANCH  83  84
ATOM     84  S   UNL A   1      51.897  21.002  33.686  1.00  0.00     0.124 S 
ATOM     85  O   UNL A   1      52.213  21.132  32.268  1.00  0.00    -0.237 OA
ATOM     86  O   UNL A   1      52.500  22.014  34.557  1.00  0.00    -0.237 OA
ATOM     87  O   UNL A   1      51.923  19.637  34.201  1.00  0.00    -0.744 OA
ENDBRANCH  83  84
ENDBRANCH  55  78
BRANCH  67  88
ATOM     88  C   UNL A   1      45.014  26.787  39.587  1.00  0.00    -0.014 A 
ATOM     89  C   UNL A   1      44.365  26.563  40.807  1.00  0.00     0.010 A 
ATOM     90  C   UNL A   1      46.161  27.621  39.614  1.00  0.00     0.010 A 
ATOM     91  C   UNL A   1      44.754  27.239  41.964  1.00  0.00     0.020 A 
ATOM     92  C   UNL A   1      46.626  28.210  40.784  1.00  0.00     0.020 A 
ATOM     93  C   UNL A   1      45.875  28.067  41.938  1.00  0.00     0.054 A 
BRANCH  93  94
ATOM     94  S   UNL A   1      46.338  28.979  43.420  1.00  0.00     0.124 S 
ATOM     95  O   UNL A   1      47.278  29.955  42.874  1.00  0.00    -0.237 OA
ATOM     96  O   UNL A   1      45.063  29.526  43.880  1.00  0.00    -0.237 OA
ATOM     97  O   UNL A   1      46.922  27.958  44.285  1.00  0.00    -0.744 OA
ENDBRANCH  93  94
ENDBRANCH  67  88
ENDBRANCH  41  42
ENDBRANCH  34  36
ENDBRANCH  33  34
ENDBRANCH  32  33
ENDBRANCH  31  32
ENDBRANCH  30  31
ENDBRANCH  29  30
ENDBRANCH   1  29
TORSDOF 24
ENDMDL
