MODEL 1
REMARK VINA RESULT:      -9.7      0.000      0.000
REMARK SMILES Cc1cc(F)cc(N[C@H](C(=O)OCCOCCOCCOC(=O)c2ccc(-c3c4nc(c(-c5ccc(S(=O)(=O)[O-])cc5)c5ccc([nH]5)c(-c5ccc(S(=O)(=O)[O-])cc5)c5nc(c(-c6ccc(S(=O)(=O)[O-])cc6)c6ccc3[nH]6)C=C5)C=C4)cc2)c2cc(Br)cs2)c1
REMARK SMILES IDX 17 1 16 2 15 3 14 4 13 5 12 6 10 7 11 8 9 9 8 10 7 12 1 13
REMARK SMILES IDX 2 14 3 15 90 16 4 17 5 18 6 19 84 20 85 21 89 22 86 23 88 24
REMARK SMILES IDX 87 25 18 26 19 27 20 28 21 29 22 30 23 31 24 32 25 33 83 34
REMARK SMILES IDX 26 35 82 36 27 37 28 38 29 39 76 40 30 41 81 42 75 43 77 44
REMARK SMILES IDX 31 45 80 46 74 47 73 48 32 50 62 51 43 52 61 53 44 54 47 55
REMARK SMILES IDX 60 56 78 57 45 58 46 59 59 61 79 62 48 63 33 64 34 65 42 66
REMARK SMILES IDX 35 67 41 68 36 69 37 70 38 71 39 72 40 73 63 74 64 75 72 76
REMARK SMILES IDX 65 77 71 78 66 79 67 80 68 81 69 82 70 83 49 84 50 85 58 86
REMARK SMILES IDX 51 87 57 88 52 89 53 90 54 91 55 92 56 93
REMARK H PARENT 8 11 77 49 47 60
REMARK Flexibility Score: inf
ROOT
ATOM      1  C   UNL A   1      30.853  29.836  24.397  1.00  0.00     0.188 C 
ENDROOT
BRANCH   1   2
ATOM      2  C   UNL A   1      29.962  28.893  23.563  1.00  0.00     0.188 C 
BRANCH   2   3
ATOM      3  O   UNL A   1      30.318  27.532  23.554  1.00  0.00    -0.376 OA
BRANCH   3   4
ATOM      4  C   UNL A   1      29.565  26.557  24.253  1.00  0.00     0.202 C 
BRANCH   4   5
ATOM      5  C   UNL A   1      29.999  25.819  25.531  1.00  0.00     0.261 C 
BRANCH   5   6
ATOM      6  O   UNL A   1      30.352  24.444  25.418  1.00  0.00    -0.461 OA
BRANCH   6   7
ATOM      7  C   UNL A   1      31.027  23.924  26.490  1.00  0.00     0.334 C 
ATOM      8  O   UNL A   1      30.469  23.346  27.415  1.00  0.00    -0.249 OA
BRANCH   7   9
ATOM      9  C   UNL A   1      32.567  24.117  26.306  1.00  0.00     0.231 C 
BRANCH   9  10
ATOM     10  N   UNL A   1      33.294  22.988  26.917  1.00  0.00    -0.368 N 
ATOM     11  H   UNL A   1      32.912  22.579  27.727  1.00  0.00     0.161 HD
BRANCH  10  12
ATOM     12  C   UNL A   1      34.480  22.465  26.424  1.00  0.00     0.038 A 
ATOM     13  C   UNL A   1      38.012  23.761  25.732  1.00  0.00     0.044 C 
ATOM     14  C   UNL A   1      36.817  22.861  25.797  1.00  0.00    -0.046 A 
ATOM     15  C   UNL A   1      36.874  21.594  25.212  1.00  0.00     0.042 A 
ATOM     16  C   UNL A   1      35.617  23.287  26.392  1.00  0.00     0.029 A 
ATOM     17  C   UNL A   1      35.760  20.774  25.246  1.00  0.00     0.125 A 
ATOM     18  F   UNL A   1      35.810  19.564  24.676  1.00  0.00    -0.207 F 
ATOM     19  C   UNL A   1      34.581  21.196  25.843  1.00  0.00     0.065 A 
ENDBRANCH  10  12
ENDBRANCH   9  10
BRANCH   9  20
ATOM     20  C   UNL A   1      32.877  24.478  24.860  1.00  0.00     0.039 A 
ATOM     21  C   UNL A   1      33.443  25.654  24.386  1.00  0.00     0.033 A 
ATOM     22  S   UNL A   1      32.569  23.401  23.550  1.00  0.00    -0.145 S 
ATOM     23  C   UNL A   1      33.287  25.775  22.986  1.00  0.00     0.029 A 
ATOM     24  C   UNL A   1      32.771  24.649  22.401  1.00  0.00     0.080 A 
ATOM     25  Br  UNL A   1      33.690  27.377  22.081  1.00  0.00    -0.050 Br
ENDBRANCH   9  20
ENDBRANCH   7   9
ENDBRANCH   6   7
ENDBRANCH   5   6
ENDBRANCH   4   5
ENDBRANCH   3   4
ENDBRANCH   2   3
ENDBRANCH   1   2
BRANCH   1  26
ATOM     26  O   UNL A   1      31.572  29.317  25.494  1.00  0.00    -0.376 OA
BRANCH  26  27
ATOM     27  C   UNL A   1      32.974  29.130  25.400  1.00  0.00     0.202 C 
BRANCH  27  28
ATOM     28  C   UNL A   1      33.963  29.230  26.583  1.00  0.00     0.261 C 
BRANCH  28  29
ATOM     29  O   UNL A   1      33.633  30.103  27.668  1.00  0.00    -0.460 OA
BRANCH  29  30
ATOM     30  C   UNL A   1      34.581  31.011  28.000  1.00  0.00     0.338 C 
ATOM     31  O   UNL A   1      34.406  32.200  28.247  1.00  0.00    -0.246 OA
BRANCH  30  32
ATOM     32  C   UNL A   1      35.865  30.322  28.229  1.00  0.00     0.060 A 
ATOM     33  C   UNL A   1      36.091  29.718  29.475  1.00  0.00     0.016 A 
ATOM     34  C   UNL A   1      36.851  30.299  27.244  1.00  0.00     0.016 A 
ATOM     35  C   UNL A   1      37.315  29.108  29.747  1.00  0.00     0.010 A 
ATOM     36  C   UNL A   1      38.088  29.709  27.527  1.00  0.00     0.010 A 
ATOM     37  C   UNL A   1      38.336  29.138  28.789  1.00  0.00    -0.014 A 
BRANCH  37  38
ATOM     38  C   UNL A   1      39.716  28.742  29.171  1.00  0.00     0.031 A 
ATOM     39  C   UNL A   1      40.564  29.733  29.925  1.00  0.00     0.074 A 
ATOM     40  C   UNL A   1      40.204  27.524  28.877  1.00  0.00     0.049 A 
ATOM     41  N   UNL A   1      41.802  29.626  30.332  1.00  0.00    -0.248 NA
ATOM     42  C   UNL A   1      39.928  31.018  30.264  1.00  0.00     0.031 C 
ATOM     43  C   UNL A   1      39.472  26.459  28.195  1.00  0.00     0.029 A 
ATOM     44  N   UNL A   1      41.444  26.982  29.115  1.00  0.00    -0.354 N 
ATOM     45  C   UNL A   1      42.098  30.830  30.962  1.00  0.00     0.074 A 
ATOM     46  C   UNL A   1      40.920  31.663  30.858  1.00  0.00     0.031 C 
ATOM     47  C   UNL A   1      40.279  25.392  28.061  1.00  0.00     0.029 A 
ATOM     48  C   UNL A   1      41.595  25.710  28.614  1.00  0.00     0.049 A 
ATOM     49  H   UNL A   1      42.157  27.459  29.598  1.00  0.00     0.167 HD
ATOM     50  C   UNL A   1      43.245  31.208  31.576  1.00  0.00     0.031 A 
ATOM     51  C   UNL A   1      42.677  24.904  28.587  1.00  0.00     0.031 A 
ATOM     52  C   UNL A   1      44.422  30.385  31.661  1.00  0.00     0.049 A 
ATOM     53  C   UNL A   1      43.968  25.376  29.209  1.00  0.00     0.074 A 
ATOM     54  C   UNL A   1      45.630  30.673  32.273  1.00  0.00     0.029 A 
ATOM     55  N   UNL A   1      44.545  29.117  31.113  1.00  0.00    -0.354 N 
ATOM     56  N   UNL A   1      44.226  26.507  29.822  1.00  0.00    -0.248 NA
ATOM     57  C   UNL A   1      45.112  24.455  29.145  1.00  0.00     0.031 C 
ATOM     58  C   UNL A   1      46.504  29.608  32.039  1.00  0.00     0.029 A 
ATOM     59  C   UNL A   1      45.818  28.622  31.348  1.00  0.00     0.049 A 
ATOM     60  H   UNL A   1      43.834  28.639  30.627  1.00  0.00     0.167 HD
ATOM     61  C   UNL A   1      45.548  26.417  30.250  1.00  0.00     0.074 A 
ATOM     62  C   UNL A   1      46.033  25.117  29.833  1.00  0.00     0.031 C 
ATOM     63  C   UNL A   1      46.289  27.324  30.933  1.00  0.00     0.031 A 
BRANCH  50  64
ATOM     64  C   UNL A   1      43.293  32.592  32.170  1.00  0.00    -0.014 A 
ATOM     65  C   UNL A   1      43.609  33.715  31.383  1.00  0.00     0.010 A 
ATOM     66  C   UNL A   1      42.982  32.775  33.529  1.00  0.00     0.010 A 
ATOM     67  C   UNL A   1      43.649  34.990  31.955  1.00  0.00     0.020 A 
ATOM     68  C   UNL A   1      42.991  34.051  34.097  1.00  0.00     0.020 A 
ATOM     69  C   UNL A   1      43.342  35.150  33.310  1.00  0.00     0.054 A 
BRANCH  69  70
ATOM     70  S   UNL A   1      43.381  36.819  34.019  1.00  0.00     0.124 S 
ATOM     71  O   UNL A   1      42.072  36.904  34.661  1.00  0.00    -0.237 OA
ATOM     72  O   UNL A   1      44.523  36.754  34.926  1.00  0.00    -0.237 OA
ATOM     73  O   UNL A   1      43.561  37.685  32.856  1.00  0.00    -0.744 OA
ENDBRANCH  69  70
ENDBRANCH  50  64
BRANCH  51  74
ATOM     74  C   UNL A   1      42.594  23.566  27.935  1.00  0.00    -0.014 A 
ATOM     75  C   UNL A   1      43.043  23.379  26.616  1.00  0.00     0.010 A 
ATOM     76  C   UNL A   1      42.052  22.470  28.632  1.00  0.00     0.010 A 
ATOM     77  C   UNL A   1      42.934  22.128  26.000  1.00  0.00     0.020 A 
ATOM     78  C   UNL A   1      41.970  21.211  28.030  1.00  0.00     0.020 A 
ATOM     79  C   UNL A   1      42.402  21.050  26.713  1.00  0.00     0.054 A 
BRANCH  79  80
ATOM     80  S   UNL A   1      42.311  19.427  25.907  1.00  0.00     0.124 S 
ATOM     81  O   UNL A   1      42.835  18.543  26.943  1.00  0.00    -0.237 OA
ATOM     82  O   UNL A   1      40.884  19.296  25.624  1.00  0.00    -0.237 OA
ATOM     83  O   UNL A   1      43.161  19.582  24.729  1.00  0.00    -0.744 OA
ENDBRANCH  79  80
ENDBRANCH  51  74
BRANCH  63  84
ATOM     84  C   UNL A   1      47.691  26.931  31.330  1.00  0.00    -0.014 A 
ATOM     85  C   UNL A   1      48.809  27.304  30.564  1.00  0.00     0.010 A 
ATOM     86  C   UNL A   1      47.893  26.222  32.530  1.00  0.00     0.010 A 
ATOM     87  C   UNL A   1      50.098  26.945  30.970  1.00  0.00     0.020 A 
ATOM     88  C   UNL A   1      49.181  25.890  32.957  1.00  0.00     0.020 A 
ATOM     89  C   UNL A   1      50.276  26.240  32.166  1.00  0.00     0.054 A 
BRANCH  89  90
ATOM     90  S   UNL A   1      51.960  25.822  32.692  1.00  0.00     0.124 S 
ATOM     91  O   UNL A   1      51.719  24.766  33.672  1.00  0.00    -0.237 OA
ATOM     92  O   UNL A   1      52.588  25.391  31.445  1.00  0.00    -0.237 OA
ATOM     93  O   UNL A   1      52.475  27.075  33.241  1.00  0.00    -0.744 OA
ENDBRANCH  89  90
ENDBRANCH  63  84
ENDBRANCH  37  38
ENDBRANCH  30  32
ENDBRANCH  29  30
ENDBRANCH  28  29
ENDBRANCH  27  28
ENDBRANCH  26  27
ENDBRANCH   1  26
TORSDOF 23
ENDMDL
MODEL 2
REMARK VINA RESULT:      -9.7      4.182     10.128
REMARK SMILES Cc1cc(F)cc(N[C@H](C(=O)OCCOCCOCCOC(=O)c2ccc(-c3c4nc(c(-c5ccc(S(=O)(=O)[O-])cc5)c5ccc([nH]5)c(-c5ccc(S(=O)(=O)[O-])cc5)c5nc(c(-c6ccc(S(=O)(=O)[O-])cc6)c6ccc3[nH]6)C=C5)C=C4)cc2)c2cc(Br)cs2)c1
REMARK SMILES IDX 17 1 16 2 15 3 14 4 13 5 12 6 10 7 11 8 9 9 8 10 7 12 1 13
REMARK SMILES IDX 2 14 3 15 90 16 4 17 5 18 6 19 84 20 85 21 89 22 86 23 88 24
REMARK SMILES IDX 87 25 18 26 19 27 20 28 21 29 22 30 23 31 24 32 25 33 83 34
REMARK SMILES IDX 26 35 82 36 27 37 28 38 29 39 76 40 30 41 81 42 75 43 77 44
REMARK SMILES IDX 31 45 80 46 74 47 73 48 32 50 62 51 43 52 61 53 44 54 47 55
REMARK SMILES IDX 60 56 78 57 45 58 46 59 59 61 79 62 48 63 33 64 34 65 42 66
REMARK SMILES IDX 35 67 41 68 36 69 37 70 38 71 39 72 40 73 63 74 64 75 72 76
REMARK SMILES IDX 65 77 71 78 66 79 67 80 68 81 69 82 70 83 49 84 50 85 58 86
REMARK SMILES IDX 51 87 57 88 52 89 53 90 54 91 55 92 56 93
REMARK H PARENT 8 11 77 49 47 60
REMARK Flexibility Score: inf
ROOT
ATOM      1  C   UNL A   1      41.059  21.108  27.338  1.00  0.00     0.188 C 
ENDROOT
BRANCH   1   2
ATOM      2  C   UNL A   1      39.805  21.896  26.909  1.00  0.00     0.188 C 
BRANCH   2   3
ATOM      3  O   UNL A   1      38.743  21.149  26.367  1.00  0.00    -0.376 OA
BRANCH   3   4
ATOM      4  C   UNL A   1      38.025  21.587  25.228  1.00  0.00     0.202 C 
BRANCH   4   5
ATOM      5  C   UNL A   1      36.597  21.170  24.839  1.00  0.00     0.261 C 
BRANCH   5   6
ATOM      6  O   UNL A   1      35.584  22.171  24.853  1.00  0.00    -0.461 OA
BRANCH   6   7
ATOM      7  C   UNL A   1      34.651  22.043  25.848  1.00  0.00     0.334 C 
ATOM      8  O   UNL A   1      34.927  22.129  27.038  1.00  0.00    -0.249 OA
BRANCH   7   9
ATOM      9  C   UNL A   1      33.226  21.854  25.233  1.00  0.00     0.231 C 
BRANCH   9  10
ATOM     10  N   UNL A   1      32.690  20.530  25.602  1.00  0.00    -0.368 N 
ATOM     11  H   UNL A   1      32.221  20.447  26.463  1.00  0.00     0.161 HD
BRANCH  10  12
ATOM     12  C   UNL A   1      32.803  19.396  24.812  1.00  0.00     0.038 A 
ATOM     13  C   UNL A   1      34.377  15.925  25.145  1.00  0.00     0.044 C 
ATOM     14  C   UNL A   1      33.678  17.118  24.570  1.00  0.00    -0.046 A 
ATOM     15  C   UNL A   1      33.316  17.122  23.221  1.00  0.00     0.042 A 
ATOM     16  C   UNL A   1      33.424  18.258  25.352  1.00  0.00     0.029 A 
ATOM     17  C   UNL A   1      32.697  18.237  22.684  1.00  0.00     0.125 A 
ATOM     18  F   UNL A   1      32.361  18.247  21.388  1.00  0.00    -0.207 F 
ATOM     19  C   UNL A   1      32.440  19.356  23.461  1.00  0.00     0.065 A 
ENDBRANCH  10  12
ENDBRANCH   9  10
BRANCH   9  20
ATOM     20  C   UNL A   1      32.372  23.083  25.511  1.00  0.00     0.039 A 
ATOM     21  C   UNL A   1      32.711  24.412  25.297  1.00  0.00     0.033 A 
ATOM     22  S   UNL A   1      30.772  22.976  26.142  1.00  0.00    -0.145 S 
ATOM     23  C   UNL A   1      31.819  25.286  25.961  1.00  0.00     0.029 A 
ATOM     24  C   UNL A   1      30.746  24.642  26.517  1.00  0.00     0.080 A 
ATOM     25  Br  UNL A   1      32.166  27.132  26.104  1.00  0.00    -0.050 Br
ENDBRANCH   9  20
ENDBRANCH   7   9
ENDBRANCH   6   7
ENDBRANCH   5   6
ENDBRANCH   4   5
ENDBRANCH   3   4
ENDBRANCH   2   3
ENDBRANCH   1   2
BRANCH   1  26
ATOM     26  O   UNL A   1      42.330  21.708  27.210  1.00  0.00    -0.376 OA
BRANCH  26  27
ATOM     27  C   UNL A   1      42.804  22.103  25.933  1.00  0.00     0.202 C 
BRANCH  27  28
ATOM     28  C   UNL A   1      42.984  23.565  25.468  1.00  0.00     0.261 C 
BRANCH  28  29
ATOM     29  O   UNL A   1      42.009  24.529  25.877  1.00  0.00    -0.460 OA
BRANCH  29  30
ATOM     30  C   UNL A   1      42.363  25.827  25.718  1.00  0.00     0.338 C 
ATOM     31  O   UNL A   1      42.578  26.406  24.659  1.00  0.00    -0.246 OA
BRANCH  30  32
ATOM     32  C   UNL A   1      42.261  26.528  27.012  1.00  0.00     0.060 A 
ATOM     33  C   UNL A   1      41.243  26.150  27.902  1.00  0.00     0.016 A 
ATOM     34  C   UNL A   1      43.132  27.567  27.335  1.00  0.00     0.016 A 
ATOM     35  C   UNL A   1      41.081  26.830  29.109  1.00  0.00     0.010 A 
ATOM     36  C   UNL A   1      42.951  28.264  28.534  1.00  0.00     0.010 A 
ATOM     37  C   UNL A   1      41.907  27.919  29.412  1.00  0.00    -0.014 A 
BRANCH  37  38
ATOM     38  C   UNL A   1      41.563  28.809  30.550  1.00  0.00     0.031 A 
ATOM     39  C   UNL A   1      42.386  28.719  31.808  1.00  0.00     0.074 A 
ATOM     40  C   UNL A   1      40.555  29.697  30.467  1.00  0.00     0.049 A 
ATOM     41  N   UNL A   1      42.252  29.366  32.936  1.00  0.00    -0.248 NA
ATOM     42  C   UNL A   1      43.511  27.768  31.788  1.00  0.00     0.031 C 
ATOM     43  C   UNL A   1      39.713  29.917  29.293  1.00  0.00     0.029 A 
ATOM     44  N   UNL A   1      40.067  30.578  31.402  1.00  0.00    -0.354 N 
ATOM     45  C   UNL A   1      43.265  28.893  33.764  1.00  0.00     0.074 A 
ATOM     46  C   UNL A   1      43.986  27.884  33.019  1.00  0.00     0.031 C 
ATOM     47  C   UNL A   1      38.805  30.867  29.579  1.00  0.00     0.029 A 
ATOM     48  C   UNL A   1      38.978  31.296  30.967  1.00  0.00     0.049 A 
ATOM     49  H   UNL A   1      40.460  30.685  32.298  1.00  0.00     0.167 HD
ATOM     50  C   UNL A   1      43.571  29.267  35.030  1.00  0.00     0.031 A 
ATOM     51  C   UNL A   1      38.197  32.182  31.621  1.00  0.00     0.031 A 
ATOM     52  C   UNL A   1      42.841  30.257  35.776  1.00  0.00     0.049 A 
ATOM     53  C   UNL A   1      38.509  32.526  33.056  1.00  0.00     0.074 A 
ATOM     54  C   UNL A   1      43.080  30.714  37.061  1.00  0.00     0.029 A 
ATOM     55  N   UNL A   1      41.724  30.937  35.313  1.00  0.00    -0.354 N 
ATOM     56  N   UNL A   1      39.484  32.089  33.818  1.00  0.00    -0.248 NA
ATOM     57  C   UNL A   1      37.621  33.494  33.716  1.00  0.00     0.031 C 
ATOM     58  C   UNL A   1      42.071  31.622  37.397  1.00  0.00     0.029 A 
ATOM     59  C   UNL A   1      41.247  31.788  36.295  1.00  0.00     0.049 A 
ATOM     60  H   UNL A   1      41.328  30.829  34.418  1.00  0.00     0.167 HD
ATOM     61  C   UNL A   1      39.349  32.759  35.032  1.00  0.00     0.074 A 
ATOM     62  C   UNL A   1      38.203  33.635  34.899  1.00  0.00     0.031 C 
ATOM     63  C   UNL A   1      40.109  32.661  36.151  1.00  0.00     0.031 A 
BRANCH  50  64
ATOM     64  C   UNL A   1      44.726  28.571  35.702  1.00  0.00    -0.014 A 
ATOM     65  C   UNL A   1      46.037  29.074  35.612  1.00  0.00     0.010 A 
ATOM     66  C   UNL A   1      44.488  27.414  36.466  1.00  0.00     0.010 A 
ATOM     67  C   UNL A   1      47.094  28.411  36.242  1.00  0.00     0.020 A 
ATOM     68  C   UNL A   1      45.538  26.766  37.124  1.00  0.00     0.020 A 
ATOM     69  C   UNL A   1      46.837  27.259  36.993  1.00  0.00     0.054 A 
BRANCH  69  70
ATOM     70  S   UNL A   1      48.225  26.434  37.818  1.00  0.00     0.124 S 
ATOM     71  O   UNL A   1      49.204  26.338  36.738  1.00  0.00    -0.237 OA
ATOM     72  O   UNL A   1      48.562  27.368  38.889  1.00  0.00    -0.237 OA
ATOM     73  O   UNL A   1      47.660  25.161  38.260  1.00  0.00    -0.744 OA
ENDBRANCH  69  70
ENDBRANCH  50  64
BRANCH  51  74
ATOM     74  C   UNL A   1      37.030  32.799  30.930  1.00  0.00    -0.014 A 
ATOM     75  C   UNL A   1      35.729  32.307  31.134  1.00  0.00     0.010 A 
ATOM     76  C   UNL A   1      37.218  33.882  30.050  1.00  0.00     0.010 A 
ATOM     77  C   UNL A   1      34.642  32.872  30.458  1.00  0.00     0.020 A 
ATOM     78  C   UNL A   1      36.131  34.469  29.396  1.00  0.00     0.020 A 
ATOM     79  C   UNL A   1      34.850  33.953  29.596  1.00  0.00     0.054 A 
BRANCH  79  80
ATOM     80  S   UNL A   1      33.419  34.697  28.765  1.00  0.00     0.124 S 
ATOM     81  O   UNL A   1      32.990  33.622  27.876  1.00  0.00    -0.237 OA
ATOM     82  O   UNL A   1      32.524  34.990  29.882  1.00  0.00    -0.237 OA
ATOM     83  O   UNL A   1      33.981  35.870  28.101  1.00  0.00    -0.744 OA
ENDBRANCH  79  80
ENDBRANCH  51  74
BRANCH  63  84
ATOM     84  C   UNL A   1      39.770  33.565  37.311  1.00  0.00    -0.014 A 
ATOM     85  C   UNL A   1      38.824  33.196  38.284  1.00  0.00     0.010 A 
ATOM     86  C   UNL A   1      40.460  34.783  37.459  1.00  0.00     0.010 A 
ATOM     87  C   UNL A   1      38.549  34.044  39.362  1.00  0.00     0.020 A 
ATOM     88  C   UNL A   1      40.213  35.618  38.551  1.00  0.00     0.020 A 
ATOM     89  C   UNL A   1      39.247  35.251  39.488  1.00  0.00     0.054 A 
BRANCH  89  90
ATOM     90  S   UNL A   1      38.901  36.315  40.916  1.00  0.00     0.124 S 
ATOM     91  O   UNL A   1      37.846  35.572  41.601  1.00  0.00    -0.237 OA
ATOM     92  O   UNL A   1      40.190  36.356  41.604  1.00  0.00    -0.237 OA
ATOM     93  O   UNL A   1      38.483  37.579  40.314  1.00  0.00    -0.744 OA
ENDBRANCH  89  90
ENDBRANCH  63  84
ENDBRANCH  37  38
ENDBRANCH  30  32
ENDBRANCH  29  30
ENDBRANCH  28  29
ENDBRANCH  27  28
ENDBRANCH  26  27
ENDBRANCH   1  26
TORSDOF 23
ENDMDL
MODEL 3
REMARK VINA RESULT:      -9.6      4.217     10.340
REMARK SMILES Cc1cc(F)cc(N[C@H](C(=O)OCCOCCOCCOC(=O)c2ccc(-c3c4nc(c(-c5ccc(S(=O)(=O)[O-])cc5)c5ccc([nH]5)c(-c5ccc(S(=O)(=O)[O-])cc5)c5nc(c(-c6ccc(S(=O)(=O)[O-])cc6)c6ccc3[nH]6)C=C5)C=C4)cc2)c2cc(Br)cs2)c1
REMARK SMILES IDX 17 1 16 2 15 3 14 4 13 5 12 6 10 7 11 8 9 9 8 10 7 12 1 13
REMARK SMILES IDX 2 14 3 15 90 16 4 17 5 18 6 19 84 20 85 21 89 22 86 23 88 24
REMARK SMILES IDX 87 25 18 26 19 27 20 28 21 29 22 30 23 31 24 32 25 33 83 34
REMARK SMILES IDX 26 35 82 36 27 37 28 38 29 39 76 40 30 41 81 42 75 43 77 44
REMARK SMILES IDX 31 45 80 46 74 47 73 48 32 50 62 51 43 52 61 53 44 54 47 55
REMARK SMILES IDX 60 56 78 57 45 58 46 59 59 61 79 62 48 63 33 64 34 65 42 66
REMARK SMILES IDX 35 67 41 68 36 69 37 70 38 71 39 72 40 73 63 74 64 75 72 76
REMARK SMILES IDX 65 77 71 78 66 79 67 80 68 81 69 82 70 83 49 84 50 85 58 86
REMARK SMILES IDX 51 87 57 88 52 89 53 90 54 91 55 92 56 93
REMARK H PARENT 8 11 77 49 47 60
REMARK Flexibility Score: inf
ROOT
ATOM      1  C   UNL A   1      36.910  20.706  24.733  1.00  0.00     0.188 C 
ENDROOT
BRANCH   1   2
ATOM      2  C   UNL A   1      35.721  21.103  25.631  1.00  0.00     0.188 C 
BRANCH   2   3
ATOM      3  O   UNL A   1      34.962  22.215  25.220  1.00  0.00    -0.376 OA
BRANCH   3   4
ATOM      4  C   UNL A   1      35.091  23.480  25.843  1.00  0.00     0.202 C 
BRANCH   4   5
ATOM      5  C   UNL A   1      34.084  24.640  25.759  1.00  0.00     0.261 C 
BRANCH   5   6
ATOM      6  O   UNL A   1      33.051  24.555  24.783  1.00  0.00    -0.461 OA
BRANCH   6   7
ATOM      7  C   UNL A   1      32.983  25.608  23.910  1.00  0.00     0.334 C 
ATOM      8  O   UNL A   1      33.365  25.538  22.748  1.00  0.00    -0.249 OA
BRANCH   7   9
ATOM      9  C   UNL A   1      32.299  26.836  24.594  1.00  0.00     0.231 C 
BRANCH   9  10
ATOM     10  N   UNL A   1      33.246  27.965  24.667  1.00  0.00    -0.368 N 
ATOM     11  H   UNL A   1      33.933  28.035  23.967  1.00  0.00     0.161 HD
BRANCH  10  12
ATOM     12  C   UNL A   1      33.229  28.934  25.659  1.00  0.00     0.038 A 
ATOM     13  C   UNL A   1      31.166  32.053  26.462  1.00  0.00     0.044 C 
ATOM     14  C   UNL A   1      32.219  30.991  26.531  1.00  0.00    -0.046 A 
ATOM     15  C   UNL A   1      33.244  31.095  27.473  1.00  0.00     0.042 A 
ATOM     16  C   UNL A   1      32.225  29.914  25.628  1.00  0.00     0.029 A 
ATOM     17  C   UNL A   1      34.234  30.129  27.515  1.00  0.00     0.125 A 
ATOM     18  F   UNL A   1      35.224  30.234  28.411  1.00  0.00    -0.207 F 
ATOM     19  C   UNL A   1      34.230  29.063  26.629  1.00  0.00     0.065 A 
ENDBRANCH  10  12
ENDBRANCH   9  10
BRANCH   9  20
ATOM     20  C   UNL A   1      30.930  27.080  23.975  1.00  0.00     0.039 A 
ATOM     21  C   UNL A   1      30.541  28.150  23.180  1.00  0.00     0.033 A 
ATOM     22  S   UNL A   1      29.616  25.982  24.172  1.00  0.00    -0.145 S 
ATOM     23  C   UNL A   1      29.134  28.215  23.055  1.00  0.00     0.029 A 
ATOM     24  C   UNL A   1      28.492  27.133  23.596  1.00  0.00     0.080 A 
ATOM     25  Br  UNL A   1      28.278  29.705  22.283  1.00  0.00    -0.050 Br
ENDBRANCH   9  20
ENDBRANCH   7   9
ENDBRANCH   6   7
ENDBRANCH   5   6
ENDBRANCH   4   5
ENDBRANCH   3   4
ENDBRANCH   2   3
ENDBRANCH   1   2
BRANCH   1  26
ATOM     26  O   UNL A   1      38.222  20.801  25.242  1.00  0.00    -0.376 OA
BRANCH  26  27
ATOM     27  C   UNL A   1      38.626  21.959  25.954  1.00  0.00     0.202 C 
BRANCH  27  28
ATOM     28  C   UNL A   1      40.001  22.148  26.633  1.00  0.00     0.261 C 
BRANCH  28  29
ATOM     29  O   UNL A   1      40.145  23.209  27.584  1.00  0.00    -0.460 OA
BRANCH  29  30
ATOM     30  C   UNL A   1      41.103  24.124  27.302  1.00  0.00     0.338 C 
ATOM     31  O   UNL A   1      41.950  24.053  26.418  1.00  0.00    -0.246 OA
BRANCH  30  32
ATOM     32  C   UNL A   1      40.864  25.347  28.091  1.00  0.00     0.060 A 
ATOM     33  C   UNL A   1      41.937  26.223  28.315  1.00  0.00     0.016 A 
ATOM     34  C   UNL A   1      39.608  25.613  28.635  1.00  0.00     0.016 A 
ATOM     35  C   UNL A   1      41.761  27.358  29.105  1.00  0.00     0.010 A 
ATOM     36  C   UNL A   1      39.440  26.739  29.448  1.00  0.00     0.010 A 
ATOM     37  C   UNL A   1      40.522  27.600  29.712  1.00  0.00    -0.014 A 
BRANCH  37  38
ATOM     38  C   UNL A   1      40.409  28.641  30.765  1.00  0.00     0.031 A 
ATOM     39  C   UNL A   1      41.310  28.545  31.969  1.00  0.00     0.074 A 
ATOM     40  C   UNL A   1      39.543  29.664  30.652  1.00  0.00     0.049 A 
ATOM     41  N   UNL A   1      41.366  29.312  33.026  1.00  0.00    -0.248 NA
ATOM     42  C   UNL A   1      42.274  27.431  31.980  1.00  0.00     0.031 C 
ATOM     43  C   UNL A   1      38.652  29.898  29.518  1.00  0.00     0.029 A 
ATOM     44  N   UNL A   1      39.271  30.698  31.514  1.00  0.00    -0.354 N 
ATOM     45  C   UNL A   1      42.360  28.769  33.834  1.00  0.00     0.074 A 
ATOM     46  C   UNL A   1      42.859  27.591  33.158  1.00  0.00     0.031 C 
ATOM     47  C   UNL A   1      37.923  31.003  29.758  1.00  0.00     0.029 A 
ATOM     48  C   UNL A   1      38.270  31.533  31.076  1.00  0.00     0.049 A 
ATOM     49  H   UNL A   1      39.746  30.829  32.366  1.00  0.00     0.167 HD
ATOM     50  C   UNL A   1      42.821  29.212  35.028  1.00  0.00     0.031 A 
ATOM     51  C   UNL A   1      37.687  32.590  31.678  1.00  0.00     0.031 A 
ATOM     52  C   UNL A   1      42.311  30.373  35.707  1.00  0.00     0.049 A 
ATOM     53  C   UNL A   1      38.163  33.020  33.044  1.00  0.00     0.074 A 
ATOM     54  C   UNL A   1      42.720  30.910  36.916  1.00  0.00     0.029 A 
ATOM     55  N   UNL A   1      41.275  31.172  35.246  1.00  0.00    -0.354 N 
ATOM     56  N   UNL A   1      39.120  32.512  33.784  1.00  0.00    -0.248 NA
ATOM     57  C   UNL A   1      37.487  34.176  33.651  1.00  0.00     0.031 C 
ATOM     58  C   UNL A   1      41.890  31.994  37.216  1.00  0.00     0.029 A 
ATOM     59  C   UNL A   1      41.013  32.180  36.159  1.00  0.00     0.049 A 
ATOM     60  H   UNL A   1      40.796  31.041  34.396  1.00  0.00     0.167 HD
ATOM     61  C   UNL A   1      39.186  33.309  34.924  1.00  0.00     0.074 A 
ATOM     62  C   UNL A   1      38.178  34.338  34.771  1.00  0.00     0.031 C 
ATOM     63  C   UNL A   1      40.011  33.203  35.995  1.00  0.00     0.031 A 
BRANCH  50  64
ATOM     64  C   UNL A   1      43.909  28.411  35.695  1.00  0.00    -0.014 A 
ATOM     65  C   UNL A   1      43.637  27.174  36.306  1.00  0.00     0.010 A 
ATOM     66  C   UNL A   1      45.232  28.888  35.677  1.00  0.00     0.010 A 
ATOM     67  C   UNL A   1      44.661  26.448  36.921  1.00  0.00     0.020 A 
ATOM     68  C   UNL A   1      46.264  28.151  36.264  1.00  0.00     0.020 A 
ATOM     69  C   UNL A   1      45.969  26.942  36.897  1.00  0.00     0.054 A 
BRANCH  69  70
ATOM     70  S   UNL A   1      47.281  25.967  37.683  1.00  0.00     0.124 S 
ATOM     71  O   UNL A   1      47.340  24.791  36.820  1.00  0.00    -0.237 OA
ATOM     72  O   UNL A   1      48.433  26.861  37.606  1.00  0.00    -0.237 OA
ATOM     73  O   UNL A   1      46.773  25.725  39.031  1.00  0.00    -0.744 OA
ENDBRANCH  69  70
ENDBRANCH  50  64
BRANCH  51  74
ATOM     74  C   UNL A   1      36.573  33.314  31.001  1.00  0.00    -0.014 A 
ATOM     75  C   UNL A   1      35.241  33.134  31.415  1.00  0.00     0.010 A 
ATOM     76  C   UNL A   1      36.842  34.182  29.927  1.00  0.00     0.010 A 
ATOM     77  C   UNL A   1      34.199  33.793  30.754  1.00  0.00     0.020 A 
ATOM     78  C   UNL A   1      35.805  34.866  29.285  1.00  0.00     0.020 A 
ATOM     79  C   UNL A   1      34.488  34.658  29.696  1.00  0.00     0.054 A 
BRANCH  79  80
ATOM     80  S   UNL A   1      33.123  35.535  28.884  1.00  0.00     0.124 S 
ATOM     81  O   UNL A   1      32.411  36.110  30.021  1.00  0.00    -0.237 OA
ATOM     82  O   UNL A   1      33.826  36.489  28.029  1.00  0.00    -0.237 OA
ATOM     83  O   UNL A   1      32.412  34.477  28.171  1.00  0.00    -0.744 OA
ENDBRANCH  79  80
ENDBRANCH  51  74
BRANCH  63  84
ATOM     84  C   UNL A   1      39.907  34.258  37.069  1.00  0.00    -0.014 A 
ATOM     85  C   UNL A   1      39.075  34.092  38.190  1.00  0.00     0.010 A 
ATOM     86  C   UNL A   1      40.707  35.413  36.979  1.00  0.00     0.010 A 
ATOM     87  C   UNL A   1      39.018  35.077  39.182  1.00  0.00     0.020 A 
ATOM     88  C   UNL A   1      40.679  36.384  37.983  1.00  0.00     0.020 A 
ATOM     89  C   UNL A   1      39.822  36.217  39.072  1.00  0.00     0.054 A 
BRANCH  89  90
ATOM     90  S   UNL A   1      39.761  37.461  40.390  1.00  0.00     0.124 S 
ATOM     91  O   UNL A   1      40.868  38.342  40.030  1.00  0.00    -0.237 OA
ATOM     92  O   UNL A   1      38.425  38.032  40.231  1.00  0.00    -0.237 OA
ATOM     93  O   UNL A   1      39.957  36.682  41.612  1.00  0.00    -0.744 OA
ENDBRANCH  89  90
ENDBRANCH  63  84
ENDBRANCH  37  38
ENDBRANCH  30  32
ENDBRANCH  29  30
ENDBRANCH  28  29
ENDBRANCH  27  28
ENDBRANCH  26  27
ENDBRANCH   1  26
TORSDOF 23
ENDMDL
