MODEL 1
REMARK VINA RESULT:      -9.6      0.000      0.000
REMARK SMILES CCOC(=O)C1=NN(c2ccc(Br)cc2F)[C@](C)(C(=O)OCCOCCOCCOC(=O)c2ccc(-c3c4nc(c(-c5ccc(S(=O)(=O)[O-])cc5)c5ccc([nH]5)c(-c5ccc(S(=O)(=O)[O-])cc5)c5nc(c(-c6ccc(S(=O)(=O)[O-])cc6)c6ccc3[nH]6)C=C5)C=C4)cc2)C1
REMARK SMILES IDX 25 1 24 2 23 3 22 4 21 5 19 6 20 7 17 8 6 9 7 10 93 11 8 12
REMARK SMILES IDX 18 13 4 14 5 15 3 16 2 17 1 18 9 19 10 20 15 21 11 22 14 23
REMARK SMILES IDX 16 24 12 25 13 26 26 27 27 28 28 29 29 30 30 31 31 32 32 33
REMARK SMILES IDX 33 34 34 35 92 36 35 37 91 38 36 39 37 40 38 41 85 42 39 43
REMARK SMILES IDX 90 44 84 45 86 46 40 47 89 48 83 49 82 50 41 52 71 53 52 54
REMARK SMILES IDX 70 55 53 56 56 57 69 58 87 59 54 60 55 61 68 63 88 64 57 65
REMARK SMILES IDX 42 66 43 67 51 68 44 69 50 70 45 71 46 72 47 73 48 74 49 75
REMARK SMILES IDX 72 76 73 77 81 78 74 79 80 80 75 81 76 82 77 83 78 84 79 85
REMARK SMILES IDX 58 86 59 87 67 88 60 89 66 90 61 91 62 92 63 93 64 94 65 95
REMARK H PARENT 86 51 56 62
REMARK Flexibility Score: inf
ROOT
ATOM      1  C   UNL A   1      39.541  22.750  26.477  1.00  0.00     0.188 C 
ENDROOT
BRANCH   1   2
ATOM      2  O   UNL A   1      38.653  22.030  25.633  1.00  0.00    -0.376 OA
BRANCH   2   3
ATOM      3  C   UNL A   1      37.271  22.295  25.805  1.00  0.00     0.202 C 
BRANCH   3   4
ATOM      4  C   UNL A   1      36.832  23.635  25.210  1.00  0.00     0.261 C 
BRANCH   4   5
ATOM      5  O   UNL A   1      35.416  23.801  25.000  1.00  0.00    -0.461 OA
BRANCH   5   6
ATOM      6  C   UNL A   1      34.934  23.603  23.736  1.00  0.00     0.334 C 
ATOM      7  O   UNL A   1      35.599  23.087  22.862  1.00  0.00    -0.249 OA
BRANCH   6   8
ATOM      8  C   UNL A   1      33.455  24.045  23.645  1.00  0.00     0.163 C 
ATOM      9  C   UNL A   1      31.772  24.940  24.930  1.00  0.00     0.149 C 
ATOM     10  N   UNL A   1      31.430  23.691  24.821  1.00  0.00    -0.169 NA
ATOM     11  C   UNL A   1      33.170  25.283  24.509  1.00  0.00     0.108 C 
ATOM     12  N   UNL A   1      32.513  23.086  24.254  1.00  0.00    -0.245 N 
ATOM     13  C   UNL A   1      33.034  24.303  22.184  1.00  0.00     0.050 C 
BRANCH   9  14
ATOM     14  C   UNL A   1      30.847  26.028  25.385  1.00  0.00     0.354 C 
ATOM     15  O   UNL A   1      30.765  26.305  26.577  1.00  0.00    -0.245 OA
BRANCH  14  16
ATOM     16  O   UNL A   1      30.180  26.564  24.357  1.00  0.00    -0.461 OA
BRANCH  16  17
ATOM     17  C   UNL A   1      30.487  27.935  24.060  1.00  0.00     0.230 C 
ATOM     18  C   UNL A   1      29.553  28.492  23.002  1.00  0.00     0.049 C 
ENDBRANCH  16  17
ENDBRANCH  14  16
ENDBRANCH   9  14
BRANCH  12  19
ATOM     19  C   UNL A   1      32.603  21.707  24.196  1.00  0.00     0.097 A 
ATOM     20  C   UNL A   1      32.188  21.011  23.057  1.00  0.00     0.032 A 
ATOM     21  C   UNL A   1      33.146  20.966  25.259  1.00  0.00     0.149 A 
ATOM     22  C   UNL A   1      32.373  19.627  22.961  1.00  0.00     0.018 A 
ATOM     23  C   UNL A   1      33.363  19.596  25.166  1.00  0.00     0.057 A 
ATOM     24  F   UNL A   1      33.495  21.586  26.397  1.00  0.00    -0.205 F 
ATOM     25  C   UNL A   1      32.982  18.932  24.007  1.00  0.00     0.021 A 
ATOM     26  Br  UNL A   1      33.297  17.077  23.842  1.00  0.00    -0.051 Br
ENDBRANCH  12  19
ENDBRANCH   6   8
ENDBRANCH   5   6
ENDBRANCH   4   5
ENDBRANCH   3   4
ENDBRANCH   2   3
ENDBRANCH   1   2
BRANCH   1  27
ATOM     27  C   UNL A   1      40.911  22.061  26.625  1.00  0.00     0.188 C 
BRANCH  27  28
ATOM     28  O   UNL A   1      40.978  20.731  27.129  1.00  0.00    -0.376 OA
BRANCH  28  29
ATOM     29  C   UNL A   1      41.018  19.646  26.214  1.00  0.00     0.202 C 
BRANCH  29  30
ATOM     30  C   UNL A   1      42.381  19.000  25.958  1.00  0.00     0.261 C 
BRANCH  30  31
ATOM     31  O   UNL A   1      42.975  19.372  24.701  1.00  0.00    -0.460 OA
BRANCH  31  32
ATOM     32  C   UNL A   1      44.243  19.837  24.779  1.00  0.00     0.338 C 
ATOM     33  O   UNL A   1      45.257  19.266  24.387  1.00  0.00    -0.246 OA
BRANCH  32  34
ATOM     34  C   UNL A   1      44.267  21.234  25.258  1.00  0.00     0.060 A 
ATOM     35  C   UNL A   1      44.105  22.248  24.304  1.00  0.00     0.016 A 
ATOM     36  C   UNL A   1      44.528  21.561  26.592  1.00  0.00     0.016 A 
ATOM     37  C   UNL A   1      44.262  23.585  24.666  1.00  0.00     0.010 A 
ATOM     38  C   UNL A   1      44.702  22.905  26.951  1.00  0.00     0.010 A 
ATOM     39  C   UNL A   1      44.610  23.921  25.981  1.00  0.00    -0.014 A 
BRANCH  39  40
ATOM     40  C   UNL A   1      45.045  25.310  26.276  1.00  0.00     0.031 A 
ATOM     41  C   UNL A   1      44.039  26.288  26.826  1.00  0.00     0.074 A 
ATOM     42  C   UNL A   1      46.328  25.686  26.122  1.00  0.00     0.049 A 
ATOM     43  N   UNL A   1      44.215  27.523  27.220  1.00  0.00    -0.248 NA
ATOM     44  C   UNL A   1      42.654  25.804  26.957  1.00  0.00     0.031 C 
ATOM     45  C   UNL A   1      47.410  24.836  25.630  1.00  0.00     0.029 A 
ATOM     46  N   UNL A   1      46.935  26.893  26.374  1.00  0.00    -0.354 N 
ATOM     47  C   UNL A   1      42.968  27.963  27.653  1.00  0.00     0.074 A 
ATOM     48  C   UNL A   1      42.040  26.872  27.442  1.00  0.00     0.031 C 
ATOM     49  C   UNL A   1      48.551  25.549  25.613  1.00  0.00     0.029 A 
ATOM     50  C   UNL A   1      48.277  26.908  26.077  1.00  0.00     0.049 A 
ATOM     51  H   UNL A   1      46.454  27.672  26.734  1.00  0.00     0.167 HD
ATOM     52  C   UNL A   1      42.624  29.159  28.189  1.00  0.00     0.031 A 
ATOM     53  C   UNL A   1      49.180  27.906  26.163  1.00  0.00     0.031 A 
ATOM     54  C   UNL A   1      43.533  30.260  28.376  1.00  0.00     0.049 A 
ATOM     55  C   UNL A   1      48.758  29.251  26.698  1.00  0.00     0.074 A 
ATOM     56  C   UNL A   1      43.274  31.508  28.916  1.00  0.00     0.029 A 
ATOM     57  N   UNL A   1      44.873  30.249  28.021  1.00  0.00    -0.354 N 
ATOM     58  N   UNL A   1      47.583  29.636  27.135  1.00  0.00    -0.248 NA
ATOM     59  C   UNL A   1      49.795  30.290  26.764  1.00  0.00     0.031 C 
ATOM     60  C   UNL A   1      44.447  32.269  28.845  1.00  0.00     0.029 A 
ATOM     61  C   UNL A   1      45.448  31.475  28.310  1.00  0.00     0.049 A 
ATOM     62  H   UNL A   1      45.345  29.483  27.623  1.00  0.00     0.167 HD
ATOM     63  C   UNL A   1      47.748  30.954  27.552  1.00  0.00     0.074 A 
ATOM     64  C   UNL A   1      49.138  31.293  27.330  1.00  0.00     0.031 C 
ATOM     65  C   UNL A   1      46.830  31.807  28.076  1.00  0.00     0.031 A 
BRANCH  52  66
ATOM     66  C   UNL A   1      41.186  29.347  28.588  1.00  0.00    -0.014 A 
ATOM     67  C   UNL A   1      40.836  29.619  29.922  1.00  0.00     0.010 A 
ATOM     68  C   UNL A   1      40.174  29.280  27.613  1.00  0.00     0.010 A 
ATOM     69  C   UNL A   1      39.496  29.787  30.282  1.00  0.00     0.020 A 
ATOM     70  C   UNL A   1      38.835  29.470  27.964  1.00  0.00     0.020 A 
ATOM     71  C   UNL A   1      38.502  29.706  29.300  1.00  0.00     0.054 A 
BRANCH  71  72
ATOM     72  S   UNL A   1      36.773  29.945  29.789  1.00  0.00     0.124 S 
ATOM     73  O   UNL A   1      36.687  29.130  30.998  1.00  0.00    -0.237 OA
ATOM     74  O   UNL A   1      36.693  31.388  29.997  1.00  0.00    -0.237 OA
ATOM     75  O   UNL A   1      36.016  29.441  28.644  1.00  0.00    -0.744 OA
ENDBRANCH  71  72
ENDBRANCH  52  66
BRANCH  53  76
ATOM     76  C   UNL A   1      50.584  27.680  25.726  1.00  0.00    -0.014 A 
ATOM     77  C   UNL A   1      50.988  27.992  24.416  1.00  0.00     0.010 A 
ATOM     78  C   UNL A   1      51.519  27.122  26.617  1.00  0.00     0.010 A 
ATOM     79  C   UNL A   1      52.295  27.725  23.997  1.00  0.00     0.020 A 
ATOM     80  C   UNL A   1      52.833  26.877  26.208  1.00  0.00     0.020 A 
ATOM     81  C   UNL A   1      53.209  27.167  24.896  1.00  0.00     0.054 A 
BRANCH  81  82
ATOM     82  S   UNL A   1      54.910  26.856  24.343  1.00  0.00     0.124 S 
ATOM     83  O   UNL A   1      55.629  27.984  24.929  1.00  0.00    -0.237 OA
ATOM     84  O   UNL A   1      55.201  25.549  24.926  1.00  0.00    -0.237 OA
ATOM     85  O   UNL A   1      54.801  26.870  22.887  1.00  0.00    -0.744 OA
ENDBRANCH  81  82
ENDBRANCH  53  76
BRANCH  65  86
ATOM     86  C   UNL A   1      47.313  33.178  28.473  1.00  0.00    -0.014 A 
ATOM     87  C   UNL A   1      47.252  34.262  27.579  1.00  0.00     0.010 A 
ATOM     88  C   UNL A   1      47.826  33.387  29.767  1.00  0.00     0.010 A 
ATOM     89  C   UNL A   1      47.745  35.516  27.953  1.00  0.00     0.020 A 
ATOM     90  C   UNL A   1      48.294  34.644  30.154  1.00  0.00     0.020 A 
ATOM     91  C   UNL A   1      48.273  35.697  29.235  1.00  0.00     0.054 A 
BRANCH  91  92
ATOM     92  S   UNL A   1      48.909  37.330  29.702  1.00  0.00     0.124 S 
ATOM     93  O   UNL A   1      47.863  37.819  30.596  1.00  0.00    -0.237 OA
ATOM     94  O   UNL A   1      50.184  37.012  30.342  1.00  0.00    -0.237 OA
ATOM     95  O   UNL A   1      49.020  38.034  28.426  1.00  0.00    -0.744 OA
ENDBRANCH  91  92
ENDBRANCH  65  86
ENDBRANCH  39  40
ENDBRANCH  32  34
ENDBRANCH  31  32
ENDBRANCH  30  31
ENDBRANCH  29  30
ENDBRANCH  28  29
ENDBRANCH  27  28
ENDBRANCH   1  27
TORSDOF 24
ENDMDL
MODEL 2
REMARK VINA RESULT:      -9.3      2.435      8.786
REMARK SMILES CCOC(=O)C1=NN(c2ccc(Br)cc2F)[C@](C)(C(=O)OCCOCCOCCOC(=O)c2ccc(-c3c4nc(c(-c5ccc(S(=O)(=O)[O-])cc5)c5ccc([nH]5)c(-c5ccc(S(=O)(=O)[O-])cc5)c5nc(c(-c6ccc(S(=O)(=O)[O-])cc6)c6ccc3[nH]6)C=C5)C=C4)cc2)C1
REMARK SMILES IDX 25 1 24 2 23 3 22 4 21 5 19 6 20 7 17 8 6 9 7 10 93 11 8 12
REMARK SMILES IDX 18 13 4 14 5 15 3 16 2 17 1 18 9 19 10 20 15 21 11 22 14 23
REMARK SMILES IDX 16 24 12 25 13 26 26 27 27 28 28 29 29 30 30 31 31 32 32 33
REMARK SMILES IDX 33 34 34 35 92 36 35 37 91 38 36 39 37 40 38 41 85 42 39 43
REMARK SMILES IDX 90 44 84 45 86 46 40 47 89 48 83 49 82 50 41 52 71 53 52 54
REMARK SMILES IDX 70 55 53 56 56 57 69 58 87 59 54 60 55 61 68 63 88 64 57 65
REMARK SMILES IDX 42 66 43 67 51 68 44 69 50 70 45 71 46 72 47 73 48 74 49 75
REMARK SMILES IDX 72 76 73 77 81 78 74 79 80 80 75 81 76 82 77 83 78 84 79 85
REMARK SMILES IDX 58 86 59 87 67 88 60 89 66 90 61 91 62 92 63 93 64 94 65 95
REMARK H PARENT 86 51 56 62
REMARK Flexibility Score: inf
ROOT
ATOM      1  C   UNL A   1      32.373  27.324  26.743  1.00  0.00     0.188 C 
ENDROOT
BRANCH   1   2
ATOM      2  O   UNL A   1      31.185  26.546  26.735  1.00  0.00    -0.376 OA
BRANCH   2   3
ATOM      3  C   UNL A   1      30.626  26.266  25.462  1.00  0.00     0.202 C 
BRANCH   3   4
ATOM      4  C   UNL A   1      30.608  24.774  25.121  1.00  0.00     0.261 C 
BRANCH   4   5
ATOM      5  O   UNL A   1      31.874  24.092  25.202  1.00  0.00    -0.461 OA
BRANCH   5   6
ATOM      6  C   UNL A   1      32.729  24.211  24.142  1.00  0.00     0.334 C 
ATOM      7  O   UNL A   1      33.149  25.285  23.765  1.00  0.00    -0.249 OA
BRANCH   6   8
ATOM      8  C   UNL A   1      33.114  22.816  23.597  1.00  0.00     0.163 C 
ATOM      9  C   UNL A   1      32.853  20.579  24.058  1.00  0.00     0.149 C 
ATOM     10  N   UNL A   1      34.086  20.811  24.399  1.00  0.00    -0.169 NA
ATOM     11  C   UNL A   1      31.996  21.785  23.814  1.00  0.00     0.108 C 
ATOM     12  N   UNL A   1      34.207  22.168  24.346  1.00  0.00    -0.245 N 
ATOM     13  C   UNL A   1      33.498  22.882  22.105  1.00  0.00     0.050 C 
BRANCH   9  14
ATOM     14  C   UNL A   1      32.283  19.209  23.847  1.00  0.00     0.354 C 
ATOM     15  O   UNL A   1      32.189  18.752  22.713  1.00  0.00    -0.245 OA
BRANCH  14  16
ATOM     16  O   UNL A   1      31.911  18.651  25.004  1.00  0.00    -0.461 OA
BRANCH  16  17
ATOM     17  C   UNL A   1      32.903  17.842  25.655  1.00  0.00     0.230 C 
ATOM     18  C   UNL A   1      33.007  16.472  25.010  1.00  0.00     0.049 C 
ENDBRANCH  16  17
ENDBRANCH  14  16
ENDBRANCH   9  14
BRANCH  12  19
ATOM     19  C   UNL A   1      35.322  22.800  24.868  1.00  0.00     0.097 A 
ATOM     20  C   UNL A   1      35.312  23.307  26.170  1.00  0.00     0.032 A 
ATOM     21  C   UNL A   1      36.508  22.919  24.124  1.00  0.00     0.149 A 
ATOM     22  C   UNL A   1      36.472  23.854  26.731  1.00  0.00     0.018 A 
ATOM     23  C   UNL A   1      37.676  23.433  24.677  1.00  0.00     0.057 A 
ATOM     24  F   UNL A   1      36.542  22.506  22.847  1.00  0.00    -0.205 F 
ATOM     25  C   UNL A   1      37.653  23.891  25.988  1.00  0.00     0.021 A 
ATOM     26  Br  UNL A   1      39.234  24.563  26.774  1.00  0.00    -0.051 Br
ENDBRANCH  12  19
ENDBRANCH   6   8
ENDBRANCH   5   6
ENDBRANCH   4   5
ENDBRANCH   3   4
ENDBRANCH   2   3
ENDBRANCH   1   2
BRANCH   1  27
ATOM     27  C   UNL A   1      32.126  28.789  26.336  1.00  0.00     0.188 C 
BRANCH  27  28
ATOM     28  O   UNL A   1      33.179  29.740  26.459  1.00  0.00    -0.376 OA
BRANCH  28  29
ATOM     29  C   UNL A   1      33.833  29.888  27.711  1.00  0.00     0.202 C 
BRANCH  29  30
ATOM     30  C   UNL A   1      35.270  30.413  27.689  1.00  0.00     0.261 C 
BRANCH  30  31
ATOM     31  O   UNL A   1      36.269  29.376  27.724  1.00  0.00    -0.460 OA
BRANCH  31  32
ATOM     32  C   UNL A   1      37.047  29.364  28.829  1.00  0.00     0.338 C 
ATOM     33  O   UNL A   1      36.674  29.524  29.988  1.00  0.00    -0.246 OA
BRANCH  32  34
ATOM     34  C   UNL A   1      38.429  28.961  28.500  1.00  0.00     0.060 A 
ATOM     35  C   UNL A   1      39.293  28.680  29.568  1.00  0.00     0.016 A 
ATOM     36  C   UNL A   1      38.907  28.938  27.187  1.00  0.00     0.016 A 
ATOM     37  C   UNL A   1      40.645  28.435  29.333  1.00  0.00     0.010 A 
ATOM     38  C   UNL A   1      40.271  28.708  26.953  1.00  0.00     0.010 A 
ATOM     39  C   UNL A   1      41.154  28.496  28.029  1.00  0.00    -0.014 A 
BRANCH  39  40
ATOM     40  C   UNL A   1      42.626  28.514  27.833  1.00  0.00     0.031 A 
ATOM     41  C   UNL A   1      43.303  27.283  27.287  1.00  0.00     0.074 A 
ATOM     42  C   UNL A   1      43.348  29.624  28.071  1.00  0.00     0.049 A 
ATOM     43  N   UNL A   1      44.560  27.101  26.971  1.00  0.00    -0.248 NA
ATOM     44  C   UNL A   1      42.448  26.106  27.061  1.00  0.00     0.031 C 
ATOM     45  C   UNL A   1      42.818  30.892  28.569  1.00  0.00     0.029 A 
ATOM     46  N   UNL A   1      44.693  29.858  27.916  1.00  0.00    -0.354 N 
ATOM     47  C   UNL A   1      44.646  25.794  26.501  1.00  0.00     0.074 A 
ATOM     48  C   UNL A   1      43.321  25.220  26.605  1.00  0.00     0.031 C 
ATOM     49  C   UNL A   1      43.829  31.771  28.682  1.00  0.00     0.029 A 
ATOM     50  C   UNL A   1      45.078  31.126  28.281  1.00  0.00     0.049 A 
ATOM     51  H   UNL A   1      45.321  29.181  27.577  1.00  0.00     0.167 HD
ATOM     52  C   UNL A   1      45.724  25.131  26.015  1.00  0.00     0.031 A 
ATOM     53  C   UNL A   1      46.299  31.699  28.295  1.00  0.00     0.031 A 
ATOM     54  C   UNL A   1      47.051  25.683  25.934  1.00  0.00     0.049 A 
ATOM     55  C   UNL A   1      47.495  30.918  27.814  1.00  0.00     0.074 A 
ATOM     56  C   UNL A   1      48.203  25.086  25.451  1.00  0.00     0.029 A 
ATOM     57  N   UNL A   1      47.407  26.955  26.355  1.00  0.00    -0.354 N 
ATOM     58  N   UNL A   1      47.550  29.696  27.340  1.00  0.00    -0.248 NA
ATOM     59  C   UNL A   1      48.794  31.606  27.858  1.00  0.00     0.031 C 
ATOM     60  C   UNL A   1      49.266  25.981  25.623  1.00  0.00     0.029 A 
ATOM     61  C   UNL A   1      48.764  27.154  26.162  1.00  0.00     0.049 A 
ATOM     62  H   UNL A   1      46.786  27.618  26.733  1.00  0.00     0.167 HD
ATOM     63  C   UNL A   1      48.885  29.480  27.005  1.00  0.00     0.074 A 
ATOM     64  C   UNL A   1      49.598  30.701  27.315  1.00  0.00     0.031 C 
ATOM     65  C   UNL A   1      49.466  28.369  26.484  1.00  0.00     0.031 A 
BRANCH  52  66
ATOM     66  C   UNL A   1      45.511  23.715  25.555  1.00  0.00    -0.014 A 
ATOM     67  C   UNL A   1      45.529  22.647  26.469  1.00  0.00     0.010 A 
ATOM     68  C   UNL A   1      45.260  23.451  24.196  1.00  0.00     0.010 A 
ATOM     69  C   UNL A   1      45.334  21.335  26.028  1.00  0.00     0.020 A 
ATOM     70  C   UNL A   1      45.043  22.144  23.755  1.00  0.00     0.020 A 
ATOM     71  C   UNL A   1      45.098  21.091  24.671  1.00  0.00     0.054 A 
BRANCH  71  72
ATOM     72  S   UNL A   1      44.830  19.382  24.127  1.00  0.00     0.124 S 
ATOM     73  O   UNL A   1      43.734  18.959  24.995  1.00  0.00    -0.237 OA
ATOM     74  O   UNL A   1      44.489  19.542  22.717  1.00  0.00    -0.237 OA
ATOM     75  O   UNL A   1      46.113  18.732  24.385  1.00  0.00    -0.744 OA
ENDBRANCH  71  72
ENDBRANCH  52  66
BRANCH  53  76
ATOM     76  C   UNL A   1      46.463  33.092  28.789  1.00  0.00    -0.014 A 
ATOM     77  C   UNL A   1      46.540  34.170  27.889  1.00  0.00     0.010 A 
ATOM     78  C   UNL A   1      46.572  33.342  30.169  1.00  0.00     0.010 A 
ATOM     79  C   UNL A   1      46.749  35.470  28.359  1.00  0.00     0.020 A 
ATOM     80  C   UNL A   1      46.757  34.644  30.643  1.00  0.00     0.020 A 
ATOM     81  C   UNL A   1      46.859  35.698  29.734  1.00  0.00     0.054 A 
BRANCH  81  82
ATOM     82  S   UNL A   1      47.101  37.397  30.328  1.00  0.00     0.124 S 
ATOM     83  O   UNL A   1      48.102  37.904  29.395  1.00  0.00    -0.237 OA
ATOM     84  O   UNL A   1      45.764  37.973  30.199  1.00  0.00    -0.237 OA
ATOM     85  O   UNL A   1      47.561  37.213  31.702  1.00  0.00    -0.744 OA
ENDBRANCH  81  82
ENDBRANCH  53  76
BRANCH  65  86
ATOM     86  C   UNL A   1      50.942  28.440  26.187  1.00  0.00    -0.014 A 
ATOM     87  C   UNL A   1      51.901  28.116  27.164  1.00  0.00     0.010 A 
ATOM     88  C   UNL A   1      51.375  28.829  24.906  1.00  0.00     0.010 A 
ATOM     89  C   UNL A   1      53.266  28.231  26.880  1.00  0.00     0.020 A 
ATOM     90  C   UNL A   1      52.738  28.918  24.611  1.00  0.00     0.020 A 
ATOM     91  C   UNL A   1      53.676  28.641  25.608  1.00  0.00     0.054 A 
BRANCH  91  92
ATOM     92  S   UNL A   1      55.450  28.786  25.260  1.00  0.00     0.124 S 
ATOM     93  O   UNL A   1      55.472  29.808  24.217  1.00  0.00    -0.237 OA
ATOM     94  O   UNL A   1      56.003  29.191  26.550  1.00  0.00    -0.237 OA
ATOM     95  O   UNL A   1      55.826  27.442  24.824  1.00  0.00    -0.744 OA
ENDBRANCH  91  92
ENDBRANCH  65  86
ENDBRANCH  39  40
ENDBRANCH  32  34
ENDBRANCH  31  32
ENDBRANCH  30  31
ENDBRANCH  29  30
ENDBRANCH  28  29
ENDBRANCH  27  28
ENDBRANCH   1  27
TORSDOF 24
ENDMDL
MODEL 3
REMARK VINA RESULT:      -9.2      5.399      8.648
REMARK SMILES CCOC(=O)C1=NN(c2ccc(Br)cc2F)[C@](C)(C(=O)OCCOCCOCCOC(=O)c2ccc(-c3c4nc(c(-c5ccc(S(=O)(=O)[O-])cc5)c5ccc([nH]5)c(-c5ccc(S(=O)(=O)[O-])cc5)c5nc(c(-c6ccc(S(=O)(=O)[O-])cc6)c6ccc3[nH]6)C=C5)C=C4)cc2)C1
REMARK SMILES IDX 25 1 24 2 23 3 22 4 21 5 19 6 20 7 17 8 6 9 7 10 93 11 8 12
REMARK SMILES IDX 18 13 4 14 5 15 3 16 2 17 1 18 9 19 10 20 15 21 11 22 14 23
REMARK SMILES IDX 16 24 12 25 13 26 26 27 27 28 28 29 29 30 30 31 31 32 32 33
REMARK SMILES IDX 33 34 34 35 92 36 35 37 91 38 36 39 37 40 38 41 85 42 39 43
REMARK SMILES IDX 90 44 84 45 86 46 40 47 89 48 83 49 82 50 41 52 71 53 52 54
REMARK SMILES IDX 70 55 53 56 56 57 69 58 87 59 54 60 55 61 68 63 88 64 57 65
REMARK SMILES IDX 42 66 43 67 51 68 44 69 50 70 45 71 46 72 47 73 48 74 49 75
REMARK SMILES IDX 72 76 73 77 81 78 74 79 80 80 75 81 76 82 77 83 78 84 79 85
REMARK SMILES IDX 58 86 59 87 67 88 60 89 66 90 61 91 62 92 63 93 64 94 65 95
REMARK H PARENT 86 51 56 62
REMARK Flexibility Score: inf
ROOT
ATOM      1  C   UNL A   1      30.199  26.691  24.857  1.00  0.00     0.188 C 
ENDROOT
BRANCH   1   2
ATOM      2  O   UNL A   1      29.634  25.679  25.679  1.00  0.00    -0.376 OA
BRANCH   2   3
ATOM      3  C   UNL A   1      30.526  25.010  26.554  1.00  0.00     0.202 C 
BRANCH   3   4
ATOM      4  C   UNL A   1      30.341  23.491  26.565  1.00  0.00     0.261 C 
BRANCH   4   5
ATOM      5  O   UNL A   1      31.265  22.735  25.759  1.00  0.00    -0.461 OA
BRANCH   5   6
ATOM      6  C   UNL A   1      32.593  22.809  26.075  1.00  0.00     0.334 C 
ATOM      7  O   UNL A   1      33.020  22.476  27.161  1.00  0.00    -0.249 OA
BRANCH   6   8
ATOM      8  C   UNL A   1      33.416  23.278  24.853  1.00  0.00     0.163 C 
ATOM      9  C   UNL A   1      33.150  24.177  22.754  1.00  0.00     0.149 C 
ATOM     10  N   UNL A   1      33.452  22.936  22.510  1.00  0.00    -0.169 NA
ATOM     11  C   UNL A   1      32.787  24.503  24.172  1.00  0.00     0.108 C 
ATOM     12  N   UNL A   1      33.400  22.324  23.728  1.00  0.00    -0.245 N 
ATOM     13  C   UNL A   1      34.879  23.573  25.241  1.00  0.00     0.050 C 
BRANCH   9  14
ATOM     14  C   UNL A   1      33.203  25.271  21.732  1.00  0.00     0.354 C 
ATOM     15  O   UNL A   1      32.455  25.241  20.761  1.00  0.00    -0.245 OA
BRANCH  14  16
ATOM     16  O   UNL A   1      34.141  26.176  22.034  1.00  0.00    -0.461 OA
BRANCH  16  17
ATOM     17  C   UNL A   1      33.724  27.243  22.901  1.00  0.00     0.230 C 
ATOM     18  C   UNL A   1      34.067  28.598  22.311  1.00  0.00     0.049 C 
ENDBRANCH  16  17
ENDBRANCH  14  16
ENDBRANCH   9  14
BRANCH  12  19
ATOM     19  C   UNL A   1      33.441  20.945  23.829  1.00  0.00     0.097 A 
ATOM     20  C   UNL A   1      34.432  20.312  24.584  1.00  0.00     0.032 A 
ATOM     21  C   UNL A   1      32.472  20.139  23.208  1.00  0.00     0.149 A 
ATOM     22  C   UNL A   1      34.412  18.925  24.767  1.00  0.00     0.018 A 
ATOM     23  C   UNL A   1      32.422  18.764  23.404  1.00  0.00     0.057 A 
ATOM     24  F   UNL A   1      31.542  20.699  22.418  1.00  0.00    -0.205 F 
ATOM     25  C   UNL A   1      33.392  18.163  24.195  1.00  0.00     0.021 A 
ATOM     26  Br  UNL A   1      33.327  16.300  24.506  1.00  0.00    -0.051 Br
ENDBRANCH  12  19
ENDBRANCH   6   8
ENDBRANCH   5   6
ENDBRANCH   4   5
ENDBRANCH   3   4
ENDBRANCH   2   3
ENDBRANCH   1   2
BRANCH   1  27
ATOM     27  C   UNL A   1      31.279  27.514  25.584  1.00  0.00     0.188 C 
BRANCH  27  28
ATOM     28  O   UNL A   1      31.184  28.934  25.606  1.00  0.00    -0.376 OA
BRANCH  28  29
ATOM     29  C   UNL A   1      32.356  29.708  25.394  1.00  0.00     0.202 C 
BRANCH  29  30
ATOM     30  C   UNL A   1      33.567  29.395  26.276  1.00  0.00     0.261 C 
BRANCH  30  31
ATOM     31  O   UNL A   1      33.600  30.142  27.506  1.00  0.00    -0.460 OA
BRANCH  31  32
ATOM     32  C   UNL A   1      34.622  31.020  27.618  1.00  0.00     0.338 C 
ATOM     33  O   UNL A   1      34.546  32.244  27.551  1.00  0.00    -0.246 OA
BRANCH  32  34
ATOM     34  C   UNL A   1      35.872  30.334  28.006  1.00  0.00     0.060 A 
ATOM     35  C   UNL A   1      35.896  29.691  29.251  1.00  0.00     0.016 A 
ATOM     36  C   UNL A   1      37.027  30.386  27.220  1.00  0.00     0.016 A 
ATOM     37  C   UNL A   1      37.084  29.151  29.740  1.00  0.00     0.010 A 
ATOM     38  C   UNL A   1      38.225  29.856  27.720  1.00  0.00     0.010 A 
ATOM     39  C   UNL A   1      38.268  29.273  29.000  1.00  0.00    -0.014 A 
BRANCH  39  40
ATOM     40  C   UNL A   1      39.561  28.947  29.656  1.00  0.00     0.031 A 
ATOM     41  C   UNL A   1      39.971  29.720  30.883  1.00  0.00     0.074 A 
ATOM     42  C   UNL A   1      40.332  27.937  29.214  1.00  0.00     0.049 A 
ATOM     43  N   UNL A   1      41.016  29.558  31.654  1.00  0.00    -0.248 NA
ATOM     44  C   UNL A   1      39.079  30.816  31.299  1.00  0.00     0.031 C 
ATOM     45  C   UNL A   1      40.041  27.088  28.061  1.00  0.00     0.029 A 
ATOM     46  N   UNL A   1      41.524  27.454  29.697  1.00  0.00    -0.354 N 
ATOM     47  C   UNL A   1      40.905  30.522  32.650  1.00  0.00     0.074 A 
ATOM     48  C   UNL A   1      39.708  31.286  32.366  1.00  0.00     0.031 C 
ATOM     49  C   UNL A   1      41.031  26.188  27.922  1.00  0.00     0.029 A 
ATOM     50  C   UNL A   1      42.032  26.406  28.965  1.00  0.00     0.049 A 
ATOM     51  H   UNL A   1      41.972  27.823  30.491  1.00  0.00     0.167 HD
ATOM     52  C   UNL A   1      41.715  30.748  33.712  1.00  0.00     0.031 A 
ATOM     53  C   UNL A   1      43.176  25.709  29.116  1.00  0.00     0.031 A 
ATOM     54  C   UNL A   1      42.922  30.013  33.988  1.00  0.00     0.049 A 
ATOM     55  C   UNL A   1      44.097  26.024  30.267  1.00  0.00     0.074 A 
ATOM     56  C   UNL A   1      43.803  30.170  35.044  1.00  0.00     0.029 A 
ATOM     57  N   UNL A   1      43.423  28.991  33.198  1.00  0.00    -0.354 N 
ATOM     58  N   UNL A   1      43.956  26.916  31.219  1.00  0.00    -0.248 NA
ATOM     59  C   UNL A   1      45.325  25.223  30.369  1.00  0.00     0.031 C 
ATOM     60  C   UNL A   1      44.862  29.272  34.868  1.00  0.00     0.029 A 
ATOM     61  C   UNL A   1      44.612  28.521  33.732  1.00  0.00     0.049 A 
ATOM     62  H   UNL A   1      42.997  28.649  32.380  1.00  0.00     0.167 HD
ATOM     63  C   UNL A   1      45.066  26.764  32.046  1.00  0.00     0.074 A 
ATOM     64  C   UNL A   1      45.857  25.685  31.493  1.00  0.00     0.031 C 
ATOM     65  C   UNL A   1      45.398  27.454  33.167  1.00  0.00     0.031 A 
BRANCH  52  66
ATOM     66  C   UNL A   1      41.329  31.862  34.647  1.00  0.00    -0.014 A 
ATOM     67  C   UNL A   1      41.764  33.180  34.421  1.00  0.00     0.010 A 
ATOM     68  C   UNL A   1      40.498  31.594  35.750  1.00  0.00     0.010 A 
ATOM     69  C   UNL A   1      41.403  34.205  35.299  1.00  0.00     0.020 A 
ATOM     70  C   UNL A   1      40.115  32.620  36.618  1.00  0.00     0.020 A 
ATOM     71  C   UNL A   1      40.584  33.917  36.396  1.00  0.00     0.054 A 
BRANCH  71  72
ATOM     72  S   UNL A   1      40.114  35.267  37.511  1.00  0.00     0.124 S 
ATOM     73  O   UNL A   1      38.906  34.735  38.136  1.00  0.00    -0.237 OA
ATOM     74  O   UNL A   1      41.276  35.381  38.387  1.00  0.00    -0.237 OA
ATOM     75  O   UNL A   1      39.902  36.400  36.613  1.00  0.00    -0.744 OA
ENDBRANCH  71  72
ENDBRANCH  52  66
BRANCH  53  76
ATOM     76  C   UNL A   1      43.528  24.637  28.147  1.00  0.00    -0.014 A 
ATOM     77  C   UNL A   1      42.884  23.388  28.189  1.00  0.00     0.010 A 
ATOM     78  C   UNL A   1      44.537  24.856  27.191  1.00  0.00     0.010 A 
ATOM     79  C   UNL A   1      43.261  22.368  27.310  1.00  0.00     0.020 A 
ATOM     80  C   UNL A   1      44.898  23.846  26.294  1.00  0.00     0.020 A 
ATOM     81  C   UNL A   1      44.268  22.603  26.369  1.00  0.00     0.054 A 
BRANCH  81  82
ATOM     82  S   UNL A   1      44.722  21.277  25.216  1.00  0.00     0.124 S 
ATOM     83  O   UNL A   1      44.338  21.851  23.930  1.00  0.00    -0.237 OA
ATOM     84  O   UNL A   1      46.159  21.135  25.442  1.00  0.00    -0.237 OA
ATOM     85  O   UNL A   1      43.914  20.146  25.664  1.00  0.00    -0.744 OA
ENDBRANCH  81  82
ENDBRANCH  53  76
BRANCH  65  86
ATOM     86  C   UNL A   1      46.656  27.038  33.884  1.00  0.00    -0.014 A 
ATOM     87  C   UNL A   1      46.637  26.043  34.878  1.00  0.00     0.010 A 
ATOM     88  C   UNL A   1      47.881  27.647  33.550  1.00  0.00     0.010 A 
ATOM     89  C   UNL A   1      47.809  25.704  35.562  1.00  0.00     0.020 A 
ATOM     90  C   UNL A   1      49.058  27.290  34.212  1.00  0.00     0.020 A 
ATOM     91  C   UNL A   1      49.011  26.337  35.231  1.00  0.00     0.054 A 
BRANCH  91  92
ATOM     92  S   UNL A   1      50.520  25.884  36.130  1.00  0.00     0.124 S 
ATOM     93  O   UNL A   1      51.541  26.633  35.403  1.00  0.00    -0.237 OA
ATOM     94  O   UNL A   1      50.243  26.352  37.487  1.00  0.00    -0.237 OA
ATOM     95  O   UNL A   1      50.586  24.431  35.981  1.00  0.00    -0.744 OA
ENDBRANCH  91  92
ENDBRANCH  65  86
ENDBRANCH  39  40
ENDBRANCH  32  34
ENDBRANCH  31  32
ENDBRANCH  30  31
ENDBRANCH  29  30
ENDBRANCH  28  29
ENDBRANCH  27  28
ENDBRANCH   1  27
TORSDOF 24
ENDMDL
