MODEL 1
REMARK VINA RESULT:     -10.7      0.000      0.000
REMARK SMILES N#CCCn1cc(C(=O)OCCOCCOCCOC(=O)c2ccc(-c3c4nc(c(-c5ccc(S(=O)(=O)[O-])cc5)c5ccc([nH]5)c(-c5ccc(S(=O)(=O)[O-])cc5)c5nc(c(-c6ccc(S(=O)(=O)[O-])cc6)c6ccc3[nH]6)C=C5)C=C4)cc2)c(-c2cccc([N+](=O)[O-])c2)n1
REMARK SMILES IDX 14 1 13 2 12 3 11 4 10 5 8 6 9 7 7 8 5 9 6 10 92 11 82 12
REMARK SMILES IDX 4 13 3 14 2 15 1 16 83 17 84 18 91 19 85 20 87 21 86 22
REMARK SMILES IDX 88 23 89 24 90 25 15 26 16 27 17 28 18 29 19 30 20 31 21 32
REMARK SMILES IDX 22 33 23 34 81 35 24 36 80 37 25 38 26 39 27 40 74 41 28 42
REMARK SMILES IDX 79 43 73 44 75 45 29 46 78 47 72 48 71 49 30 51 60 52 41 53
REMARK SMILES IDX 59 54 42 55 45 56 58 57 76 58 43 59 44 60 57 62 77 63 46 64
REMARK SMILES IDX 31 65 32 66 40 67 33 68 39 69 34 70 35 71 36 72 37 73 38 74
REMARK SMILES IDX 61 75 62 76 70 77 63 78 69 79 64 80 65 81 66 82 67 83 68 84
REMARK SMILES IDX 47 85 48 86 56 87 49 88 55 89 50 90 51 91 52 92 53 93 54 94
REMARK H PARENT 75 50 45 61
REMARK Flexibility Score: inf
ROOT
ATOM      1  C   UNL A   1      34.807  23.961  23.803  1.00  0.00     0.188 C 
ENDROOT
BRANCH   1   2
ATOM      2  O   UNL A   1      33.458  23.818  23.436  1.00  0.00    -0.376 OA
BRANCH   2   3
ATOM      3  C   UNL A   1      32.521  23.270  24.343  1.00  0.00     0.202 C 
BRANCH   3   4
ATOM      4  C   UNL A   1      31.110  23.818  24.664  1.00  0.00     0.261 C 
BRANCH   4   5
ATOM      5  O   UNL A   1      30.679  25.045  24.071  1.00  0.00    -0.460 OA
BRANCH   5   6
ATOM      6  C   UNL A   1      30.210  26.009  24.927  1.00  0.00     0.342 C 
ATOM      7  O   UNL A   1      30.017  25.841  26.110  1.00  0.00    -0.246 OA
BRANCH   6   8
ATOM      8  C   UNL A   1      30.073  27.302  24.270  1.00  0.00     0.106 A 
ATOM      9  N   UNL A   1      29.453  28.974  22.983  1.00  0.00    -0.270 N 
ATOM     10  C   UNL A   1      29.196  27.663  23.264  1.00  0.00     0.125 A 
ATOM     11  N   UNL A   1      30.446  29.490  23.722  1.00  0.00    -0.172 NA
ATOM     12  C   UNL A   1      30.886  28.460  24.458  1.00  0.00     0.107 A 
BRANCH   9  13
ATOM     13  C   UNL A   1      28.726  29.817  22.048  1.00  0.00     0.159 C 
BRANCH  13  14
ATOM     14  C   UNL A   1      27.651  30.711  22.668  1.00  0.00     0.144 C 
BRANCH  14  15
ATOM     15  C   UNL A   1      28.117  32.158  22.680  1.00  0.00     0.064 C 
ATOM     16  N   UNL A   1      28.503  33.359  22.690  1.00  0.00    -0.198 NA
ENDBRANCH  14  15
ENDBRANCH  13  14
ENDBRANCH   9  13
BRANCH  12  17
ATOM     17  C   UNL A   1      32.108  28.581  25.238  1.00  0.00     0.010 A 
ATOM     18  C   UNL A   1      33.031  27.523  25.259  1.00  0.00     0.011 A 
ATOM     19  C   UNL A   1      32.369  29.742  25.965  1.00  0.00     0.096 A 
ATOM     20  C   UNL A   1      34.172  27.587  26.062  1.00  0.00     0.008 A 
ATOM     21  C   UNL A   1      33.538  29.817  26.736  1.00  0.00     0.270 A 
ATOM     22  C   UNL A   1      34.428  28.735  26.809  1.00  0.00     0.085 A 
BRANCH  21  23
ATOM     23  N   UNL A   1      33.842  31.054  27.460  1.00  0.00     0.062 N 
ATOM     24  O   UNL A   1      32.991  31.955  27.451  1.00  0.00    -0.258 OA
ATOM     25  O   UNL A   1      34.932  31.127  28.049  1.00  0.00    -0.258 OA
ENDBRANCH  21  23
ENDBRANCH  12  17
ENDBRANCH   6   8
ENDBRANCH   5   6
ENDBRANCH   4   5
ENDBRANCH   3   4
ENDBRANCH   2   3
ENDBRANCH   1   2
BRANCH   1  26
ATOM     26  C   UNL A   1      35.715  22.759  23.481  1.00  0.00     0.188 C 
BRANCH  26  27
ATOM     27  O   UNL A   1      35.639  21.593  24.277  1.00  0.00    -0.376 OA
BRANCH  27  28
ATOM     28  C   UNL A   1      36.486  21.372  25.392  1.00  0.00     0.202 C 
BRANCH  28  29
ATOM     29  C   UNL A   1      37.992  21.632  25.430  1.00  0.00     0.261 C 
BRANCH  29  30
ATOM     30  O   UNL A   1      38.442  22.626  26.321  1.00  0.00    -0.460 OA
BRANCH  30  31
ATOM     31  C   UNL A   1      39.679  22.404  26.809  1.00  0.00     0.338 C 
ATOM     32  O   UNL A   1      40.135  21.345  27.204  1.00  0.00    -0.246 OA
BRANCH  31  33
ATOM     33  C   UNL A   1      40.366  23.695  26.895  1.00  0.00     0.060 A 
ATOM     34  C   UNL A   1      41.519  23.749  27.679  1.00  0.00     0.016 A 
ATOM     35  C   UNL A   1      39.671  24.846  26.498  1.00  0.00     0.016 A 
ATOM     36  C   UNL A   1      41.834  24.948  28.277  1.00  0.00     0.010 A 
ATOM     37  C   UNL A   1      39.962  26.028  27.124  1.00  0.00     0.010 A 
ATOM     38  C   UNL A   1      40.980  26.037  28.073  1.00  0.00    -0.014 A 
BRANCH  38  39
ATOM     39  C   UNL A   1      41.192  27.237  28.844  1.00  0.00     0.031 A 
ATOM     40  C   UNL A   1      42.350  28.017  28.374  1.00  0.00     0.074 A 
ATOM     41  C   UNL A   1      40.344  27.627  29.813  1.00  0.00     0.049 A 
ATOM     42  N   UNL A   1      43.504  28.095  28.946  1.00  0.00    -0.248 NA
ATOM     43  C   UNL A   1      42.304  28.597  27.023  1.00  0.00     0.031 C 
ATOM     44  C   UNL A   1      39.041  27.060  30.168  1.00  0.00     0.029 A 
ATOM     45  N   UNL A   1      40.431  28.714  30.622  1.00  0.00    -0.354 N 
ATOM     46  C   UNL A   1      44.254  28.935  28.138  1.00  0.00     0.074 A 
ATOM     47  C   UNL A   1      43.564  29.007  26.877  1.00  0.00     0.031 C 
ATOM     48  C   UNL A   1      38.367  27.950  30.935  1.00  0.00     0.029 A 
ATOM     49  C   UNL A   1      39.231  29.086  31.216  1.00  0.00     0.049 A 
ATOM     50  H   UNL A   1      41.274  29.199  30.774  1.00  0.00     0.167 HD
ATOM     51  C   UNL A   1      45.223  29.734  28.662  1.00  0.00     0.031 A 
ATOM     52  C   UNL A   1      38.966  30.280  31.811  1.00  0.00     0.031 A 
ATOM     53  C   UNL A   1      45.526  29.375  30.024  1.00  0.00     0.049 A 
ATOM     54  C   UNL A   1      40.278  30.896  32.150  1.00  0.00     0.074 A 
ATOM     55  C   UNL A   1      45.985  28.231  30.644  1.00  0.00     0.029 A 
ATOM     56  N   UNL A   1      44.951  30.148  31.009  1.00  0.00    -0.354 N 
ATOM     57  N   UNL A   1      41.077  30.407  33.057  1.00  0.00    -0.248 NA
ATOM     58  C   UNL A   1      40.918  31.750  31.158  1.00  0.00     0.031 C 
ATOM     59  C   UNL A   1      45.266  28.162  31.871  1.00  0.00     0.029 A 
ATOM     60  C   UNL A   1      44.468  29.304  31.974  1.00  0.00     0.049 A 
ATOM     61  H   UNL A   1      44.898  31.131  31.018  1.00  0.00     0.167 HD
ATOM     62  C   UNL A   1      42.345  30.501  32.499  1.00  0.00     0.074 A 
ATOM     63  C   UNL A   1      42.198  31.429  31.378  1.00  0.00     0.031 C 
ATOM     64  C   UNL A   1      43.319  29.593  32.807  1.00  0.00     0.031 A 
BRANCH  51  65
ATOM     65  C   UNL A   1      45.580  31.082  28.098  1.00  0.00    -0.014 A 
ATOM     66  C   UNL A   1      44.658  32.136  28.245  1.00  0.00     0.010 A 
ATOM     67  C   UNL A   1      46.652  31.286  27.204  1.00  0.00     0.010 A 
ATOM     68  C   UNL A   1      44.771  33.306  27.488  1.00  0.00     0.020 A 
ATOM     69  C   UNL A   1      46.802  32.467  26.481  1.00  0.00     0.020 A 
ATOM     70  C   UNL A   1      45.840  33.459  26.603  1.00  0.00     0.054 A 
BRANCH  70  71
ATOM     71  S   UNL A   1      45.929  34.938  25.570  1.00  0.00     0.124 S 
ATOM     72  O   UNL A   1      45.377  34.456  24.308  1.00  0.00    -0.237 OA
ATOM     73  O   UNL A   1      45.096  35.881  26.311  1.00  0.00    -0.237 OA
ATOM     74  O   UNL A   1      47.356  35.254  25.550  1.00  0.00    -0.744 OA
ENDBRANCH  70  71
ENDBRANCH  51  65
BRANCH  52  75
ATOM     75  C   UNL A   1      37.695  31.056  31.794  1.00  0.00    -0.014 A 
ATOM     76  C   UNL A   1      36.971  31.286  32.981  1.00  0.00     0.010 A 
ATOM     77  C   UNL A   1      37.342  31.819  30.663  1.00  0.00     0.010 A 
ATOM     78  C   UNL A   1      36.001  32.304  33.057  1.00  0.00     0.020 A 
ATOM     79  C   UNL A   1      36.369  32.826  30.727  1.00  0.00     0.020 A 
ATOM     80  C   UNL A   1      35.728  33.088  31.934  1.00  0.00     0.054 A 
BRANCH  80  81
ATOM     81  S   UNL A   1      34.656  34.549  32.092  1.00  0.00     0.124 S 
ATOM     82  O   UNL A   1      35.490  35.468  32.859  1.00  0.00    -0.237 OA
ATOM     83  O   UNL A   1      34.418  34.921  30.700  1.00  0.00    -0.237 OA
ATOM     84  O   UNL A   1      33.483  34.038  32.799  1.00  0.00    -0.744 OA
ENDBRANCH  80  81
ENDBRANCH  52  75
BRANCH  64  85
ATOM     85  C   UNL A   1      43.089  28.655  33.970  1.00  0.00    -0.014 A 
ATOM     86  C   UNL A   1      43.377  28.978  35.312  1.00  0.00     0.010 A 
ATOM     87  C   UNL A   1      42.400  27.459  33.702  1.00  0.00     0.010 A 
ATOM     88  C   UNL A   1      43.007  28.112  36.351  1.00  0.00     0.020 A 
ATOM     89  C   UNL A   1      42.011  26.604  34.734  1.00  0.00     0.020 A 
ATOM     90  C   UNL A   1      42.326  26.927  36.054  1.00  0.00     0.054 A 
BRANCH  90  91
ATOM     91  S   UNL A   1      41.813  25.825  37.401  1.00  0.00     0.124 S 
ATOM     92  O   UNL A   1      40.436  26.245  37.645  1.00  0.00    -0.237 OA
ATOM     93  O   UNL A   1      41.972  24.496  36.813  1.00  0.00    -0.237 OA
ATOM     94  O   UNL A   1      42.753  26.132  38.480  1.00  0.00    -0.744 OA
ENDBRANCH  90  91
ENDBRANCH  64  85
ENDBRANCH  38  39
ENDBRANCH  31  33
ENDBRANCH  30  31
ENDBRANCH  29  30
ENDBRANCH  28  29
ENDBRANCH  27  28
ENDBRANCH  26  27
ENDBRANCH   1  26
TORSDOF 25
ENDMDL
MODEL 2
REMARK VINA RESULT:     -10.1      1.878      3.216
REMARK SMILES N#CCCn1cc(C(=O)OCCOCCOCCOC(=O)c2ccc(-c3c4nc(c(-c5ccc(S(=O)(=O)[O-])cc5)c5ccc([nH]5)c(-c5ccc(S(=O)(=O)[O-])cc5)c5nc(c(-c6ccc(S(=O)(=O)[O-])cc6)c6ccc3[nH]6)C=C5)C=C4)cc2)c(-c2cccc([N+](=O)[O-])c2)n1
REMARK SMILES IDX 14 1 13 2 12 3 11 4 10 5 8 6 9 7 7 8 5 9 6 10 92 11 82 12
REMARK SMILES IDX 4 13 3 14 2 15 1 16 83 17 84 18 91 19 85 20 87 21 86 22
REMARK SMILES IDX 88 23 89 24 90 25 15 26 16 27 17 28 18 29 19 30 20 31 21 32
REMARK SMILES IDX 22 33 23 34 81 35 24 36 80 37 25 38 26 39 27 40 74 41 28 42
REMARK SMILES IDX 79 43 73 44 75 45 29 46 78 47 72 48 71 49 30 51 60 52 41 53
REMARK SMILES IDX 59 54 42 55 45 56 58 57 76 58 43 59 44 60 57 62 77 63 46 64
REMARK SMILES IDX 31 65 32 66 40 67 33 68 39 69 34 70 35 71 36 72 37 73 38 74
REMARK SMILES IDX 61 75 62 76 70 77 63 78 69 79 64 80 65 81 66 82 67 83 68 84
REMARK SMILES IDX 47 85 48 86 56 87 49 88 55 89 50 90 51 91 52 92 53 93 54 94
REMARK H PARENT 75 50 45 61
REMARK Flexibility Score: inf
ROOT
ATOM      1  C   UNL A   1      33.911  22.119  27.581  1.00  0.00     0.188 C 
ENDROOT
BRANCH   1   2
ATOM      2  O   UNL A   1      32.637  22.436  28.083  1.00  0.00    -0.376 OA
BRANCH   2   3
ATOM      3  C   UNL A   1      31.570  22.729  27.202  1.00  0.00     0.202 C 
BRANCH   3   4
ATOM      4  C   UNL A   1      31.377  24.023  26.376  1.00  0.00     0.261 C 
BRANCH   4   5
ATOM      5  O   UNL A   1      30.381  24.969  26.770  1.00  0.00    -0.460 OA
BRANCH   5   6
ATOM      6  C   UNL A   1      30.209  26.056  25.952  1.00  0.00     0.342 C 
ATOM      7  O   UNL A   1      29.231  26.251  25.265  1.00  0.00    -0.246 OA
BRANCH   6   8
ATOM      8  C   UNL A   1      31.298  27.016  26.084  1.00  0.00     0.106 A 
ATOM      9  N   UNL A   1      32.611  28.662  26.719  1.00  0.00    -0.270 N 
ATOM     10  C   UNL A   1      31.425  28.046  26.997  1.00  0.00     0.125 A 
ATOM     11  N   UNL A   1      33.259  28.117  25.678  1.00  0.00    -0.172 NA
ATOM     12  C   UNL A   1      32.433  27.161  25.232  1.00  0.00     0.107 A 
BRANCH   9  13
ATOM     13  C   UNL A   1      33.217  29.752  27.465  1.00  0.00     0.159 C 
BRANCH  13  14
ATOM     14  C   UNL A   1      34.742  29.830  27.392  1.00  0.00     0.144 C 
BRANCH  14  15
ATOM     15  C   UNL A   1      35.202  31.267  27.577  1.00  0.00     0.064 C 
ATOM     16  N   UNL A   1      35.584  32.459  27.730  1.00  0.00    -0.198 NA
ENDBRANCH  14  15
ENDBRANCH  13  14
ENDBRANCH   9  13
BRANCH  12  17
ATOM     17  C   UNL A   1      32.701  26.485  23.972  1.00  0.00     0.010 A 
ATOM     18  C   UNL A   1      32.326  27.089  22.761  1.00  0.00     0.011 A 
ATOM     19  C   UNL A   1      33.330  25.240  23.959  1.00  0.00     0.096 A 
ATOM     20  C   UNL A   1      32.504  26.425  21.546  1.00  0.00     0.008 A 
ATOM     21  C   UNL A   1      33.543  24.597  22.731  1.00  0.00     0.270 A 
ATOM     22  C   UNL A   1      33.110  25.170  21.527  1.00  0.00     0.085 A 
BRANCH  21  23
ATOM     23  N   UNL A   1      34.249  23.312  22.709  1.00  0.00     0.062 N 
ATOM     24  O   UNL A   1      35.486  23.329  22.773  1.00  0.00    -0.258 OA
ATOM     25  O   UNL A   1      33.566  22.279  22.634  1.00  0.00    -0.258 OA
ENDBRANCH  21  23
ENDBRANCH  12  17
ENDBRANCH   6   8
ENDBRANCH   5   6
ENDBRANCH   4   5
ENDBRANCH   3   4
ENDBRANCH   2   3
ENDBRANCH   1   2
BRANCH   1  26
ATOM     26  C   UNL A   1      33.931  21.454  26.192  1.00  0.00     0.188 C 
BRANCH  26  27
ATOM     27  O   UNL A   1      35.140  21.399  25.461  1.00  0.00    -0.376 OA
BRANCH  27  28
ATOM     28  C   UNL A   1      36.413  21.439  26.084  1.00  0.00     0.202 C 
BRANCH  28  29
ATOM     29  C   UNL A   1      37.701  21.955  25.444  1.00  0.00     0.261 C 
BRANCH  29  30
ATOM     30  O   UNL A   1      38.349  23.023  26.095  1.00  0.00    -0.460 OA
BRANCH  30  31
ATOM     31  C   UNL A   1      39.563  22.707  26.589  1.00  0.00     0.338 C 
ATOM     32  O   UNL A   1      39.947  21.609  26.950  1.00  0.00    -0.246 OA
BRANCH  31  33
ATOM     33  C   UNL A   1      40.327  23.949  26.730  1.00  0.00     0.060 A 
ATOM     34  C   UNL A   1      41.394  23.938  27.630  1.00  0.00     0.016 A 
ATOM     35  C   UNL A   1      39.760  25.138  26.248  1.00  0.00     0.016 A 
ATOM     36  C   UNL A   1      41.729  25.124  28.242  1.00  0.00     0.010 A 
ATOM     37  C   UNL A   1      40.069  26.309  26.886  1.00  0.00     0.010 A 
ATOM     38  C   UNL A   1      40.981  26.265  27.936  1.00  0.00    -0.014 A 
BRANCH  38  39
ATOM     39  C   UNL A   1      41.196  27.463  28.710  1.00  0.00     0.031 A 
ATOM     40  C   UNL A   1      42.414  28.189  28.308  1.00  0.00     0.074 A 
ATOM     41  C   UNL A   1      40.307  27.899  29.621  1.00  0.00     0.049 A 
ATOM     42  N   UNL A   1      43.533  28.223  28.949  1.00  0.00    -0.248 NA
ATOM     43  C   UNL A   1      42.477  28.756  26.952  1.00  0.00     0.031 C 
ATOM     44  C   UNL A   1      38.961  27.392  29.898  1.00  0.00     0.029 A 
ATOM     45  N   UNL A   1      40.391  28.990  30.426  1.00  0.00    -0.354 N 
ATOM     46  C   UNL A   1      44.367  29.022  28.184  1.00  0.00     0.074 A 
ATOM     47  C   UNL A   1      43.760  29.110  26.882  1.00  0.00     0.031 C 
ATOM     48  C   UNL A   1      38.281  28.318  30.615  1.00  0.00     0.029 A 
ATOM     49  C   UNL A   1      39.174  29.418  30.941  1.00  0.00     0.049 A 
ATOM     50  H   UNL A   1      41.243  29.439  30.627  1.00  0.00     0.167 HD
ATOM     51  C   UNL A   1      45.336  29.784  28.762  1.00  0.00     0.031 A 
ATOM     52  C   UNL A   1      38.925  30.629  31.509  1.00  0.00     0.031 A 
ATOM     53  C   UNL A   1      45.537  29.426  30.142  1.00  0.00     0.049 A 
ATOM     54  C   UNL A   1      40.238  31.191  31.925  1.00  0.00     0.074 A 
ATOM     55  C   UNL A   1      45.907  28.269  30.798  1.00  0.00     0.029 A 
ATOM     56  N   UNL A   1      44.936  30.232  31.084  1.00  0.00    -0.354 N 
ATOM     57  N   UNL A   1      40.958  30.678  32.884  1.00  0.00    -0.248 NA
ATOM     58  C   UNL A   1      40.975  32.007  30.969  1.00  0.00     0.031 C 
ATOM     59  C   UNL A   1      45.111  28.244  31.978  1.00  0.00     0.029 A 
ATOM     60  C   UNL A   1      44.358  29.419  32.023  1.00  0.00     0.049 A 
ATOM     61  H   UNL A   1      44.926  31.217  31.082  1.00  0.00     0.167 HD
ATOM     62  C   UNL A   1      42.261  30.712  32.405  1.00  0.00     0.074 A 
ATOM     63  C   UNL A   1      42.224  31.634  31.270  1.00  0.00     0.031 C 
ATOM     64  C   UNL A   1      43.173  29.766  32.780  1.00  0.00     0.031 A 
BRANCH  51  65
ATOM     65  C   UNL A   1      45.784  31.109  28.210  1.00  0.00    -0.014 A 
ATOM     66  C   UNL A   1      44.805  32.069  27.890  1.00  0.00     0.010 A 
ATOM     67  C   UNL A   1      47.095  31.349  27.747  1.00  0.00     0.010 A 
ATOM     68  C   UNL A   1      45.112  33.177  27.094  1.00  0.00     0.020 A 
ATOM     69  C   UNL A   1      47.422  32.474  26.994  1.00  0.00     0.020 A 
ATOM     70  C   UNL A   1      46.420  33.366  26.644  1.00  0.00     0.054 A 
BRANCH  70  71
ATOM     71  S   UNL A   1      46.785  34.754  25.547  1.00  0.00     0.124 S 
ATOM     72  O   UNL A   1      48.142  34.440  25.108  1.00  0.00    -0.237 OA
ATOM     73  O   UNL A   1      45.742  34.627  24.532  1.00  0.00    -0.237 OA
ATOM     74  O   UNL A   1      46.662  35.919  26.419  1.00  0.00    -0.744 OA
ENDBRANCH  70  71
ENDBRANCH  51  65
BRANCH  52  75
ATOM     75  C   UNL A   1      37.692  31.459  31.407  1.00  0.00    -0.014 A 
ATOM     76  C   UNL A   1      36.555  31.165  32.187  1.00  0.00     0.010 A 
ATOM     77  C   UNL A   1      37.728  32.711  30.762  1.00  0.00     0.010 A 
ATOM     78  C   UNL A   1      35.543  32.123  32.388  1.00  0.00     0.020 A 
ATOM     79  C   UNL A   1      36.720  33.666  30.948  1.00  0.00     0.020 A 
ATOM     80  C   UNL A   1      35.648  33.381  31.790  1.00  0.00     0.054 A 
BRANCH  80  81
ATOM     81  S   UNL A   1      34.473  34.694  32.237  1.00  0.00     0.124 S 
ATOM     82  O   UNL A   1      34.030  35.177  30.933  1.00  0.00    -0.237 OA
ATOM     83  O   UNL A   1      33.472  33.973  33.019  1.00  0.00    -0.237 OA
ATOM     84  O   UNL A   1      35.287  35.636  33.004  1.00  0.00    -0.744 OA
ENDBRANCH  80  81
ENDBRANCH  52  75
BRANCH  64  85
ATOM     85  C   UNL A   1      42.832  28.850  33.933  1.00  0.00    -0.014 A 
ATOM     86  C   UNL A   1      42.198  27.599  33.784  1.00  0.00     0.010 A 
ATOM     87  C   UNL A   1      43.325  29.204  35.201  1.00  0.00     0.010 A 
ATOM     88  C   UNL A   1      42.041  26.742  34.884  1.00  0.00     0.020 A 
ATOM     89  C   UNL A   1      43.190  28.346  36.294  1.00  0.00     0.020 A 
ATOM     90  C   UNL A   1      42.537  27.123  36.134  1.00  0.00     0.054 A 
BRANCH  90  91
ATOM     91  S   UNL A   1      42.368  25.999  37.548  1.00  0.00     0.124 S 
ATOM     92  O   UNL A   1      42.724  24.707  36.968  1.00  0.00    -0.237 OA
ATOM     93  O   UNL A   1      43.323  26.542  38.512  1.00  0.00    -0.237 OA
ATOM     94  O   UNL A   1      40.964  26.135  37.935  1.00  0.00    -0.744 OA
ENDBRANCH  90  91
ENDBRANCH  64  85
ENDBRANCH  38  39
ENDBRANCH  31  33
ENDBRANCH  30  31
ENDBRANCH  29  30
ENDBRANCH  28  29
ENDBRANCH  27  28
ENDBRANCH  26  27
ENDBRANCH   1  26
TORSDOF 25
ENDMDL
MODEL 3
REMARK VINA RESULT:      -9.4      3.698      8.177
REMARK SMILES N#CCCn1cc(C(=O)OCCOCCOCCOC(=O)c2ccc(-c3c4nc(c(-c5ccc(S(=O)(=O)[O-])cc5)c5ccc([nH]5)c(-c5ccc(S(=O)(=O)[O-])cc5)c5nc(c(-c6ccc(S(=O)(=O)[O-])cc6)c6ccc3[nH]6)C=C5)C=C4)cc2)c(-c2cccc([N+](=O)[O-])c2)n1
REMARK SMILES IDX 14 1 13 2 12 3 11 4 10 5 8 6 9 7 7 8 5 9 6 10 92 11 82 12
REMARK SMILES IDX 4 13 3 14 2 15 1 16 83 17 84 18 91 19 85 20 87 21 86 22
REMARK SMILES IDX 88 23 89 24 90 25 15 26 16 27 17 28 18 29 19 30 20 31 21 32
REMARK SMILES IDX 22 33 23 34 81 35 24 36 80 37 25 38 26 39 27 40 74 41 28 42
REMARK SMILES IDX 79 43 73 44 75 45 29 46 78 47 72 48 71 49 30 51 60 52 41 53
REMARK SMILES IDX 59 54 42 55 45 56 58 57 76 58 43 59 44 60 57 62 77 63 46 64
REMARK SMILES IDX 31 65 32 66 40 67 33 68 39 69 34 70 35 71 36 72 37 73 38 74
REMARK SMILES IDX 61 75 62 76 70 77 63 78 69 79 64 80 65 81 66 82 67 83 68 84
REMARK SMILES IDX 47 85 48 86 56 87 49 88 55 89 50 90 51 91 52 92 53 93 54 94
REMARK H PARENT 75 50 45 61
REMARK Flexibility Score: inf
ROOT
ATOM      1  C   UNL A   1      34.007  21.511  27.144  1.00  0.00     0.188 C 
ENDROOT
BRANCH   1   2
ATOM      2  O   UNL A   1      33.126  22.261  27.943  1.00  0.00    -0.376 OA
BRANCH   2   3
ATOM      3  C   UNL A   1      31.979  22.864  27.377  1.00  0.00     0.202 C 
BRANCH   3   4
ATOM      4  C   UNL A   1      31.919  24.209  26.614  1.00  0.00     0.261 C 
BRANCH   4   5
ATOM      5  O   UNL A   1      30.923  25.174  26.964  1.00  0.00    -0.460 OA
BRANCH   5   6
ATOM      6  C   UNL A   1      30.894  26.324  26.218  1.00  0.00     0.342 C 
ATOM      7  O   UNL A   1      29.968  26.664  25.516  1.00  0.00    -0.246 OA
BRANCH   6   8
ATOM      8  C   UNL A   1      32.068  27.155  26.452  1.00  0.00     0.106 A 
ATOM      9  N   UNL A   1      33.543  28.560  27.278  1.00  0.00    -0.270 N 
ATOM     10  C   UNL A   1      32.316  28.010  27.510  1.00  0.00     0.125 A 
ATOM     11  N   UNL A   1      34.107  28.139  26.137  1.00  0.00    -0.172 NA
ATOM     12  C   UNL A   1      33.184  27.340  25.582  1.00  0.00     0.107 A 
BRANCH   9  13
ATOM     13  C   UNL A   1      34.268  29.461  28.160  1.00  0.00     0.159 C 
BRANCH  13  14
ATOM     14  C   UNL A   1      35.620  29.947  27.636  1.00  0.00     0.144 C 
BRANCH  14  15
ATOM     15  C   UNL A   1      35.699  31.463  27.716  1.00  0.00     0.064 C 
ATOM     16  N   UNL A   1      35.765  32.720  27.783  1.00  0.00    -0.198 NA
ENDBRANCH  14  15
ENDBRANCH  13  14
ENDBRANCH   9  13
BRANCH  12  17
ATOM     17  C   UNL A   1      33.351  26.856  24.220  1.00  0.00     0.010 A 
ATOM     18  C   UNL A   1      33.285  27.758  23.146  1.00  0.00     0.011 A 
ATOM     19  C   UNL A   1      33.578  25.502  23.975  1.00  0.00     0.096 A 
ATOM     20  C   UNL A   1      33.365  27.305  21.828  1.00  0.00     0.008 A 
ATOM     21  C   UNL A   1      33.700  25.060  22.650  1.00  0.00     0.270 A 
ATOM     22  C   UNL A   1      33.569  25.949  21.574  1.00  0.00     0.085 A 
BRANCH  21  23
ATOM     23  N   UNL A   1      33.990  23.647  22.390  1.00  0.00     0.062 N 
ATOM     24  O   UNL A   1      33.098  22.957  21.876  1.00  0.00    -0.258 OA
ATOM     25  O   UNL A   1      35.116  23.223  22.692  1.00  0.00    -0.258 OA
ENDBRANCH  21  23
ENDBRANCH  12  17
ENDBRANCH   6   8
ENDBRANCH   5   6
ENDBRANCH   4   5
ENDBRANCH   3   4
ENDBRANCH   2   3
ENDBRANCH   1   2
BRANCH   1  26
ATOM     26  C   UNL A   1      33.421  20.990  25.818  1.00  0.00     0.188 C 
BRANCH  26  27
ATOM     27  O   UNL A   1      34.291  20.623  24.766  1.00  0.00    -0.376 OA
BRANCH  27  28
ATOM     28  C   UNL A   1      35.593  20.110  24.995  1.00  0.00     0.202 C 
BRANCH  28  29
ATOM     29  C   UNL A   1      36.900  20.865  24.755  1.00  0.00     0.261 C 
BRANCH  29  30
ATOM     30  O   UNL A   1      37.636  21.238  25.897  1.00  0.00    -0.460 OA
BRANCH  30  31
ATOM     31  C   UNL A   1      38.937  20.890  25.848  1.00  0.00     0.338 C 
ATOM     32  O   UNL A   1      39.394  19.763  25.773  1.00  0.00    -0.246 OA
BRANCH  31  33
ATOM     33  C   UNL A   1      39.734  22.106  26.017  1.00  0.00     0.060 A 
ATOM     34  C   UNL A   1      41.116  21.948  26.132  1.00  0.00     0.016 A 
ATOM     35  C   UNL A   1      39.077  23.285  26.398  1.00  0.00     0.016 A 
ATOM     36  C   UNL A   1      41.811  22.883  26.865  1.00  0.00     0.010 A 
ATOM     37  C   UNL A   1      39.762  24.193  27.159  1.00  0.00     0.010 A 
ATOM     38  C   UNL A   1      41.096  23.928  27.458  1.00  0.00    -0.014 A 
BRANCH  38  39
ATOM     39  C   UNL A   1      41.779  24.799  28.382  1.00  0.00     0.031 A 
ATOM     40  C   UNL A   1      41.121  26.110  28.522  1.00  0.00     0.074 A 
ATOM     41  C   UNL A   1      42.842  24.392  29.101  1.00  0.00     0.049 A 
ATOM     42  N   UNL A   1      41.520  27.226  28.015  1.00  0.00    -0.248 NA
ATOM     43  C   UNL A   1      39.766  26.156  29.095  1.00  0.00     0.031 C 
ATOM     44  C   UNL A   1      43.399  23.043  29.221  1.00  0.00     0.029 A 
ATOM     45  N   UNL A   1      43.585  25.107  29.984  1.00  0.00    -0.354 N 
ATOM     46  C   UNL A   1      40.582  28.165  28.415  1.00  0.00     0.074 A 
ATOM     47  C   UNL A   1      39.429  27.422  28.852  1.00  0.00     0.031 C 
ATOM     48  C   UNL A   1      44.216  22.998  30.300  1.00  0.00     0.029 A 
ATOM     49  C   UNL A   1      44.327  24.333  30.869  1.00  0.00     0.049 A 
ATOM     50  H   UNL A   1      43.598  26.090  29.997  1.00  0.00     0.167 HD
ATOM     51  C   UNL A   1      40.932  29.462  28.630  1.00  0.00     0.031 A 
ATOM     52  C   UNL A   1      44.904  24.763  32.023  1.00  0.00     0.031 A 
ATOM     53  C   UNL A   1      42.251  29.745  28.126  1.00  0.00     0.049 A 
ATOM     54  C   UNL A   1      45.030  26.242  31.918  1.00  0.00     0.074 A 
ATOM     55  C   UNL A   1      42.846  29.680  26.882  1.00  0.00     0.029 A 
ATOM     56  N   UNL A   1      43.275  29.761  29.047  1.00  0.00    -0.354 N 
ATOM     57  N   UNL A   1      45.834  26.827  31.075  1.00  0.00    -0.248 NA
ATOM     58  C   UNL A   1      43.924  27.066  32.390  1.00  0.00     0.031 C 
ATOM     59  C   UNL A   1      44.164  29.199  27.129  1.00  0.00     0.029 A 
ATOM     60  C   UNL A   1      44.332  29.074  28.510  1.00  0.00     0.049 A 
ATOM     61  H   UNL A   1      43.251  30.189  29.933  1.00  0.00     0.167 HD
ATOM     62  C   UNL A   1      45.100  27.890  30.565  1.00  0.00     0.074 A 
ATOM     63  C   UNL A   1      43.974  28.049  31.484  1.00  0.00     0.031 C 
ATOM     64  C   UNL A   1      45.305  28.339  29.290  1.00  0.00     0.031 A 
BRANCH  51  65
ATOM     65  C   UNL A   1      40.268  30.339  29.657  1.00  0.00    -0.014 A 
ATOM     66  C   UNL A   1      40.321  29.948  31.008  1.00  0.00     0.010 A 
ATOM     67  C   UNL A   1      39.374  31.378  29.323  1.00  0.00     0.010 A 
ATOM     68  C   UNL A   1      39.477  30.525  31.962  1.00  0.00     0.020 A 
ATOM     69  C   UNL A   1      38.563  31.994  30.274  1.00  0.00     0.020 A 
ATOM     70  C   UNL A   1      38.597  31.540  31.583  1.00  0.00     0.054 A 
BRANCH  70  71
ATOM     71  S   UNL A   1      37.452  32.219  32.805  1.00  0.00     0.124 S 
ATOM     72  O   UNL A   1      36.918  33.381  32.103  1.00  0.00    -0.237 OA
ATOM     73  O   UNL A   1      36.521  31.111  33.003  1.00  0.00    -0.237 OA
ATOM     74  O   UNL A   1      38.311  32.516  33.949  1.00  0.00    -0.744 OA
ENDBRANCH  70  71
ENDBRANCH  51  65
BRANCH  52  75
ATOM     75  C   UNL A   1      45.034  24.036  33.316  1.00  0.00    -0.014 A 
ATOM     76  C   UNL A   1      44.088  23.062  33.697  1.00  0.00     0.010 A 
ATOM     77  C   UNL A   1      46.240  24.086  34.043  1.00  0.00     0.010 A 
ATOM     78  C   UNL A   1      44.381  22.118  34.700  1.00  0.00     0.020 A 
ATOM     79  C   UNL A   1      46.533  23.157  35.050  1.00  0.00     0.020 A 
ATOM     80  C   UNL A   1      45.616  22.154  35.350  1.00  0.00     0.054 A 
BRANCH  80  81
ATOM     81  S   UNL A   1      46.087  20.800  36.469  1.00  0.00     0.124 S 
ATOM     82  O   UNL A   1      45.637  21.293  37.766  1.00  0.00    -0.237 OA
ATOM     83  O   UNL A   1      45.342  19.666  35.928  1.00  0.00    -0.237 OA
ATOM     84  O   UNL A   1      47.538  20.712  36.308  1.00  0.00    -0.744 OA
ENDBRANCH  80  81
ENDBRANCH  52  75
BRANCH  64  85
ATOM     85  C   UNL A   1      46.526  27.854  28.541  1.00  0.00    -0.014 A 
ATOM     86  C   UNL A   1      47.727  28.586  28.436  1.00  0.00     0.010 A 
ATOM     87  C   UNL A   1      46.504  26.531  28.068  1.00  0.00     0.010 A 
ATOM     88  C   UNL A   1      48.864  28.013  27.846  1.00  0.00     0.020 A 
ATOM     89  C   UNL A   1      47.638  25.949  27.499  1.00  0.00     0.020 A 
ATOM     90  C   UNL A   1      48.810  26.696  27.379  1.00  0.00     0.054 A 
BRANCH  90  91
ATOM     91  S   UNL A   1      50.291  25.942  26.651  1.00  0.00     0.124 S 
ATOM     92  O   UNL A   1      50.227  24.572  27.155  1.00  0.00    -0.237 OA
ATOM     93  O   UNL A   1      50.064  26.096  25.216  1.00  0.00    -0.237 OA
ATOM     94  O   UNL A   1      51.391  26.745  27.186  1.00  0.00    -0.744 OA
ENDBRANCH  90  91
ENDBRANCH  64  85
ENDBRANCH  38  39
ENDBRANCH  31  33
ENDBRANCH  30  31
ENDBRANCH  29  30
ENDBRANCH  28  29
ENDBRANCH  27  28
ENDBRANCH  26  27
ENDBRANCH   1  26
TORSDOF 25
ENDMDL
