MODEL 1
REMARK VINA RESULT:     -10.4      0.000      0.000
REMARK SMILES COc1ccc(/C=C(\CCC(=O)OCCOCCOCCOC(=O)c2ccc(-c3c4nc(c(-c5ccc(S(=O)(=O)[O-])cc5)c5ccc([nH]5)c(-c5ccc(S(=O)(=O)[O-])cc5)c5nc(c(-c6ccc(S(=O)(=O)[O-])cc6)c6ccc3[nH]6)C=C5)C=C4)cc2)c2nc3ccccc3s2)cc1F
REMARK SMILES IDX 17 1 16 2 15 3 14 4 13 5 11 6 12 7 10 8 9 9 8 10 7 11 6 12
REMARK SMILES IDX 3 13 4 14 95 15 5 16 94 17 96 18 2 19 1 20 85 21 86 22 93 23
REMARK SMILES IDX 87 24 92 25 88 26 91 27 89 28 90 29 18 30 19 31 20 32 21 33
REMARK SMILES IDX 22 34 23 35 24 36 25 37 26 38 84 39 27 40 83 41 28 42 29 43
REMARK SMILES IDX 30 44 77 45 31 46 82 47 76 48 78 49 32 50 81 51 75 52 74 53
REMARK SMILES IDX 33 55 63 56 44 57 62 58 45 59 48 60 61 61 79 62 46 63 47 64
REMARK SMILES IDX 60 66 80 67 49 68 34 69 35 70 43 71 36 72 42 73 37 74 38 75
REMARK SMILES IDX 39 76 40 77 41 78 64 79 65 80 73 81 66 82 72 83 67 84 68 85
REMARK SMILES IDX 69 86 70 87 71 88 50 89 51 90 59 91 52 92 58 93 53 94 54 95
REMARK SMILES IDX 55 96 56 97 57 98
REMARK H PARENT 78 54 48 65
REMARK Flexibility Score: inf
ROOT
ATOM      1  C   UNL A   1      34.947  31.820  28.009  1.00  0.00     0.188 C 
ENDROOT
BRANCH   1   2
ATOM      2  O   UNL A   1      33.599  31.386  27.859  1.00  0.00    -0.376 OA
BRANCH   2   3
ATOM      3  C   UNL A   1      33.465  30.381  26.856  1.00  0.00     0.202 C 
BRANCH   3   4
ATOM      4  C   UNL A   1      32.015  30.190  26.379  1.00  0.00     0.261 C 
BRANCH   4   5
ATOM      5  O   UNL A   1      31.772  28.849  25.909  1.00  0.00    -0.463 OA
BRANCH   5   6
ATOM      6  C   UNL A   1      31.796  27.851  26.821  1.00  0.00     0.306 C 
ATOM      7  O   UNL A   1      31.358  27.930  27.960  1.00  0.00    -0.252 OA
BRANCH   6   8
ATOM      8  C   UNL A   1      32.424  26.594  26.262  1.00  0.00     0.127 C 
BRANCH   8   9
ATOM      9  C   UNL A   1      31.510  25.370  26.118  1.00  0.00     0.050 C 
BRANCH   9  10
ATOM     10  C   UNL A   1      31.441  24.547  24.811  1.00  0.00    -0.011 C 
ATOM     11  C   UNL A   1      30.972  25.113  23.664  1.00  0.00     0.015 C 
BRANCH  11  12
ATOM     12  C   UNL A   1      30.463  26.482  23.436  1.00  0.00    -0.022 A 
ATOM     13  C   UNL A   1      29.524  29.046  22.740  1.00  0.00     0.154 A 
ATOM     14  C   UNL A   1      28.698  28.162  23.427  1.00  0.00     0.050 A 
ATOM     15  C   UNL A   1      30.854  28.689  22.518  1.00  0.00     0.165 A 
ATOM     16  C   UNL A   1      29.178  26.903  23.808  1.00  0.00     0.012 A 
ATOM     17  C   UNL A   1      31.321  27.419  22.853  1.00  0.00     0.051 A 
ATOM     18  F   UNL A   1      31.721  29.555  21.974  1.00  0.00    -0.203 F 
BRANCH  13  19
ATOM     19  O   UNL A   1      28.955  30.235  22.372  1.00  0.00    -0.494 OA
ATOM     20  C   UNL A   1      27.668  30.459  22.948  1.00  0.00     0.278 C 
ENDBRANCH  13  19
ENDBRANCH  11  12
BRANCH  10  21
ATOM     21  C   UNL A   1      31.977  23.187  24.699  1.00  0.00     0.120 A 
ATOM     22  N   UNL A   1      32.076  22.470  23.594  1.00  0.00    -0.236 NA
ATOM     23  S   UNL A   1      32.523  22.299  26.108  1.00  0.00    -0.114 S 
ATOM     24  C   UNL A   1      32.361  21.135  23.868  1.00  0.00     0.082 A 
ATOM     25  C   UNL A   1      32.613  20.843  25.203  1.00  0.00     0.055 A 
ATOM     26  C   UNL A   1      32.347  20.065  22.943  1.00  0.00     0.030 A 
ATOM     27  C   UNL A   1      32.843  19.527  25.650  1.00  0.00     0.021 A 
ATOM     28  C   UNL A   1      32.463  18.743  23.391  1.00  0.00     0.002 A 
ATOM     29  C   UNL A   1      32.709  18.480  24.732  1.00  0.00     0.002 A 
ENDBRANCH  10  21
ENDBRANCH   9  10
ENDBRANCH   8   9
ENDBRANCH   6   8
ENDBRANCH   5   6
ENDBRANCH   4   5
ENDBRANCH   3   4
ENDBRANCH   2   3
ENDBRANCH   1   2
BRANCH   1  30
ATOM     30  C   UNL A   1      35.103  32.833  29.123  1.00  0.00     0.188 C 
BRANCH  30  31
ATOM     31  O   UNL A   1      34.723  32.336  30.407  1.00  0.00    -0.376 OA
BRANCH  31  32
ATOM     32  C   UNL A   1      35.754  32.404  31.391  1.00  0.00     0.202 C 
BRANCH  32  33
ATOM     33  C   UNL A   1      36.535  31.116  31.702  1.00  0.00     0.261 C 
BRANCH  33  34
ATOM     34  O   UNL A   1      37.572  30.842  30.750  1.00  0.00    -0.460 OA
BRANCH  34  35
ATOM     35  C   UNL A   1      37.335  29.776  29.943  1.00  0.00     0.338 C 
ATOM     36  O   UNL A   1      36.242  29.350  29.603  1.00  0.00    -0.246 OA
BRANCH  35  37
ATOM     37  C   UNL A   1      38.606  29.343  29.313  1.00  0.00     0.060 A 
ATOM     38  C   UNL A   1      39.572  28.761  30.148  1.00  0.00     0.016 A 
ATOM     39  C   UNL A   1      38.829  29.426  27.935  1.00  0.00     0.016 A 
ATOM     40  C   UNL A   1      40.778  28.309  29.621  1.00  0.00     0.010 A 
ATOM     41  C   UNL A   1      40.050  28.994  27.408  1.00  0.00     0.010 A 
ATOM     42  C   UNL A   1      41.044  28.478  28.258  1.00  0.00    -0.014 A 
BRANCH  42  43
ATOM     43  C   UNL A   1      42.447  28.363  27.800  1.00  0.00     0.031 A 
ATOM     44  C   UNL A   1      43.347  29.552  28.021  1.00  0.00     0.074 A 
ATOM     45  C   UNL A   1      42.931  27.217  27.291  1.00  0.00     0.049 A 
ATOM     46  N   UNL A   1      44.626  29.678  27.791  1.00  0.00    -0.248 NA
ATOM     47  C   UNL A   1      42.716  30.760  28.583  1.00  0.00     0.031 C 
ATOM     48  C   UNL A   1      42.165  25.989  27.080  1.00  0.00     0.029 A 
ATOM     49  N   UNL A   1      44.199  26.898  26.874  1.00  0.00    -0.354 N 
ATOM     50  C   UNL A   1      44.950  30.975  28.172  1.00  0.00     0.074 A 
ATOM     51  C   UNL A   1      43.732  31.608  28.622  1.00  0.00     0.031 C 
ATOM     52  C   UNL A   1      42.984  25.045  26.580  1.00  0.00     0.029 A 
ATOM     53  C   UNL A   1      44.322  25.607  26.416  1.00  0.00     0.049 A 
ATOM     54  H   UNL A   1      44.949  27.534  26.900  1.00  0.00     0.167 HD
ATOM     55  C   UNL A   1      46.158  31.585  28.155  1.00  0.00     0.031 A 
ATOM     56  C   UNL A   1      45.397  24.962  25.919  1.00  0.00     0.031 A 
ATOM     57  C   UNL A   1      47.366  30.952  27.699  1.00  0.00     0.049 A 
ATOM     58  C   UNL A   1      46.718  25.691  25.854  1.00  0.00     0.074 A 
ATOM     59  C   UNL A   1      48.647  31.471  27.664  1.00  0.00     0.029 A 
ATOM     60  N   UNL A   1      47.438  29.665  27.190  1.00  0.00    -0.354 N 
ATOM     61  N   UNL A   1      47.018  26.903  26.260  1.00  0.00    -0.248 NA
ATOM     62  C   UNL A   1      47.850  24.953  25.274  1.00  0.00     0.031 C 
ATOM     63  C   UNL A   1      49.483  30.523  27.069  1.00  0.00     0.029 A 
ATOM     64  C   UNL A   1      48.737  29.385  26.801  1.00  0.00     0.049 A 
ATOM     65  H   UNL A   1      46.680  29.042  27.116  1.00  0.00     0.167 HD
ATOM     66  C   UNL A   1      48.380  27.059  26.014  1.00  0.00     0.074 A 
ATOM     67  C   UNL A   1      48.846  25.809  25.449  1.00  0.00     0.031 C 
ATOM     68  C   UNL A   1      49.176  28.136  26.234  1.00  0.00     0.031 A 
BRANCH  55  69
ATOM     69  C   UNL A   1      46.223  33.022  28.599  1.00  0.00    -0.014 A 
ATOM     70  C   UNL A   1      46.501  33.369  29.933  1.00  0.00     0.010 A 
ATOM     71  C   UNL A   1      46.051  34.043  27.647  1.00  0.00     0.010 A 
ATOM     72  C   UNL A   1      46.585  34.712  30.310  1.00  0.00     0.020 A 
ATOM     73  C   UNL A   1      46.161  35.386  28.015  1.00  0.00     0.020 A 
ATOM     74  C   UNL A   1      46.418  35.712  29.347  1.00  0.00     0.054 A 
BRANCH  74  75
ATOM     75  S   UNL A   1      46.587  37.446  29.853  1.00  0.00     0.124 S 
ATOM     76  O   UNL A   1      47.982  37.501  30.282  1.00  0.00    -0.237 OA
ATOM     77  O   UNL A   1      46.280  38.169  28.622  1.00  0.00    -0.237 OA
ATOM     78  O   UNL A   1      45.601  37.594  30.921  1.00  0.00    -0.744 OA
ENDBRANCH  74  75
ENDBRANCH  55  69
BRANCH  56  79
ATOM     79  C   UNL A   1      45.284  23.557  25.434  1.00  0.00    -0.014 A 
ATOM     80  C   UNL A   1      44.958  23.279  24.094  1.00  0.00     0.010 A 
ATOM     81  C   UNL A   1      45.454  22.483  26.327  1.00  0.00     0.010 A 
ATOM     82  C   UNL A   1      44.767  21.960  23.667  1.00  0.00     0.020 A 
ATOM     83  C   UNL A   1      45.297  21.162  25.898  1.00  0.00     0.020 A 
ATOM     84  C   UNL A   1      44.934  20.910  24.573  1.00  0.00     0.054 A 
BRANCH  84  85
ATOM     85  S   UNL A   1      44.692  19.207  23.995  1.00  0.00     0.124 S 
ATOM     86  O   UNL A   1      45.918  18.556  24.446  1.00  0.00    -0.237 OA
ATOM     87  O   UNL A   1      43.471  18.807  24.690  1.00  0.00    -0.237 OA
ATOM     88  O   UNL A   1      44.556  19.352  22.547  1.00  0.00    -0.744 OA
ENDBRANCH  84  85
ENDBRANCH  56  79
BRANCH  68  89
ATOM     89  C   UNL A   1      50.638  27.991  25.895  1.00  0.00    -0.014 A 
ATOM     90  C   UNL A   1      51.560  27.481  26.826  1.00  0.00     0.010 A 
ATOM     91  C   UNL A   1      51.093  28.361  24.616  1.00  0.00     0.010 A 
ATOM     92  C   UNL A   1      52.918  27.408  26.509  1.00  0.00     0.020 A 
ATOM     93  C   UNL A   1      52.444  28.255  24.281  1.00  0.00     0.020 A 
ATOM     94  C   UNL A   1      53.352  27.805  25.239  1.00  0.00     0.054 A 
BRANCH  94  95
ATOM     95  S   UNL A   1      55.122  27.713  24.853  1.00  0.00     0.124 S 
ATOM     96  O   UNL A   1      55.296  28.851  23.955  1.00  0.00    -0.237 OA
ATOM     97  O   UNL A   1      55.746  27.847  26.168  1.00  0.00    -0.237 OA
ATOM     98  O   UNL A   1      55.272  26.399  24.231  1.00  0.00    -0.744 OA
ENDBRANCH  94  95
ENDBRANCH  68  89
ENDBRANCH  42  43
ENDBRANCH  35  37
ENDBRANCH  34  35
ENDBRANCH  33  34
ENDBRANCH  32  33
ENDBRANCH  31  32
ENDBRANCH  30  31
ENDBRANCH   1  30
TORSDOF 25
ENDMDL
MODEL 2
REMARK VINA RESULT:     -10.3      6.538     12.040
REMARK SMILES COc1ccc(/C=C(\CCC(=O)OCCOCCOCCOC(=O)c2ccc(-c3c4nc(c(-c5ccc(S(=O)(=O)[O-])cc5)c5ccc([nH]5)c(-c5ccc(S(=O)(=O)[O-])cc5)c5nc(c(-c6ccc(S(=O)(=O)[O-])cc6)c6ccc3[nH]6)C=C5)C=C4)cc2)c2nc3ccccc3s2)cc1F
REMARK SMILES IDX 17 1 16 2 15 3 14 4 13 5 11 6 12 7 10 8 9 9 8 10 7 11 6 12
REMARK SMILES IDX 3 13 4 14 95 15 5 16 94 17 96 18 2 19 1 20 85 21 86 22 93 23
REMARK SMILES IDX 87 24 92 25 88 26 91 27 89 28 90 29 18 30 19 31 20 32 21 33
REMARK SMILES IDX 22 34 23 35 24 36 25 37 26 38 84 39 27 40 83 41 28 42 29 43
REMARK SMILES IDX 30 44 77 45 31 46 82 47 76 48 78 49 32 50 81 51 75 52 74 53
REMARK SMILES IDX 33 55 63 56 44 57 62 58 45 59 48 60 61 61 79 62 46 63 47 64
REMARK SMILES IDX 60 66 80 67 49 68 34 69 35 70 43 71 36 72 42 73 37 74 38 75
REMARK SMILES IDX 39 76 40 77 41 78 64 79 65 80 73 81 66 82 72 83 67 84 68 85
REMARK SMILES IDX 69 86 70 87 71 88 50 89 51 90 59 91 52 92 58 93 53 94 54 95
REMARK SMILES IDX 55 96 56 97 57 98
REMARK H PARENT 78 54 48 65
REMARK Flexibility Score: inf
ROOT
ATOM      1  C   UNL A   1      37.320  22.848  25.709  1.00  0.00     0.188 C 
ENDROOT
BRANCH   1   2
ATOM      2  O   UNL A   1      36.066  22.837  25.036  1.00  0.00    -0.376 OA
BRANCH   2   3
ATOM      3  C   UNL A   1      36.031  23.754  23.946  1.00  0.00     0.202 C 
BRANCH   3   4
ATOM      4  C   UNL A   1      34.650  24.399  23.739  1.00  0.00     0.261 C 
BRANCH   4   5
ATOM      5  O   UNL A   1      34.416  25.485  24.658  1.00  0.00    -0.463 OA
BRANCH   5   6
ATOM      6  C   UNL A   1      33.677  26.529  24.219  1.00  0.00     0.306 C 
ATOM      7  O   UNL A   1      33.610  26.903  23.056  1.00  0.00    -0.252 OA
BRANCH   6   8
ATOM      8  C   UNL A   1      32.912  27.188  25.344  1.00  0.00     0.127 C 
BRANCH   8   9
ATOM      9  C   UNL A   1      31.528  26.610  25.671  1.00  0.00     0.050 C 
BRANCH   9  10
ATOM     10  C   UNL A   1      30.895  25.475  24.834  1.00  0.00    -0.011 C 
ATOM     11  C   UNL A   1      29.976  25.761  23.868  1.00  0.00     0.015 C 
BRANCH  11  12
ATOM     12  C   UNL A   1      29.424  27.069  23.460  1.00  0.00    -0.022 A 
ATOM     13  C   UNL A   1      28.291  29.596  22.934  1.00  0.00     0.154 A 
ATOM     14  C   UNL A   1      29.652  29.384  22.734  1.00  0.00     0.050 A 
ATOM     15  C   UNL A   1      27.485  28.509  23.274  1.00  0.00     0.165 A 
ATOM     16  C   UNL A   1      30.207  28.119  22.957  1.00  0.00     0.012 A 
ATOM     17  C   UNL A   1      28.042  27.260  23.543  1.00  0.00     0.051 A 
ATOM     18  F   UNL A   1      26.152  28.635  23.354  1.00  0.00    -0.203 F 
BRANCH  13  19
ATOM     19  O   UNL A   1      27.847  30.874  22.732  1.00  0.00    -0.494 OA
ATOM     20  C   UNL A   1      28.894  31.819  22.514  1.00  0.00     0.278 C 
ENDBRANCH  13  19
ENDBRANCH  11  12
BRANCH  10  21
ATOM     21  C   UNL A   1      31.323  24.077  24.936  1.00  0.00     0.120 A 
ATOM     22  N   UNL A   1      31.877  23.500  25.987  1.00  0.00    -0.236 NA
ATOM     23  S   UNL A   1      31.186  22.976  23.579  1.00  0.00    -0.114 S 
ATOM     24  C   UNL A   1      32.416  22.256  25.669  1.00  0.00     0.082 A 
ATOM     25  C   UNL A   1      32.160  21.810  24.378  1.00  0.00     0.055 A 
ATOM     26  C   UNL A   1      33.240  21.459  26.498  1.00  0.00     0.030 A 
ATOM     27  C   UNL A   1      32.699  20.606  23.882  1.00  0.00     0.021 A 
ATOM     28  C   UNL A   1      33.871  20.320  25.981  1.00  0.00     0.002 A 
ATOM     29  C   UNL A   1      33.600  19.900  24.685  1.00  0.00     0.002 A 
ENDBRANCH  10  21
ENDBRANCH   9  10
ENDBRANCH   8   9
ENDBRANCH   6   8
ENDBRANCH   5   6
ENDBRANCH   4   5
ENDBRANCH   3   4
ENDBRANCH   2   3
ENDBRANCH   1   2
BRANCH   1  30
ATOM     30  C   UNL A   1      38.164  21.636  25.374  1.00  0.00     0.188 C 
BRANCH  30  31
ATOM     31  O   UNL A   1      39.439  21.630  26.018  1.00  0.00    -0.376 OA
BRANCH  31  32
ATOM     32  C   UNL A   1      39.654  22.727  26.905  1.00  0.00     0.202 C 
BRANCH  32  33
ATOM     33  C   UNL A   1      40.644  23.820  26.468  1.00  0.00     0.261 C 
BRANCH  33  34
ATOM     34  O   UNL A   1      40.004  25.061  26.139  1.00  0.00    -0.460 OA
BRANCH  34  35
ATOM     35  C   UNL A   1      40.802  26.155  26.238  1.00  0.00     0.338 C 
ATOM     36  O   UNL A   1      41.574  26.572  25.387  1.00  0.00    -0.246 OA
BRANCH  35  37
ATOM     37  C   UNL A   1      40.417  26.938  27.438  1.00  0.00     0.060 A 
ATOM     38  C   UNL A   1      40.852  28.271  27.501  1.00  0.00     0.016 A 
ATOM     39  C   UNL A   1      39.590  26.421  28.440  1.00  0.00     0.016 A 
ATOM     40  C   UNL A   1      40.507  29.072  28.585  1.00  0.00     0.010 A 
ATOM     41  C   UNL A   1      39.263  27.219  29.542  1.00  0.00     0.010 A 
ATOM     42  C   UNL A   1      39.761  28.530  29.637  1.00  0.00    -0.014 A 
BRANCH  42  43
ATOM     43  C   UNL A   1      39.745  29.254  30.928  1.00  0.00     0.031 A 
ATOM     44  C   UNL A   1      40.875  28.983  31.888  1.00  0.00     0.074 A 
ATOM     45  C   UNL A   1      38.814  30.184  31.204  1.00  0.00     0.049 A 
ATOM     46  N   UNL A   1      41.139  29.543  33.038  1.00  0.00    -0.248 NA
ATOM     47  C   UNL A   1      41.841  27.943  31.490  1.00  0.00     0.031 C 
ATOM     48  C   UNL A   1      37.705  30.564  30.329  1.00  0.00     0.029 A 
ATOM     49  N   UNL A   1      38.669  30.994  32.302  1.00  0.00    -0.354 N 
ATOM     50  C   UNL A   1      42.293  28.921  33.502  1.00  0.00     0.074 A 
ATOM     51  C   UNL A   1      42.665  27.922  32.527  1.00  0.00     0.031 C 
ATOM     52  C   UNL A   1      36.997  31.542  30.923  1.00  0.00     0.029 A 
ATOM     53  C   UNL A   1      37.589  31.842  32.225  1.00  0.00     0.049 A 
ATOM     54  H   UNL A   1      39.281  30.970  33.072  1.00  0.00     0.167 HD
ATOM     55  C   UNL A   1      42.985  29.163  34.638  1.00  0.00     0.031 A 
ATOM     56  C   UNL A   1      37.134  32.750  33.112  1.00  0.00     0.031 A 
ATOM     57  C   UNL A   1      42.607  30.154  35.608  1.00  0.00     0.049 A 
ATOM     58  C   UNL A   1      37.894  32.953  34.401  1.00  0.00     0.074 A 
ATOM     59  C   UNL A   1      43.253  30.499  36.782  1.00  0.00     0.029 A 
ATOM     60  N   UNL A   1      41.476  30.951  35.522  1.00  0.00    -0.354 N 
ATOM     61  N   UNL A   1      39.007  32.388  34.805  1.00  0.00    -0.248 NA
ATOM     62  C   UNL A   1      37.337  33.932  35.347  1.00  0.00     0.031 C 
ATOM     63  C   UNL A   1      42.475  31.456  37.440  1.00  0.00     0.029 A 
ATOM     64  C   UNL A   1      41.384  31.760  36.641  1.00  0.00     0.049 A 
ATOM     65  H   UNL A   1      40.833  30.943  34.776  1.00  0.00     0.167 HD
ATOM     66  C   UNL A   1      39.301  32.967  36.037  1.00  0.00     0.074 A 
ATOM     67  C   UNL A   1      38.261  33.943  36.296  1.00  0.00     0.031 C 
ATOM     68  C   UNL A   1      40.335  32.718  36.881  1.00  0.00     0.031 A 
BRANCH  55  69
ATOM     69  C   UNL A   1      44.196  28.312  34.915  1.00  0.00    -0.014 A 
ATOM     70  C   UNL A   1      45.481  28.701  34.496  1.00  0.00     0.010 A 
ATOM     71  C   UNL A   1      44.046  27.125  35.654  1.00  0.00     0.010 A 
ATOM     72  C   UNL A   1      46.591  27.905  34.794  1.00  0.00     0.020 A 
ATOM     73  C   UNL A   1      45.157  26.342  35.977  1.00  0.00     0.020 A 
ATOM     74  C   UNL A   1      46.422  26.732  35.536  1.00  0.00     0.054 A 
BRANCH  74  75
ATOM     75  S   UNL A   1      47.886  25.748  35.955  1.00  0.00     0.124 S 
ATOM     76  O   UNL A   1      47.957  24.817  34.832  1.00  0.00    -0.237 OA
ATOM     77  O   UNL A   1      48.944  26.754  36.005  1.00  0.00    -0.237 OA
ATOM     78  O   UNL A   1      47.544  25.145  37.242  1.00  0.00    -0.744 OA
ENDBRANCH  74  75
ENDBRANCH  55  69
BRANCH  56  79
ATOM     79  C   UNL A   1      35.897  33.534  32.831  1.00  0.00    -0.014 A 
ATOM     80  C   UNL A   1      35.947  34.713  32.066  1.00  0.00     0.010 A 
ATOM     81  C   UNL A   1      34.663  33.128  33.372  1.00  0.00     0.010 A 
ATOM     82  C   UNL A   1      34.799  35.491  31.881  1.00  0.00     0.020 A 
ATOM     83  C   UNL A   1      33.506  33.885  33.162  1.00  0.00     0.020 A 
ATOM     84  C   UNL A   1      33.585  35.074  32.434  1.00  0.00     0.054 A 
BRANCH  84  85
ATOM     85  S   UNL A   1      32.106  36.091  32.172  1.00  0.00     0.124 S 
ATOM     86  O   UNL A   1      32.228  36.447  30.762  1.00  0.00    -0.237 OA
ATOM     87  O   UNL A   1      31.024  35.168  32.501  1.00  0.00    -0.237 OA
ATOM     88  O   UNL A   1      32.280  37.196  33.114  1.00  0.00    -0.744 OA
ENDBRANCH  84  85
ENDBRANCH  56  79
BRANCH  68  89
ATOM     89  C   UNL A   1      40.407  33.541  38.142  1.00  0.00    -0.014 A 
ATOM     90  C   UNL A   1      39.872  33.073  39.356  1.00  0.00     0.010 A 
ATOM     91  C   UNL A   1      41.030  34.803  38.111  1.00  0.00     0.010 A 
ATOM     92  C   UNL A   1      39.900  33.877  40.497  1.00  0.00     0.020 A 
ATOM     93  C   UNL A   1      41.094  35.595  39.260  1.00  0.00     0.020 A 
ATOM     94  C   UNL A   1      40.504  35.138  40.439  1.00  0.00     0.054 A 
BRANCH  94  95
ATOM     95  S   UNL A   1      40.518  36.169  41.930  1.00  0.00     0.124 S 
ATOM     96  O   UNL A   1      41.914  36.592  41.993  1.00  0.00    -0.237 OA
ATOM     97  O   UNL A   1      39.557  37.220  41.604  1.00  0.00    -0.237 OA
ATOM     98  O   UNL A   1      40.095  35.254  42.988  1.00  0.00    -0.744 OA
ENDBRANCH  94  95
ENDBRANCH  68  89
ENDBRANCH  42  43
ENDBRANCH  35  37
ENDBRANCH  34  35
ENDBRANCH  33  34
ENDBRANCH  32  33
ENDBRANCH  31  32
ENDBRANCH  30  31
ENDBRANCH   1  30
TORSDOF 25
ENDMDL
MODEL 3
REMARK VINA RESULT:     -10.2      1.635      4.014
REMARK SMILES COc1ccc(/C=C(\CCC(=O)OCCOCCOCCOC(=O)c2ccc(-c3c4nc(c(-c5ccc(S(=O)(=O)[O-])cc5)c5ccc([nH]5)c(-c5ccc(S(=O)(=O)[O-])cc5)c5nc(c(-c6ccc(S(=O)(=O)[O-])cc6)c6ccc3[nH]6)C=C5)C=C4)cc2)c2nc3ccccc3s2)cc1F
REMARK SMILES IDX 17 1 16 2 15 3 14 4 13 5 11 6 12 7 10 8 9 9 8 10 7 11 6 12
REMARK SMILES IDX 3 13 4 14 95 15 5 16 94 17 96 18 2 19 1 20 85 21 86 22 93 23
REMARK SMILES IDX 87 24 92 25 88 26 91 27 89 28 90 29 18 30 19 31 20 32 21 33
REMARK SMILES IDX 22 34 23 35 24 36 25 37 26 38 84 39 27 40 83 41 28 42 29 43
REMARK SMILES IDX 30 44 77 45 31 46 82 47 76 48 78 49 32 50 81 51 75 52 74 53
REMARK SMILES IDX 33 55 63 56 44 57 62 58 45 59 48 60 61 61 79 62 46 63 47 64
REMARK SMILES IDX 60 66 80 67 49 68 34 69 35 70 43 71 36 72 42 73 37 74 38 75
REMARK SMILES IDX 39 76 40 77 41 78 64 79 65 80 73 81 66 82 72 83 67 84 68 85
REMARK SMILES IDX 69 86 70 87 71 88 50 89 51 90 59 91 52 92 58 93 53 94 54 95
REMARK SMILES IDX 55 96 56 97 57 98
REMARK H PARENT 78 54 48 65
REMARK Flexibility Score: inf
ROOT
ATOM      1  C   UNL A   1      35.076  31.620  28.097  1.00  0.00     0.188 C 
ENDROOT
BRANCH   1   2
ATOM      2  O   UNL A   1      33.691  31.386  27.867  1.00  0.00    -0.376 OA
BRANCH   2   3
ATOM      3  C   UNL A   1      33.470  30.383  26.879  1.00  0.00     0.202 C 
BRANCH   3   4
ATOM      4  C   UNL A   1      31.998  30.270  26.448  1.00  0.00     0.261 C 
BRANCH   4   5
ATOM      5  O   UNL A   1      31.677  28.953  25.955  1.00  0.00    -0.463 OA
BRANCH   5   6
ATOM      6  C   UNL A   1      31.750  27.922  26.826  1.00  0.00     0.306 C 
ATOM      7  O   UNL A   1      31.259  27.914  27.947  1.00  0.00    -0.252 OA
BRANCH   6   8
ATOM      8  C   UNL A   1      32.507  26.749  26.247  1.00  0.00     0.127 C 
BRANCH   8   9
ATOM      9  C   UNL A   1      31.669  25.627  25.619  1.00  0.00     0.050 C 
BRANCH   9  10
ATOM     10  C   UNL A   1      31.298  25.623  24.118  1.00  0.00    -0.011 C 
ATOM     11  C   UNL A   1      31.686  24.592  23.315  1.00  0.00     0.015 C 
BRANCH  11  12
ATOM     12  C   UNL A   1      32.475  23.389  23.652  1.00  0.00    -0.022 A 
ATOM     13  C   UNL A   1      34.100  21.242  24.483  1.00  0.00     0.154 A 
ATOM     14  C   UNL A   1      32.715  21.143  24.566  1.00  0.00     0.050 A 
ATOM     15  C   UNL A   1      34.658  22.362  23.867  1.00  0.00     0.165 A 
ATOM     16  C   UNL A   1      31.907  22.194  24.117  1.00  0.00     0.012 A 
ATOM     17  C   UNL A   1      33.859  23.431  23.462  1.00  0.00     0.051 A 
ATOM     18  F   UNL A   1      35.979  22.446  23.648  1.00  0.00    -0.203 F 
BRANCH  13  19
ATOM     19  O   UNL A   1      34.808  20.185  24.986  1.00  0.00    -0.494 OA
ATOM     20  C   UNL A   1      34.297  18.912  24.592  1.00  0.00     0.278 C 
ENDBRANCH  13  19
ENDBRANCH  11  12
BRANCH  10  21
ATOM     21  C   UNL A   1      30.426  26.633  23.511  1.00  0.00     0.120 A 
ATOM     22  N   UNL A   1      30.805  27.650  22.761  1.00  0.00    -0.236 NA
ATOM     23  S   UNL A   1      28.694  26.626  23.780  1.00  0.00    -0.114 S 
ATOM     24  C   UNL A   1      29.777  28.571  22.578  1.00  0.00     0.082 A 
ATOM     25  C   UNL A   1      28.543  28.192  23.093  1.00  0.00     0.055 A 
ATOM     26  C   UNL A   1      29.889  29.855  21.994  1.00  0.00     0.030 A 
ATOM     27  C   UNL A   1      27.423  29.046  23.055  1.00  0.00     0.021 A 
ATOM     28  C   UNL A   1      28.816  30.753  22.050  1.00  0.00     0.002 A 
ATOM     29  C   UNL A   1      27.595  30.349  22.576  1.00  0.00     0.002 A 
ENDBRANCH  10  21
ENDBRANCH   9  10
ENDBRANCH   8   9
ENDBRANCH   6   8
ENDBRANCH   5   6
ENDBRANCH   4   5
ENDBRANCH   3   4
ENDBRANCH   2   3
ENDBRANCH   1   2
BRANCH   1  30
ATOM     30  C   UNL A   1      35.313  32.706  29.125  1.00  0.00     0.188 C 
BRANCH  30  31
ATOM     31  O   UNL A   1      34.793  32.393  30.419  1.00  0.00    -0.376 OA
BRANCH  31  32
ATOM     32  C   UNL A   1      35.742  32.514  31.477  1.00  0.00     0.202 C 
BRANCH  32  33
ATOM     33  C   UNL A   1      36.422  31.228  31.981  1.00  0.00     0.261 C 
BRANCH  33  34
ATOM     34  O   UNL A   1      37.522  30.815  31.159  1.00  0.00    -0.460 OA
BRANCH  34  35
ATOM     35  C   UNL A   1      37.297  29.690  30.433  1.00  0.00     0.338 C 
ATOM     36  O   UNL A   1      36.210  29.187  30.188  1.00  0.00    -0.246 OA
BRANCH  35  37
ATOM     37  C   UNL A   1      38.548  29.287  29.747  1.00  0.00     0.060 A 
ATOM     38  C   UNL A   1      39.511  28.610  30.512  1.00  0.00     0.016 A 
ATOM     39  C   UNL A   1      38.755  29.488  28.379  1.00  0.00     0.016 A 
ATOM     40  C   UNL A   1      40.698  28.180  29.928  1.00  0.00     0.010 A 
ATOM     41  C   UNL A   1      39.959  29.078  27.796  1.00  0.00     0.010 A 
ATOM     42  C   UNL A   1      40.951  28.465  28.582  1.00  0.00    -0.014 A 
BRANCH  42  43
ATOM     43  C   UNL A   1      42.345  28.360  28.095  1.00  0.00     0.031 A 
ATOM     44  C   UNL A   1      43.244  29.550  28.308  1.00  0.00     0.074 A 
ATOM     45  C   UNL A   1      42.823  27.220  27.566  1.00  0.00     0.049 A 
ATOM     46  N   UNL A   1      44.518  29.683  28.053  1.00  0.00    -0.248 NA
ATOM     47  C   UNL A   1      42.621  30.751  28.894  1.00  0.00     0.031 C 
ATOM     48  C   UNL A   1      42.057  25.991  27.360  1.00  0.00     0.029 A 
ATOM     49  N   UNL A   1      44.083  26.910  27.121  1.00  0.00    -0.354 N 
ATOM     50  C   UNL A   1      44.845  30.978  28.439  1.00  0.00     0.074 A 
ATOM     51  C   UNL A   1      43.634  31.602  28.920  1.00  0.00     0.031 C 
ATOM     52  C   UNL A   1      42.869  25.055  26.835  1.00  0.00     0.029 A 
ATOM     53  C   UNL A   1      44.202  25.623  26.649  1.00  0.00     0.049 A 
ATOM     54  H   UNL A   1      44.831  27.549  27.137  1.00  0.00     0.167 HD
ATOM     55  C   UNL A   1      46.049  31.592  28.403  1.00  0.00     0.031 A 
ATOM     56  C   UNL A   1      45.269  24.987  26.124  1.00  0.00     0.031 A 
ATOM     57  C   UNL A   1      47.250  30.969  27.917  1.00  0.00     0.049 A 
ATOM     58  C   UNL A   1      46.585  25.721  26.039  1.00  0.00     0.074 A 
ATOM     59  C   UNL A   1      48.529  31.494  27.861  1.00  0.00     0.029 A 
ATOM     60  N   UNL A   1      47.318  29.687  27.395  1.00  0.00    -0.354 N 
ATOM     61  N   UNL A   1      46.889  26.931  26.449  1.00  0.00    -0.248 NA
ATOM     62  C   UNL A   1      47.708  24.993  25.430  1.00  0.00     0.031 C 
ATOM     63  C   UNL A   1      49.356  30.553  27.241  1.00  0.00     0.029 A 
ATOM     64  C   UNL A   1      48.609  29.415  26.978  1.00  0.00     0.049 A 
ATOM     65  H   UNL A   1      46.560  29.061  27.331  1.00  0.00     0.167 HD
ATOM     66  C   UNL A   1      48.245  27.095  26.177  1.00  0.00     0.074 A 
ATOM     67  C   UNL A   1      48.704  25.851  25.592  1.00  0.00     0.031 C 
ATOM     68  C   UNL A   1      49.042  28.173  26.390  1.00  0.00     0.031 A 
BRANCH  55  69
ATOM     69  C   UNL A   1      46.118  33.026  28.858  1.00  0.00    -0.014 A 
ATOM     70  C   UNL A   1      46.280  33.361  30.214  1.00  0.00     0.010 A 
ATOM     71  C   UNL A   1      46.070  34.054  27.900  1.00  0.00     0.010 A 
ATOM     72  C   UNL A   1      46.371  34.701  30.605  1.00  0.00     0.020 A 
ATOM     73  C   UNL A   1      46.188  35.392  28.283  1.00  0.00     0.020 A 
ATOM     74  C   UNL A   1      46.328  35.707  29.635  1.00  0.00     0.054 A 
BRANCH  74  75
ATOM     75  S   UNL A   1      46.503  37.433  30.163  1.00  0.00     0.124 S 
ATOM     76  O   UNL A   1      45.118  37.897  30.148  1.00  0.00    -0.237 OA
ATOM     77  O   UNL A   1      47.106  37.302  31.487  1.00  0.00    -0.237 OA
ATOM     78  O   UNL A   1      47.368  38.024  29.144  1.00  0.00    -0.744 OA
ENDBRANCH  74  75
ENDBRANCH  55  69
BRANCH  56  79
ATOM     79  C   UNL A   1      45.151  23.586  25.629  1.00  0.00    -0.014 A 
ATOM     80  C   UNL A   1      45.275  23.290  24.259  1.00  0.00     0.010 A 
ATOM     81  C   UNL A   1      44.863  22.540  26.525  1.00  0.00     0.010 A 
ATOM     82  C   UNL A   1      45.076  21.987  23.791  1.00  0.00     0.020 A 
ATOM     83  C   UNL A   1      44.695  21.229  26.066  1.00  0.00     0.020 A 
ATOM     84  C   UNL A   1      44.783  20.965  24.698  1.00  0.00     0.054 A 
BRANCH  84  85
ATOM     85  S   UNL A   1      44.539  19.280  24.071  1.00  0.00     0.124 S 
ATOM     86  O   UNL A   1      43.336  18.862  24.784  1.00  0.00    -0.237 OA
ATOM     87  O   UNL A   1      44.382  19.495  22.636  1.00  0.00    -0.237 OA
ATOM     88  O   UNL A   1      45.768  18.588  24.459  1.00  0.00    -0.744 OA
ENDBRANCH  84  85
ENDBRANCH  56  79
BRANCH  68  89
ATOM     89  C   UNL A   1      50.496  28.037  26.020  1.00  0.00    -0.014 A 
ATOM     90  C   UNL A   1      50.963  28.376  24.737  1.00  0.00     0.010 A 
ATOM     91  C   UNL A   1      51.414  27.570  26.979  1.00  0.00     0.010 A 
ATOM     92  C   UNL A   1      52.305  28.188  24.401  1.00  0.00     0.020 A 
ATOM     93  C   UNL A   1      52.764  27.415  26.658  1.00  0.00     0.020 A 
ATOM     94  C   UNL A   1      53.196  27.699  25.362  1.00  0.00     0.054 A 
BRANCH  94  95
ATOM     95  S   UNL A   1      54.931  27.452  24.899  1.00  0.00     0.124 S 
ATOM     96  O   UNL A   1      55.557  27.196  26.193  1.00  0.00    -0.237 OA
ATOM     97  O   UNL A   1      54.863  26.305  23.996  1.00  0.00    -0.237 OA
ATOM     98  O   UNL A   1      55.303  28.715  24.265  1.00  0.00    -0.744 OA
ENDBRANCH  94  95
ENDBRANCH  68  89
ENDBRANCH  42  43
ENDBRANCH  35  37
ENDBRANCH  34  35
ENDBRANCH  33  34
ENDBRANCH  32  33
ENDBRANCH  31  32
ENDBRANCH  30  31
ENDBRANCH   1  30
TORSDOF 25
ENDMDL
