MODEL 1
REMARK VINA RESULT:      -9.9      0.000      0.000
REMARK SMILES O=C(OCCOCCOCCOC(=O)c1cnccc1C(=O)Nc1ccc(Cl)c(Cl)c1)c1ccc(-c2c3nc(c(-c4ccc(S(=O)(=O)[O-])cc4)c4ccc([nH]4)c(-c4ccc(S(=O)(=O)[O-])cc4)c4nc(c(-c5ccc(S(=O)(=O)[O-])cc5)c5ccc2[nH]5)C=C4)C=C3)cc1
REMARK SMILES IDX 7 1 6 2 5 3 4 4 3 5 2 6 1 7 32 8 33 9 91 10 34 11 90 12
REMARK SMILES IDX 35 13 36 14 37 15 84 16 38 17 89 18 83 19 85 20 39 21 88 22
REMARK SMILES IDX 82 23 81 24 40 26 70 27 51 28 69 29 52 30 55 31 68 32 86 33
REMARK SMILES IDX 53 34 54 35 67 37 87 38 56 39 41 40 42 41 50 42 43 43 49 44
REMARK SMILES IDX 44 45 45 46 46 47 47 48 48 49 71 50 72 51 80 52 73 53 79 54
REMARK SMILES IDX 74 55 75 56 76 57 77 58 78 59 57 60 58 61 66 62 59 63 65 64
REMARK SMILES IDX 60 65 61 66 62 67 63 68 64 69 8 70 9 71 10 72 11 73 12 74
REMARK SMILES IDX 13 75 14 76 15 77 16 78 20 79 17 80 19 81 18 82 21 83 22 84
REMARK SMILES IDX 23 85 24 87 25 88 31 89 26 90 29 91 27 92 30 93 28 94
REMARK H PARENT 85 25 55 36 23 86
REMARK Flexibility Score: inf
ROOT
ATOM      1  C   UNL A   1      40.670  20.890  26.315  1.00  0.00     0.188 C 
ENDROOT
BRANCH   1   2
ATOM      2  O   UNL A   1      41.025  19.561  25.968  1.00  0.00    -0.376 OA
BRANCH   2   3
ATOM      3  C   UNL A   1      42.144  19.012  26.667  1.00  0.00     0.202 C 
BRANCH   3   4
ATOM      4  C   UNL A   1      43.219  18.402  25.760  1.00  0.00     0.261 C 
BRANCH   4   5
ATOM      5  O   UNL A   1      43.444  19.289  24.658  1.00  0.00    -0.460 OA
BRANCH   5   6
ATOM      6  C   UNL A   1      44.684  19.832  24.558  1.00  0.00     0.338 C 
ATOM      7  O   UNL A   1      45.718  19.295  24.220  1.00  0.00    -0.246 OA
BRANCH   6   8
ATOM      8  C   UNL A   1      44.517  21.198  25.078  1.00  0.00     0.060 A 
ATOM      9  C   UNL A   1      44.305  22.197  24.125  1.00  0.00     0.016 A 
ATOM     10  C   UNL A   1      44.735  21.521  26.413  1.00  0.00     0.016 A 
ATOM     11  C   UNL A   1      44.471  23.519  24.452  1.00  0.00     0.010 A 
ATOM     12  C   UNL A   1      44.818  22.873  26.765  1.00  0.00     0.010 A 
ATOM     13  C   UNL A   1      44.730  23.871  25.774  1.00  0.00    -0.014 A 
BRANCH  13  14
ATOM     14  C   UNL A   1      45.016  25.290  26.054  1.00  0.00     0.031 A 
ATOM     15  C   UNL A   1      46.412  25.793  25.879  1.00  0.00     0.074 A 
ATOM     16  C   UNL A   1      44.005  26.141  26.314  1.00  0.00     0.049 A 
ATOM     17  N   UNL A   1      46.907  26.953  26.209  1.00  0.00    -0.248 NA
ATOM     18  C   UNL A   1      47.371  24.891  25.217  1.00  0.00     0.031 C 
ATOM     19  C   UNL A   1      42.585  25.790  26.283  1.00  0.00     0.029 A 
ATOM     20  N   UNL A   1      44.005  27.470  26.641  1.00  0.00    -0.354 N 
ATOM     21  C   UNL A   1      48.239  26.911  25.827  1.00  0.00     0.074 A 
ATOM     22  C   UNL A   1      48.481  25.616  25.233  1.00  0.00     0.031 C 
ATOM     23  C   UNL A   1      41.852  26.865  26.600  1.00  0.00     0.029 A 
ATOM     24  C   UNL A   1      42.754  27.932  26.979  1.00  0.00     0.049 A 
ATOM     25  H   UNL A   1      44.812  28.033  26.635  1.00  0.00     0.167 HD
ATOM     26  C   UNL A   1      49.169  27.879  25.980  1.00  0.00     0.031 A 
ATOM     27  C   UNL A   1      42.381  29.048  27.627  1.00  0.00     0.031 A 
ATOM     28  C   UNL A   1      48.880  29.153  26.577  1.00  0.00     0.049 A 
ATOM     29  C   UNL A   1      43.460  30.017  27.990  1.00  0.00     0.074 A 
ATOM     30  C   UNL A   1      49.739  30.207  26.824  1.00  0.00     0.029 A 
ATOM     31  N   UNL A   1      47.625  29.539  27.031  1.00  0.00    -0.354 N 
ATOM     32  N   UNL A   1      44.738  29.951  27.700  1.00  0.00    -0.248 NA
ATOM     33  C   UNL A   1      43.064  31.195  28.765  1.00  0.00     0.031 C 
ATOM     34  C   UNL A   1      49.015  31.205  27.486  1.00  0.00     0.029 A 
ATOM     35  C   UNL A   1      47.695  30.795  27.603  1.00  0.00     0.049 A 
ATOM     36  H   UNL A   1      46.807  28.998  26.957  1.00  0.00     0.167 HD
ATOM     37  C   UNL A   1      45.302  31.094  28.239  1.00  0.00     0.074 A 
ATOM     38  C   UNL A   1      44.221  31.836  28.864  1.00  0.00     0.031 C 
ATOM     39  C   UNL A   1      46.594  31.496  28.216  1.00  0.00     0.031 A 
BRANCH  26  40
ATOM     40  C   UNL A   1      50.581  27.555  25.587  1.00  0.00    -0.014 A 
ATOM     41  C   UNL A   1      51.017  27.629  24.253  1.00  0.00     0.010 A 
ATOM     42  C   UNL A   1      51.497  27.187  26.590  1.00  0.00     0.010 A 
ATOM     43  C   UNL A   1      52.344  27.323  23.929  1.00  0.00     0.020 A 
ATOM     44  C   UNL A   1      52.825  26.898  26.272  1.00  0.00     0.020 A 
ATOM     45  C   UNL A   1      53.238  26.960  24.940  1.00  0.00     0.054 A 
BRANCH  45  46
ATOM     46  S   UNL A   1      54.962  26.606  24.498  1.00  0.00     0.124 S 
ATOM     47  O   UNL A   1      55.111  25.224  24.947  1.00  0.00    -0.237 OA
ATOM     48  O   UNL A   1      54.967  26.801  23.051  1.00  0.00    -0.237 OA
ATOM     49  O   UNL A   1      55.726  27.592  25.260  1.00  0.00    -0.744 OA
ENDBRANCH  45  46
ENDBRANCH  26  40
BRANCH  27  50
ATOM     50  C   UNL A   1      40.981  29.201  28.110  1.00  0.00    -0.014 A 
ATOM     51  C   UNL A   1      39.907  29.364  27.222  1.00  0.00     0.010 A 
ATOM     52  C   UNL A   1      40.725  29.189  29.498  1.00  0.00     0.010 A 
ATOM     53  C   UNL A   1      38.608  29.546  27.713  1.00  0.00     0.020 A 
ATOM     54  C   UNL A   1      39.429  29.344  29.990  1.00  0.00     0.020 A 
ATOM     55  C   UNL A   1      38.378  29.542  29.093  1.00  0.00     0.054 A 
BRANCH  55  56
ATOM     56  S   UNL A   1      36.691  29.779  29.715  1.00  0.00     0.124 S 
ATOM     57  O   UNL A   1      35.886  29.292  28.600  1.00  0.00    -0.237 OA
ATOM     58  O   UNL A   1      36.674  28.952  30.920  1.00  0.00    -0.237 OA
ATOM     59  O   UNL A   1      36.621  31.219  29.961  1.00  0.00    -0.744 OA
ENDBRANCH  55  56
ENDBRANCH  27  50
BRANCH  39  60
ATOM     60  C   UNL A   1      46.892  32.812  28.862  1.00  0.00    -0.014 A 
ATOM     61  C   UNL A   1      47.476  32.869  30.137  1.00  0.00     0.010 A 
ATOM     62  C   UNL A   1      46.632  33.999  28.156  1.00  0.00     0.010 A 
ATOM     63  C   UNL A   1      47.786  34.103  30.706  1.00  0.00     0.020 A 
ATOM     64  C   UNL A   1      46.967  35.232  28.711  1.00  0.00     0.020 A 
ATOM     65  C   UNL A   1      47.535  35.276  29.986  1.00  0.00     0.054 A 
BRANCH  65  66
ATOM     66  S   UNL A   1      48.017  36.862  30.715  1.00  0.00     0.124 S 
ATOM     67  O   UNL A   1      47.249  36.870  31.957  1.00  0.00    -0.237 OA
ATOM     68  O   UNL A   1      49.463  36.718  30.868  1.00  0.00    -0.237 OA
ATOM     69  O   UNL A   1      47.597  37.842  29.716  1.00  0.00    -0.744 OA
ENDBRANCH  65  66
ENDBRANCH  39  60
ENDBRANCH  13  14
ENDBRANCH   6   8
ENDBRANCH   5   6
ENDBRANCH   4   5
ENDBRANCH   3   4
ENDBRANCH   2   3
ENDBRANCH   1   2
BRANCH   1  70
ATOM     70  C   UNL A   1      39.281  21.375  25.834  1.00  0.00     0.188 C 
BRANCH  70  71
ATOM     71  O   UNL A   1      38.718  22.652  26.124  1.00  0.00    -0.376 OA
BRANCH  71  72
ATOM     72  C   UNL A   1      37.335  22.871  26.010  1.00  0.00     0.202 C 
BRANCH  72  73
ATOM     73  C   UNL A   1      36.809  23.995  25.090  1.00  0.00     0.261 C 
BRANCH  73  74
ATOM     74  O   UNL A   1      35.467  24.214  24.590  1.00  0.00    -0.460 OA
BRANCH  74  75
ATOM     75  C   UNL A   1      34.870  23.714  23.504  1.00  0.00     0.340 C 
ATOM     76  O   UNL A   1      35.380  23.155  22.558  1.00  0.00    -0.246 OA
BRANCH  75  77
ATOM     77  C   UNL A   1      33.397  23.856  23.578  1.00  0.00     0.091 A 
ATOM     78  C   UNL A   1      32.773  23.125  24.589  1.00  0.00     0.127 A 
ATOM     79  C   UNL A   1      32.566  24.619  22.752  1.00  0.00     0.057 A 
ATOM     80  N   UNL A   1      31.442  23.145  24.850  1.00  0.00    -0.264 NA
ATOM     81  C   UNL A   1      31.184  24.665  23.013  1.00  0.00     0.035 A 
ATOM     82  C   UNL A   1      30.677  23.931  24.068  1.00  0.00     0.112 A 
BRANCH  79  83
ATOM     83  C   UNL A   1      33.019  25.511  21.671  1.00  0.00     0.256 C 
ATOM     84  O   UNL A   1      33.270  24.994  20.581  1.00  0.00    -0.269 OA
ATOM     85  N   UNL A   1      33.133  26.875  21.779  1.00  0.00    -0.322 N 
ATOM     86  H   UNL A   1      33.391  27.311  20.936  1.00  0.00     0.170 HD
BRANCH  85  87
ATOM     87  C   UNL A   1      32.961  27.775  22.838  1.00  0.00     0.043 A 
ATOM     88  C   UNL A   1      33.846  27.921  23.902  1.00  0.00     0.028 A 
ATOM     89  C   UNL A   1      31.775  28.520  22.824  1.00  0.00     0.048 A 
ATOM     90  C   UNL A   1      33.492  28.714  25.000  1.00  0.00     0.024 A 
ATOM     91  C   UNL A   1      31.413  29.304  23.923  1.00  0.00     0.061 A 
ATOM     92  C   UNL A   1      32.266  29.384  25.026  1.00  0.00     0.059 A 
ATOM     93  Cl  UNL A   1      29.876  30.095  23.872  1.00  0.00    -0.083 Cl
ATOM     94  Cl  UNL A   1      31.864  30.284  26.445  1.00  0.00    -0.083 Cl
ENDBRANCH  85  87
ENDBRANCH  79  83
ENDBRANCH  75  77
ENDBRANCH  74  75
ENDBRANCH  73  74
ENDBRANCH  72  73
ENDBRANCH  71  72
ENDBRANCH  70  71
ENDBRANCH   1  70
TORSDOF 22
ENDMDL
MODEL 2
REMARK VINA RESULT:      -9.7      2.757      9.687
REMARK SMILES O=C(OCCOCCOCCOC(=O)c1cnccc1C(=O)Nc1ccc(Cl)c(Cl)c1)c1ccc(-c2c3nc(c(-c4ccc(S(=O)(=O)[O-])cc4)c4ccc([nH]4)c(-c4ccc(S(=O)(=O)[O-])cc4)c4nc(c(-c5ccc(S(=O)(=O)[O-])cc5)c5ccc2[nH]5)C=C4)C=C3)cc1
REMARK SMILES IDX 7 1 6 2 5 3 4 4 3 5 2 6 1 7 32 8 33 9 91 10 34 11 90 12
REMARK SMILES IDX 35 13 36 14 37 15 84 16 38 17 89 18 83 19 85 20 39 21 88 22
REMARK SMILES IDX 82 23 81 24 40 26 70 27 51 28 69 29 52 30 55 31 68 32 86 33
REMARK SMILES IDX 53 34 54 35 67 37 87 38 56 39 41 40 42 41 50 42 43 43 49 44
REMARK SMILES IDX 44 45 45 46 46 47 47 48 48 49 71 50 72 51 80 52 73 53 79 54
REMARK SMILES IDX 74 55 75 56 76 57 77 58 78 59 57 60 58 61 66 62 59 63 65 64
REMARK SMILES IDX 60 65 61 66 62 67 63 68 64 69 8 70 9 71 10 72 11 73 12 74
REMARK SMILES IDX 13 75 14 76 15 77 16 78 20 79 17 80 19 81 18 82 21 83 22 84
REMARK SMILES IDX 23 85 24 87 25 88 31 89 26 90 29 91 27 92 30 93 28 94
REMARK H PARENT 85 25 55 36 23 86
REMARK Flexibility Score: inf
ROOT
ATOM      1  C   UNL A   1      34.031  32.627  28.219  1.00  0.00     0.188 C 
ENDROOT
BRANCH   1   2
ATOM      2  O   UNL A   1      34.363  32.935  29.562  1.00  0.00    -0.376 OA
BRANCH   2   3
ATOM      3  C   UNL A   1      35.666  32.534  29.991  1.00  0.00     0.202 C 
BRANCH   3   4
ATOM      4  C   UNL A   1      35.708  31.909  31.390  1.00  0.00     0.261 C 
BRANCH   4   5
ATOM      5  O   UNL A   1      36.861  31.065  31.479  1.00  0.00    -0.460 OA
BRANCH   5   6
ATOM      6  C   UNL A   1      38.052  31.681  31.692  1.00  0.00     0.338 C 
ATOM      7  O   UNL A   1      38.272  32.710  32.296  1.00  0.00    -0.246 OA
BRANCH   6   8
ATOM      8  C   UNL A   1      39.009  30.883  30.910  1.00  0.00     0.060 A 
ATOM      9  C   UNL A   1      40.121  30.401  31.606  1.00  0.00     0.016 A 
ATOM     10  C   UNL A   1      38.925  30.760  29.528  1.00  0.00     0.016 A 
ATOM     11  C   UNL A   1      41.224  29.947  30.928  1.00  0.00     0.010 A 
ATOM     12  C   UNL A   1      40.016  30.215  28.841  1.00  0.00     0.010 A 
ATOM     13  C   UNL A   1      41.183  29.850  29.540  1.00  0.00    -0.014 A 
BRANCH  13  14
ATOM     14  C   UNL A   1      42.430  29.468  28.852  1.00  0.00     0.031 A 
ATOM     15  C   UNL A   1      42.573  28.072  28.337  1.00  0.00     0.074 A 
ATOM     16  C   UNL A   1      43.353  30.405  28.564  1.00  0.00     0.049 A 
ATOM     17  N   UNL A   1      43.628  27.491  27.842  1.00  0.00    -0.248 NA
ATOM     18  C   UNL A   1      41.364  27.228  28.348  1.00  0.00     0.031 C 
ATOM     19  C   UNL A   1      43.204  31.837  28.823  1.00  0.00     0.029 A 
ATOM     20  N   UNL A   1      44.588  30.308  27.982  1.00  0.00    -0.354 N 
ATOM     21  C   UNL A   1      43.226  26.205  27.512  1.00  0.00     0.074 A 
ATOM     22  C   UNL A   1      41.826  26.087  27.855  1.00  0.00     0.031 C 
ATOM     23  C   UNL A   1      44.308  32.481  28.426  1.00  0.00     0.029 A 
ATOM     24  C   UNL A   1      45.282  31.495  28.008  1.00  0.00     0.049 A 
ATOM     25  H   UNL A   1      44.941  29.478  27.586  1.00  0.00     0.167 HD
ATOM     26  C   UNL A   1      43.979  25.218  26.980  1.00  0.00     0.031 A 
ATOM     27  C   UNL A   1      46.589  31.748  27.826  1.00  0.00     0.031 A 
ATOM     28  C   UNL A   1      45.368  25.384  26.655  1.00  0.00     0.049 A 
ATOM     29  C   UNL A   1      47.459  30.592  27.450  1.00  0.00     0.074 A 
ATOM     30  C   UNL A   1      46.254  24.454  26.145  1.00  0.00     0.029 A 
ATOM     31  N   UNL A   1      46.076  26.568  26.821  1.00  0.00    -0.354 N 
ATOM     32  N   UNL A   1      47.100  29.353  27.210  1.00  0.00    -0.248 NA
ATOM     33  C   UNL A   1      48.895  30.851  27.328  1.00  0.00     0.031 C 
ATOM     34  C   UNL A   1      47.513  25.060  26.064  1.00  0.00     0.029 A 
ATOM     35  C   UNL A   1      47.399  26.381  26.471  1.00  0.00     0.049 A 
ATOM     36  H   UNL A   1      45.691  27.416  27.140  1.00  0.00     0.167 HD
ATOM     37  C   UNL A   1      48.265  28.683  26.883  1.00  0.00     0.074 A 
ATOM     38  C   UNL A   1      49.338  29.660  26.950  1.00  0.00     0.031 C 
ATOM     39  C   UNL A   1      48.435  27.381  26.555  1.00  0.00     0.031 A 
BRANCH  26  40
ATOM     40  C   UNL A   1      43.342  23.869  26.816  1.00  0.00    -0.014 A 
ATOM     41  C   UNL A   1      42.933  23.388  25.560  1.00  0.00     0.010 A 
ATOM     42  C   UNL A   1      43.170  23.058  27.952  1.00  0.00     0.010 A 
ATOM     43  C   UNL A   1      42.347  22.122  25.449  1.00  0.00     0.020 A 
ATOM     44  C   UNL A   1      42.601  21.787  27.843  1.00  0.00     0.020 A 
ATOM     45  C   UNL A   1      42.186  21.331  26.591  1.00  0.00     0.054 A 
BRANCH  45  46
ATOM     46  S   UNL A   1      41.458  19.677  26.414  1.00  0.00     0.124 S 
ATOM     47  O   UNL A   1      42.251  19.114  25.325  1.00  0.00    -0.237 OA
ATOM     48  O   UNL A   1      41.686  19.086  27.729  1.00  0.00    -0.237 OA
ATOM     49  O   UNL A   1      40.059  19.946  26.089  1.00  0.00    -0.744 OA
ENDBRANCH  45  46
ENDBRANCH  26  40
BRANCH  27  50
ATOM     50  C   UNL A   1      47.148  33.084  28.167  1.00  0.00    -0.014 A 
ATOM     51  C   UNL A   1      47.695  33.357  29.429  1.00  0.00     0.010 A 
ATOM     52  C   UNL A   1      47.122  34.110  27.197  1.00  0.00     0.010 A 
ATOM     53  C   UNL A   1      48.175  34.638  29.728  1.00  0.00     0.020 A 
ATOM     54  C   UNL A   1      47.623  35.381  27.482  1.00  0.00     0.020 A 
ATOM     55  C   UNL A   1      48.129  35.643  28.756  1.00  0.00     0.054 A 
BRANCH  55  56
ATOM     56  S   UNL A   1      48.754  37.298  29.157  1.00  0.00     0.124 S 
ATOM     57  O   UNL A   1      48.181  38.106  28.085  1.00  0.00    -0.237 OA
ATOM     58  O   UNL A   1      48.206  37.534  30.491  1.00  0.00    -0.237 OA
ATOM     59  O   UNL A   1      50.205  37.130  29.113  1.00  0.00    -0.744 OA
ENDBRANCH  55  56
ENDBRANCH  27  50
BRANCH  39  60
ATOM     60  C   UNL A   1      49.828  26.956  26.215  1.00  0.00    -0.014 A 
ATOM     61  C   UNL A   1      50.665  26.395  27.192  1.00  0.00     0.010 A 
ATOM     62  C   UNL A   1      50.279  27.075  24.889  1.00  0.00     0.010 A 
ATOM     63  C   UNL A   1      51.946  25.965  26.848  1.00  0.00     0.020 A 
ATOM     64  C   UNL A   1      51.548  26.621  24.537  1.00  0.00     0.020 A 
ATOM     65  C   UNL A   1      52.376  26.076  25.521  1.00  0.00     0.054 A 
BRANCH  65  66
ATOM     66  S   UNL A   1      54.015  25.442  25.085  1.00  0.00     0.124 S 
ATOM     67  O   UNL A   1      54.768  25.678  26.313  1.00  0.00    -0.237 OA
ATOM     68  O   UNL A   1      53.743  24.041  24.771  1.00  0.00    -0.237 OA
ATOM     69  O   UNL A   1      54.410  26.264  23.943  1.00  0.00    -0.744 OA
ENDBRANCH  65  66
ENDBRANCH  39  60
ENDBRANCH  13  14
ENDBRANCH   6   8
ENDBRANCH   5   6
ENDBRANCH   4   5
ENDBRANCH   3   4
ENDBRANCH   2   3
ENDBRANCH   1   2
BRANCH   1  70
ATOM     70  C   UNL A   1      34.313  31.176  27.759  1.00  0.00     0.188 C 
BRANCH  70  71
ATOM     71  O   UNL A   1      33.755  30.564  26.599  1.00  0.00    -0.376 OA
BRANCH  71  72
ATOM     72  C   UNL A   1      32.464  30.011  26.627  1.00  0.00     0.202 C 
BRANCH  72  73
ATOM     73  C   UNL A   1      32.162  28.726  25.825  1.00  0.00     0.261 C 
BRANCH  73  74
ATOM     74  O   UNL A   1      32.513  27.355  26.130  1.00  0.00    -0.460 OA
BRANCH  74  75
ATOM     75  C   UNL A   1      33.338  26.522  25.488  1.00  0.00     0.340 C 
ATOM     76  O   UNL A   1      34.316  25.953  25.922  1.00  0.00    -0.246 OA
BRANCH  75  77
ATOM     77  C   UNL A   1      32.894  26.280  24.095  1.00  0.00     0.091 A 
ATOM     78  C   UNL A   1      33.804  26.643  23.103  1.00  0.00     0.127 A 
ATOM     79  C   UNL A   1      31.675  25.747  23.663  1.00  0.00     0.057 A 
ATOM     80  N   UNL A   1      33.608  26.471  21.771  1.00  0.00    -0.264 NA
ATOM     81  C   UNL A   1      31.455  25.546  22.288  1.00  0.00     0.035 A 
ATOM     82  C   UNL A   1      32.444  25.907  21.393  1.00  0.00     0.112 A 
BRANCH  79  83
ATOM     83  C   UNL A   1      30.604  25.240  24.538  1.00  0.00     0.256 C 
ATOM     84  O   UNL A   1      29.611  25.955  24.686  1.00  0.00    -0.269 OA
ATOM     85  N   UNL A   1      30.615  24.016  25.159  1.00  0.00    -0.322 N 
ATOM     86  H   UNL A   1      29.786  23.824  25.654  1.00  0.00     0.170 HD
BRANCH  85  87
ATOM     87  C   UNL A   1      31.557  22.983  25.235  1.00  0.00     0.043 A 
ATOM     88  C   UNL A   1      32.625  22.953  26.126  1.00  0.00     0.028 A 
ATOM     89  C   UNL A   1      31.420  21.955  24.293  1.00  0.00     0.048 A 
ATOM     90  C   UNL A   1      33.613  21.969  26.000  1.00  0.00     0.024 A 
ATOM     91  C   UNL A   1      32.410  20.978  24.155  1.00  0.00     0.061 A 
ATOM     92  C   UNL A   1      33.522  20.998  24.999  1.00  0.00     0.059 A 
ATOM     93  Cl  UNL A   1      32.219  19.818  22.888  1.00  0.00    -0.083 Cl
ATOM     94  Cl  UNL A   1      34.816  19.861  24.854  1.00  0.00    -0.083 Cl
ENDBRANCH  85  87
ENDBRANCH  79  83
ENDBRANCH  75  77
ENDBRANCH  74  75
ENDBRANCH  73  74
ENDBRANCH  72  73
ENDBRANCH  71  72
ENDBRANCH  70  71
ENDBRANCH   1  70
TORSDOF 22
ENDMDL
MODEL 3
REMARK VINA RESULT:      -9.4      2.529      8.779
REMARK SMILES O=C(OCCOCCOCCOC(=O)c1cnccc1C(=O)Nc1ccc(Cl)c(Cl)c1)c1ccc(-c2c3nc(c(-c4ccc(S(=O)(=O)[O-])cc4)c4ccc([nH]4)c(-c4ccc(S(=O)(=O)[O-])cc4)c4nc(c(-c5ccc(S(=O)(=O)[O-])cc5)c5ccc2[nH]5)C=C4)C=C3)cc1
REMARK SMILES IDX 7 1 6 2 5 3 4 4 3 5 2 6 1 7 32 8 33 9 91 10 34 11 90 12
REMARK SMILES IDX 35 13 36 14 37 15 84 16 38 17 89 18 83 19 85 20 39 21 88 22
REMARK SMILES IDX 82 23 81 24 40 26 70 27 51 28 69 29 52 30 55 31 68 32 86 33
REMARK SMILES IDX 53 34 54 35 67 37 87 38 56 39 41 40 42 41 50 42 43 43 49 44
REMARK SMILES IDX 44 45 45 46 46 47 47 48 48 49 71 50 72 51 80 52 73 53 79 54
REMARK SMILES IDX 74 55 75 56 76 57 77 58 78 59 57 60 58 61 66 62 59 63 65 64
REMARK SMILES IDX 60 65 61 66 62 67 63 68 64 69 8 70 9 71 10 72 11 73 12 74
REMARK SMILES IDX 13 75 14 76 15 77 16 78 20 79 17 80 19 81 18 82 21 83 22 84
REMARK SMILES IDX 23 85 24 87 25 88 31 89 26 90 29 91 27 92 30 93 28 94
REMARK H PARENT 85 25 55 36 23 86
REMARK Flexibility Score: inf
ROOT
ATOM      1  C   UNL A   1      41.302  20.864  26.289  1.00  0.00     0.188 C 
ENDROOT
BRANCH   1   2
ATOM      2  O   UNL A   1      41.918  20.058  27.278  1.00  0.00    -0.376 OA
BRANCH   2   3
ATOM      3  C   UNL A   1      42.465  18.819  26.823  1.00  0.00     0.202 C 
BRANCH   3   4
ATOM      4  C   UNL A   1      42.971  18.844  25.376  1.00  0.00     0.261 C 
BRANCH   4   5
ATOM      5  O   UNL A   1      44.302  19.372  25.367  1.00  0.00    -0.460 OA
BRANCH   5   6
ATOM      6  C   UNL A   1      44.584  20.298  24.415  1.00  0.00     0.338 C 
ATOM      7  O   UNL A   1      44.905  20.119  23.259  1.00  0.00    -0.246 OA
BRANCH   6   8
ATOM      8  C   UNL A   1      44.536  21.578  25.140  1.00  0.00     0.060 A 
ATOM      9  C   UNL A   1      44.255  22.710  24.371  1.00  0.00     0.016 A 
ATOM     10  C   UNL A   1      44.923  21.697  26.470  1.00  0.00     0.016 A 
ATOM     11  C   UNL A   1      44.514  23.966  24.860  1.00  0.00     0.010 A 
ATOM     12  C   UNL A   1      45.103  22.981  26.998  1.00  0.00     0.010 A 
ATOM     13  C   UNL A   1      44.941  24.114  26.177  1.00  0.00    -0.014 A 
BRANCH  13  14
ATOM     14  C   UNL A   1      45.317  25.470  26.618  1.00  0.00     0.031 A 
ATOM     15  C   UNL A   1      44.257  26.371  27.167  1.00  0.00     0.074 A 
ATOM     16  C   UNL A   1      46.614  25.828  26.662  1.00  0.00     0.049 A 
ATOM     17  N   UNL A   1      44.340  27.635  27.469  1.00  0.00    -0.248 NA
ATOM     18  C   UNL A   1      42.943  25.764  27.447  1.00  0.00     0.031 C 
ATOM     19  C   UNL A   1      47.738  24.941  26.362  1.00  0.00     0.029 A 
ATOM     20  N   UNL A   1      47.214  27.014  26.986  1.00  0.00    -0.354 N 
ATOM     21  C   UNL A   1      43.085  27.988  27.942  1.00  0.00     0.074 A 
ATOM     22  C   UNL A   1      42.255  26.805  27.897  1.00  0.00     0.031 C 
ATOM     23  C   UNL A   1      48.887  25.616  26.491  1.00  0.00     0.029 A 
ATOM     24  C   UNL A   1      48.569  27.004  26.756  1.00  0.00     0.049 A 
ATOM     25  H   UNL A   1      46.727  27.791  27.346  1.00  0.00     0.167 HD
ATOM     26  C   UNL A   1      42.677  29.205  28.363  1.00  0.00     0.031 A 
ATOM     27  C   UNL A   1      49.447  28.016  26.656  1.00  0.00     0.031 A 
ATOM     28  C   UNL A   1      43.541  30.352  28.390  1.00  0.00     0.049 A 
ATOM     29  C   UNL A   1      48.927  29.394  26.910  1.00  0.00     0.074 A 
ATOM     30  C   UNL A   1      43.242  31.650  28.759  1.00  0.00     0.029 A 
ATOM     31  N   UNL A   1      44.880  30.335  28.021  1.00  0.00    -0.354 N 
ATOM     32  N   UNL A   1      47.720  29.748  27.284  1.00  0.00    -0.248 NA
ATOM     33  C   UNL A   1      49.863  30.504  26.724  1.00  0.00     0.031 C 
ATOM     34  C   UNL A   1      44.386  32.429  28.552  1.00  0.00     0.029 A 
ATOM     35  C   UNL A   1      45.410  31.607  28.106  1.00  0.00     0.049 A 
ATOM     36  H   UNL A   1      45.377  29.533  27.742  1.00  0.00     0.167 HD
ATOM     37  C   UNL A   1      47.754  31.125  27.403  1.00  0.00     0.074 A 
ATOM     38  C   UNL A   1      49.106  31.538  27.068  1.00  0.00     0.031 C 
ATOM     39  C   UNL A   1      46.761  31.973  27.760  1.00  0.00     0.031 A 
BRANCH  26  40
ATOM     40  C   UNL A   1      41.229  29.366  28.725  1.00  0.00    -0.014 A 
ATOM     41  C   UNL A   1      40.812  29.569  30.052  1.00  0.00     0.010 A 
ATOM     42  C   UNL A   1      40.266  29.332  27.700  1.00  0.00     0.010 A 
ATOM     43  C   UNL A   1      39.453  29.719  30.347  1.00  0.00     0.020 A 
ATOM     44  C   UNL A   1      38.910  29.499  27.989  1.00  0.00     0.020 A 
ATOM     45  C   UNL A   1      38.512  29.683  29.314  1.00  0.00     0.054 A 
BRANCH  45  46
ATOM     46  S   UNL A   1      36.758  29.919  29.719  1.00  0.00     0.124 S 
ATOM     47  O   UNL A   1      36.666  31.372  29.824  1.00  0.00    -0.237 OA
ATOM     48  O   UNL A   1      36.082  29.328  28.567  1.00  0.00    -0.237 OA
ATOM     49  O   UNL A   1      36.591  29.192  30.976  1.00  0.00    -0.744 OA
ENDBRANCH  45  46
ENDBRANCH  26  40
BRANCH  27  50
ATOM     50  C   UNL A   1      50.820  27.769  26.138  1.00  0.00    -0.014 A 
ATOM     51  C   UNL A   1      51.107  27.786  24.765  1.00  0.00     0.010 A 
ATOM     52  C   UNL A   1      51.864  27.502  27.050  1.00  0.00     0.010 A 
ATOM     53  C   UNL A   1      52.402  27.510  24.311  1.00  0.00     0.020 A 
ATOM     54  C   UNL A   1      53.161  27.251  26.603  1.00  0.00     0.020 A 
ATOM     55  C   UNL A   1      53.419  27.236  25.232  1.00  0.00     0.054 A 
BRANCH  55  56
ATOM     56  S   UNL A   1      55.092  26.878  24.630  1.00  0.00     0.124 S 
ATOM     57  O   UNL A   1      54.845  26.535  23.233  1.00  0.00    -0.237 OA
ATOM     58  O   UNL A   1      55.792  28.140  24.859  1.00  0.00    -0.237 OA
ATOM     59  O   UNL A   1      55.528  25.773  25.483  1.00  0.00    -0.744 OA
ENDBRANCH  55  56
ENDBRANCH  27  50
BRANCH  39  60
ATOM     60  C   UNL A   1      47.120  33.424  27.833  1.00  0.00    -0.014 A 
ATOM     61  C   UNL A   1      47.699  33.962  28.993  1.00  0.00     0.010 A 
ATOM     62  C   UNL A   1      46.922  34.239  26.706  1.00  0.00     0.010 A 
ATOM     63  C   UNL A   1      48.066  35.306  29.029  1.00  0.00     0.020 A 
ATOM     64  C   UNL A   1      47.313  35.575  26.729  1.00  0.00     0.020 A 
ATOM     65  C   UNL A   1      47.876  36.102  27.894  1.00  0.00     0.054 A 
BRANCH  65  66
ATOM     66  S   UNL A   1      48.431  37.825  27.940  1.00  0.00     0.124 S 
ATOM     67  O   UNL A   1      49.884  37.674  27.974  1.00  0.00    -0.237 OA
ATOM     68  O   UNL A   1      47.883  38.372  26.701  1.00  0.00    -0.237 OA
ATOM     69  O   UNL A   1      47.830  38.348  29.165  1.00  0.00    -0.744 OA
ENDBRANCH  65  66
ENDBRANCH  39  60
ENDBRANCH  13  14
ENDBRANCH   6   8
ENDBRANCH   5   6
ENDBRANCH   4   5
ENDBRANCH   3   4
ENDBRANCH   2   3
ENDBRANCH   1   2
BRANCH   1  70
ATOM     70  C   UNL A   1      39.769  21.040  26.405  1.00  0.00     0.188 C 
BRANCH  70  71
ATOM     71  O   UNL A   1      39.078  22.282  26.294  1.00  0.00    -0.376 OA
BRANCH  71  72
ATOM     72  C   UNL A   1      37.831  22.356  25.651  1.00  0.00     0.202 C 
BRANCH  72  73
ATOM     73  C   UNL A   1      37.048  23.688  25.647  1.00  0.00     0.261 C 
BRANCH  73  74
ATOM     74  O   UNL A   1      35.624  23.912  25.788  1.00  0.00    -0.460 OA
BRANCH  74  75
ATOM     75  C   UNL A   1      34.672  23.962  24.852  1.00  0.00     0.340 C 
ATOM     76  O   UNL A   1      34.803  23.943  23.648  1.00  0.00    -0.246 OA
BRANCH  75  77
ATOM     77  C   UNL A   1      33.318  23.988  25.452  1.00  0.00     0.091 A 
ATOM     78  C   UNL A   1      32.455  24.960  24.945  1.00  0.00     0.127 A 
ATOM     79  C   UNL A   1      32.812  23.169  26.466  1.00  0.00     0.057 A 
ATOM     80  N   UNL A   1      31.165  25.126  25.329  1.00  0.00    -0.264 NA
ATOM     81  C   UNL A   1      31.473  23.316  26.872  1.00  0.00     0.035 A 
ATOM     82  C   UNL A   1      30.694  24.287  26.273  1.00  0.00     0.112 A 
BRANCH  79  83
ATOM     83  C   UNL A   1      33.527  22.045  27.094  1.00  0.00     0.256 C 
ATOM     84  O   UNL A   1      33.961  22.219  28.235  1.00  0.00    -0.269 OA
ATOM     85  N   UNL A   1      33.700  20.810  26.520  1.00  0.00    -0.322 N 
ATOM     86  H   UNL A   1      34.148  20.165  27.113  1.00  0.00     0.170 HD
BRANCH  85  87
ATOM     87  C   UNL A   1      33.372  20.276  25.268  1.00  0.00     0.043 A 
ATOM     88  C   UNL A   1      32.570  20.911  24.324  1.00  0.00     0.028 A 
ATOM     89  C   UNL A   1      33.851  18.986  25.005  1.00  0.00     0.048 A 
ATOM     90  C   UNL A   1      32.153  20.217  23.182  1.00  0.00     0.024 A 
ATOM     91  C   UNL A   1      33.427  18.286  23.872  1.00  0.00     0.061 A 
ATOM     92  C   UNL A   1      32.557  18.897  22.967  1.00  0.00     0.059 A 
ATOM     93  Cl  UNL A   1      33.972  16.655  23.688  1.00  0.00    -0.083 Cl
ATOM     94  Cl  UNL A   1      31.942  18.078  21.575  1.00  0.00    -0.083 Cl
ENDBRANCH  85  87
ENDBRANCH  79  83
ENDBRANCH  75  77
ENDBRANCH  74  75
ENDBRANCH  73  74
ENDBRANCH  72  73
ENDBRANCH  71  72
ENDBRANCH  70  71
ENDBRANCH   1  70
TORSDOF 22
ENDMDL
