MODEL 1
REMARK VINA RESULT:     -10.3      0.000      0.000
REMARK SMILES Cc1ccc(NC(=O)C[C@H]2SC[C@H](C(=O)OCCOCCOCCOC(=O)c3ccc(-c4c5nc(c(-c6ccc(S(=O)(=O)[O-])cc6)c6ccc([nH]6)c(-c6ccc(S(=O)(=O)[O-])cc6)c6nc(c(-c7ccc(S(=O)(=O)[O-])cc7)c7ccc4[nH]7)C=C6)C=C5)cc3)NC2=O)cc1
REMARK SMILES IDX 20 1 19 2 18 3 17 4 16 5 14 6 15 7 13 8 10 9 11 10 89 11
REMARK SMILES IDX 12 12 88 13 90 14 9 16 7 17 6 18 8 20 5 21 1 22 2 23 3 24
REMARK SMILES IDX 92 25 4 26 91 27 21 28 22 29 23 30 24 31 25 32 26 33 27 34
REMARK SMILES IDX 28 35 29 36 87 37 30 38 86 39 31 40 32 41 33 42 80 43 34 44
REMARK SMILES IDX 85 45 79 46 81 47 35 48 84 49 78 50 77 51 36 53 66 54 47 55
REMARK SMILES IDX 65 56 48 57 51 58 64 59 82 60 49 61 50 62 63 64 83 65 52 66
REMARK SMILES IDX 37 67 38 68 46 69 39 70 45 71 40 72 41 73 42 74 43 75 44 76
REMARK SMILES IDX 67 77 68 78 76 79 69 80 75 81 70 82 71 83 72 84 73 85 74 86
REMARK SMILES IDX 53 87 54 88 62 89 55 90 61 91 56 92 57 93 58 94 59 95 60 96
REMARK H PARENT 88 15 6 19 81 52 51 63
REMARK Flexibility Score: inf
ROOT
ATOM      1  C   UNL A   1      40.667  23.112  26.919  1.00  0.00     0.188 C 
ENDROOT
BRANCH   1   2
ATOM      2  O   UNL A   1      39.279  22.971  26.676  1.00  0.00    -0.376 OA
BRANCH   2   3
ATOM      3  C   UNL A   1      38.952  21.747  26.044  1.00  0.00     0.202 C 
BRANCH   3   4
ATOM      4  C   UNL A   1      37.790  21.637  25.020  1.00  0.00     0.261 C 
BRANCH   4   5
ATOM      5  O   UNL A   1      36.242  21.282  25.436  1.00  0.00    -0.462 OA
BRANCH   5   6
ATOM      6  C   UNL A   1      34.829  21.316  25.256  1.00  0.00     0.329 C 
ATOM      7  O   UNL A   1      34.360  20.217  25.508  1.00  0.00    -0.250 OA
BRANCH   6   8
ATOM      8  C   UNL A   1      33.633  22.342  24.609  1.00  0.00     0.202 C 
ATOM      9  C   UNL A   1      31.409  24.318  23.540  1.00  0.00     0.145 C 
ATOM     10  S   UNL A   1      32.721  23.832  22.377  1.00  0.00    -0.145 SA
ATOM     11  C   UNL A   1      31.905  24.232  25.015  1.00  0.00     0.234 C 
ATOM     12  C   UNL A   1      33.129  22.263  23.153  1.00  0.00     0.107 C 
ATOM     13  N   UNL A   1      32.625  23.100  25.436  1.00  0.00    -0.341 N 
ATOM     14  O   UNL A   1      31.556  25.059  25.860  1.00  0.00    -0.274 OA
ATOM     15  H   UNL A   1      32.455  22.774  26.350  1.00  0.00     0.164 HD
BRANCH   9  16
ATOM     16  C   UNL A   1      30.848  25.604  22.899  1.00  0.00     0.124 C 
BRANCH  16  17
ATOM     17  C   UNL A   1      31.650  26.380  21.893  1.00  0.00     0.226 C 
ATOM     18  N   UNL A   1      32.521  27.346  22.259  1.00  0.00    -0.326 N 
ATOM     19  H   UNL A   1      33.126  27.631  21.536  1.00  0.00     0.169 HD
ATOM     20  O   UNL A   1      31.495  26.162  20.685  1.00  0.00    -0.275 OA
BRANCH  18  21
ATOM     21  C   UNL A   1      32.728  28.017  23.466  1.00  0.00     0.041 A 
ATOM     22  C   UNL A   1      32.844  29.963  27.299  1.00  0.00     0.044 C 
ATOM     23  C   UNL A   1      32.845  29.332  25.939  1.00  0.00    -0.051 A 
ATOM     24  C   UNL A   1      33.840  28.415  25.574  1.00  0.00     0.005 A 
ATOM     25  C   UNL A   1      31.805  29.599  25.047  1.00  0.00     0.005 A 
ATOM     26  C   UNL A   1      33.786  27.761  24.338  1.00  0.00     0.026 A 
ATOM     27  C   UNL A   1      31.739  28.931  23.829  1.00  0.00     0.026 A 
ENDBRANCH  18  21
ENDBRANCH  16  17
ENDBRANCH   9  16
ENDBRANCH   6   8
ENDBRANCH   5   6
ENDBRANCH   4   5
ENDBRANCH   3   4
ENDBRANCH   2   3
ENDBRANCH   1   2
BRANCH   1  28
ATOM     28  C   UNL A   1      41.472  22.148  26.038  1.00  0.00     0.188 C 
BRANCH  28  29
ATOM     29  O   UNL A   1      42.742  21.769  26.565  1.00  0.00    -0.376 OA
BRANCH  29  30
ATOM     30  C   UNL A   1      43.678  21.142  25.693  1.00  0.00     0.202 C 
BRANCH  30  31
ATOM     31  C   UNL A   1      44.611  22.194  25.086  1.00  0.00     0.261 C 
BRANCH  31  32
ATOM     32  O   UNL A   1      45.166  23.044  26.122  1.00  0.00    -0.460 OA
BRANCH  32  33
ATOM     33  C   UNL A   1      45.035  24.370  25.886  1.00  0.00     0.338 C 
ATOM     34  O   UNL A   1      45.327  24.936  24.838  1.00  0.00    -0.246 OA
BRANCH  33  35
ATOM     35  C   UNL A   1      44.762  25.043  27.178  1.00  0.00     0.060 A 
ATOM     36  C   UNL A   1      45.882  25.420  27.844  1.00  0.00     0.016 A 
ATOM     37  C   UNL A   1      43.564  24.990  27.900  1.00  0.00     0.016 A 
ATOM     38  C   UNL A   1      45.796  25.530  29.235  1.00  0.00     0.010 A 
ATOM     39  C   UNL A   1      43.520  25.210  29.320  1.00  0.00     0.010 A 
ATOM     40  C   UNL A   1      44.664  25.478  30.097  1.00  0.00    -0.014 A 
BRANCH  40  41
ATOM     41  C   UNL A   1      44.543  25.523  31.734  1.00  0.00     0.031 A 
ATOM     42  C   UNL A   1      44.164  26.870  32.298  1.00  0.00     0.074 A 
ATOM     43  C   UNL A   1      44.702  24.654  32.845  1.00  0.00     0.049 A 
ATOM     44  N   UNL A   1      44.001  27.124  33.559  1.00  0.00    -0.248 NA
ATOM     45  C   UNL A   1      43.999  28.066  31.478  1.00  0.00     0.031 C 
ATOM     46  C   UNL A   1      43.654  24.562  33.916  1.00  0.00     0.029 A 
ATOM     47  N   UNL A   1      45.397  23.480  33.202  1.00  0.00    -0.354 N 
ATOM     48  C   UNL A   1      43.247  28.256  33.636  1.00  0.00     0.074 A 
ATOM     49  C   UNL A   1      43.466  28.907  32.368  1.00  0.00     0.031 C 
ATOM     50  C   UNL A   1      43.916  23.564  34.783  1.00  0.00     0.029 A 
ATOM     51  C   UNL A   1      45.197  22.973  34.456  1.00  0.00     0.049 A 
ATOM     52  H   UNL A   1      46.008  23.039  32.567  1.00  0.00     0.167 HD
ATOM     53  C   UNL A   1      42.351  28.392  34.655  1.00  0.00     0.031 A 
ATOM     54  C   UNL A   1      46.162  22.400  35.243  1.00  0.00     0.031 A 
ATOM     55  C   UNL A   1      42.508  27.394  35.732  1.00  0.00     0.049 A 
ATOM     56  C   UNL A   1      46.180  23.181  36.528  1.00  0.00     0.074 A 
ATOM     57  C   UNL A   1      41.673  26.426  36.269  1.00  0.00     0.029 A 
ATOM     58  N   UNL A   1      43.754  27.183  36.329  1.00  0.00    -0.354 N 
ATOM     59  N   UNL A   1      45.358  24.171  36.706  1.00  0.00    -0.248 NA
ATOM     60  C   UNL A   1      47.103  23.046  37.646  1.00  0.00     0.031 C 
ATOM     61  C   UNL A   1      42.410  25.670  37.224  1.00  0.00     0.029 A 
ATOM     62  C   UNL A   1      43.690  26.191  37.298  1.00  0.00     0.049 A 
ATOM     63  H   UNL A   1      44.573  27.674  36.092  1.00  0.00     0.167 HD
ATOM     64  C   UNL A   1      45.610  24.824  37.855  1.00  0.00     0.074 A 
ATOM     65  C   UNL A   1      46.745  24.100  38.409  1.00  0.00     0.031 C 
ATOM     66  C   UNL A   1      44.838  25.900  38.174  1.00  0.00     0.031 A 
BRANCH  53  67
ATOM     67  C   UNL A   1      41.156  29.336  34.576  1.00  0.00    -0.014 A 
ATOM     68  C   UNL A   1      40.908  30.260  35.612  1.00  0.00     0.010 A 
ATOM     69  C   UNL A   1      40.202  29.322  33.537  1.00  0.00     0.010 A 
ATOM     70  C   UNL A   1      39.800  31.130  35.590  1.00  0.00     0.020 A 
ATOM     71  C   UNL A   1      39.125  30.213  33.472  1.00  0.00     0.020 A 
ATOM     72  C   UNL A   1      38.924  31.111  34.507  1.00  0.00     0.054 A 
BRANCH  72  73
ATOM     73  S   UNL A   1      37.538  32.273  34.429  1.00  0.00     0.124 S 
ATOM     74  O   UNL A   1      37.088  32.306  35.818  1.00  0.00    -0.237 OA
ATOM     75  O   UNL A   1      38.169  33.493  33.936  1.00  0.00    -0.237 OA
ATOM     76  O   UNL A   1      36.611  31.637  33.494  1.00  0.00    -0.744 OA
ENDBRANCH  72  73
ENDBRANCH  53  67
BRANCH  54  77
ATOM     77  C   UNL A   1      47.342  21.694  34.605  1.00  0.00    -0.014 A 
ATOM     78  C   UNL A   1      48.531  22.444  34.421  1.00  0.00     0.010 A 
ATOM     79  C   UNL A   1      47.443  20.294  34.452  1.00  0.00     0.010 A 
ATOM     80  C   UNL A   1      49.796  21.826  34.337  1.00  0.00     0.020 A 
ATOM     81  C   UNL A   1      48.715  19.658  34.341  1.00  0.00     0.020 A 
ATOM     82  C   UNL A   1      49.891  20.431  34.394  1.00  0.00     0.054 A 
BRANCH  82  83
ATOM     83  S   UNL A   1      51.432  19.726  35.214  1.00  0.00     0.124 S 
ATOM     84  O   UNL A   1      51.991  20.896  35.882  1.00  0.00    -0.237 OA
ATOM     85  O   UNL A   1      50.902  18.699  36.119  1.00  0.00    -0.237 OA
ATOM     86  O   UNL A   1      52.244  19.197  34.116  1.00  0.00    -0.744 OA
ENDBRANCH  82  83
ENDBRANCH  54  77
BRANCH  66  87
ATOM     87  C   UNL A   1      45.066  26.770  39.365  1.00  0.00    -0.014 A 
ATOM     88  C   UNL A   1      45.789  27.969  39.330  1.00  0.00     0.010 A 
ATOM     89  C   UNL A   1      44.573  26.337  40.615  1.00  0.00     0.010 A 
ATOM     90  C   UNL A   1      45.913  28.760  40.473  1.00  0.00     0.020 A 
ATOM     91  C   UNL A   1      44.717  27.101  41.768  1.00  0.00     0.020 A 
ATOM     92  C   UNL A   1      45.361  28.326  41.680  1.00  0.00     0.054 A 
BRANCH  92  93
ATOM     93  S   UNL A   1      45.515  29.379  43.136  1.00  0.00     0.124 S 
ATOM     94  O   UNL A   1      44.133  29.785  43.377  1.00  0.00    -0.237 OA
ATOM     95  O   UNL A   1      46.080  28.455  44.116  1.00  0.00    -0.237 OA
ATOM     96  O   UNL A   1      46.410  30.449  42.700  1.00  0.00    -0.744 OA
ENDBRANCH  92  93
ENDBRANCH  66  87
ENDBRANCH  40  41
ENDBRANCH  33  35
ENDBRANCH  32  33
ENDBRANCH  31  32
ENDBRANCH  30  31
ENDBRANCH  29  30
ENDBRANCH  28  29
ENDBRANCH   1  28
TORSDOF 23
ENDMDL
MODEL 2
REMARK VINA RESULT:      -9.9      6.568     12.100
REMARK SMILES Cc1ccc(NC(=O)C[C@H]2SC[C@H](C(=O)OCCOCCOCCOC(=O)c3ccc(-c4c5nc(c(-c6ccc(S(=O)(=O)[O-])cc6)c6ccc([nH]6)c(-c6ccc(S(=O)(=O)[O-])cc6)c6nc(c(-c7ccc(S(=O)(=O)[O-])cc7)c7ccc4[nH]7)C=C6)C=C5)cc3)NC2=O)cc1
REMARK SMILES IDX 20 1 19 2 18 3 17 4 16 5 14 6 15 7 13 8 10 9 11 10 89 11
REMARK SMILES IDX 12 12 88 13 90 14 9 16 7 17 6 18 8 20 5 21 1 22 2 23 3 24
REMARK SMILES IDX 92 25 4 26 91 27 21 28 22 29 23 30 24 31 25 32 26 33 27 34
REMARK SMILES IDX 28 35 29 36 87 37 30 38 86 39 31 40 32 41 33 42 80 43 34 44
REMARK SMILES IDX 85 45 79 46 81 47 35 48 84 49 78 50 77 51 36 53 66 54 47 55
REMARK SMILES IDX 65 56 48 57 51 58 64 59 82 60 49 61 50 62 63 64 83 65 52 66
REMARK SMILES IDX 37 67 38 68 46 69 39 70 45 71 40 72 41 73 42 74 43 75 44 76
REMARK SMILES IDX 67 77 68 78 76 79 69 80 75 81 70 82 71 83 72 84 73 85 74 86
REMARK SMILES IDX 53 87 54 88 62 89 55 90 61 91 56 92 57 93 58 94 59 95 60 96
REMARK H PARENT 88 15 6 19 81 52 51 63
REMARK Flexibility Score: inf
ROOT
ATOM      1  C   UNL A   1      35.484  31.574  28.478  1.00  0.00     0.188 C 
ENDROOT
BRANCH   1   2
ATOM      2  O   UNL A   1      34.720  30.477  28.013  1.00  0.00    -0.376 OA
BRANCH   2   3
ATOM      3  C   UNL A   1      33.543  30.874  27.332  1.00  0.00     0.202 C 
BRANCH   3   4
ATOM      4  C   UNL A   1      32.390  29.878  27.037  1.00  0.00     0.261 C 
BRANCH   4   5
ATOM      5  O   UNL A   1      32.497  28.663  25.936  1.00  0.00    -0.462 OA
BRANCH   5   6
ATOM      6  C   UNL A   1      31.954  27.679  25.062  1.00  0.00     0.329 C 
ATOM      7  O   UNL A   1      30.989  28.144  24.475  1.00  0.00    -0.250 OA
BRANCH   6   8
ATOM      8  C   UNL A   1      32.104  26.013  24.737  1.00  0.00     0.202 C 
ATOM      9  C   UNL A   1      32.473  22.956  24.022  1.00  0.00     0.145 C 
ATOM     10  S   UNL A   1      32.399  23.396  25.786  1.00  0.00    -0.145 SA
ATOM     11  C   UNL A   1      32.991  24.152  23.166  1.00  0.00     0.234 C 
ATOM     12  C   UNL A   1      31.447  24.909  25.592  1.00  0.00     0.107 C 
ATOM     13  N   UNL A   1      32.471  25.438  23.393  1.00  0.00    -0.341 N 
ATOM     14  O   UNL A   1      33.731  23.975  22.197  1.00  0.00    -0.274 OA
ATOM     15  H   UNL A   1      32.336  26.013  22.605  1.00  0.00     0.164 HD
BRANCH   9  16
ATOM     16  C   UNL A   1      33.144  21.568  24.048  1.00  0.00     0.124 C 
BRANCH  16  17
ATOM     17  C   UNL A   1      34.566  21.406  24.506  1.00  0.00     0.226 C 
ATOM     18  N   UNL A   1      35.100  20.195  24.779  1.00  0.00    -0.326 N 
ATOM     19  H   UNL A   1      36.081  20.203  24.868  1.00  0.00     0.169 HD
ATOM     20  O   UNL A   1      35.273  22.407  24.675  1.00  0.00    -0.275 OA
BRANCH  18  21
ATOM     21  C   UNL A   1      34.528  18.934  24.960  1.00  0.00     0.041 A 
ATOM     22  C   UNL A   1      32.298  15.278  25.345  1.00  0.00     0.044 C 
ATOM     23  C   UNL A   1      33.111  16.534  25.265  1.00  0.00    -0.051 A 
ATOM     24  C   UNL A   1      34.332  16.556  24.577  1.00  0.00     0.005 A 
ATOM     25  C   UNL A   1      32.618  17.720  25.814  1.00  0.00     0.005 A 
ATOM     26  C   UNL A   1      35.044  17.752  24.428  1.00  0.00     0.026 A 
ATOM     27  C   UNL A   1      33.313  18.912  25.644  1.00  0.00     0.026 A 
ENDBRANCH  18  21
ENDBRANCH  16  17
ENDBRANCH   9  16
ENDBRANCH   6   8
ENDBRANCH   5   6
ENDBRANCH   4   5
ENDBRANCH   3   4
ENDBRANCH   2   3
ENDBRANCH   1   2
BRANCH   1  28
ATOM     28  C   UNL A   1      34.615  32.526  29.311  1.00  0.00     0.188 C 
BRANCH  28  29
ATOM     29  O   UNL A   1      34.775  32.406  30.724  1.00  0.00    -0.376 OA
BRANCH  29  30
ATOM     30  C   UNL A   1      36.095  32.313  31.250  1.00  0.00     0.202 C 
BRANCH  30  31
ATOM     31  C   UNL A   1      36.199  31.106  32.188  1.00  0.00     0.261 C 
BRANCH  31  32
ATOM     32  O   UNL A   1      36.245  29.871  31.429  1.00  0.00    -0.460 OA
BRANCH  32  33
ATOM     33  C   UNL A   1      37.143  28.967  31.885  1.00  0.00     0.338 C 
ATOM     34  O   UNL A   1      37.278  28.632  33.057  1.00  0.00    -0.246 OA
BRANCH  33  35
ATOM     35  C   UNL A   1      38.104  28.683  30.794  1.00  0.00     0.060 A 
ATOM     36  C   UNL A   1      38.884  27.596  31.024  1.00  0.00     0.016 A 
ATOM     37  C   UNL A   1      38.515  29.578  29.800  1.00  0.00     0.016 A 
ATOM     38  C   UNL A   1      40.134  27.558  30.398  1.00  0.00     0.010 A 
ATOM     39  C   UNL A   1      39.772  29.434  29.117  1.00  0.00     0.010 A 
ATOM     40  C   UNL A   1      40.690  28.403  29.397  1.00  0.00    -0.014 A 
BRANCH  40  41
ATOM     41  C   UNL A   1      42.180  28.431  28.704  1.00  0.00     0.031 A 
ATOM     42  C   UNL A   1      42.910  27.111  28.734  1.00  0.00     0.074 A 
ATOM     43  C   UNL A   1      43.047  29.354  28.065  1.00  0.00     0.049 A 
ATOM     44  N   UNL A   1      44.088  26.908  28.234  1.00  0.00    -0.248 NA
ATOM     45  C   UNL A   1      42.388  25.919  29.395  1.00  0.00     0.031 C 
ATOM     46  C   UNL A   1      43.704  29.024  26.756  1.00  0.00     0.029 A 
ATOM     47  N   UNL A   1      43.302  30.741  28.026  1.00  0.00    -0.354 N 
ATOM     48  C   UNL A   1      44.207  25.563  28.044  1.00  0.00     0.074 A 
ATOM     49  C   UNL A   1      43.253  24.997  28.967  1.00  0.00     0.031 C 
ATOM     50  C   UNL A   1      44.346  30.091  26.241  1.00  0.00     0.029 A 
ATOM     51  C   UNL A   1      44.282  31.188  27.183  1.00  0.00     0.049 A 
ATOM     52  H   UNL A   1      42.791  31.367  28.588  1.00  0.00     0.167 HD
ATOM     53  C   UNL A   1      44.916  25.100  26.975  1.00  0.00     0.031 A 
ATOM     54  C   UNL A   1      45.160  32.206  27.457  1.00  0.00     0.031 A 
ATOM     55  C   UNL A   1      45.720  26.134  26.293  1.00  0.00     0.049 A 
ATOM     56  C   UNL A   1      46.539  31.625  27.314  1.00  0.00     0.074 A 
ATOM     57  C   UNL A   1      45.738  26.634  25.000  1.00  0.00     0.029 A 
ATOM     58  N   UNL A   1      46.591  26.951  27.020  1.00  0.00    -0.354 N 
ATOM     59  N   UNL A   1      46.696  30.382  26.972  1.00  0.00    -0.248 NA
ATOM     60  C   UNL A   1      47.814  32.263  27.610  1.00  0.00     0.031 C 
ATOM     61  C   UNL A   1      46.660  27.718  24.946  1.00  0.00     0.029 A 
ATOM     62  C   UNL A   1      47.232  27.867  26.197  1.00  0.00     0.049 A 
ATOM     63  H   UNL A   1      46.732  26.886  27.992  1.00  0.00     0.167 HD
ATOM     64  C   UNL A   1      47.990  30.014  27.022  1.00  0.00     0.074 A 
ATOM     65  C   UNL A   1      48.666  31.226  27.462  1.00  0.00     0.031 C 
ATOM     66  C   UNL A   1      48.312  28.729  26.706  1.00  0.00     0.031 A 
BRANCH  53  67
ATOM     67  C   UNL A   1      44.714  23.703  26.400  1.00  0.00    -0.014 A 
ATOM     68  C   UNL A   1      45.812  22.834  26.235  1.00  0.00     0.010 A 
ATOM     69  C   UNL A   1      43.475  23.205  25.942  1.00  0.00     0.010 A 
ATOM     70  C   UNL A   1      45.672  21.546  25.683  1.00  0.00     0.020 A 
ATOM     71  C   UNL A   1      43.308  21.910  25.439  1.00  0.00     0.020 A 
ATOM     72  C   UNL A   1      44.413  21.086  25.304  1.00  0.00     0.054 A 
BRANCH  72  73
ATOM     73  S   UNL A   1      44.206  19.407  24.660  1.00  0.00     0.124 S 
ATOM     74  O   UNL A   1      45.181  18.656  25.445  1.00  0.00    -0.237 OA
ATOM     75  O   UNL A   1      42.803  19.124  24.949  1.00  0.00    -0.237 OA
ATOM     76  O   UNL A   1      44.527  19.544  23.240  1.00  0.00    -0.744 OA
ENDBRANCH  72  73
ENDBRANCH  53  67
BRANCH  54  77
ATOM     77  C   UNL A   1      44.751  33.332  28.384  1.00  0.00    -0.014 A 
ATOM     78  C   UNL A   1      45.077  33.198  29.758  1.00  0.00     0.010 A 
ATOM     79  C   UNL A   1      44.340  34.612  27.949  1.00  0.00     0.010 A 
ATOM     80  C   UNL A   1      45.228  34.320  30.600  1.00  0.00     0.020 A 
ATOM     81  C   UNL A   1      44.465  35.750  28.800  1.00  0.00     0.020 A 
ATOM     82  C   UNL A   1      45.014  35.605  30.089  1.00  0.00     0.054 A 
BRANCH  82  83
ATOM     83  S   UNL A   1      46.071  36.985  30.811  1.00  0.00     0.124 S 
ATOM     84  O   UNL A   1      47.423  36.467  30.631  1.00  0.00    -0.237 OA
ATOM     85  O   UNL A   1      45.744  38.145  29.973  1.00  0.00    -0.237 OA
ATOM     86  O   UNL A   1      45.640  37.111  32.205  1.00  0.00    -0.744 OA
ENDBRANCH  82  83
ENDBRANCH  54  77
BRANCH  66  87
ATOM     87  C   UNL A   1      49.689  28.162  26.810  1.00  0.00    -0.014 A 
ATOM     88  C   UNL A   1      50.299  27.402  25.804  1.00  0.00     0.010 A 
ATOM     89  C   UNL A   1      50.404  28.356  28.012  1.00  0.00     0.010 A 
ATOM     90  C   UNL A   1      51.613  26.953  25.948  1.00  0.00     0.020 A 
ATOM     91  C   UNL A   1      51.702  27.886  28.180  1.00  0.00     0.020 A 
ATOM     92  C   UNL A   1      52.310  27.214  27.130  1.00  0.00     0.054 A 
BRANCH  92  93
ATOM     93  S   UNL A   1      54.014  26.642  27.280  1.00  0.00     0.124 S 
ATOM     94  O   UNL A   1      54.740  27.605  26.457  1.00  0.00    -0.237 OA
ATOM     95  O   UNL A   1      54.240  26.748  28.719  1.00  0.00    -0.237 OA
ATOM     96  O   UNL A   1      53.973  25.280  26.753  1.00  0.00    -0.744 OA
ENDBRANCH  92  93
ENDBRANCH  66  87
ENDBRANCH  40  41
ENDBRANCH  33  35
ENDBRANCH  32  33
ENDBRANCH  31  32
ENDBRANCH  30  31
ENDBRANCH  29  30
ENDBRANCH  28  29
ENDBRANCH   1  28
TORSDOF 23
ENDMDL
MODEL 3
REMARK VINA RESULT:      -9.8      6.680     12.198
REMARK SMILES Cc1ccc(NC(=O)C[C@H]2SC[C@H](C(=O)OCCOCCOCCOC(=O)c3ccc(-c4c5nc(c(-c6ccc(S(=O)(=O)[O-])cc6)c6ccc([nH]6)c(-c6ccc(S(=O)(=O)[O-])cc6)c6nc(c(-c7ccc(S(=O)(=O)[O-])cc7)c7ccc4[nH]7)C=C6)C=C5)cc3)NC2=O)cc1
REMARK SMILES IDX 20 1 19 2 18 3 17 4 16 5 14 6 15 7 13 8 10 9 11 10 89 11
REMARK SMILES IDX 12 12 88 13 90 14 9 16 7 17 6 18 8 20 5 21 1 22 2 23 3 24
REMARK SMILES IDX 92 25 4 26 91 27 21 28 22 29 23 30 24 31 25 32 26 33 27 34
REMARK SMILES IDX 28 35 29 36 87 37 30 38 86 39 31 40 32 41 33 42 80 43 34 44
REMARK SMILES IDX 85 45 79 46 81 47 35 48 84 49 78 50 77 51 36 53 66 54 47 55
REMARK SMILES IDX 65 56 48 57 51 58 64 59 82 60 49 61 50 62 63 64 83 65 52 66
REMARK SMILES IDX 37 67 38 68 46 69 39 70 45 71 40 72 41 73 42 74 43 75 44 76
REMARK SMILES IDX 67 77 68 78 76 79 69 80 75 81 70 82 71 83 72 84 73 85 74 86
REMARK SMILES IDX 53 87 54 88 62 89 55 90 61 91 56 92 57 93 58 94 59 95 60 96
REMARK H PARENT 88 15 6 19 81 52 51 63
REMARK Flexibility Score: inf
ROOT
ATOM      1  C   UNL A   1      35.115  32.696  29.094  1.00  0.00     0.188 C 
ENDROOT
BRANCH   1   2
ATOM      2  O   UNL A   1      34.186  31.966  28.316  1.00  0.00    -0.376 OA
BRANCH   2   3
ATOM      3  C   UNL A   1      33.153  32.778  27.785  1.00  0.00     0.202 C 
BRANCH   3   4
ATOM      4  C   UNL A   1      31.933  32.172  27.042  1.00  0.00     0.261 C 
BRANCH   4   5
ATOM      5  O   UNL A   1      32.044  30.927  25.976  1.00  0.00    -0.462 OA
BRANCH   5   6
ATOM      6  C   UNL A   1      31.734  29.622  25.498  1.00  0.00     0.329 C 
ATOM      7  O   UNL A   1      30.756  29.677  24.768  1.00  0.00    -0.250 OA
BRANCH   6   8
ATOM      8  C   UNL A   1      32.170  28.001  25.787  1.00  0.00     0.202 C 
ATOM      9  C   UNL A   1      32.845  24.952  26.279  1.00  0.00     0.145 C 
ATOM     10  S   UNL A   1      34.166  25.997  25.592  1.00  0.00    -0.145 SA
ATOM     11  C   UNL A   1      31.437  25.517  25.921  1.00  0.00     0.234 C 
ATOM     12  C   UNL A   1      33.573  27.559  26.255  1.00  0.00     0.107 C 
ATOM     13  N   UNL A   1      31.188  26.893  26.072  1.00  0.00    -0.341 N 
ATOM     14  O   UNL A   1      30.494  24.772  25.651  1.00  0.00    -0.274 OA
ATOM     15  H   UNL A   1      30.294  27.155  26.392  1.00  0.00     0.164 HD
BRANCH   9  16
ATOM     16  C   UNL A   1      33.314  23.529  25.911  1.00  0.00     0.124 C 
BRANCH  16  17
ATOM     17  C   UNL A   1      33.467  23.112  24.476  1.00  0.00     0.226 C 
ATOM     18  N   UNL A   1      34.602  22.549  24.007  1.00  0.00    -0.326 N 
ATOM     19  H   UNL A   1      34.505  22.139  23.118  1.00  0.00     0.169 HD
ATOM     20  O   UNL A   1      32.545  23.316  23.677  1.00  0.00    -0.275 OA
BRANCH  18  21
ATOM     21  C   UNL A   1      35.887  22.436  24.544  1.00  0.00     0.041 A 
ATOM     22  C   UNL A   1      39.631  22.302  26.654  1.00  0.00     0.044 C 
ATOM     23  C   UNL A   1      38.360  22.362  25.862  1.00  0.00    -0.051 A 
ATOM     24  C   UNL A   1      37.881  21.232  25.186  1.00  0.00     0.005 A 
ATOM     25  C   UNL A   1      37.599  23.533  25.855  1.00  0.00     0.005 A 
ATOM     26  C   UNL A   1      36.649  21.268  24.523  1.00  0.00     0.026 A 
ATOM     27  C   UNL A   1      36.364  23.561  25.216  1.00  0.00     0.026 A 
ENDBRANCH  18  21
ENDBRANCH  16  17
ENDBRANCH   9  16
ENDBRANCH   6   8
ENDBRANCH   5   6
ENDBRANCH   4   5
ENDBRANCH   3   4
ENDBRANCH   2   3
ENDBRANCH   1   2
BRANCH   1  28
ATOM     28  C   UNL A   1      34.433  33.298  30.331  1.00  0.00     0.188 C 
BRANCH  28  29
ATOM     29  O   UNL A   1      34.734  32.644  31.562  1.00  0.00    -0.376 OA
BRANCH  29  30
ATOM     30  C   UNL A   1      36.099  32.377  31.871  1.00  0.00     0.202 C 
BRANCH  30  31
ATOM     31  C   UNL A   1      36.234  30.973  32.468  1.00  0.00     0.261 C 
BRANCH  31  32
ATOM     32  O   UNL A   1      36.438  29.989  31.423  1.00  0.00    -0.460 OA
BRANCH  32  33
ATOM     33  C   UNL A   1      37.252  28.965  31.770  1.00  0.00     0.338 C 
ATOM     34  O   UNL A   1      37.333  28.473  32.891  1.00  0.00    -0.246 OA
BRANCH  33  35
ATOM     35  C   UNL A   1      38.211  28.744  30.664  1.00  0.00     0.060 A 
ATOM     36  C   UNL A   1      38.882  27.568  30.749  1.00  0.00     0.016 A 
ATOM     37  C   UNL A   1      38.730  29.726  29.810  1.00  0.00     0.016 A 
ATOM     38  C   UNL A   1      40.139  27.499  30.142  1.00  0.00     0.010 A 
ATOM     39  C   UNL A   1      39.986  29.559  29.131  1.00  0.00     0.010 A 
ATOM     40  C   UNL A   1      40.798  28.417  29.277  1.00  0.00    -0.014 A 
BRANCH  40  41
ATOM     41  C   UNL A   1      42.302  28.400  28.616  1.00  0.00     0.031 A 
ATOM     42  C   UNL A   1      42.993  27.059  28.665  1.00  0.00     0.074 A 
ATOM     43  C   UNL A   1      43.209  29.295  27.992  1.00  0.00     0.049 A 
ATOM     44  N   UNL A   1      44.175  26.821  28.190  1.00  0.00    -0.248 NA
ATOM     45  C   UNL A   1      42.423  25.886  29.318  1.00  0.00     0.031 C 
ATOM     46  C   UNL A   1      43.884  28.942  26.698  1.00  0.00     0.029 A 
ATOM     47  N   UNL A   1      43.505  30.674  27.954  1.00  0.00    -0.354 N 
ATOM     48  C   UNL A   1      44.258  25.473  28.007  1.00  0.00     0.074 A 
ATOM     49  C   UNL A   1      43.270  24.938  28.911  1.00  0.00     0.031 C 
ATOM     50  C   UNL A   1      44.566  29.988  26.193  1.00  0.00     0.029 A 
ATOM     51  C   UNL A   1      44.514  31.090  27.131  1.00  0.00     0.049 A 
ATOM     52  H   UNL A   1      43.000  31.317  28.504  1.00  0.00     0.167 HD
ATOM     53  C   UNL A   1      44.976  24.985  26.955  1.00  0.00     0.031 A 
ATOM     54  C   UNL A   1      45.415  32.083  27.420  1.00  0.00     0.031 A 
ATOM     55  C   UNL A   1      45.824  25.993  26.287  1.00  0.00     0.049 A 
ATOM     56  C   UNL A   1      46.780  31.462  27.308  1.00  0.00     0.074 A 
ATOM     57  C   UNL A   1      45.884  26.488  24.993  1.00  0.00     0.029 A 
ATOM     58  N   UNL A   1      46.703  26.788  27.030  1.00  0.00    -0.354 N 
ATOM     59  N   UNL A   1      46.908  30.214  26.974  1.00  0.00    -0.248 NA
ATOM     60  C   UNL A   1      48.066  32.065  27.629  1.00  0.00     0.031 C 
ATOM     61  C   UNL A   1      46.837  27.545  24.955  1.00  0.00     0.029 A 
ATOM     62  C   UNL A   1      47.388  27.682  26.218  1.00  0.00     0.049 A 
ATOM     63  H   UNL A   1      46.821  26.722  28.004  1.00  0.00     0.167 HD
ATOM     64  C   UNL A   1      48.189  29.809  27.052  1.00  0.00     0.074 A 
ATOM     65  C   UNL A   1      48.891  31.003  27.502  1.00  0.00     0.031 C 
ATOM     66  C   UNL A   1      48.481  28.514  26.746  1.00  0.00     0.031 A 
BRANCH  53  67
ATOM     67  C   UNL A   1      44.747  23.593  26.380  1.00  0.00    -0.014 A 
ATOM     68  C   UNL A   1      45.837  22.811  25.947  1.00  0.00     0.010 A 
ATOM     69  C   UNL A   1      43.474  23.017  26.180  1.00  0.00     0.010 A 
ATOM     70  C   UNL A   1      45.665  21.531  25.386  1.00  0.00     0.020 A 
ATOM     71  C   UNL A   1      43.286  21.727  25.671  1.00  0.00     0.020 A 
ATOM     72  C   UNL A   1      44.387  20.990  25.268  1.00  0.00     0.054 A 
BRANCH  72  73
ATOM     73  S   UNL A   1      44.156  19.317  24.616  1.00  0.00     0.124 S 
ATOM     74  O   UNL A   1      44.370  19.514  23.185  1.00  0.00    -0.237 OA
ATOM     75  O   UNL A   1      45.186  18.555  25.315  1.00  0.00    -0.237 OA
ATOM     76  O   UNL A   1      42.782  18.989  24.996  1.00  0.00    -0.744 OA
ENDBRANCH  72  73
ENDBRANCH  53  67
BRANCH  54  77
ATOM     77  C   UNL A   1      45.019  33.224  28.335  1.00  0.00    -0.014 A 
ATOM     78  C   UNL A   1      45.923  34.311  28.452  1.00  0.00     0.010 A 
ATOM     79  C   UNL A   1      43.716  33.423  28.841  1.00  0.00     0.010 A 
ATOM     80  C   UNL A   1      45.491  35.602  28.822  1.00  0.00     0.020 A 
ATOM     81  C   UNL A   1      43.275  34.719  29.242  1.00  0.00     0.020 A 
ATOM     82  C   UNL A   1      44.143  35.822  29.123  1.00  0.00     0.054 A 
BRANCH  82  83
ATOM     83  S   UNL A   1      43.445  37.511  28.673  1.00  0.00     0.124 S 
ATOM     84  O   UNL A   1      43.347  38.164  29.974  1.00  0.00    -0.237 OA
ATOM     85  O   UNL A   1      44.462  38.078  27.779  1.00  0.00    -0.237 OA
ATOM     86  O   UNL A   1      42.161  37.237  28.024  1.00  0.00    -0.744 OA
ENDBRANCH  82  83
ENDBRANCH  54  77
BRANCH  66  87
ATOM     87  C   UNL A   1      49.838  27.908  26.881  1.00  0.00    -0.014 A 
ATOM     88  C   UNL A   1      50.359  27.418  28.085  1.00  0.00     0.010 A 
ATOM     89  C   UNL A   1      50.672  27.873  25.742  1.00  0.00     0.010 A 
ATOM     90  C   UNL A   1      51.616  26.812  28.124  1.00  0.00     0.020 A 
ATOM     91  C   UNL A   1      51.939  27.301  25.775  1.00  0.00     0.020 A 
ATOM     92  C   UNL A   1      52.389  26.744  26.963  1.00  0.00     0.054 A 
BRANCH  92  93
ATOM     93  S   UNL A   1      53.999  25.934  27.036  1.00  0.00     0.124 S 
ATOM     94  O   UNL A   1      53.751  24.679  26.332  1.00  0.00    -0.237 OA
ATOM     95  O   UNL A   1      54.849  26.892  26.334  1.00  0.00    -0.237 OA
ATOM     96  O   UNL A   1      54.259  25.802  28.468  1.00  0.00    -0.744 OA
ENDBRANCH  92  93
ENDBRANCH  66  87
ENDBRANCH  40  41
ENDBRANCH  33  35
ENDBRANCH  32  33
ENDBRANCH  31  32
ENDBRANCH  30  31
ENDBRANCH  29  30
ENDBRANCH  28  29
ENDBRANCH   1  28
TORSDOF 23
ENDMDL
