MODEL 1
REMARK VINA RESULT:     -12.1      0.000      0.000
REMARK SMILES Cc1cnn(C2(C(=O)OCCOCCOCCOC(=O)c3ccc(-c4c5nc(c(-c6ccc(S(=O)(=O)[O-])cc6)c6ccc([nH]6)c(-c6ccc(S(=O)(=O)[O-])cc6)c6nc(c(-c7ccc(S(=O)(=O)[O-])cc7)c7ccc4[nH]7)C=C6)C=C5)cc3)CCN(C(=O)c3cc4ccccc4[nH]3)CC2)c1
REMARK SMILES IDX 14 1 13 2 12 3 11 4 10 5 9 6 7 7 8 8 6 9 81 10 96 11 82 12
REMARK SMILES IDX 95 13 83 14 84 15 85 16 5 17 1 18 2 19 3 20 97 21 4 22 86 23
REMARK SMILES IDX 87 24 94 25 88 26 93 27 89 29 92 30 90 31 91 32 15 33 16 34
REMARK SMILES IDX 17 35 18 36 19 37 20 38 21 39 22 40 80 41 23 42 79 43 24 44
REMARK SMILES IDX 25 45 26 46 73 47 27 48 78 49 72 50 74 51 28 52 77 53 71 54
REMARK SMILES IDX 70 55 29 57 59 58 40 59 58 60 41 61 44 62 57 63 75 64 42 65
REMARK SMILES IDX 43 66 56 68 76 69 45 70 30 71 31 72 39 73 32 74 38 75 33 76
REMARK SMILES IDX 34 77 35 78 36 79 37 80 60 81 61 82 69 83 62 84 68 85 63 86
REMARK SMILES IDX 64 87 65 88 66 89 67 90 46 91 47 92 55 93 48 94 54 95 49 96
REMARK SMILES IDX 50 97 51 98 52 99 53 100
REMARK H PARENT 94 28 74 56 44 67
REMARK Flexibility Score: inf
ROOT
ATOM      1  C   UNL A   1      33.826  27.811  26.594  1.00  0.00     0.188 C 
ENDROOT
BRANCH   1   2
ATOM      2  C   UNL A   1      33.612  26.460  25.906  1.00  0.00     0.188 C 
BRANCH   2   3
ATOM      3  O   UNL A   1      34.232  26.240  24.665  1.00  0.00    -0.376 OA
BRANCH   3   4
ATOM      4  C   UNL A   1      34.860  24.995  24.422  1.00  0.00     0.202 C 
BRANCH   4   5
ATOM      5  C   UNL A   1      35.641  24.164  25.471  1.00  0.00     0.261 C 
BRANCH   5   6
ATOM      6  O   UNL A   1      35.077  22.920  25.932  1.00  0.00    -0.461 OA
BRANCH   6   7
ATOM      7  C   UNL A   1      34.528  22.110  24.986  1.00  0.00     0.334 C 
ATOM      8  O   UNL A   1      35.200  21.584  24.099  1.00  0.00    -0.249 OA
BRANCH   7   9
ATOM      9  C   UNL A   1      32.967  22.039  25.003  1.00  0.00     0.163 C 
ATOM     10  C   UNL A   1      32.229  22.357  26.332  1.00  0.00     0.064 C 
ATOM     11  C   UNL A   1      32.658  23.146  23.972  1.00  0.00     0.064 C 
ATOM     12  C   UNL A   1      30.775  22.789  26.166  1.00  0.00     0.123 C 
ATOM     13  C   UNL A   1      31.222  23.607  23.892  1.00  0.00     0.123 C 
ATOM     14  N   UNL A   1      30.644  23.862  25.204  1.00  0.00    -0.337 N 
ATOM     15  C   UNL A   1      29.977  25.027  25.590  1.00  0.00     0.270 C 
ATOM     16  O   UNL A   1      29.662  25.248  26.757  1.00  0.00    -0.267 OA
BRANCH   9  17
ATOM     17  N   UNL A   1      32.586  20.675  24.587  1.00  0.00    -0.255 N 
ATOM     18  C   UNL A   1      32.673  17.017  24.590  1.00  0.00     0.048 C 
ATOM     19  C   UNL A   1      32.528  18.470  24.365  1.00  0.00    -0.013 A 
ATOM     20  C   UNL A   1      32.182  19.133  23.175  1.00  0.00     0.138 A 
ATOM     21  C   UNL A   1      32.758  19.493  25.262  1.00  0.00     0.113 A 
ATOM     22  N   UNL A   1      32.265  20.456  23.290  1.00  0.00    -0.180 NA
ENDBRANCH   9  17
BRANCH  15  23
ATOM     23  C   UNL A   1      29.736  26.018  24.571  1.00  0.00     0.105 A 
ATOM     24  C   UNL A   1      30.601  26.729  23.759  1.00  0.00     0.042 A 
ATOM     25  N   UNL A   1      28.466  26.423  24.235  1.00  0.00    -0.351 N 
ATOM     26  C   UNL A   1      29.865  27.788  23.175  1.00  0.00     0.000 A 
ATOM     27  C   UNL A   1      28.522  27.558  23.461  1.00  0.00     0.046 A 
ATOM     28  H   UNL A   1      27.637  25.967  24.508  1.00  0.00     0.167 HD
ATOM     29  C   UNL A   1      30.227  28.936  22.451  1.00  0.00     0.010 A 
ATOM     30  C   UNL A   1      27.501  28.400  23.011  1.00  0.00     0.026 A 
ATOM     31  C   UNL A   1      29.222  29.810  22.025  1.00  0.00     0.001 A 
ATOM     32  C   UNL A   1      27.881  29.535  22.289  1.00  0.00     0.002 A 
ENDBRANCH  15  23
ENDBRANCH   7   9
ENDBRANCH   6   7
ENDBRANCH   5   6
ENDBRANCH   4   5
ENDBRANCH   3   4
ENDBRANCH   2   3
ENDBRANCH   1   2
BRANCH   1  33
ATOM     33  O   UNL A   1      32.792  28.496  27.272  1.00  0.00    -0.376 OA
BRANCH  33  34
ATOM     34  C   UNL A   1      32.468  29.863  27.085  1.00  0.00     0.202 C 
BRANCH  34  35
ATOM     35  C   UNL A   1      33.426  31.035  27.270  1.00  0.00     0.261 C 
BRANCH  35  36
ATOM     36  O   UNL A   1      34.772  30.673  27.429  1.00  0.00    -0.460 OA
BRANCH  36  37
ATOM     37  C   UNL A   1      35.541  31.674  27.893  1.00  0.00     0.338 C 
ATOM     38  O   UNL A   1      35.548  32.841  27.517  1.00  0.00    -0.246 OA
BRANCH  37  39
ATOM     39  C   UNL A   1      36.389  31.133  28.952  1.00  0.00     0.060 A 
ATOM     40  C   UNL A   1      37.421  31.959  29.388  1.00  0.00     0.016 A 
ATOM     41  C   UNL A   1      36.376  29.747  29.167  1.00  0.00     0.016 A 
ATOM     42  C   UNL A   1      38.610  31.350  29.685  1.00  0.00     0.010 A 
ATOM     43  C   UNL A   1      37.566  29.142  29.447  1.00  0.00     0.010 A 
ATOM     44  C   UNL A   1      38.685  29.957  29.562  1.00  0.00    -0.014 A 
BRANCH  44  45
ATOM     45  C   UNL A   1      39.988  29.349  29.611  1.00  0.00     0.031 A 
ATOM     46  C   UNL A   1      40.414  29.121  30.999  1.00  0.00     0.074 A 
ATOM     47  C   UNL A   1      40.671  29.002  28.506  1.00  0.00     0.049 A 
ATOM     48  N   UNL A   1      41.254  29.829  31.673  1.00  0.00    -0.248 NA
ATOM     49  C   UNL A   1      39.631  28.169  31.803  1.00  0.00     0.031 C 
ATOM     50  C   UNL A   1      40.223  28.966  27.110  1.00  0.00     0.029 A 
ATOM     51  N   UNL A   1      41.930  28.508  28.425  1.00  0.00    -0.354 N 
ATOM     52  C   UNL A   1      41.293  29.238  32.924  1.00  0.00     0.074 A 
ATOM     53  C   UNL A   1      40.118  28.410  33.020  1.00  0.00     0.031 C 
ATOM     54  C   UNL A   1      41.107  28.245  26.378  1.00  0.00     0.029 A 
ATOM     55  C   UNL A   1      42.244  27.901  27.217  1.00  0.00     0.049 A 
ATOM     56  H   UNL A   1      42.573  28.574  29.168  1.00  0.00     0.167 HD
ATOM     57  C   UNL A   1      42.445  29.217  33.646  1.00  0.00     0.031 A 
ATOM     58  C   UNL A   1      43.335  27.125  26.974  1.00  0.00     0.031 A 
ATOM     59  C   UNL A   1      43.394  30.187  33.161  1.00  0.00     0.049 A 
ATOM     60  C   UNL A   1      44.335  27.454  28.025  1.00  0.00     0.074 A 
ATOM     61  C   UNL A   1      43.375  31.560  33.010  1.00  0.00     0.029 A 
ATOM     62  N   UNL A   1      44.392  29.727  32.331  1.00  0.00    -0.354 N 
ATOM     63  N   UNL A   1      44.912  28.620  28.118  1.00  0.00    -0.248 NA
ATOM     64  C   UNL A   1      44.316  26.671  29.252  1.00  0.00     0.031 C 
ATOM     65  C   UNL A   1      44.030  31.806  31.768  1.00  0.00     0.029 A 
ATOM     66  C   UNL A   1      44.489  30.587  31.266  1.00  0.00     0.049 A 
ATOM     67  H   UNL A   1      44.940  28.922  32.477  1.00  0.00     0.167 HD
ATOM     68  C   UNL A   1      44.928  28.904  29.477  1.00  0.00     0.074 A 
ATOM     69  C   UNL A   1      44.622  27.631  30.132  1.00  0.00     0.031 C 
ATOM     70  C   UNL A   1      44.902  30.192  29.933  1.00  0.00     0.031 A 
BRANCH  57  71
ATOM     71  C   UNL A   1      42.838  28.024  34.474  1.00  0.00    -0.014 A 
ATOM     72  C   UNL A   1      43.173  28.211  35.825  1.00  0.00     0.010 A 
ATOM     73  C   UNL A   1      43.133  26.764  33.907  1.00  0.00     0.010 A 
ATOM     74  C   UNL A   1      43.803  27.198  36.558  1.00  0.00     0.020 A 
ATOM     75  C   UNL A   1      43.715  25.732  34.639  1.00  0.00     0.020 A 
ATOM     76  C   UNL A   1      44.071  25.966  35.956  1.00  0.00     0.054 A 
BRANCH  76  77
ATOM     77  S   UNL A   1      44.936  24.684  36.892  1.00  0.00     0.124 S 
ATOM     78  O   UNL A   1      44.396  24.877  38.233  1.00  0.00    -0.237 OA
ATOM     79  O   UNL A   1      44.516  23.468  36.203  1.00  0.00    -0.237 OA
ATOM     80  O   UNL A   1      46.346  25.033  36.726  1.00  0.00    -0.744 OA
ENDBRANCH  76  77
ENDBRANCH  57  71
BRANCH  58  81
ATOM     81  C   UNL A   1      43.408  25.873  26.173  1.00  0.00    -0.014 A 
ATOM     82  C   UNL A   1      44.526  25.594  25.360  1.00  0.00     0.010 A 
ATOM     83  C   UNL A   1      42.521  24.812  26.441  1.00  0.00     0.010 A 
ATOM     84  C   UNL A   1      44.780  24.290  24.892  1.00  0.00     0.020 A 
ATOM     85  C   UNL A   1      42.764  23.512  25.976  1.00  0.00     0.020 A 
ATOM     86  C   UNL A   1      43.907  23.251  25.224  1.00  0.00     0.054 A 
BRANCH  86  87
ATOM     87  S   UNL A   1      44.336  21.539  24.778  1.00  0.00     0.124 S 
ATOM     88  O   UNL A   1      45.588  21.333  25.500  1.00  0.00    -0.237 OA
ATOM     89  O   UNL A   1      43.190  20.783  25.275  1.00  0.00    -0.237 OA
ATOM     90  O   UNL A   1      44.461  21.584  23.323  1.00  0.00    -0.744 OA
ENDBRANCH  86  87
ENDBRANCH  58  81
BRANCH  70  91
ATOM     91  C   UNL A   1      45.126  31.312  28.937  1.00  0.00    -0.014 A 
ATOM     92  C   UNL A   1      46.393  31.816  28.574  1.00  0.00     0.010 A 
ATOM     93  C   UNL A   1      44.000  31.773  28.232  1.00  0.00     0.010 A 
ATOM     94  C   UNL A   1      46.519  32.777  27.555  1.00  0.00     0.020 A 
ATOM     95  C   UNL A   1      44.121  32.714  27.206  1.00  0.00     0.020 A 
ATOM     96  C   UNL A   1      45.377  33.221  26.879  1.00  0.00     0.054 A 
BRANCH  96  97
ATOM     97  S   UNL A   1      45.536  34.444  25.545  1.00  0.00     0.124 S 
ATOM     98  O   UNL A   1      44.728  33.860  24.479  1.00  0.00    -0.237 OA
ATOM     99  O   UNL A   1      44.995  35.659  26.151  1.00  0.00    -0.237 OA
ATOM    100  O   UNL A   1      46.974  34.484  25.278  1.00  0.00    -0.744 OA
ENDBRANCH  96  97
ENDBRANCH  70  91
ENDBRANCH  44  45
ENDBRANCH  37  39
ENDBRANCH  36  37
ENDBRANCH  35  36
ENDBRANCH  34  35
ENDBRANCH  33  34
ENDBRANCH   1  33
TORSDOF 22
ENDMDL
MODEL 2
REMARK VINA RESULT:     -12.0      2.961      7.120
REMARK SMILES Cc1cnn(C2(C(=O)OCCOCCOCCOC(=O)c3ccc(-c4c5nc(c(-c6ccc(S(=O)(=O)[O-])cc6)c6ccc([nH]6)c(-c6ccc(S(=O)(=O)[O-])cc6)c6nc(c(-c7ccc(S(=O)(=O)[O-])cc7)c7ccc4[nH]7)C=C6)C=C5)cc3)CCN(C(=O)c3cc4ccccc4[nH]3)CC2)c1
REMARK SMILES IDX 14 1 13 2 12 3 11 4 10 5 9 6 7 7 8 8 6 9 81 10 96 11 82 12
REMARK SMILES IDX 95 13 83 14 84 15 85 16 5 17 1 18 2 19 3 20 97 21 4 22 86 23
REMARK SMILES IDX 87 24 94 25 88 26 93 27 89 29 92 30 90 31 91 32 15 33 16 34
REMARK SMILES IDX 17 35 18 36 19 37 20 38 21 39 22 40 80 41 23 42 79 43 24 44
REMARK SMILES IDX 25 45 26 46 73 47 27 48 78 49 72 50 74 51 28 52 77 53 71 54
REMARK SMILES IDX 70 55 29 57 59 58 40 59 58 60 41 61 44 62 57 63 75 64 42 65
REMARK SMILES IDX 43 66 56 68 76 69 45 70 30 71 31 72 39 73 32 74 38 75 33 76
REMARK SMILES IDX 34 77 35 78 36 79 37 80 60 81 61 82 69 83 62 84 68 85 63 86
REMARK SMILES IDX 64 87 65 88 66 89 67 90 46 91 47 92 55 93 48 94 54 95 49 96
REMARK SMILES IDX 50 97 51 98 52 99 53 100
REMARK H PARENT 94 28 74 56 44 67
REMARK Flexibility Score: inf
ROOT
ATOM      1  C   UNL A   1      33.573  27.692  26.449  1.00  0.00     0.188 C 
ENDROOT
BRANCH   1   2
ATOM      2  C   UNL A   1      33.741  26.241  25.991  1.00  0.00     0.188 C 
BRANCH   2   3
ATOM      3  O   UNL A   1      34.308  26.004  24.728  1.00  0.00    -0.376 OA
BRANCH   3   4
ATOM      4  C   UNL A   1      35.149  24.879  24.553  1.00  0.00     0.202 C 
BRANCH   4   5
ATOM      5  C   UNL A   1      35.789  24.052  25.695  1.00  0.00     0.261 C 
BRANCH   5   6
ATOM      6  O   UNL A   1      35.161  22.818  26.097  1.00  0.00    -0.461 OA
BRANCH   6   7
ATOM      7  C   UNL A   1      34.621  22.056  25.107  1.00  0.00     0.334 C 
ATOM      8  O   UNL A   1      35.305  21.552  24.216  1.00  0.00    -0.249 OA
BRANCH   7   9
ATOM      9  C   UNL A   1      33.059  22.016  25.083  1.00  0.00     0.163 C 
ATOM     10  C   UNL A   1      32.292  22.352  26.391  1.00  0.00     0.064 C 
ATOM     11  C   UNL A   1      32.798  23.125  24.041  1.00  0.00     0.064 C 
ATOM     12  C   UNL A   1      30.852  22.812  26.187  1.00  0.00     0.123 C 
ATOM     13  C   UNL A   1      31.374  23.613  23.922  1.00  0.00     0.123 C 
ATOM     14  N   UNL A   1      30.767  23.884  25.218  1.00  0.00    -0.337 N 
ATOM     15  C   UNL A   1      30.113  25.063  25.584  1.00  0.00     0.270 C 
ATOM     16  O   UNL A   1      29.772  25.294  26.741  1.00  0.00    -0.267 OA
BRANCH   9  17
ATOM     17  N   UNL A   1      32.662  20.658  24.661  1.00  0.00    -0.255 N 
ATOM     18  C   UNL A   1      32.742  17.000  24.613  1.00  0.00     0.048 C 
ATOM     19  C   UNL A   1      32.593  18.456  24.411  1.00  0.00    -0.013 A 
ATOM     20  C   UNL A   1      32.211  19.135  23.242  1.00  0.00     0.138 A 
ATOM     21  C   UNL A   1      32.853  19.467  25.314  1.00  0.00     0.113 A 
ATOM     22  N   UNL A   1      32.301  20.457  23.372  1.00  0.00    -0.180 NA
ENDBRANCH   9  17
BRANCH  15  23
ATOM     23  C   UNL A   1      29.917  26.055  24.556  1.00  0.00     0.105 A 
ATOM     24  C   UNL A   1      30.819  26.783  23.800  1.00  0.00     0.042 A 
ATOM     25  N   UNL A   1      28.664  26.442  24.146  1.00  0.00    -0.351 N 
ATOM     26  C   UNL A   1      30.103  27.833  23.177  1.00  0.00     0.000 A 
ATOM     27  C   UNL A   1      28.748  27.581  23.381  1.00  0.00     0.046 A 
ATOM     28  H   UNL A   1      27.827  25.972  24.366  1.00  0.00     0.167 HD
ATOM     29  C   UNL A   1      30.489  28.990  22.480  1.00  0.00     0.010 A 
ATOM     30  C   UNL A   1      27.744  28.409  22.874  1.00  0.00     0.026 A 
ATOM     31  C   UNL A   1      29.498  29.851  21.999  1.00  0.00     0.001 A 
ATOM     32  C   UNL A   1      28.148  29.554  22.180  1.00  0.00     0.002 A 
ENDBRANCH  15  23
ENDBRANCH   7   9
ENDBRANCH   6   7
ENDBRANCH   5   6
ENDBRANCH   4   5
ENDBRANCH   3   4
ENDBRANCH   2   3
ENDBRANCH   1   2
BRANCH   1  33
ATOM     33  O   UNL A   1      32.475  28.127  27.226  1.00  0.00    -0.376 OA
BRANCH  33  34
ATOM     34  C   UNL A   1      31.704  29.286  26.960  1.00  0.00     0.202 C 
BRANCH  34  35
ATOM     35  C   UNL A   1      32.256  30.634  26.507  1.00  0.00     0.261 C 
BRANCH  35  36
ATOM     36  O   UNL A   1      33.198  31.205  27.376  1.00  0.00    -0.460 OA
BRANCH  36  37
ATOM     37  C   UNL A   1      32.954  32.499  27.648  1.00  0.00     0.338 C 
ATOM     38  O   UNL A   1      31.980  33.160  27.304  1.00  0.00    -0.246 OA
BRANCH  37  39
ATOM     39  C   UNL A   1      34.066  33.005  28.449  1.00  0.00     0.060 A 
ATOM     40  C   UNL A   1      35.033  33.730  27.758  1.00  0.00     0.016 A 
ATOM     41  C   UNL A   1      34.299  32.420  29.702  1.00  0.00     0.016 A 
ATOM     42  C   UNL A   1      36.333  33.536  28.138  1.00  0.00     0.010 A 
ATOM     43  C   UNL A   1      35.597  32.214  30.070  1.00  0.00     0.010 A 
ATOM     44  C   UNL A   1      36.584  32.660  29.201  1.00  0.00    -0.014 A 
BRANCH  44  45
ATOM     45  C   UNL A   1      37.946  32.250  29.425  1.00  0.00     0.031 A 
ATOM     46  C   UNL A   1      38.113  30.811  29.178  1.00  0.00     0.074 A 
ATOM     47  C   UNL A   1      38.919  33.114  29.764  1.00  0.00     0.049 A 
ATOM     48  N   UNL A   1      38.200  29.882  30.067  1.00  0.00    -0.248 NA
ATOM     49  C   UNL A   1      37.897  30.327  27.805  1.00  0.00     0.031 C 
ATOM     50  C   UNL A   1      38.892  34.580  29.787  1.00  0.00     0.029 A 
ATOM     51  N   UNL A   1      40.206  32.837  30.082  1.00  0.00    -0.354 N 
ATOM     52  C   UNL A   1      38.313  28.708  29.344  1.00  0.00     0.074 A 
ATOM     53  C   UNL A   1      37.872  29.010  28.006  1.00  0.00     0.031 C 
ATOM     54  C   UNL A   1      40.163  35.047  29.856  1.00  0.00     0.029 A 
ATOM     55  C   UNL A   1      41.069  33.923  30.029  1.00  0.00     0.049 A 
ATOM     56  H   UNL A   1      40.506  31.933  30.331  1.00  0.00     0.167 HD
ATOM     57  C   UNL A   1      39.064  27.675  29.810  1.00  0.00     0.031 A 
ATOM     58  C   UNL A   1      42.428  33.863  30.062  1.00  0.00     0.031 A 
ATOM     59  C   UNL A   1      39.329  27.805  31.221  1.00  0.00     0.049 A 
ATOM     60  C   UNL A   1      42.784  32.546  30.655  1.00  0.00     0.074 A 
ATOM     61  C   UNL A   1      38.532  27.887  32.346  1.00  0.00     0.029 A 
ATOM     62  N   UNL A   1      40.554  28.317  31.583  1.00  0.00    -0.354 N 
ATOM     63  N   UNL A   1      42.519  32.228  31.892  1.00  0.00    -0.248 NA
ATOM     64  C   UNL A   1      42.969  31.421  29.750  1.00  0.00     0.031 C 
ATOM     65  C   UNL A   1      39.161  28.862  33.175  1.00  0.00     0.029 A 
ATOM     66  C   UNL A   1      40.348  29.261  32.559  1.00  0.00     0.049 A 
ATOM     67  H   UNL A   1      41.426  28.053  31.209  1.00  0.00     0.167 HD
ATOM     68  C   UNL A   1      42.072  30.915  31.836  1.00  0.00     0.074 A 
ATOM     69  C   UNL A   1      42.448  30.444  30.502  1.00  0.00     0.031 C 
ATOM     70  C   UNL A   1      41.189  30.426  32.757  1.00  0.00     0.031 A 
BRANCH  57  71
ATOM     71  C   UNL A   1      39.898  26.826  28.891  1.00  0.00    -0.014 A 
ATOM     72  C   UNL A   1      39.454  25.534  28.562  1.00  0.00     0.010 A 
ATOM     73  C   UNL A   1      41.226  27.157  28.539  1.00  0.00     0.010 A 
ATOM     74  C   UNL A   1      40.309  24.613  27.945  1.00  0.00     0.020 A 
ATOM     75  C   UNL A   1      42.071  26.266  27.884  1.00  0.00     0.020 A 
ATOM     76  C   UNL A   1      41.614  24.987  27.613  1.00  0.00     0.054 A 
BRANCH  76  77
ATOM     77  S   UNL A   1      42.729  23.774  26.871  1.00  0.00     0.124 S 
ATOM     78  O   UNL A   1      42.636  24.110  25.454  1.00  0.00    -0.237 OA
ATOM     79  O   UNL A   1      43.997  24.089  27.520  1.00  0.00    -0.237 OA
ATOM     80  O   UNL A   1      42.141  22.491  27.252  1.00  0.00    -0.744 OA
ENDBRANCH  76  77
ENDBRANCH  57  71
BRANCH  58  81
ATOM     81  C   UNL A   1      43.400  34.665  29.270  1.00  0.00    -0.014 A 
ATOM     82  C   UNL A   1      43.208  34.886  27.891  1.00  0.00     0.010 A 
ATOM     83  C   UNL A   1      44.353  35.467  29.929  1.00  0.00     0.010 A 
ATOM     84  C   UNL A   1      43.894  35.913  27.215  1.00  0.00     0.020 A 
ATOM     85  C   UNL A   1      45.042  36.490  29.262  1.00  0.00     0.020 A 
ATOM     86  C   UNL A   1      44.792  36.725  27.913  1.00  0.00     0.054 A 
BRANCH  86  87
ATOM     87  S   UNL A   1      45.532  38.168  27.084  1.00  0.00     0.124 S 
ATOM     88  O   UNL A   1      46.433  37.545  26.120  1.00  0.00    -0.237 OA
ATOM     89  O   UNL A   1      44.368  38.842  26.518  1.00  0.00    -0.237 OA
ATOM     90  O   UNL A   1      46.191  38.887  28.173  1.00  0.00    -0.744 OA
ENDBRANCH  86  87
ENDBRANCH  58  81
BRANCH  70  91
ATOM     91  C   UNL A   1      40.912  31.253  33.997  1.00  0.00    -0.014 A 
ATOM     92  C   UNL A   1      39.912  32.244  34.088  1.00  0.00     0.010 A 
ATOM     93  C   UNL A   1      41.610  30.903  35.166  1.00  0.00     0.010 A 
ATOM     94  C   UNL A   1      39.644  32.884  35.312  1.00  0.00     0.020 A 
ATOM     95  C   UNL A   1      41.336  31.521  36.388  1.00  0.00     0.020 A 
ATOM     96  C   UNL A   1      40.362  32.517  36.455  1.00  0.00     0.054 A 
BRANCH  96  97
ATOM     97  S   UNL A   1      40.004  33.322  38.044  1.00  0.00     0.124 S 
ATOM     98  O   UNL A   1      39.204  34.475  37.643  1.00  0.00    -0.237 OA
ATOM     99  O   UNL A   1      39.286  32.284  38.780  1.00  0.00    -0.237 OA
ATOM    100  O   UNL A   1      41.328  33.644  38.577  1.00  0.00    -0.744 OA
ENDBRANCH  96  97
ENDBRANCH  70  91
ENDBRANCH  44  45
ENDBRANCH  37  39
ENDBRANCH  36  37
ENDBRANCH  35  36
ENDBRANCH  34  35
ENDBRANCH  33  34
ENDBRANCH   1  33
TORSDOF 22
ENDMDL
MODEL 3
REMARK VINA RESULT:     -10.3      6.415     12.057
REMARK SMILES Cc1cnn(C2(C(=O)OCCOCCOCCOC(=O)c3ccc(-c4c5nc(c(-c6ccc(S(=O)(=O)[O-])cc6)c6ccc([nH]6)c(-c6ccc(S(=O)(=O)[O-])cc6)c6nc(c(-c7ccc(S(=O)(=O)[O-])cc7)c7ccc4[nH]7)C=C6)C=C5)cc3)CCN(C(=O)c3cc4ccccc4[nH]3)CC2)c1
REMARK SMILES IDX 14 1 13 2 12 3 11 4 10 5 9 6 7 7 8 8 6 9 81 10 96 11 82 12
REMARK SMILES IDX 95 13 83 14 84 15 85 16 5 17 1 18 2 19 3 20 97 21 4 22 86 23
REMARK SMILES IDX 87 24 94 25 88 26 93 27 89 29 92 30 90 31 91 32 15 33 16 34
REMARK SMILES IDX 17 35 18 36 19 37 20 38 21 39 22 40 80 41 23 42 79 43 24 44
REMARK SMILES IDX 25 45 26 46 73 47 27 48 78 49 72 50 74 51 28 52 77 53 71 54
REMARK SMILES IDX 70 55 29 57 59 58 40 59 58 60 41 61 44 62 57 63 75 64 42 65
REMARK SMILES IDX 43 66 56 68 76 69 45 70 30 71 31 72 39 73 32 74 38 75 33 76
REMARK SMILES IDX 34 77 35 78 36 79 37 80 60 81 61 82 69 83 62 84 68 85 63 86
REMARK SMILES IDX 64 87 65 88 66 89 67 90 46 91 47 92 55 93 48 94 54 95 49 96
REMARK SMILES IDX 50 97 51 98 52 99 53 100
REMARK H PARENT 94 28 74 56 44 67
REMARK Flexibility Score: inf
ROOT
ATOM      1  C   UNL A   1      40.799  23.086  27.025  1.00  0.00     0.188 C 
ENDROOT
BRANCH   1   2
ATOM      2  C   UNL A   1      40.163  24.398  26.557  1.00  0.00     0.188 C 
BRANCH   2   3
ATOM      3  O   UNL A   1      38.770  24.535  26.660  1.00  0.00    -0.376 OA
BRANCH   3   4
ATOM      4  C   UNL A   1      37.938  23.518  26.133  1.00  0.00     0.202 C 
BRANCH   4   5
ATOM      5  C   UNL A   1      36.605  23.750  25.379  1.00  0.00     0.261 C 
BRANCH   5   6
ATOM      6  O   UNL A   1      35.407  23.119  25.874  1.00  0.00    -0.461 OA
BRANCH   6   7
ATOM      7  C   UNL A   1      34.842  22.172  25.077  1.00  0.00     0.334 C 
ATOM      8  O   UNL A   1      35.501  21.502  24.282  1.00  0.00    -0.249 OA
BRANCH   7   9
ATOM      9  C   UNL A   1      33.280  22.121  25.117  1.00  0.00     0.163 C 
ATOM     10  C   UNL A   1      32.565  22.481  26.448  1.00  0.00     0.064 C 
ATOM     11  C   UNL A   1      32.970  23.206  24.064  1.00  0.00     0.064 C 
ATOM     12  C   UNL A   1      31.114  22.927  26.292  1.00  0.00     0.123 C 
ATOM     13  C   UNL A   1      31.539  23.683  23.992  1.00  0.00     0.123 C 
ATOM     14  N   UNL A   1      30.983  23.977  25.305  1.00  0.00    -0.337 N 
ATOM     15  C   UNL A   1      30.335  25.160  25.672  1.00  0.00     0.270 C 
ATOM     16  O   UNL A   1      30.040  25.414  26.837  1.00  0.00    -0.267 OA
BRANCH   9  17
ATOM     17  N   UNL A   1      32.876  20.752  24.741  1.00  0.00    -0.255 N 
ATOM     18  C   UNL A   1      32.870  17.095  24.881  1.00  0.00     0.048 C 
ATOM     19  C   UNL A   1      32.769  18.543  24.598  1.00  0.00    -0.013 A 
ATOM     20  C   UNL A   1      32.474  19.168  23.375  1.00  0.00     0.138 A 
ATOM     21  C   UNL A   1      32.999  19.592  25.463  1.00  0.00     0.113 A 
ATOM     22  N   UNL A   1      32.588  20.492  23.444  1.00  0.00    -0.180 NA
ENDBRANCH   9  17
BRANCH  15  23
ATOM     23  C   UNL A   1      30.092  26.129  24.632  1.00  0.00     0.105 A 
ATOM     24  C   UNL A   1      30.956  26.889  23.865  1.00  0.00     0.042 A 
ATOM     25  N   UNL A   1      28.821  26.449  24.219  1.00  0.00    -0.351 N 
ATOM     26  C   UNL A   1      30.191  27.896  23.230  1.00  0.00     0.000 A 
ATOM     27  C   UNL A   1      28.850  27.582  23.440  1.00  0.00     0.046 A 
ATOM     28  H   UNL A   1      28.008  25.943  24.446  1.00  0.00     0.167 HD
ATOM     29  C   UNL A   1      30.520  29.061  22.519  1.00  0.00     0.010 A 
ATOM     30  C   UNL A   1      27.806  28.354  22.924  1.00  0.00     0.026 A 
ATOM     31  C   UNL A   1      29.488  29.867  22.028  1.00  0.00     0.001 A 
ATOM     32  C   UNL A   1      28.154  29.508  22.215  1.00  0.00     0.002 A 
ENDBRANCH  15  23
ENDBRANCH   7   9
ENDBRANCH   6   7
ENDBRANCH   5   6
ENDBRANCH   4   5
ENDBRANCH   3   4
ENDBRANCH   2   3
ENDBRANCH   1   2
BRANCH   1  33
ATOM     33  O   UNL A   1      42.174  22.802  26.863  1.00  0.00    -0.376 OA
BRANCH  33  34
ATOM     34  C   UNL A   1      43.153  22.930  27.882  1.00  0.00     0.202 C 
BRANCH  34  35
ATOM     35  C   UNL A   1      42.869  23.222  29.352  1.00  0.00     0.261 C 
BRANCH  35  36
ATOM     36  O   UNL A   1      44.005  23.261  30.173  1.00  0.00    -0.460 OA
BRANCH  36  37
ATOM     37  C   UNL A   1      44.365  24.509  30.523  1.00  0.00     0.338 C 
ATOM     38  O   UNL A   1      44.543  25.467  29.779  1.00  0.00    -0.246 OA
BRANCH  37  39
ATOM     39  C   UNL A   1      44.510  24.541  31.977  1.00  0.00     0.060 A 
ATOM     40  C   UNL A   1      45.024  25.718  32.512  1.00  0.00     0.016 A 
ATOM     41  C   UNL A   1      44.515  23.320  32.668  1.00  0.00     0.016 A 
ATOM     42  C   UNL A   1      45.887  25.587  33.566  1.00  0.00     0.010 A 
ATOM     43  C   UNL A   1      45.387  23.189  33.708  1.00  0.00     0.010 A 
ATOM     44  C   UNL A   1      46.155  24.298  34.040  1.00  0.00    -0.014 A 
BRANCH  44  45
ATOM     45  C   UNL A   1      47.253  24.136  34.957  1.00  0.00     0.031 A 
ATOM     46  C   UNL A   1      48.513  23.903  34.240  1.00  0.00     0.074 A 
ATOM     47  C   UNL A   1      47.108  24.244  36.290  1.00  0.00     0.049 A 
ATOM     48  N   UNL A   1      49.113  22.773  34.083  1.00  0.00    -0.248 NA
ATOM     49  C   UNL A   1      49.021  24.989  33.385  1.00  0.00     0.031 C 
ATOM     50  C   UNL A   1      45.954  24.713  37.064  1.00  0.00     0.029 A 
ATOM     51  N   UNL A   1      48.040  24.028  37.249  1.00  0.00    -0.354 N 
ATOM     52  C   UNL A   1      50.228  23.066  33.317  1.00  0.00     0.074 A 
ATOM     53  C   UNL A   1      49.984  24.354  32.719  1.00  0.00     0.031 C 
ATOM     54  C   UNL A   1      46.350  24.979  38.333  1.00  0.00     0.029 A 
ATOM     55  C   UNL A   1      47.733  24.561  38.494  1.00  0.00     0.049 A 
ATOM     56  H   UNL A   1      48.872  23.532  37.076  1.00  0.00     0.167 HD
ATOM     57  C   UNL A   1      51.391  22.384  33.495  1.00  0.00     0.031 A 
ATOM     58  C   UNL A   1      48.595  24.695  39.538  1.00  0.00     0.031 A 
ATOM     59  C   UNL A   1      51.180  21.150  34.209  1.00  0.00     0.049 A 
ATOM     60  C   UNL A   1      49.714  23.746  39.293  1.00  0.00     0.074 A 
ATOM     61  C   UNL A   1      50.418  20.022  33.976  1.00  0.00     0.029 A 
ATOM     62  N   UNL A   1      51.456  21.152  35.558  1.00  0.00    -0.354 N 
ATOM     63  N   UNL A   1      49.563  22.451  39.297  1.00  0.00    -0.248 NA
ATOM     64  C   UNL A   1      50.870  24.234  38.554  1.00  0.00     0.031 C 
ATOM     65  C   UNL A   1      49.886  19.664  35.249  1.00  0.00     0.029 A 
ATOM     66  C   UNL A   1      50.415  20.534  36.204  1.00  0.00     0.049 A 
ATOM     67  H   UNL A   1      52.259  21.530  35.984  1.00  0.00     0.167 HD
ATOM     68  C   UNL A   1      50.318  21.999  38.222  1.00  0.00     0.074 A 
ATOM     69  C   UNL A   1      51.165  23.134  37.853  1.00  0.00     0.031 C 
ATOM     70  C   UNL A   1      49.985  20.856  37.552  1.00  0.00     0.031 A 
BRANCH  57  71
ATOM     71  C   UNL A   1      52.728  23.068  33.409  1.00  0.00    -0.014 A 
ATOM     72  C   UNL A   1      53.689  22.578  32.510  1.00  0.00     0.010 A 
ATOM     73  C   UNL A   1      53.164  24.017  34.361  1.00  0.00     0.010 A 
ATOM     74  C   UNL A   1      55.025  22.994  32.584  1.00  0.00     0.020 A 
ATOM     75  C   UNL A   1      54.478  24.474  34.415  1.00  0.00     0.020 A 
ATOM     76  C   UNL A   1      55.408  23.938  33.540  1.00  0.00     0.054 A 
BRANCH  76  77
ATOM     77  S   UNL A   1      57.143  24.425  33.667  1.00  0.00     0.124 S 
ATOM     78  O   UNL A   1      57.815  23.320  32.991  1.00  0.00    -0.237 OA
ATOM     79  O   UNL A   1      57.154  25.704  32.965  1.00  0.00    -0.237 OA
ATOM     80  O   UNL A   1      57.370  24.510  35.109  1.00  0.00    -0.744 OA
ENDBRANCH  76  77
ENDBRANCH  57  71
BRANCH  58  81
ATOM     81  C   UNL A   1      48.715  25.835  40.487  1.00  0.00    -0.014 A 
ATOM     82  C   UNL A   1      47.702  26.811  40.585  1.00  0.00     0.010 A 
ATOM     83  C   UNL A   1      49.681  25.799  41.512  1.00  0.00     0.010 A 
ATOM     84  C   UNL A   1      47.621  27.669  41.697  1.00  0.00     0.020 A 
ATOM     85  C   UNL A   1      49.610  26.653  42.622  1.00  0.00     0.020 A 
ATOM     86  C   UNL A   1      48.566  27.569  42.722  1.00  0.00     0.054 A 
BRANCH  86  87
ATOM     87  S   UNL A   1      48.351  28.547  44.243  1.00  0.00     0.124 S 
ATOM     88  O   UNL A   1      49.730  28.772  44.666  1.00  0.00    -0.237 OA
ATOM     89  O   UNL A   1      47.637  29.726  43.766  1.00  0.00    -0.237 OA
ATOM     90  O   UNL A   1      47.574  27.664  45.111  1.00  0.00    -0.744 OA
ENDBRANCH  86  87
ENDBRANCH  58  81
BRANCH  70  91
ATOM     91  C   UNL A   1      48.940  19.943  38.162  1.00  0.00    -0.014 A 
ATOM     92  C   UNL A   1      49.154  19.131  39.296  1.00  0.00     0.010 A 
ATOM     93  C   UNL A   1      47.637  20.026  37.641  1.00  0.00     0.010 A 
ATOM     94  C   UNL A   1      48.096  18.402  39.868  1.00  0.00     0.020 A 
ATOM     95  C   UNL A   1      46.579  19.319  38.215  1.00  0.00     0.020 A 
ATOM     96  C   UNL A   1      46.814  18.501  39.319  1.00  0.00     0.054 A 
BRANCH  96  97
ATOM     97  S   UNL A   1      45.438  17.581  40.068  1.00  0.00     0.124 S 
ATOM     98  O   UNL A   1      46.106  16.416  40.639  1.00  0.00    -0.237 OA
ATOM     99  O   UNL A   1      44.897  18.533  41.035  1.00  0.00    -0.237 OA
ATOM    100  O   UNL A   1      44.555  17.293  38.937  1.00  0.00    -0.744 OA
ENDBRANCH  96  97
ENDBRANCH  70  91
ENDBRANCH  44  45
ENDBRANCH  37  39
ENDBRANCH  36  37
ENDBRANCH  35  36
ENDBRANCH  34  35
ENDBRANCH  33  34
ENDBRANCH   1  33
TORSDOF 22
ENDMDL
