MODEL 1
REMARK VINA RESULT:     -10.2      0.000      0.000
REMARK SMILES CS(=O)(=O)c1ccc(C2=NN(c3ccc(C(=O)OCCOCCOCCOC(=O)c4ccc(-c5c6nc(c(-c7ccc(S(=O)(=O)[O-])cc7)c7ccc([nH]7)c(-c7ccc(S(=O)(=O)[O-])cc7)c7nc(c(-c8ccc(S(=O)(=O)[O-])cc8)c8ccc5[nH]8)C=C7)C=C6)cc4)cc3)[C@H](c3ccc(F)cc3)C2)cc1
REMARK SMILES IDX 22 1 21 2 20 3 19 4 18 5 16 6 17 7 15 8 12 9 13 10 91 11
REMARK SMILES IDX 14 12 90 13 11 14 9 15 10 16 100 17 92 18 8 19 5 20 6 21
REMARK SMILES IDX 102 22 7 23 101 24 2 25 1 26 3 27 4 28 93 29 94 30 99 31
REMARK SMILES IDX 95 32 98 33 96 34 97 35 23 36 24 37 25 38 26 39 27 40 28 41
REMARK SMILES IDX 29 42 30 43 31 44 89 45 32 46 88 47 33 48 34 49 35 50 82 51
REMARK SMILES IDX 36 52 87 53 81 54 83 55 37 56 86 57 80 58 79 59 38 61 68 62
REMARK SMILES IDX 49 63 67 64 50 65 53 66 66 67 84 68 51 69 52 70 65 72 85 73
REMARK SMILES IDX 54 74 39 75 40 76 48 77 41 78 47 79 42 80 43 81 44 82 45 83
REMARK SMILES IDX 46 84 69 85 70 86 78 87 71 88 77 89 72 90 73 91 74 92 75 93
REMARK SMILES IDX 76 94 55 95 56 96 64 97 57 98 63 99 58 100 59 101 60 102
REMARK SMILES IDX 61 103 62 104
REMARK H PARENT 83 60 53 71
REMARK Flexibility Score: inf
ROOT
ATOM      1  C   UNL A   1      32.200  28.694  25.511  1.00  0.00     0.188 C 
ENDROOT
BRANCH   1   2
ATOM      2  O   UNL A   1      32.056  28.981  24.138  1.00  0.00    -0.376 OA
BRANCH   2   3
ATOM      3  C   UNL A   1      30.810  29.400  23.608  1.00  0.00     0.202 C 
BRANCH   3   4
ATOM      4  C   UNL A   1      29.767  28.481  22.949  1.00  0.00     0.261 C 
BRANCH   4   5
ATOM      5  O   UNL A   1      30.081  27.089  22.884  1.00  0.00    -0.460 OA
BRANCH   5   6
ATOM      6  C   UNL A   1      29.560  26.327  23.881  1.00  0.00     0.338 C 
ATOM      7  O   UNL A   1      28.441  26.421  24.356  1.00  0.00    -0.246 OA
BRANCH   6   8
ATOM      8  C   UNL A   1      30.499  25.241  24.251  1.00  0.00     0.060 A 
ATOM      9  C   UNL A   1      32.480  23.382  24.956  1.00  0.00     0.060 A 
ATOM     10  C   UNL A   1      32.002  24.295  25.903  1.00  0.00     0.029 A 
ATOM     11  C   UNL A   1      31.842  23.313  23.707  1.00  0.00     0.029 A 
ATOM     12  C   UNL A   1      31.021  25.227  25.551  1.00  0.00     0.018 A 
ATOM     13  C   UNL A   1      30.874  24.250  23.341  1.00  0.00     0.018 A 
BRANCH   9  14
ATOM     14  N   UNL A   1      33.697  22.714  25.131  1.00  0.00    -0.257 N 
ATOM     15  C   UNL A   1      35.819  22.738  25.319  1.00  0.00     0.071 C 
ATOM     16  N   UNL A   1      34.744  23.321  25.751  1.00  0.00    -0.176 NA
ATOM     17  C   UNL A   1      35.621  21.735  24.214  1.00  0.00     0.091 C 
ATOM     18  C   UNL A   1      34.091  21.708  24.128  1.00  0.00     0.144 C 
BRANCH  15  19
ATOM     19  C   UNL A   1      37.163  22.984  25.883  1.00  0.00    -0.002 A 
ATOM     20  C   UNL A   1      39.780  23.429  26.746  1.00  0.00     0.067 A 
ATOM     21  C   UNL A   1      39.423  22.179  26.234  1.00  0.00     0.021 A 
ATOM     22  C   UNL A   1      38.834  24.456  26.841  1.00  0.00     0.021 A 
ATOM     23  C   UNL A   1      38.110  21.956  25.811  1.00  0.00     0.011 A 
ATOM     24  C   UNL A   1      37.522  24.232  26.406  1.00  0.00     0.011 A 
BRANCH  20  25
ATOM     25  S   UNL A   1      41.468  23.731  27.224  1.00  0.00     0.175 S 
ATOM     26  C   UNL A   1      42.455  22.987  25.954  1.00  0.00     0.163 C 
ATOM     27  O   UNL A   1      41.682  22.997  28.456  1.00  0.00    -0.224 OA
ATOM     28  O   UNL A   1      41.691  25.163  27.162  1.00  0.00    -0.224 OA
ENDBRANCH  20  25
ENDBRANCH  15  19
BRANCH  18  29
ATOM     29  C   UNL A   1      33.371  20.383  24.379  1.00  0.00    -0.023 A 
ATOM     30  C   UNL A   1      32.771  19.609  23.373  1.00  0.00     0.009 A 
ATOM     31  C   UNL A   1      33.371  19.861  25.692  1.00  0.00     0.009 A 
ATOM     32  C   UNL A   1      32.216  18.359  23.668  1.00  0.00     0.039 A 
ATOM     33  C   UNL A   1      32.870  18.590  25.976  1.00  0.00     0.039 A 
ATOM     34  C   UNL A   1      32.291  17.851  24.959  1.00  0.00     0.123 A 
ATOM     35  F   UNL A   1      31.806  16.630  25.222  1.00  0.00    -0.207 F 
ENDBRANCH  18  29
ENDBRANCH   9  14
ENDBRANCH   6   8
ENDBRANCH   5   6
ENDBRANCH   4   5
ENDBRANCH   3   4
ENDBRANCH   2   3
ENDBRANCH   1   2
BRANCH   1  36
ATOM     36  C   UNL A   1      32.005  29.841  26.524  1.00  0.00     0.188 C 
BRANCH  36  37
ATOM     37  O   UNL A   1      32.900  29.997  27.604  1.00  0.00    -0.376 OA
BRANCH  37  38
ATOM     38  C   UNL A   1      33.748  31.133  27.651  1.00  0.00     0.202 C 
BRANCH  38  39
ATOM     39  C   UNL A   1      35.286  31.071  27.594  1.00  0.00     0.261 C 
BRANCH  39  40
ATOM     40  O   UNL A   1      35.997  31.200  28.828  1.00  0.00    -0.460 OA
BRANCH  40  41
ATOM     41  C   UNL A   1      37.161  30.508  28.906  1.00  0.00     0.338 C 
ATOM     42  O   UNL A   1      37.373  29.368  28.518  1.00  0.00    -0.246 OA
BRANCH  41  43
ATOM     43  C   UNL A   1      38.214  31.412  29.396  1.00  0.00     0.060 A 
ATOM     44  C   UNL A   1      39.451  30.884  29.800  1.00  0.00     0.016 A 
ATOM     45  C   UNL A   1      37.964  32.779  29.479  1.00  0.00     0.016 A 
ATOM     46  C   UNL A   1      40.446  31.729  30.291  1.00  0.00     0.010 A 
ATOM     47  C   UNL A   1      38.948  33.619  29.999  1.00  0.00     0.010 A 
ATOM     48  C   UNL A   1      40.183  33.097  30.427  1.00  0.00    -0.014 A 
BRANCH  48  49
ATOM     49  C   UNL A   1      41.097  33.983  31.183  1.00  0.00     0.031 A 
ATOM     50  C   UNL A   1      40.989  33.992  32.681  1.00  0.00     0.074 A 
ATOM     51  C   UNL A   1      41.946  34.815  30.555  1.00  0.00     0.049 A 
ATOM     52  N   UNL A   1      41.513  34.819  33.546  1.00  0.00    -0.248 NA
ATOM     53  C   UNL A   1      40.165  32.928  33.282  1.00  0.00     0.031 C 
ATOM     54  C   UNL A   1      42.184  34.857  29.113  1.00  0.00     0.029 A 
ATOM     55  N   UNL A   1      42.743  35.814  31.058  1.00  0.00    -0.354 N 
ATOM     56  C   UNL A   1      41.059  34.398  34.789  1.00  0.00     0.074 A 
ATOM     57  C   UNL A   1      40.207  33.250  34.566  1.00  0.00     0.031 C 
ATOM     58  C   UNL A   1      43.045  35.854  28.844  1.00  0.00     0.029 A 
ATOM     59  C   UNL A   1      43.376  36.552  30.085  1.00  0.00     0.049 A 
ATOM     60  H   UNL A   1      42.850  35.985  32.021  1.00  0.00     0.167 HD
ATOM     61  C   UNL A   1      41.322  34.927  36.007  1.00  0.00     0.031 A 
ATOM     62  C   UNL A   1      44.100  37.686  30.185  1.00  0.00     0.031 A 
ATOM     63  C   UNL A   1      42.154  36.082  36.214  1.00  0.00     0.049 A 
ATOM     64  C   UNL A   1      44.307  38.313  31.542  1.00  0.00     0.074 A 
ATOM     65  C   UNL A   1      42.494  36.692  37.407  1.00  0.00     0.029 A 
ATOM     66  N   UNL A   1      42.769  36.805  35.203  1.00  0.00    -0.354 N 
ATOM     67  N   UNL A   1      43.881  37.904  32.714  1.00  0.00    -0.248 NA
ATOM     68  C   UNL A   1      45.094  39.554  31.590  1.00  0.00     0.031 C 
ATOM     69  C   UNL A   1      43.260  37.823  37.113  1.00  0.00     0.029 A 
ATOM     70  C   UNL A   1      43.466  37.871  35.744  1.00  0.00     0.049 A 
ATOM     71  H   UNL A   1      42.718  36.592  34.243  1.00  0.00     0.167 HD
ATOM     72  C   UNL A   1      44.385  38.812  33.641  1.00  0.00     0.074 A 
ATOM     73  C   UNL A   1      45.146  39.792  32.894  1.00  0.00     0.031 C 
ATOM     74  C   UNL A   1      44.238  38.827  34.989  1.00  0.00     0.031 A 
BRANCH  61  75
ATOM     75  C   UNL A   1      40.666  34.289  37.202  1.00  0.00    -0.014 A 
ATOM     76  C   UNL A   1      41.378  33.432  38.060  1.00  0.00     0.010 A 
ATOM     77  C   UNL A   1      39.320  34.583  37.492  1.00  0.00     0.010 A 
ATOM     78  C   UNL A   1      40.746  32.850  39.162  1.00  0.00     0.020 A 
ATOM     79  C   UNL A   1      38.694  34.029  38.612  1.00  0.00     0.020 A 
ATOM     80  C   UNL A   1      39.408  33.153  39.431  1.00  0.00     0.054 A 
BRANCH  80  81
ATOM     81  S   UNL A   1      38.624  32.405  40.885  1.00  0.00     0.124 S 
ATOM     82  O   UNL A   1      37.475  31.727  40.292  1.00  0.00    -0.237 OA
ATOM     83  O   UNL A   1      39.674  31.529  41.399  1.00  0.00    -0.237 OA
ATOM     84  O   UNL A   1      38.301  33.549  41.734  1.00  0.00    -0.744 OA
ENDBRANCH  80  81
ENDBRANCH  61  75
BRANCH  62  85
ATOM     85  C   UNL A   1      44.661  38.322  28.960  1.00  0.00    -0.014 A 
ATOM     86  C   UNL A   1      43.917  39.279  28.247  1.00  0.00     0.010 A 
ATOM     87  C   UNL A   1      45.944  37.974  28.496  1.00  0.00     0.010 A 
ATOM     88  C   UNL A   1      44.434  39.861  27.086  1.00  0.00     0.020 A 
ATOM     89  C   UNL A   1      46.478  38.578  27.353  1.00  0.00     0.020 A 
ATOM     90  C   UNL A   1      45.715  39.510  26.649  1.00  0.00     0.054 A 
BRANCH  90  91
ATOM     91  S   UNL A   1      46.383  40.319  25.169  1.00  0.00     0.124 S 
ATOM     92  O   UNL A   1      46.880  39.183  24.399  1.00  0.00    -0.237 OA
ATOM     93  O   UNL A   1      45.206  40.990  24.620  1.00  0.00    -0.237 OA
ATOM     94  O   UNL A   1      47.410  41.213  25.699  1.00  0.00    -0.744 OA
ENDBRANCH  90  91
ENDBRANCH  62  85
BRANCH  74  95
ATOM     95  C   UNL A   1      44.968  39.888  35.772  1.00  0.00    -0.014 A 
ATOM     96  C   UNL A   1      46.310  39.733  36.157  1.00  0.00     0.010 A 
ATOM     97  C   UNL A   1      44.318  41.112  36.028  1.00  0.00     0.010 A 
ATOM     98  C   UNL A   1      46.987  40.779  36.794  1.00  0.00     0.020 A 
ATOM     99  C   UNL A   1      44.999  42.168  36.637  1.00  0.00     0.020 A 
ATOM    100  C   UNL A   1      46.329  41.993  37.021  1.00  0.00     0.054 A 
BRANCH 100 101
ATOM    101  S   UNL A   1      47.255  43.360  37.771  1.00  0.00     0.124 S 
ATOM    102  O   UNL A   1      48.554  43.248  37.113  1.00  0.00    -0.237 OA
ATOM    103  O   UNL A   1      46.460  44.528  37.398  1.00  0.00    -0.237 OA
ATOM    104  O   UNL A   1      47.251  43.042  39.198  1.00  0.00    -0.744 OA
ENDBRANCH 100 101
ENDBRANCH  74  95
ENDBRANCH  48  49
ENDBRANCH  41  43
ENDBRANCH  40  41
ENDBRANCH  39  40
ENDBRANCH  38  39
ENDBRANCH  37  38
ENDBRANCH  36  37
ENDBRANCH   1  36
TORSDOF 24
ENDMDL
MODEL 2
REMARK VINA RESULT:     -10.2      5.322      9.230
REMARK SMILES CS(=O)(=O)c1ccc(C2=NN(c3ccc(C(=O)OCCOCCOCCOC(=O)c4ccc(-c5c6nc(c(-c7ccc(S(=O)(=O)[O-])cc7)c7ccc([nH]7)c(-c7ccc(S(=O)(=O)[O-])cc7)c7nc(c(-c8ccc(S(=O)(=O)[O-])cc8)c8ccc5[nH]8)C=C7)C=C6)cc4)cc3)[C@H](c3ccc(F)cc3)C2)cc1
REMARK SMILES IDX 22 1 21 2 20 3 19 4 18 5 16 6 17 7 15 8 12 9 13 10 91 11
REMARK SMILES IDX 14 12 90 13 11 14 9 15 10 16 100 17 92 18 8 19 5 20 6 21
REMARK SMILES IDX 102 22 7 23 101 24 2 25 1 26 3 27 4 28 93 29 94 30 99 31
REMARK SMILES IDX 95 32 98 33 96 34 97 35 23 36 24 37 25 38 26 39 27 40 28 41
REMARK SMILES IDX 29 42 30 43 31 44 89 45 32 46 88 47 33 48 34 49 35 50 82 51
REMARK SMILES IDX 36 52 87 53 81 54 83 55 37 56 86 57 80 58 79 59 38 61 68 62
REMARK SMILES IDX 49 63 67 64 50 65 53 66 66 67 84 68 51 69 52 70 65 72 85 73
REMARK SMILES IDX 54 74 39 75 40 76 48 77 41 78 47 79 42 80 43 81 44 82 45 83
REMARK SMILES IDX 46 84 69 85 70 86 78 87 71 88 77 89 72 90 73 91 74 92 75 93
REMARK SMILES IDX 76 94 55 95 56 96 64 97 57 98 63 99 58 100 59 101 60 102
REMARK SMILES IDX 61 103 62 104
REMARK H PARENT 83 60 53 71
REMARK Flexibility Score: inf
ROOT
ATOM      1  C   UNL A   1      34.102  35.864  28.794  1.00  0.00     0.188 C 
ENDROOT
BRANCH   1   2
ATOM      2  O   UNL A   1      34.361  34.738  27.985  1.00  0.00    -0.376 OA
BRANCH   2   3
ATOM      3  C   UNL A   1      33.708  33.503  28.223  1.00  0.00     0.202 C 
BRANCH   3   4
ATOM      4  C   UNL A   1      34.408  32.175  28.561  1.00  0.00     0.261 C 
BRANCH   4   5
ATOM      5  O   UNL A   1      34.810  31.358  27.461  1.00  0.00    -0.460 OA
BRANCH   5   6
ATOM      6  C   UNL A   1      34.974  30.040  27.744  1.00  0.00     0.338 C 
ATOM      7  O   UNL A   1      35.674  29.567  28.624  1.00  0.00    -0.246 OA
BRANCH   6   8
ATOM      8  C   UNL A   1      34.068  29.213  26.911  1.00  0.00     0.060 A 
ATOM      9  C   UNL A   1      32.452  27.424  25.474  1.00  0.00     0.060 A 
ATOM     10  C   UNL A   1      32.148  27.734  26.805  1.00  0.00     0.029 A 
ATOM     11  C   UNL A   1      33.476  28.138  24.834  1.00  0.00     0.029 A 
ATOM     12  C   UNL A   1      32.957  28.619  27.524  1.00  0.00     0.018 A 
ATOM     13  C   UNL A   1      34.300  29.011  25.548  1.00  0.00     0.018 A 
BRANCH   9  14
ATOM     14  N   UNL A   1      31.931  26.284  24.850  1.00  0.00    -0.257 N 
ATOM     15  C   UNL A   1      32.124  24.257  24.224  1.00  0.00     0.071 C 
ATOM     16  N   UNL A   1      32.309  25.039  25.243  1.00  0.00    -0.176 NA
ATOM     17  C   UNL A   1      31.722  24.936  22.942  1.00  0.00     0.091 C 
ATOM     18  C   UNL A   1      31.551  26.380  23.429  1.00  0.00     0.144 C 
BRANCH  15  19
ATOM     19  C   UNL A   1      32.246  22.785  24.292  1.00  0.00    -0.002 A 
ATOM     20  C   UNL A   1      32.651  20.024  24.293  1.00  0.00     0.067 A 
ATOM     21  C   UNL A   1      32.284  20.669  23.110  1.00  0.00     0.021 A 
ATOM     22  C   UNL A   1      32.806  20.748  25.480  1.00  0.00     0.021 A 
ATOM     23  C   UNL A   1      32.073  22.050  23.114  1.00  0.00     0.011 A 
ATOM     24  C   UNL A   1      32.605  22.134  25.478  1.00  0.00     0.011 A 
BRANCH  20  25
ATOM     25  S   UNL A   1      32.983  18.275  24.270  1.00  0.00     0.175 S 
ATOM     26  C   UNL A   1      32.578  17.741  22.629  1.00  0.00     0.163 C 
ATOM     27  O   UNL A   1      32.041  17.668  25.191  1.00  0.00    -0.224 OA
ATOM     28  O   UNL A   1      34.412  18.098  24.444  1.00  0.00    -0.224 OA
ENDBRANCH  20  25
ENDBRANCH  15  19
BRANCH  18  29
ATOM     29  C   UNL A   1      30.182  27.041  23.278  1.00  0.00    -0.023 A 
ATOM     30  C   UNL A   1      28.996  26.533  23.831  1.00  0.00     0.009 A 
ATOM     31  C   UNL A   1      30.109  28.282  22.603  1.00  0.00     0.009 A 
ATOM     32  C   UNL A   1      27.797  27.248  23.731  1.00  0.00     0.039 A 
ATOM     33  C   UNL A   1      28.927  29.021  22.553  1.00  0.00     0.039 A 
ATOM     34  C   UNL A   1      27.778  28.493  23.116  1.00  0.00     0.123 A 
ATOM     35  F   UNL A   1      26.638  29.196  23.072  1.00  0.00    -0.207 F 
ENDBRANCH  18  29
ENDBRANCH   9  14
ENDBRANCH   6   8
ENDBRANCH   5   6
ENDBRANCH   4   5
ENDBRANCH   3   4
ENDBRANCH   2   3
ENDBRANCH   1   2
BRANCH   1  36
ATOM     36  C   UNL A   1      32.849  35.847  29.693  1.00  0.00     0.188 C 
BRANCH  36  37
ATOM     37  O   UNL A   1      32.928  35.358  31.015  1.00  0.00    -0.376 OA
BRANCH  37  38
ATOM     38  C   UNL A   1      33.084  36.270  32.090  1.00  0.00     0.202 C 
BRANCH  38  39
ATOM     39  C   UNL A   1      34.309  36.312  33.024  1.00  0.00     0.261 C 
BRANCH  39  40
ATOM     40  O   UNL A   1      35.354  35.367  32.781  1.00  0.00    -0.460 OA
BRANCH  40  41
ATOM     41  C   UNL A   1      35.332  34.259  33.564  1.00  0.00     0.338 C 
ATOM     42  O   UNL A   1      34.354  33.601  33.889  1.00  0.00    -0.246 OA
BRANCH  41  43
ATOM     43  C   UNL A   1      36.718  33.854  33.845  1.00  0.00     0.060 A 
ATOM     44  C   UNL A   1      37.170  33.797  35.174  1.00  0.00     0.016 A 
ATOM     45  C   UNL A   1      37.576  33.556  32.789  1.00  0.00     0.016 A 
ATOM     46  C   UNL A   1      38.490  33.440  35.449  1.00  0.00     0.010 A 
ATOM     47  C   UNL A   1      38.904  33.230  33.065  1.00  0.00     0.010 A 
ATOM     48  C   UNL A   1      39.372  33.192  34.392  1.00  0.00    -0.014 A 
BRANCH  48  49
ATOM     49  C   UNL A   1      40.830  33.073  34.619  1.00  0.00     0.031 A 
ATOM     50  C   UNL A   1      41.631  34.340  34.724  1.00  0.00     0.074 A 
ATOM     51  C   UNL A   1      41.439  31.876  34.655  1.00  0.00     0.049 A 
ATOM     52  N   UNL A   1      42.927  34.506  34.706  1.00  0.00    -0.248 NA
ATOM     53  C   UNL A   1      40.861  35.590  34.851  1.00  0.00     0.031 C 
ATOM     54  C   UNL A   1      40.766  30.578  34.625  1.00  0.00     0.029 A 
ATOM     55  N   UNL A   1      42.776  31.562  34.689  1.00  0.00    -0.354 N 
ATOM     56  C   UNL A   1      43.129  35.878  34.788  1.00  0.00     0.074 A 
ATOM     57  C   UNL A   1      41.824  36.500  34.841  1.00  0.00     0.031 C 
ATOM     58  C   UNL A   1      41.696  29.607  34.611  1.00  0.00     0.029 A 
ATOM     59  C   UNL A   1      43.025  30.214  34.577  1.00  0.00     0.049 A 
ATOM     60  H   UNL A   1      43.486  32.236  34.785  1.00  0.00     0.167 HD
ATOM     61  C   UNL A   1      44.299  36.559  34.807  1.00  0.00     0.031 A 
ATOM     62  C   UNL A   1      44.191  29.554  34.418  1.00  0.00     0.031 A 
ATOM     63  C   UNL A   1      45.590  35.930  34.731  1.00  0.00     0.049 A 
ATOM     64  C   UNL A   1      45.479  30.337  34.351  1.00  0.00     0.074 A 
ATOM     65  C   UNL A   1      46.838  36.527  34.753  1.00  0.00     0.029 A 
ATOM     66  N   UNL A   1      45.799  34.565  34.609  1.00  0.00    -0.354 N 
ATOM     67  N   UNL A   1      45.664  31.633  34.437  1.00  0.00    -0.248 NA
ATOM     68  C   UNL A   1      46.719  29.568  34.165  1.00  0.00     0.031 C 
ATOM     69  C   UNL A   1      47.799  35.528  34.579  1.00  0.00     0.029 A 
ATOM     70  C   UNL A   1      47.155  34.302  34.529  1.00  0.00     0.049 A 
ATOM     71  H   UNL A   1      45.089  33.884  34.583  1.00  0.00     0.167 HD
ATOM     72  C   UNL A   1      47.040  31.830  34.360  1.00  0.00     0.074 A 
ATOM     73  C   UNL A   1      47.641  30.520  34.220  1.00  0.00     0.031 C 
ATOM     74  C   UNL A   1      47.741  32.989  34.412  1.00  0.00     0.031 A 
BRANCH  61  75
ATOM     75  C   UNL A   1      44.231  38.061  34.867  1.00  0.00    -0.014 A 
ATOM     76  C   UNL A   1      43.905  38.827  33.734  1.00  0.00     0.010 A 
ATOM     77  C   UNL A   1      44.463  38.716  36.091  1.00  0.00     0.010 A 
ATOM     78  C   UNL A   1      43.850  40.221  33.814  1.00  0.00     0.020 A 
ATOM     79  C   UNL A   1      44.376  40.108  36.183  1.00  0.00     0.020 A 
ATOM     80  C   UNL A   1      44.086  40.852  35.038  1.00  0.00     0.054 A 
BRANCH  80  81
ATOM     81  S   UNL A   1      43.979  42.661  35.118  1.00  0.00     0.124 S 
ATOM     82  O   UNL A   1      44.820  42.962  36.273  1.00  0.00    -0.237 OA
ATOM     83  O   UNL A   1      44.520  43.069  33.824  1.00  0.00    -0.237 OA
ATOM     84  O   UNL A   1      42.553  42.918  35.303  1.00  0.00    -0.744 OA
ENDBRANCH  80  81
ENDBRANCH  61  75
BRANCH  62  85
ATOM     85  C   UNL A   1      44.196  28.070  34.284  1.00  0.00    -0.014 A 
ATOM     86  C   UNL A   1      44.240  27.250  35.425  1.00  0.00     0.010 A 
ATOM     87  C   UNL A   1      44.160  27.466  33.012  1.00  0.00     0.010 A 
ATOM     88  C   UNL A   1      44.266  25.858  35.299  1.00  0.00     0.020 A 
ATOM     89  C   UNL A   1      44.153  26.074  32.883  1.00  0.00     0.020 A 
ATOM     90  C   UNL A   1      44.217  25.278  34.027  1.00  0.00     0.054 A 
BRANCH  90  91
ATOM     91  S   UNL A   1      44.199  23.469  33.895  1.00  0.00     0.124 S 
ATOM     92  O   UNL A   1      43.085  23.111  34.768  1.00  0.00    -0.237 OA
ATOM     93  O   UNL A   1      43.975  23.261  32.467  1.00  0.00    -0.237 OA
ATOM     94  O   UNL A   1      45.522  23.076  34.375  1.00  0.00    -0.744 OA
ENDBRANCH  90  91
ENDBRANCH  62  85
BRANCH  74  95
ATOM     95  C   UNL A   1      49.246  32.910  34.391  1.00  0.00    -0.014 A 
ATOM     96  C   UNL A   1      49.977  33.012  33.196  1.00  0.00     0.010 A 
ATOM     97  C   UNL A   1      49.941  32.842  35.615  1.00  0.00     0.010 A 
ATOM     98  C   UNL A   1      51.376  33.037  33.224  1.00  0.00     0.020 A 
ATOM     99  C   UNL A   1      51.336  32.896  35.649  1.00  0.00     0.020 A 
ATOM    100  C   UNL A   1      52.045  32.988  34.452  1.00  0.00     0.054 A 
BRANCH 100 101
ATOM    101  S   UNL A   1      53.855  33.108  34.464  1.00  0.00     0.124 S 
ATOM    102  O   UNL A   1      54.255  31.709  34.342  1.00  0.00    -0.237 OA
ATOM    103  O   UNL A   1      54.128  33.944  33.297  1.00  0.00    -0.237 OA
ATOM    104  O   UNL A   1      54.154  33.730  35.753  1.00  0.00    -0.744 OA
ENDBRANCH 100 101
ENDBRANCH  74  95
ENDBRANCH  48  49
ENDBRANCH  41  43
ENDBRANCH  40  41
ENDBRANCH  39  40
ENDBRANCH  38  39
ENDBRANCH  37  38
ENDBRANCH  36  37
ENDBRANCH   1  36
TORSDOF 24
ENDMDL
MODEL 3
REMARK VINA RESULT:     -10.0      6.193      9.107
REMARK SMILES CS(=O)(=O)c1ccc(C2=NN(c3ccc(C(=O)OCCOCCOCCOC(=O)c4ccc(-c5c6nc(c(-c7ccc(S(=O)(=O)[O-])cc7)c7ccc([nH]7)c(-c7ccc(S(=O)(=O)[O-])cc7)c7nc(c(-c8ccc(S(=O)(=O)[O-])cc8)c8ccc5[nH]8)C=C7)C=C6)cc4)cc3)[C@H](c3ccc(F)cc3)C2)cc1
REMARK SMILES IDX 22 1 21 2 20 3 19 4 18 5 16 6 17 7 15 8 12 9 13 10 91 11
REMARK SMILES IDX 14 12 90 13 11 14 9 15 10 16 100 17 92 18 8 19 5 20 6 21
REMARK SMILES IDX 102 22 7 23 101 24 2 25 1 26 3 27 4 28 93 29 94 30 99 31
REMARK SMILES IDX 95 32 98 33 96 34 97 35 23 36 24 37 25 38 26 39 27 40 28 41
REMARK SMILES IDX 29 42 30 43 31 44 89 45 32 46 88 47 33 48 34 49 35 50 82 51
REMARK SMILES IDX 36 52 87 53 81 54 83 55 37 56 86 57 80 58 79 59 38 61 68 62
REMARK SMILES IDX 49 63 67 64 50 65 53 66 66 67 84 68 51 69 52 70 65 72 85 73
REMARK SMILES IDX 54 74 39 75 40 76 48 77 41 78 47 79 42 80 43 81 44 82 45 83
REMARK SMILES IDX 46 84 69 85 70 86 78 87 71 88 77 89 72 90 73 91 74 92 75 93
REMARK SMILES IDX 76 94 55 95 56 96 64 97 57 98 63 99 58 100 59 101 60 102
REMARK SMILES IDX 61 103 62 104
REMARK H PARENT 83 60 53 71
REMARK Flexibility Score: inf
ROOT
ATOM      1  C   UNL A   1      34.385  35.387  28.794  1.00  0.00     0.188 C 
ENDROOT
BRANCH   1   2
ATOM      2  O   UNL A   1      34.666  34.103  28.283  1.00  0.00    -0.376 OA
BRANCH   2   3
ATOM      3  C   UNL A   1      34.221  32.937  28.956  1.00  0.00     0.202 C 
BRANCH   3   4
ATOM      4  C   UNL A   1      34.900  31.558  28.895  1.00  0.00     0.261 C 
BRANCH   4   5
ATOM      5  O   UNL A   1      35.165  31.025  27.597  1.00  0.00    -0.460 OA
BRANCH   5   6
ATOM      6  C   UNL A   1      35.495  29.708  27.564  1.00  0.00     0.338 C 
ATOM      7  O   UNL A   1      36.382  29.166  28.202  1.00  0.00    -0.246 OA
BRANCH   6   8
ATOM      8  C   UNL A   1      34.532  28.951  26.729  1.00  0.00     0.060 A 
ATOM      9  C   UNL A   1      32.817  27.282  25.262  1.00  0.00     0.060 A 
ATOM     10  C   UNL A   1      32.604  27.481  26.632  1.00  0.00     0.029 A 
ATOM     11  C   UNL A   1      33.799  28.049  24.615  1.00  0.00     0.029 A 
ATOM     12  C   UNL A   1      33.463  28.307  27.365  1.00  0.00     0.018 A 
ATOM     13  C   UNL A   1      34.671  28.862  25.342  1.00  0.00     0.018 A 
BRANCH   9  14
ATOM     14  N   UNL A   1      32.251  26.197  24.584  1.00  0.00    -0.257 N 
ATOM     15  C   UNL A   1      32.412  24.251  23.730  1.00  0.00     0.071 C 
ATOM     16  N   UNL A   1      32.695  24.930  24.799  1.00  0.00    -0.176 NA
ATOM     17  C   UNL A   1      31.854  25.045  22.579  1.00  0.00     0.091 C 
ATOM     18  C   UNL A   1      31.712  26.425  23.230  1.00  0.00     0.144 C 
BRANCH  15  19
ATOM     19  C   UNL A   1      32.569  22.785  23.630  1.00  0.00    -0.002 A 
ATOM     20  C   UNL A   1      32.762  20.000  23.632  1.00  0.00     0.067 A 
ATOM     21  C   UNL A   1      33.463  20.744  24.585  1.00  0.00     0.021 A 
ATOM     22  C   UNL A   1      31.973  20.640  22.670  1.00  0.00     0.021 A 
ATOM     23  C   UNL A   1      33.372  22.138  24.576  1.00  0.00     0.011 A 
ATOM     24  C   UNL A   1      31.875  22.037  22.671  1.00  0.00     0.011 A 
BRANCH  20  25
ATOM     25  S   UNL A   1      32.829  18.223  23.686  1.00  0.00     0.175 S 
ATOM     26  C   UNL A   1      34.461  17.830  24.256  1.00  0.00     0.163 C 
ATOM     27  O   UNL A   1      32.703  17.766  22.315  1.00  0.00    -0.224 OA
ATOM     28  O   UNL A   1      31.896  17.780  24.705  1.00  0.00    -0.224 OA
ENDBRANCH  20  25
ENDBRANCH  15  19
BRANCH  18  29
ATOM     29  C   UNL A   1      30.322  27.056  23.301  1.00  0.00    -0.023 A 
ATOM     30  C   UNL A   1      29.971  28.263  22.676  1.00  0.00     0.009 A 
ATOM     31  C   UNL A   1      29.300  26.349  23.975  1.00  0.00     0.009 A 
ATOM     32  C   UNL A   1      28.651  28.727  22.706  1.00  0.00     0.039 A 
ATOM     33  C   UNL A   1      27.974  26.781  23.956  1.00  0.00     0.039 A 
ATOM     34  C   UNL A   1      27.662  27.972  23.323  1.00  0.00     0.123 A 
ATOM     35  F   UNL A   1      26.392  28.396  23.301  1.00  0.00    -0.207 F 
ENDBRANCH  18  29
ENDBRANCH   9  14
ENDBRANCH   6   8
ENDBRANCH   5   6
ENDBRANCH   4   5
ENDBRANCH   3   4
ENDBRANCH   2   3
ENDBRANCH   1   2
BRANCH   1  36
ATOM     36  C   UNL A   1      32.975  35.661  29.354  1.00  0.00     0.188 C 
BRANCH  36  37
ATOM     37  O   UNL A   1      32.682  35.390  30.707  1.00  0.00    -0.376 OA
BRANCH  37  38
ATOM     38  C   UNL A   1      33.007  36.349  31.700  1.00  0.00     0.202 C 
BRANCH  38  39
ATOM     39  C   UNL A   1      34.195  36.224  32.673  1.00  0.00     0.261 C 
BRANCH  39  40
ATOM     40  O   UNL A   1      35.295  35.407  32.266  1.00  0.00    -0.460 OA
BRANCH  40  41
ATOM     41  C   UNL A   1      35.327  34.161  32.802  1.00  0.00     0.338 C 
ATOM     42  O   UNL A   1      34.665  33.192  32.462  1.00  0.00    -0.246 OA
BRANCH  41  43
ATOM     43  C   UNL A   1      36.424  34.097  33.780  1.00  0.00     0.060 A 
ATOM     44  C   UNL A   1      37.719  34.485  33.400  1.00  0.00     0.016 A 
ATOM     45  C   UNL A   1      36.172  33.626  35.067  1.00  0.00     0.016 A 
ATOM     46  C   UNL A   1      38.771  34.401  34.312  1.00  0.00     0.010 A 
ATOM     47  C   UNL A   1      37.230  33.513  35.967  1.00  0.00     0.010 A 
ATOM     48  C   UNL A   1      38.536  33.879  35.589  1.00  0.00    -0.014 A 
BRANCH  48  49
ATOM     49  C   UNL A   1      39.655  33.524  36.492  1.00  0.00     0.031 A 
ATOM     50  C   UNL A   1      40.096  34.546  37.501  1.00  0.00     0.074 A 
ATOM     51  C   UNL A   1      40.313  32.359  36.368  1.00  0.00     0.049 A 
ATOM     52  N   UNL A   1      41.169  34.567  38.246  1.00  0.00    -0.248 NA
ATOM     53  C   UNL A   1      39.211  35.710  37.680  1.00  0.00     0.031 C 
ATOM     54  C   UNL A   1      39.943  31.265  35.471  1.00  0.00     0.029 A 
ATOM     55  N   UNL A   1      41.459  31.918  36.984  1.00  0.00    -0.354 N 
ATOM     56  C   UNL A   1      41.106  35.757  38.959  1.00  0.00     0.074 A 
ATOM     57  C   UNL A   1      39.897  36.437  38.549  1.00  0.00     0.031 C 
ATOM     58  C   UNL A   1      40.865  30.291  35.572  1.00  0.00     0.029 A 
ATOM     59  C   UNL A   1      41.913  30.715  36.498  1.00  0.00     0.049 A 
ATOM     60  H   UNL A   1      41.910  32.416  37.702  1.00  0.00     0.167 HD
ATOM     61  C   UNL A   1      41.982  36.243  39.869  1.00  0.00     0.031 A 
ATOM     62  C   UNL A   1      43.066  30.057  36.741  1.00  0.00     0.031 A 
ATOM     63  C   UNL A   1      43.192  35.566  40.253  1.00  0.00     0.049 A 
ATOM     64  C   UNL A   1      44.074  30.658  37.689  1.00  0.00     0.074 A 
ATOM     65  C   UNL A   1      44.144  35.966  41.173  1.00  0.00     0.029 A 
ATOM     66  N   UNL A   1      43.621  34.355  39.732  1.00  0.00    -0.354 N 
ATOM     67  N   UNL A   1      44.003  31.780  38.367  1.00  0.00    -0.248 NA
ATOM     68  C   UNL A   1      45.318  29.904  37.908  1.00  0.00     0.031 C 
ATOM     69  C   UNL A   1      45.181  35.029  41.160  1.00  0.00     0.029 A 
ATOM     70  C   UNL A   1      44.836  34.005  40.293  1.00  0.00     0.049 A 
ATOM     71  H   UNL A   1      43.133  33.823  39.062  1.00  0.00     0.167 HD
ATOM     72  C   UNL A   1      45.171  31.843  39.123  1.00  0.00     0.074 A 
ATOM     73  C   UNL A   1      45.930  30.648  38.820  1.00  0.00     0.031 C 
ATOM     74  C   UNL A   1      45.571  32.799  39.997  1.00  0.00     0.031 A 
BRANCH  61  75
ATOM     75  C   UNL A   1      41.686  37.589  40.474  1.00  0.00    -0.014 A 
ATOM     76  C   UNL A   1      40.923  37.714  41.648  1.00  0.00     0.010 A 
ATOM     77  C   UNL A   1      42.215  38.748  39.876  1.00  0.00     0.010 A 
ATOM     78  C   UNL A   1      40.660  38.974  42.190  1.00  0.00     0.020 A 
ATOM     79  C   UNL A   1      41.983  40.008  40.434  1.00  0.00     0.020 A 
ATOM     80  C   UNL A   1      41.192  40.113  41.579  1.00  0.00     0.054 A 
BRANCH  80  81
ATOM     81  S   UNL A   1      40.858  41.733  42.323  1.00  0.00     0.124 S 
ATOM     82  O   UNL A   1      41.866  42.573  41.681  1.00  0.00    -0.237 OA
ATOM     83  O   UNL A   1      39.477  41.990  41.921  1.00  0.00    -0.237 OA
ATOM     84  O   UNL A   1      41.056  41.508  43.753  1.00  0.00    -0.744 OA
ENDBRANCH  80  81
ENDBRANCH  61  75
BRANCH  62  85
ATOM     85  C   UNL A   1      43.346  28.765  36.053  1.00  0.00    -0.014 A 
ATOM     86  C   UNL A   1      42.937  27.548  36.627  1.00  0.00     0.010 A 
ATOM     87  C   UNL A   1      44.028  28.742  34.822  1.00  0.00     0.010 A 
ATOM     88  C   UNL A   1      43.218  26.333  35.993  1.00  0.00     0.020 A 
ATOM     89  C   UNL A   1      44.283  27.531  34.169  1.00  0.00     0.020 A 
ATOM     90  C   UNL A   1      43.885  26.334  34.764  1.00  0.00     0.054 A 
BRANCH  90  91
ATOM     91  S   UNL A   1      44.191  24.748  33.939  1.00  0.00     0.124 S 
ATOM     92  O   UNL A   1      44.213  25.136  32.531  1.00  0.00    -0.237 OA
ATOM     93  O   UNL A   1      45.476  24.342  34.503  1.00  0.00    -0.237 OA
ATOM     94  O   UNL A   1      43.053  23.925  34.344  1.00  0.00    -0.744 OA
ENDBRANCH  90  91
ENDBRANCH  62  85
BRANCH  74  95
ATOM     95  C   UNL A   1      46.855  32.577  40.755  1.00  0.00    -0.014 A 
ATOM     96  C   UNL A   1      48.084  33.079  40.294  1.00  0.00     0.010 A 
ATOM     97  C   UNL A   1      46.802  31.942  42.011  1.00  0.00     0.010 A 
ATOM     98  C   UNL A   1      49.238  32.942  41.072  1.00  0.00     0.020 A 
ATOM     99  C   UNL A   1      47.946  31.829  42.804  1.00  0.00     0.020 A 
ATOM    100  C   UNL A   1      49.159  32.326  42.326  1.00  0.00     0.054 A 
BRANCH 100 101
ATOM    101  S   UNL A   1      50.654  32.238  43.351  1.00  0.00     0.124 S 
ATOM    102  O   UNL A   1      51.324  33.493  43.023  1.00  0.00    -0.237 OA
ATOM    103  O   UNL A   1      50.109  32.150  44.703  1.00  0.00    -0.237 OA
ATOM    104  O   UNL A   1      51.328  31.030  42.878  1.00  0.00    -0.744 OA
ENDBRANCH 100 101
ENDBRANCH  74  95
ENDBRANCH  48  49
ENDBRANCH  41  43
ENDBRANCH  40  41
ENDBRANCH  39  40
ENDBRANCH  38  39
ENDBRANCH  37  38
ENDBRANCH  36  37
ENDBRANCH   1  36
TORSDOF 24
ENDMDL
