MODEL 1
REMARK VINA RESULT:     -10.7      0.000      0.000
REMARK SMILES C[C@H]1CCc2sc3ncn4nc(/C=C\C(=O)OCCOCCOCCOC(=O)c5ccc(-c6c7nc(c(-c8ccc(S(=O)(=O)[O-])cc8)c8ccc([nH]8)c(-c8ccc(S(=O)(=O)[O-])cc8)c8nc(c(-c9ccc(S(=O)(=O)[O-])cc9)c9ccc6[nH]9)C=C8)C=C7)cc5)nc4c3c2C1
REMARK SMILES IDX 22 1 21 2 20 3 19 4 18 5 17 6 15 7 16 8 14 9 13 10 12 11
REMARK SMILES IDX 1 12 2 13 3 14 93 15 4 16 92 17 5 18 91 19 6 20 7 21 90 22
REMARK SMILES IDX 8 23 10 24 89 25 9 26 11 27 23 28 24 29 25 30 26 31 27 32
REMARK SMILES IDX 28 33 29 34 30 35 88 36 31 37 87 38 32 39 33 40 34 41 81 42
REMARK SMILES IDX 35 43 86 44 80 45 82 46 36 47 85 48 79 49 78 50 37 52 67 53
REMARK SMILES IDX 48 54 66 55 49 56 52 57 65 58 83 59 50 60 51 61 64 63 84 64
REMARK SMILES IDX 53 65 38 66 39 67 47 68 40 69 46 70 41 71 42 72 43 73 44 74
REMARK SMILES IDX 45 75 68 76 69 77 77 78 70 79 76 80 71 81 72 82 73 83 74 84
REMARK SMILES IDX 75 85 54 86 55 87 63 88 56 89 62 90 57 91 58 92 59 93 60 94
REMARK SMILES IDX 61 95
REMARK H PARENT 82 51 52 62
REMARK Flexibility Score: inf
ROOT
ATOM      1  C   UNL A   1      42.388  20.198  26.532  1.00  0.00     0.188 C 
ENDROOT
BRANCH   1   2
ATOM      2  C   UNL A   1      40.844  20.057  26.629  1.00  0.00     0.188 C 
BRANCH   2   3
ATOM      3  O   UNL A   1      40.129  19.240  25.719  1.00  0.00    -0.376 OA
BRANCH   3   4
ATOM      4  C   UNL A   1      38.846  19.668  25.283  1.00  0.00     0.202 C 
BRANCH   4   5
ATOM      5  C   UNL A   1      38.381  21.112  25.533  1.00  0.00     0.261 C 
BRANCH   5   6
ATOM      6  O   UNL A   1      37.422  21.580  24.582  1.00  0.00    -0.460 OA
BRANCH   6   7
ATOM      7  C   UNL A   1      36.530  22.500  24.997  1.00  0.00     0.330 C 
ATOM      8  O   UNL A   1      36.470  23.667  24.638  1.00  0.00    -0.247 OA
BRANCH   7   9
ATOM      9  C   UNL A   1      35.447  21.887  25.791  1.00  0.00     0.097 C 
ATOM     10  C   UNL A   1      34.151  22.222  25.887  1.00  0.00     0.058 C 
BRANCH  10  11
ATOM     11  C   UNL A   1      33.401  23.252  25.247  1.00  0.00     0.175 A 
ATOM     12  C   UNL A   1      34.881  29.722  26.578  1.00  0.00     0.008 C 
ATOM     13  C   UNL A   1      33.683  29.106  27.301  1.00  0.00    -0.009 C 
ATOM     14  C   UNL A   1      32.430  30.009  27.255  1.00  0.00     0.009 C 
ATOM     15  C   UNL A   1      33.399  27.698  26.754  1.00  0.00     0.041 C 
ATOM     16  C   UNL A   1      31.776  30.108  25.862  1.00  0.00     0.047 C 
ATOM     17  C   UNL A   1      32.451  27.668  25.612  1.00  0.00    -0.020 A 
ATOM     18  C   UNL A   1      31.705  28.758  25.218  1.00  0.00     0.011 A 
ATOM     19  C   UNL A   1      32.138  26.545  24.820  1.00  0.00     0.060 A 
ATOM     20  S   UNL A   1      30.695  28.415  23.880  1.00  0.00    -0.120 S 
ATOM     21  C   UNL A   1      31.197  26.774  23.829  1.00  0.00     0.129 A 
ATOM     22  C   UNL A   1      32.621  25.160  24.883  1.00  0.00     0.168 A 
ATOM     23  N   UNL A   1      30.698  25.865  22.923  1.00  0.00    -0.225 NA
ATOM     24  N   UNL A   1      32.069  24.270  24.021  1.00  0.00    -0.201 N 
ATOM     25  N   UNL A   1      33.518  24.568  25.627  1.00  0.00    -0.207 NA
ATOM     26  C   UNL A   1      31.137  24.633  23.048  1.00  0.00     0.227 A 
ATOM     27  N   UNL A   1      32.550  23.031  24.224  1.00  0.00    -0.145 NA
ENDBRANCH  10  11
ENDBRANCH   7   9
ENDBRANCH   6   7
ENDBRANCH   5   6
ENDBRANCH   4   5
ENDBRANCH   3   4
ENDBRANCH   2   3
ENDBRANCH   1   2
BRANCH   1  28
ATOM     28  O   UNL A   1      42.977  20.667  25.338  1.00  0.00    -0.376 OA
BRANCH  28  29
ATOM     29  C   UNL A   1      43.930  21.717  25.239  1.00  0.00     0.202 C 
BRANCH  29  30
ATOM     30  C   UNL A   1      43.646  23.199  25.057  1.00  0.00     0.261 C 
BRANCH  30  31
ATOM     31  O   UNL A   1      42.322  23.528  25.392  1.00  0.00    -0.460 OA
BRANCH  31  32
ATOM     32  C   UNL A   1      42.253  24.250  26.520  1.00  0.00     0.338 C 
ATOM     33  O   UNL A   1      41.820  23.882  27.615  1.00  0.00    -0.246 OA
BRANCH  32  34
ATOM     34  C   UNL A   1      42.797  25.576  26.281  1.00  0.00     0.060 A 
ATOM     35  C   UNL A   1      43.792  25.963  27.178  1.00  0.00     0.016 A 
ATOM     36  C   UNL A   1      42.011  26.482  25.557  1.00  0.00     0.016 A 
ATOM     37  C   UNL A   1      43.681  27.222  27.690  1.00  0.00     0.010 A 
ATOM     38  C   UNL A   1      41.911  27.744  26.061  1.00  0.00     0.010 A 
ATOM     39  C   UNL A   1      42.627  28.011  27.221  1.00  0.00    -0.014 A 
BRANCH  39  40
ATOM     40  C   UNL A   1      42.211  29.101  28.057  1.00  0.00     0.031 A 
ATOM     41  C   UNL A   1      43.201  30.179  28.088  1.00  0.00     0.074 A 
ATOM     42  C   UNL A   1      41.027  29.096  28.694  1.00  0.00     0.049 A 
ATOM     43  N   UNL A   1      44.059  30.408  29.019  1.00  0.00    -0.248 NA
ATOM     44  C   UNL A   1      43.424  30.919  26.839  1.00  0.00     0.031 C 
ATOM     45  C   UNL A   1      39.868  28.214  28.530  1.00  0.00     0.029 A 
ATOM     46  N   UNL A   1      40.588  30.002  29.594  1.00  0.00    -0.354 N 
ATOM     47  C   UNL A   1      44.810  31.474  28.557  1.00  0.00     0.074 A 
ATOM     48  C   UNL A   1      44.533  31.588  27.145  1.00  0.00     0.031 C 
ATOM     49  C   UNL A   1      38.786  28.802  29.102  1.00  0.00     0.029 A 
ATOM     50  C   UNL A   1      39.218  30.009  29.790  1.00  0.00     0.049 A 
ATOM     51  H   UNL A   1      41.195  30.610  30.072  1.00  0.00     0.167 HD
ATOM     52  C   UNL A   1      45.400  32.350  29.411  1.00  0.00     0.031 A 
ATOM     53  C   UNL A   1      38.526  31.009  30.394  1.00  0.00     0.031 A 
ATOM     54  C   UNL A   1      45.395  31.867  30.767  1.00  0.00     0.049 A 
ATOM     55  C   UNL A   1      39.512  31.793  31.195  1.00  0.00     0.074 A 
ATOM     56  C   UNL A   1      45.961  30.780  31.405  1.00  0.00     0.029 A 
ATOM     57  N   UNL A   1      44.370  32.296  31.581  1.00  0.00    -0.354 N 
ATOM     58  N   UNL A   1      40.133  31.302  32.233  1.00  0.00    -0.248 NA
ATOM     59  C   UNL A   1      40.183  32.916  30.552  1.00  0.00     0.031 C 
ATOM     60  C   UNL A   1      44.965  30.328  32.319  1.00  0.00     0.029 A 
ATOM     61  C   UNL A   1      43.874  31.197  32.241  1.00  0.00     0.049 A 
ATOM     62  H   UNL A   1      44.049  33.223  31.674  1.00  0.00     0.167 HD
ATOM     63  C   UNL A   1      41.442  31.754  32.124  1.00  0.00     0.074 A 
ATOM     64  C   UNL A   1      41.394  32.813  31.115  1.00  0.00     0.031 C 
ATOM     65  C   UNL A   1      42.489  31.039  32.639  1.00  0.00     0.031 A 
BRANCH  52  66
ATOM     66  C   UNL A   1      45.612  33.791  29.059  1.00  0.00    -0.014 A 
ATOM     67  C   UNL A   1      44.506  34.655  29.026  1.00  0.00     0.010 A 
ATOM     68  C   UNL A   1      46.826  34.266  28.516  1.00  0.00     0.010 A 
ATOM     69  C   UNL A   1      44.602  35.919  28.434  1.00  0.00     0.020 A 
ATOM     70  C   UNL A   1      46.946  35.540  27.969  1.00  0.00     0.020 A 
ATOM     71  C   UNL A   1      45.821  36.346  27.900  1.00  0.00     0.054 A 
BRANCH  71  72
ATOM     72  S   UNL A   1      45.902  37.928  27.031  1.00  0.00     0.124 S 
ATOM     73  O   UNL A   1      44.509  38.128  26.641  1.00  0.00    -0.237 OA
ATOM     74  O   UNL A   1      46.408  38.822  28.067  1.00  0.00    -0.237 OA
ATOM     75  O   UNL A   1      46.829  37.668  25.931  1.00  0.00    -0.744 OA
ENDBRANCH  71  72
ENDBRANCH  52  66
BRANCH  53  76
ATOM     76  C   UNL A   1      37.206  31.560  29.993  1.00  0.00    -0.014 A 
ATOM     77  C   UNL A   1      36.303  32.050  30.956  1.00  0.00     0.010 A 
ATOM     78  C   UNL A   1      36.955  31.873  28.641  1.00  0.00     0.010 A 
ATOM     79  C   UNL A   1      35.228  32.880  30.585  1.00  0.00     0.020 A 
ATOM     80  C   UNL A   1      35.885  32.696  28.264  1.00  0.00     0.020 A 
ATOM     81  C   UNL A   1      35.041  33.218  29.242  1.00  0.00     0.054 A 
BRANCH  81  82
ATOM     82  S   UNL A   1      33.770  34.438  28.794  1.00  0.00     0.124 S 
ATOM     83  O   UNL A   1      33.086  34.658  30.066  1.00  0.00    -0.237 OA
ATOM     84  O   UNL A   1      34.566  35.558  28.303  1.00  0.00    -0.237 OA
ATOM     85  O   UNL A   1      32.976  33.752  27.776  1.00  0.00    -0.744 OA
ENDBRANCH  81  82
ENDBRANCH  53  76
BRANCH  65  86
ATOM     86  C   UNL A   1      42.170  29.851  33.522  1.00  0.00    -0.014 A 
ATOM     87  C   UNL A   1      41.768  28.591  33.030  1.00  0.00     0.010 A 
ATOM     88  C   UNL A   1      42.416  29.978  34.899  1.00  0.00     0.010 A 
ATOM     89  C   UNL A   1      41.575  27.506  33.900  1.00  0.00     0.020 A 
ATOM     90  C   UNL A   1      42.243  28.898  35.768  1.00  0.00     0.020 A 
ATOM     91  C   UNL A   1      41.808  27.670  35.269  1.00  0.00     0.054 A 
BRANCH  91  92
ATOM     92  S   UNL A   1      41.552  26.270  36.395  1.00  0.00     0.124 S 
ATOM     93  O   UNL A   1      40.869  25.298  35.546  1.00  0.00    -0.237 OA
ATOM     94  O   UNL A   1      42.915  25.916  36.787  1.00  0.00    -0.237 OA
ATOM     95  O   UNL A   1      40.734  26.832  37.470  1.00  0.00    -0.744 OA
ENDBRANCH  91  92
ENDBRANCH  65  86
ENDBRANCH  39  40
ENDBRANCH  32  34
ENDBRANCH  31  32
ENDBRANCH  30  31
ENDBRANCH  29  30
ENDBRANCH  28  29
ENDBRANCH   1  28
TORSDOF 21
ENDMDL
MODEL 2
REMARK VINA RESULT:     -10.4      1.979      3.433
REMARK SMILES C[C@H]1CCc2sc3ncn4nc(/C=C\C(=O)OCCOCCOCCOC(=O)c5ccc(-c6c7nc(c(-c8ccc(S(=O)(=O)[O-])cc8)c8ccc([nH]8)c(-c8ccc(S(=O)(=O)[O-])cc8)c8nc(c(-c9ccc(S(=O)(=O)[O-])cc9)c9ccc6[nH]9)C=C8)C=C7)cc5)nc4c3c2C1
REMARK SMILES IDX 22 1 21 2 20 3 19 4 18 5 17 6 15 7 16 8 14 9 13 10 12 11
REMARK SMILES IDX 1 12 2 13 3 14 93 15 4 16 92 17 5 18 91 19 6 20 7 21 90 22
REMARK SMILES IDX 8 23 10 24 89 25 9 26 11 27 23 28 24 29 25 30 26 31 27 32
REMARK SMILES IDX 28 33 29 34 30 35 88 36 31 37 87 38 32 39 33 40 34 41 81 42
REMARK SMILES IDX 35 43 86 44 80 45 82 46 36 47 85 48 79 49 78 50 37 52 67 53
REMARK SMILES IDX 48 54 66 55 49 56 52 57 65 58 83 59 50 60 51 61 64 63 84 64
REMARK SMILES IDX 53 65 38 66 39 67 47 68 40 69 46 70 41 71 42 72 43 73 44 74
REMARK SMILES IDX 45 75 68 76 69 77 77 78 70 79 76 80 71 81 72 82 73 83 74 84
REMARK SMILES IDX 75 85 54 86 55 87 63 88 56 89 62 90 57 91 58 92 59 93 60 94
REMARK SMILES IDX 61 95
REMARK H PARENT 82 51 52 62
REMARK Flexibility Score: inf
ROOT
ATOM      1  C   UNL A   1      37.318  22.353  25.969  1.00  0.00     0.188 C 
ENDROOT
BRANCH   1   2
ATOM      2  C   UNL A   1      36.422  23.396  25.248  1.00  0.00     0.188 C 
BRANCH   2   3
ATOM      3  O   UNL A   1      35.057  23.124  24.982  1.00  0.00    -0.376 OA
BRANCH   3   4
ATOM      4  C   UNL A   1      34.697  22.643  23.694  1.00  0.00     0.202 C 
BRANCH   4   5
ATOM      5  C   UNL A   1      33.908  23.535  22.723  1.00  0.00     0.261 C 
BRANCH   5   6
ATOM      6  O   UNL A   1      34.408  24.871  22.633  1.00  0.00    -0.460 OA
BRANCH   6   7
ATOM      7  C   UNL A   1      33.513  25.862  22.465  1.00  0.00     0.330 C 
ATOM      8  O   UNL A   1      33.684  26.897  21.836  1.00  0.00    -0.247 OA
BRANCH   7   9
ATOM      9  C   UNL A   1      32.172  25.470  22.942  1.00  0.00     0.097 C 
ATOM     10  C   UNL A   1      31.266  26.169  23.644  1.00  0.00     0.058 C 
BRANCH  10  11
ATOM     11  C   UNL A   1      31.293  27.508  24.133  1.00  0.00     0.175 A 
ATOM     12  C   UNL A   1      36.884  29.788  27.194  1.00  0.00     0.008 C 
ATOM     13  C   UNL A   1      35.724  29.338  28.082  1.00  0.00    -0.009 C 
ATOM     14  C   UNL A   1      35.400  30.353  29.200  1.00  0.00     0.009 C 
ATOM     15  C   UNL A   1      34.492  29.014  27.222  1.00  0.00     0.041 C 
ATOM     16  C   UNL A   1      34.753  31.660  28.696  1.00  0.00     0.047 C 
ATOM     17  C   UNL A   1      33.587  30.169  26.995  1.00  0.00    -0.020 A 
ATOM     18  C   UNL A   1      33.698  31.363  27.675  1.00  0.00     0.011 A 
ATOM     19  C   UNL A   1      32.481  30.202  26.123  1.00  0.00     0.060 A 
ATOM     20  S   UNL A   1      32.508  32.500  27.207  1.00  0.00    -0.120 S 
ATOM     21  C   UNL A   1      31.779  31.396  26.114  1.00  0.00     0.129 A 
ATOM     22  C   UNL A   1      31.927  29.170  25.236  1.00  0.00     0.168 A 
ATOM     23  N   UNL A   1      30.659  31.702  25.373  1.00  0.00    -0.225 NA
ATOM     24  N   UNL A   1      30.789  29.476  24.565  1.00  0.00    -0.201 N 
ATOM     25  N   UNL A   1      32.314  27.959  24.935  1.00  0.00    -0.207 NA
ATOM     26  C   UNL A   1      30.184  30.732  24.626  1.00  0.00     0.227 A 
ATOM     27  N   UNL A   1      30.353  28.430  23.841  1.00  0.00    -0.145 NA
ENDBRANCH  10  11
ENDBRANCH   7   9
ENDBRANCH   6   7
ENDBRANCH   5   6
ENDBRANCH   4   5
ENDBRANCH   3   4
ENDBRANCH   2   3
ENDBRANCH   1   2
BRANCH   1  28
ATOM     28  O   UNL A   1      38.561  21.988  25.410  1.00  0.00    -0.376 OA
BRANCH  28  29
ATOM     29  C   UNL A   1      39.409  20.948  25.878  1.00  0.00     0.202 C 
BRANCH  29  30
ATOM     30  C   UNL A   1      40.539  21.071  26.887  1.00  0.00     0.261 C 
BRANCH  30  31
ATOM     31  O   UNL A   1      40.242  21.996  27.902  1.00  0.00    -0.460 OA
BRANCH  31  32
ATOM     32  C   UNL A   1      41.268  22.825  28.143  1.00  0.00     0.338 C 
ATOM     33  O   UNL A   1      42.277  22.588  28.811  1.00  0.00    -0.246 OA
BRANCH  32  34
ATOM     34  C   UNL A   1      41.037  24.091  27.466  1.00  0.00     0.060 A 
ATOM     35  C   UNL A   1      42.196  24.801  27.155  1.00  0.00     0.016 A 
ATOM     36  C   UNL A   1      39.779  24.689  27.615  1.00  0.00     0.016 A 
ATOM     37  C   UNL A   1      42.183  26.131  27.451  1.00  0.00     0.010 A 
ATOM     38  C   UNL A   1      39.764  26.022  27.897  1.00  0.00     0.010 A 
ATOM     39  C   UNL A   1      40.997  26.657  27.973  1.00  0.00    -0.014 A 
BRANCH  39  40
ATOM     40  C   UNL A   1      41.102  27.879  28.718  1.00  0.00     0.031 A 
ATOM     41  C   UNL A   1      42.245  28.687  28.288  1.00  0.00     0.074 A 
ATOM     42  C   UNL A   1      40.213  28.210  29.670  1.00  0.00     0.049 A 
ATOM     43  N   UNL A   1      43.386  28.780  28.877  1.00  0.00    -0.248 NA
ATOM     44  C   UNL A   1      42.196  29.248  26.932  1.00  0.00     0.031 C 
ATOM     45  C   UNL A   1      38.911  27.621  29.994  1.00  0.00     0.029 A 
ATOM     46  N   UNL A   1      40.280  29.265  30.510  1.00  0.00    -0.354 N 
ATOM     47  C   UNL A   1      44.145  29.593  28.055  1.00  0.00     0.074 A 
ATOM     48  C   UNL A   1      43.455  29.654  26.789  1.00  0.00     0.031 C 
ATOM     49  C   UNL A   1      38.214  28.495  30.765  1.00  0.00     0.029 A 
ATOM     50  C   UNL A   1      39.080  29.616  31.101  1.00  0.00     0.049 A 
ATOM     51  H   UNL A   1      41.119  29.747  30.688  1.00  0.00     0.167 HD
ATOM     52  C   UNL A   1      45.144  30.369  28.551  1.00  0.00     0.031 A 
ATOM     53  C   UNL A   1      38.836  30.799  31.722  1.00  0.00     0.031 A 
ATOM     54  C   UNL A   1      45.480  30.015  29.905  1.00  0.00     0.049 A 
ATOM     55  C   UNL A   1      40.165  31.386  32.065  1.00  0.00     0.074 A 
ATOM     56  C   UNL A   1      45.991  28.880  30.505  1.00  0.00     0.029 A 
ATOM     57  N   UNL A   1      44.883  30.742  30.911  1.00  0.00    -0.354 N 
ATOM     58  N   UNL A   1      40.976  30.848  32.934  1.00  0.00    -0.248 NA
ATOM     59  C   UNL A   1      40.803  32.260  31.087  1.00  0.00     0.031 C 
ATOM     60  C   UNL A   1      45.275  28.755  31.731  1.00  0.00     0.029 A 
ATOM     61  C   UNL A   1      44.416  29.851  31.848  1.00  0.00     0.049 A 
ATOM     62  H   UNL A   1      44.803  31.723  30.951  1.00  0.00     0.167 HD
ATOM     63  C   UNL A   1      42.242  30.963  32.374  1.00  0.00     0.074 A 
ATOM     64  C   UNL A   1      42.084  31.916  31.274  1.00  0.00     0.031 C 
ATOM     65  C   UNL A   1      43.232  30.063  32.658  1.00  0.00     0.031 A 
BRANCH  52  66
ATOM     66  C   UNL A   1      45.516  31.684  27.936  1.00  0.00    -0.014 A 
ATOM     67  C   UNL A   1      46.603  31.739  27.049  1.00  0.00     0.010 A 
ATOM     68  C   UNL A   1      44.986  32.910  28.393  1.00  0.00     0.010 A 
ATOM     69  C   UNL A   1      47.163  32.967  26.678  1.00  0.00     0.020 A 
ATOM     70  C   UNL A   1      45.503  34.138  27.992  1.00  0.00     0.020 A 
ATOM     71  C   UNL A   1      46.613  34.157  27.163  1.00  0.00     0.054 A 
BRANCH  71  72
ATOM     72  S   UNL A   1      47.417  35.727  26.775  1.00  0.00     0.124 S 
ATOM     73  O   UNL A   1      47.625  36.294  28.104  1.00  0.00    -0.237 OA
ATOM     74  O   UNL A   1      48.621  35.292  26.074  1.00  0.00    -0.237 OA
ATOM     75  O   UNL A   1      46.433  36.420  25.945  1.00  0.00    -0.744 OA
ENDBRANCH  71  72
ENDBRANCH  52  66
BRANCH  53  76
ATOM     76  C   UNL A   1      37.597  31.615  31.651  1.00  0.00    -0.014 A 
ATOM     77  C   UNL A   1      36.530  31.390  32.542  1.00  0.00     0.010 A 
ATOM     78  C   UNL A   1      37.581  32.808  30.899  1.00  0.00     0.010 A 
ATOM     79  C   UNL A   1      35.522  32.355  32.723  1.00  0.00     0.020 A 
ATOM     80  C   UNL A   1      36.579  33.772  31.072  1.00  0.00     0.020 A 
ATOM     81  C   UNL A   1      35.567  33.552  32.003  1.00  0.00     0.054 A 
BRANCH  81  82
ATOM     82  S   UNL A   1      34.371  34.869  32.379  1.00  0.00     0.124 S 
ATOM     83  O   UNL A   1      34.051  35.388  31.051  1.00  0.00    -0.237 OA
ATOM     84  O   UNL A   1      33.298  34.140  33.048  1.00  0.00    -0.237 OA
ATOM     85  O   UNL A   1      35.123  35.784  33.236  1.00  0.00    -0.744 OA
ENDBRANCH  81  82
ENDBRANCH  53  76
BRANCH  65  86
ATOM     86  C   UNL A   1      42.984  29.061  33.767  1.00  0.00    -0.014 A 
ATOM     87  C   UNL A   1      43.401  29.248  35.102  1.00  0.00     0.010 A 
ATOM     88  C   UNL A   1      42.181  27.948  33.472  1.00  0.00     0.010 A 
ATOM     89  C   UNL A   1      43.060  28.322  36.100  1.00  0.00     0.020 A 
ATOM     90  C   UNL A   1      41.823  27.031  34.464  1.00  0.00     0.020 A 
ATOM     91  C   UNL A   1      42.276  27.212  35.771  1.00  0.00     0.054 A 
BRANCH  91  92
ATOM     92  S   UNL A   1      41.840  26.009  37.059  1.00  0.00     0.124 S 
ATOM     93  O   UNL A   1      40.488  26.417  37.431  1.00  0.00    -0.237 OA
ATOM     94  O   UNL A   1      41.942  24.731  36.358  1.00  0.00    -0.237 OA
ATOM     95  O   UNL A   1      42.854  26.222  38.091  1.00  0.00    -0.744 OA
ENDBRANCH  91  92
ENDBRANCH  65  86
ENDBRANCH  39  40
ENDBRANCH  32  34
ENDBRANCH  31  32
ENDBRANCH  30  31
ENDBRANCH  29  30
ENDBRANCH  28  29
ENDBRANCH   1  28
TORSDOF 21
ENDMDL
MODEL 3
REMARK VINA RESULT:     -10.4      4.184      8.091
REMARK SMILES C[C@H]1CCc2sc3ncn4nc(/C=C\C(=O)OCCOCCOCCOC(=O)c5ccc(-c6c7nc(c(-c8ccc(S(=O)(=O)[O-])cc8)c8ccc([nH]8)c(-c8ccc(S(=O)(=O)[O-])cc8)c8nc(c(-c9ccc(S(=O)(=O)[O-])cc9)c9ccc6[nH]9)C=C8)C=C7)cc5)nc4c3c2C1
REMARK SMILES IDX 22 1 21 2 20 3 19 4 18 5 17 6 15 7 16 8 14 9 13 10 12 11
REMARK SMILES IDX 1 12 2 13 3 14 93 15 4 16 92 17 5 18 91 19 6 20 7 21 90 22
REMARK SMILES IDX 8 23 10 24 89 25 9 26 11 27 23 28 24 29 25 30 26 31 27 32
REMARK SMILES IDX 28 33 29 34 30 35 88 36 31 37 87 38 32 39 33 40 34 41 81 42
REMARK SMILES IDX 35 43 86 44 80 45 82 46 36 47 85 48 79 49 78 50 37 52 67 53
REMARK SMILES IDX 48 54 66 55 49 56 52 57 65 58 83 59 50 60 51 61 64 63 84 64
REMARK SMILES IDX 53 65 38 66 39 67 47 68 40 69 46 70 41 71 42 72 43 73 44 74
REMARK SMILES IDX 45 75 68 76 69 77 77 78 70 79 76 80 71 81 72 82 73 83 74 84
REMARK SMILES IDX 75 85 54 86 55 87 63 88 56 89 62 90 57 91 58 92 59 93 60 94
REMARK SMILES IDX 61 95
REMARK H PARENT 82 51 52 62
REMARK Flexibility Score: inf
ROOT
ATOM      1  C   UNL A   1      31.608  29.172  25.057  1.00  0.00     0.188 C 
ENDROOT
BRANCH   1   2
ATOM      2  C   UNL A   1      32.782  28.261  24.606  1.00  0.00     0.188 C 
BRANCH   2   3
ATOM      3  O   UNL A   1      33.121  28.136  23.236  1.00  0.00    -0.376 OA
BRANCH   3   4
ATOM      4  C   UNL A   1      33.058  26.850  22.634  1.00  0.00     0.202 C 
BRANCH   4   5
ATOM      5  C   UNL A   1      31.729  26.319  22.073  1.00  0.00     0.261 C 
BRANCH   5   6
ATOM      6  O   UNL A   1      30.647  26.376  23.005  1.00  0.00    -0.460 OA
BRANCH   6   7
ATOM      7  C   UNL A   1      30.356  25.256  23.693  1.00  0.00     0.330 C 
ATOM      8  O   UNL A   1      30.193  24.138  23.225  1.00  0.00    -0.247 OA
BRANCH   7   9
ATOM      9  C   UNL A   1      30.477  25.465  25.150  1.00  0.00     0.097 C 
ATOM     10  C   UNL A   1      31.432  25.068  26.003  1.00  0.00     0.058 C 
BRANCH  10  11
ATOM     11  C   UNL A   1      32.640  24.342  25.783  1.00  0.00     0.175 A 
ATOM     12  C   UNL A   1      32.350  18.317  22.708  1.00  0.00     0.008 C 
ATOM     13  C   UNL A   1      32.470  18.330  24.232  1.00  0.00    -0.009 C 
ATOM     14  C   UNL A   1      33.554  17.360  24.753  1.00  0.00     0.009 C 
ATOM     15  C   UNL A   1      32.691  19.765  24.736  1.00  0.00     0.041 C 
ATOM     16  C   UNL A   1      34.999  17.808  24.448  1.00  0.00     0.047 C 
ATOM     17  C   UNL A   1      34.117  20.164  24.835  1.00  0.00    -0.020 A 
ATOM     18  C   UNL A   1      35.162  19.272  24.720  1.00  0.00     0.011 A 
ATOM     19  C   UNL A   1      34.603  21.457  25.111  1.00  0.00     0.060 A 
ATOM     20  S   UNL A   1      36.690  20.024  24.890  1.00  0.00    -0.120 S 
ATOM     21  C   UNL A   1      35.983  21.561  25.178  1.00  0.00     0.129 A 
ATOM     22  C   UNL A   1      33.891  22.716  25.367  1.00  0.00     0.168 A 
ATOM     23  N   UNL A   1      36.725  22.691  25.440  1.00  0.00    -0.225 NA
ATOM     24  N   UNL A   1      34.642  23.800  25.683  1.00  0.00    -0.201 N 
ATOM     25  N   UNL A   1      32.625  23.037  25.352  1.00  0.00    -0.207 NA
ATOM     26  C   UNL A   1      36.037  23.780  25.698  1.00  0.00     0.227 A 
ATOM     27  N   UNL A   1      33.870  24.867  25.954  1.00  0.00    -0.145 NA
ENDBRANCH  10  11
ENDBRANCH   7   9
ENDBRANCH   6   7
ENDBRANCH   5   6
ENDBRANCH   4   5
ENDBRANCH   3   4
ENDBRANCH   2   3
ENDBRANCH   1   2
BRANCH   1  28
ATOM     28  O   UNL A   1      31.872  30.336  25.810  1.00  0.00    -0.376 OA
BRANCH  28  29
ATOM     29  C   UNL A   1      32.917  30.491  26.761  1.00  0.00     0.202 C 
BRANCH  29  30
ATOM     30  C   UNL A   1      33.407  31.789  27.382  1.00  0.00     0.261 C 
BRANCH  30  31
ATOM     31  O   UNL A   1      34.461  31.576  28.286  1.00  0.00    -0.460 OA
BRANCH  31  32
ATOM     32  C   UNL A   1      34.575  32.577  29.171  1.00  0.00     0.338 C 
ATOM     33  O   UNL A   1      34.355  33.775  28.974  1.00  0.00    -0.246 OA
BRANCH  32  34
ATOM     34  C   UNL A   1      34.991  32.043  30.457  1.00  0.00     0.060 A 
ATOM     35  C   UNL A   1      34.794  32.908  31.533  1.00  0.00     0.016 A 
ATOM     36  C   UNL A   1      35.931  31.005  30.459  1.00  0.00     0.016 A 
ATOM     37  C   UNL A   1      35.836  33.029  32.403  1.00  0.00     0.010 A 
ATOM     38  C   UNL A   1      36.966  31.119  31.338  1.00  0.00     0.010 A 
ATOM     39  C   UNL A   1      36.962  32.234  32.166  1.00  0.00    -0.014 A 
BRANCH  39  40
ATOM     40  C   UNL A   1      38.200  32.674  32.741  1.00  0.00     0.031 A 
ATOM     41  C   UNL A   1      39.093  33.262  31.739  1.00  0.00     0.074 A 
ATOM     42  C   UNL A   1      38.453  32.563  34.057  1.00  0.00     0.049 A 
ATOM     43  N   UNL A   1      40.099  32.690  31.176  1.00  0.00    -0.248 NA
ATOM     44  C   UNL A   1      38.665  34.523  31.120  1.00  0.00     0.031 C 
ATOM     45  C   UNL A   1      37.553  32.245  35.169  1.00  0.00     0.029 A 
ATOM     46  N   UNL A   1      39.619  32.829  34.683  1.00  0.00    -0.354 N 
ATOM     47  C   UNL A   1      40.568  33.615  30.261  1.00  0.00     0.074 A 
ATOM     48  C   UNL A   1      39.528  34.604  30.109  1.00  0.00     0.031 C 
ATOM     49  C   UNL A   1      38.151  32.606  36.333  1.00  0.00     0.029 A 
ATOM     50  C   UNL A   1      39.513  33.031  36.047  1.00  0.00     0.049 A 
ATOM     51  H   UNL A   1      40.478  32.876  34.205  1.00  0.00     0.167 HD
ATOM     52  C   UNL A   1      41.875  33.650  29.893  1.00  0.00     0.031 A 
ATOM     53  C   UNL A   1      40.470  33.603  36.824  1.00  0.00     0.031 A 
ATOM     54  C   UNL A   1      42.587  32.474  30.320  1.00  0.00     0.049 A 
ATOM     55  C   UNL A   1      41.753  33.507  36.068  1.00  0.00     0.074 A 
ATOM     56  C   UNL A   1      42.484  31.127  30.029  1.00  0.00     0.029 A 
ATOM     57  N   UNL A   1      43.277  32.556  31.509  1.00  0.00    -0.354 N 
ATOM     58  N   UNL A   1      42.339  32.371  35.805  1.00  0.00    -0.248 NA
ATOM     59  C   UNL A   1      42.107  34.603  35.173  1.00  0.00     0.031 C 
ATOM     60  C   UNL A   1      42.697  30.463  31.273  1.00  0.00     0.029 A 
ATOM     61  C   UNL A   1      42.983  31.430  32.241  1.00  0.00     0.049 A 
ATOM     62  H   UNL A   1      43.872  33.290  31.787  1.00  0.00     0.167 HD
ATOM     63  C   UNL A   1      42.790  32.485  34.496  1.00  0.00     0.074 A 
ATOM     64  C   UNL A   1      42.692  33.912  34.186  1.00  0.00     0.031 C 
ATOM     65  C   UNL A   1      42.920  31.389  33.688  1.00  0.00     0.031 A 
BRANCH  52  66
ATOM     66  C   UNL A   1      42.562  34.922  29.502  1.00  0.00    -0.014 A 
ATOM     67  C   UNL A   1      43.149  35.716  30.501  1.00  0.00     0.010 A 
ATOM     68  C   UNL A   1      42.434  35.487  28.214  1.00  0.00     0.010 A 
ATOM     69  C   UNL A   1      43.543  37.031  30.232  1.00  0.00     0.020 A 
ATOM     70  C   UNL A   1      42.867  36.777  27.922  1.00  0.00     0.020 A 
ATOM     71  C   UNL A   1      43.388  37.554  28.945  1.00  0.00     0.054 A 
BRANCH  71  72
ATOM     72  S   UNL A   1      43.788  39.289  28.639  1.00  0.00     0.124 S 
ATOM     73  O   UNL A   1      42.717  39.974  29.358  1.00  0.00    -0.237 OA
ATOM     74  O   UNL A   1      45.121  39.405  29.222  1.00  0.00    -0.237 OA
ATOM     75  O   UNL A   1      43.736  39.401  27.183  1.00  0.00    -0.744 OA
ENDBRANCH  71  72
ENDBRANCH  52  66
BRANCH  53  76
ATOM     76  C   UNL A   1      40.268  34.568  37.936  1.00  0.00    -0.014 A 
ATOM     77  C   UNL A   1      40.875  34.365  39.190  1.00  0.00     0.010 A 
ATOM     78  C   UNL A   1      39.717  35.839  37.674  1.00  0.00     0.010 A 
ATOM     79  C   UNL A   1      40.987  35.415  40.119  1.00  0.00     0.020 A 
ATOM     80  C   UNL A   1      39.823  36.889  38.595  1.00  0.00     0.020 A 
ATOM     81  C   UNL A   1      40.481  36.679  39.804  1.00  0.00     0.054 A 
BRANCH  81  82
ATOM     82  S   UNL A   1      40.797  38.075  40.926  1.00  0.00     0.124 S 
ATOM     83  O   UNL A   1      41.080  39.166  39.996  1.00  0.00    -0.237 OA
ATOM     84  O   UNL A   1      39.539  38.182  41.659  1.00  0.00    -0.237 OA
ATOM     85  O   UNL A   1      41.938  37.628  41.722  1.00  0.00    -0.744 OA
ENDBRANCH  81  82
ENDBRANCH  53  76
BRANCH  65  86
ATOM     86  C   UNL A   1      42.772  30.020  34.320  1.00  0.00    -0.014 A 
ATOM     87  C   UNL A   1      43.804  29.362  35.023  1.00  0.00     0.010 A 
ATOM     88  C   UNL A   1      41.494  29.435  34.315  1.00  0.00     0.010 A 
ATOM     89  C   UNL A   1      43.571  28.134  35.661  1.00  0.00     0.020 A 
ATOM     90  C   UNL A   1      41.252  28.221  34.963  1.00  0.00     0.020 A 
ATOM     91  C   UNL A   1      42.294  27.566  35.620  1.00  0.00     0.054 A 
BRANCH  91  92
ATOM     92  S   UNL A   1      41.993  25.975  36.439  1.00  0.00     0.124 S 
ATOM     93  O   UNL A   1      41.905  26.352  37.847  1.00  0.00    -0.237 OA
ATOM     94  O   UNL A   1      40.745  25.526  35.828  1.00  0.00    -0.237 OA
ATOM     95  O   UNL A   1      43.168  25.176  36.088  1.00  0.00    -0.744 OA
ENDBRANCH  91  92
ENDBRANCH  65  86
ENDBRANCH  39  40
ENDBRANCH  32  34
ENDBRANCH  31  32
ENDBRANCH  30  31
ENDBRANCH  29  30
ENDBRANCH  28  29
ENDBRANCH   1  28
TORSDOF 21
ENDMDL
