MODEL 1
REMARK VINA RESULT:      -8.6      0.000      0.000
REMARK SMILES CCn1ncc(NC(=O)[C@@H]2CCCC[C@@H]2C(=O)OCCOCCOCCOC(=O)c2ccc(-c3c4nc(c(-c5ccc(S(=O)(=O)[O-])cc5)c5ccc([nH]5)c(-c5ccc(S(=O)(=O)[O-])cc5)c5nc(c(-c6ccc(S(=O)(=O)[O-])cc6)c6ccc3[nH]6)C=C5)C=C4)cc2)c1C(=O)Nc1cnn(C)c1C
REMARK SMILES IDX 22 1 21 2 20 3 19 4 18 5 16 6 17 7 15 8 10 9 11 10 12 11
REMARK SMILES IDX 14 12 13 13 8 14 7 15 9 17 6 18 3 19 4 20 90 21 5 22 2 23
REMARK SMILES IDX 1 24 91 25 92 26 93 27 94 29 95 30 99 31 96 32 97 33 100 34
REMARK SMILES IDX 98 35 23 36 24 37 25 38 26 39 27 40 28 41 29 42 30 43 31 44
REMARK SMILES IDX 89 45 32 46 88 47 33 48 34 49 35 50 82 51 36 52 87 53 81 54
REMARK SMILES IDX 83 55 37 56 86 57 80 58 79 59 38 61 68 62 49 63 67 64 50 65
REMARK SMILES IDX 53 66 66 67 84 68 51 69 52 70 65 72 85 73 54 74 39 75 40 76
REMARK SMILES IDX 48 77 41 78 47 79 42 80 43 81 44 82 45 83 46 84 69 85 70 86
REMARK SMILES IDX 78 87 71 88 77 89 72 90 73 91 74 92 75 93 76 94 55 95 56 96
REMARK SMILES IDX 64 97 57 98 63 99 58 100 59 101 60 102 61 103 62 104
REMARK H PARENT 7 16 93 28 83 60 53 71
REMARK Flexibility Score: inf
ROOT
ATOM      1  C   UNL A   1      46.292  23.535  24.597  1.00  0.00     0.188 C 
ENDROOT
BRANCH   1   2
ATOM      2  O   UNL A   1      45.896  24.904  24.626  1.00  0.00    -0.376 OA
BRANCH   2   3
ATOM      3  C   UNL A   1      46.439  25.697  25.678  1.00  0.00     0.202 C 
BRANCH   3   4
ATOM      4  C   UNL A   1      47.347  26.875  25.276  1.00  0.00     0.261 C 
BRANCH   4   5
ATOM      5  O   UNL A   1      48.194  27.399  26.321  1.00  0.00    -0.463 OA
BRANCH   5   6
ATOM      6  C   UNL A   1      49.502  27.562  26.007  1.00  0.00     0.309 C 
ATOM      7  O   UNL A   1      49.972  27.457  24.879  1.00  0.00    -0.252 OA
BRANCH   6   8
ATOM      8  C   UNL A   1      50.386  27.863  27.215  1.00  0.00     0.111 C 
ATOM      9  C   UNL A   1      50.493  26.659  28.145  1.00  0.00     0.093 C 
ATOM     10  C   UNL A   1      49.272  26.507  29.042  1.00  0.00     0.014 C 
ATOM     11  C   UNL A   1      49.251  27.706  29.986  1.00  0.00     0.001 C 
ATOM     12  C   UNL A   1      50.104  29.152  27.993  1.00  0.00     0.016 C 
ATOM     13  C   UNL A   1      49.218  29.032  29.233  1.00  0.00     0.001 C 
BRANCH   9  14
ATOM     14  C   UNL A   1      50.903  25.434  27.386  1.00  0.00     0.228 C 
ATOM     15  N   UNL A   1      52.189  25.307  26.948  1.00  0.00    -0.322 N 
ATOM     16  H   UNL A   1      52.267  24.626  26.242  1.00  0.00     0.170 HD
ATOM     17  O   UNL A   1      50.076  24.584  27.050  1.00  0.00    -0.274 OA
BRANCH  15  18
ATOM     18  C   UNL A   1      53.422  25.892  27.240  1.00  0.00     0.092 A 
ATOM     19  N   UNL A   1      55.306  27.026  27.409  1.00  0.00    -0.258 N 
ATOM     20  N   UNL A   1      54.792  27.073  28.653  1.00  0.00    -0.178 NA
ATOM     21  C   UNL A   1      54.613  26.181  26.558  1.00  0.00     0.150 A 
ATOM     22  C   UNL A   1      53.637  26.433  28.534  1.00  0.00     0.162 A 
BRANCH  19  23
ATOM     23  C   UNL A   1      56.414  27.931  27.139  1.00  0.00     0.142 C 
ATOM     24  C   UNL A   1      57.092  28.573  28.340  1.00  0.00     0.029 C 
ENDBRANCH  19  23
BRANCH  21  25
ATOM     25  C   UNL A   1      55.043  25.961  25.199  1.00  0.00     0.276 C 
ATOM     26  O   UNL A   1      55.412  24.861  24.789  1.00  0.00    -0.267 OA
ATOM     27  N   UNL A   1      55.161  27.074  24.372  1.00  0.00    -0.318 N 
ATOM     28  H   UNL A   1      55.970  27.635  24.390  1.00  0.00     0.170 HD
BRANCH  27  29
ATOM     29  C   UNL A   1      54.103  27.372  23.518  1.00  0.00     0.082 A 
ATOM     30  C   UNL A   1      53.721  26.772  22.307  1.00  0.00     0.161 A 
ATOM     31  C   UNL A   1      53.196  28.395  23.722  1.00  0.00     0.059 A 
ATOM     32  N   UNL A   1      52.776  27.481  21.682  1.00  0.00    -0.179 NA
ATOM     33  N   UNL A   1      52.524  28.502  22.526  1.00  0.00    -0.271 N 
ATOM     34  C   UNL A   1      53.023  29.348  24.847  1.00  0.00     0.068 C 
ATOM     35  C   UNL A   1      51.848  29.674  22.015  1.00  0.00     0.174 C 
ENDBRANCH  27  29
ENDBRANCH  21  25
ENDBRANCH  15  18
ENDBRANCH   9  14
ENDBRANCH   6   8
ENDBRANCH   5   6
ENDBRANCH   4   5
ENDBRANCH   3   4
ENDBRANCH   2   3
ENDBRANCH   1   2
BRANCH   1  36
ATOM     36  C   UNL A   1      45.203  22.516  24.227  1.00  0.00     0.188 C 
BRANCH  36  37
ATOM     37  O   UNL A   1      44.699  21.768  25.331  1.00  0.00    -0.376 OA
BRANCH  37  38
ATOM     38  C   UNL A   1      44.103  20.490  25.111  1.00  0.00     0.202 C 
BRANCH  38  39
ATOM     39  C   UNL A   1      42.917  20.068  25.972  1.00  0.00     0.261 C 
BRANCH  39  40
ATOM     40  O   UNL A   1      41.836  20.991  26.002  1.00  0.00    -0.460 OA
BRANCH  40  41
ATOM     41  C   UNL A   1      41.383  21.489  27.167  1.00  0.00     0.338 C 
ATOM     42  O   UNL A   1      40.675  20.941  28.000  1.00  0.00    -0.246 OA
BRANCH  41  43
ATOM     43  C   UNL A   1      41.949  22.845  27.259  1.00  0.00     0.060 A 
ATOM     44  C   UNL A   1      42.665  23.178  28.404  1.00  0.00     0.016 A 
ATOM     45  C   UNL A   1      41.593  23.813  26.298  1.00  0.00     0.016 A 
ATOM     46  C   UNL A   1      42.761  24.515  28.723  1.00  0.00     0.010 A 
ATOM     47  C   UNL A   1      41.675  25.140  26.622  1.00  0.00     0.010 A 
ATOM     48  C   UNL A   1      42.152  25.457  27.882  1.00  0.00    -0.014 A 
BRANCH  48  49
ATOM     49  C   UNL A   1      41.990  26.802  28.370  1.00  0.00     0.031 A 
ATOM     50  C   UNL A   1      43.136  27.677  28.097  1.00  0.00     0.074 A 
ATOM     51  C   UNL A   1      40.873  27.216  28.993  1.00  0.00     0.049 A 
ATOM     52  N   UNL A   1      44.070  27.993  28.925  1.00  0.00    -0.248 NA
ATOM     53  C   UNL A   1      43.372  28.096  26.711  1.00  0.00     0.031 C 
ATOM     54  C   UNL A   1      39.570  26.549  29.082  1.00  0.00     0.029 A 
ATOM     55  N   UNL A   1      40.661  28.398  29.624  1.00  0.00    -0.354 N 
ATOM     56  C   UNL A   1      44.903  28.849  28.224  1.00  0.00     0.074 A 
ATOM     57  C   UNL A   1      44.550  28.708  26.833  1.00  0.00     0.031 C 
ATOM     58  C   UNL A   1      38.653  27.433  29.544  1.00  0.00     0.029 A 
ATOM     59  C   UNL A   1      39.332  28.664  29.917  1.00  0.00     0.049 A 
ATOM     60  H   UNL A   1      41.390  29.017  29.854  1.00  0.00     0.167 HD
ATOM     61  C   UNL A   1      45.636  29.798  28.867  1.00  0.00     0.031 A 
ATOM     62  C   UNL A   1      38.840  29.841  30.376  1.00  0.00     0.031 A 
ATOM     63  C   UNL A   1      45.659  29.584  30.291  1.00  0.00     0.049 A 
ATOM     64  C   UNL A   1      39.969  30.574  31.002  1.00  0.00     0.074 A 
ATOM     65  C   UNL A   1      46.100  28.568  31.116  1.00  0.00     0.029 A 
ATOM     66  N   UNL A   1      44.800  30.349  31.048  1.00  0.00    -0.354 N 
ATOM     67  N   UNL A   1      40.558  30.182  32.097  1.00  0.00    -0.248 NA
ATOM     68  C   UNL A   1      40.737  31.501  30.185  1.00  0.00     0.031 C 
ATOM     69  C   UNL A   1      45.156  28.516  32.182  1.00  0.00     0.029 A 
ATOM     70  C   UNL A   1      44.220  29.534  31.987  1.00  0.00     0.049 A 
ATOM     71  H   UNL A   1      44.630  31.312  30.934  1.00  0.00     0.167 HD
ATOM     72  C   UNL A   1      41.905  30.456  31.898  1.00  0.00     0.074 A 
ATOM     73  C   UNL A   1      41.939  31.364  30.755  1.00  0.00     0.031 C 
ATOM     74  C   UNL A   1      42.875  29.706  32.501  1.00  0.00     0.031 A 
BRANCH  61  75
ATOM     75  C   UNL A   1      45.977  31.126  28.251  1.00  0.00    -0.014 A 
ATOM     76  C   UNL A   1      44.973  32.107  28.157  1.00  0.00     0.010 A 
ATOM     77  C   UNL A   1      47.167  31.352  27.529  1.00  0.00     0.010 A 
ATOM     78  C   UNL A   1      45.133  33.229  27.336  1.00  0.00     0.020 A 
ATOM     79  C   UNL A   1      47.358  32.490  26.747  1.00  0.00     0.020 A 
ATOM     80  C   UNL A   1      46.323  33.405  26.629  1.00  0.00     0.054 A 
BRANCH  80  81
ATOM     81  S   UNL A   1      46.486  34.808  25.502  1.00  0.00     0.124 S 
ATOM     82  O   UNL A   1      46.130  35.929  26.367  1.00  0.00    -0.237 OA
ATOM     83  O   UNL A   1      47.890  34.727  25.109  1.00  0.00    -0.237 OA
ATOM     84  O   UNL A   1      45.528  34.506  24.440  1.00  0.00    -0.744 OA
ENDBRANCH  80  81
ENDBRANCH  61  75
BRANCH  62  85
ATOM     85  C   UNL A   1      37.554  30.492  30.029  1.00  0.00    -0.014 A 
ATOM     86  C   UNL A   1      36.720  31.020  31.033  1.00  0.00     0.010 A 
ATOM     87  C   UNL A   1      37.287  30.861  28.694  1.00  0.00     0.010 A 
ATOM     88  C   UNL A   1      35.708  31.943  30.721  1.00  0.00     0.020 A 
ATOM     89  C   UNL A   1      36.274  31.773  28.375  1.00  0.00     0.020 A 
ATOM     90  C   UNL A   1      35.507  32.332  29.395  1.00  0.00     0.054 A 
BRANCH  90  91
ATOM     91  S   UNL A   1      34.336  33.671  29.023  1.00  0.00     0.124 S 
ATOM     92  O   UNL A   1      33.476  33.061  28.015  1.00  0.00    -0.237 OA
ATOM     93  O   UNL A   1      33.714  33.918  30.321  1.00  0.00    -0.237 OA
ATOM     94  O   UNL A   1      35.193  34.752  28.536  1.00  0.00    -0.744 OA
ENDBRANCH  90  91
ENDBRANCH  62  85
BRANCH  74  95
ATOM     95  C   UNL A   1      42.477  28.805  33.649  1.00  0.00    -0.014 A 
ATOM     96  C   UNL A   1      41.726  27.622  33.500  1.00  0.00     0.010 A 
ATOM     97  C   UNL A   1      43.013  29.101  34.915  1.00  0.00     0.010 A 
ATOM     98  C   UNL A   1      41.500  26.775  34.596  1.00  0.00     0.020 A 
ATOM     99  C   UNL A   1      42.810  28.251  36.005  1.00  0.00     0.020 A 
ATOM    100  C   UNL A   1      42.045  27.096  35.843  1.00  0.00     0.054 A 
BRANCH 100 101
ATOM    101  S   UNL A   1      41.798  25.970  37.245  1.00  0.00     0.124 S 
ATOM    102  O   UNL A   1      42.824  26.407  38.188  1.00  0.00    -0.237 OA
ATOM    103  O   UNL A   1      40.419  26.245  37.644  1.00  0.00    -0.237 OA
ATOM    104  O   UNL A   1      42.013  24.643  36.670  1.00  0.00    -0.744 OA
ENDBRANCH 100 101
ENDBRANCH  74  95
ENDBRANCH  48  49
ENDBRANCH  41  43
ENDBRANCH  40  41
ENDBRANCH  39  40
ENDBRANCH  38  39
ENDBRANCH  37  38
ENDBRANCH  36  37
ENDBRANCH   1  36
TORSDOF 25
ENDMDL
MODEL 2
REMARK VINA RESULT:      -8.5      6.351     13.261
REMARK SMILES CCn1ncc(NC(=O)[C@@H]2CCCC[C@@H]2C(=O)OCCOCCOCCOC(=O)c2ccc(-c3c4nc(c(-c5ccc(S(=O)(=O)[O-])cc5)c5ccc([nH]5)c(-c5ccc(S(=O)(=O)[O-])cc5)c5nc(c(-c6ccc(S(=O)(=O)[O-])cc6)c6ccc3[nH]6)C=C5)C=C4)cc2)c1C(=O)Nc1cnn(C)c1C
REMARK SMILES IDX 22 1 21 2 20 3 19 4 18 5 16 6 17 7 15 8 10 9 11 10 12 11
REMARK SMILES IDX 14 12 13 13 8 14 7 15 9 17 6 18 3 19 4 20 90 21 5 22 2 23
REMARK SMILES IDX 1 24 91 25 92 26 93 27 94 29 95 30 99 31 96 32 97 33 100 34
REMARK SMILES IDX 98 35 23 36 24 37 25 38 26 39 27 40 28 41 29 42 30 43 31 44
REMARK SMILES IDX 89 45 32 46 88 47 33 48 34 49 35 50 82 51 36 52 87 53 81 54
REMARK SMILES IDX 83 55 37 56 86 57 80 58 79 59 38 61 68 62 49 63 67 64 50 65
REMARK SMILES IDX 53 66 66 67 84 68 51 69 52 70 65 72 85 73 54 74 39 75 40 76
REMARK SMILES IDX 48 77 41 78 47 79 42 80 43 81 44 82 45 83 46 84 69 85 70 86
REMARK SMILES IDX 78 87 71 88 77 89 72 90 73 91 74 92 75 93 76 94 55 95 56 96
REMARK SMILES IDX 64 97 57 98 63 99 58 100 59 101 60 102 61 103 62 104
REMARK H PARENT 7 16 93 28 83 60 53 71
REMARK Flexibility Score: inf
ROOT
ATOM      1  C   UNL A   1      34.745  31.162  27.879  1.00  0.00     0.188 C 
ENDROOT
BRANCH   1   2
ATOM      2  O   UNL A   1      33.506  31.399  27.216  1.00  0.00    -0.376 OA
BRANCH   2   3
ATOM      3  C   UNL A   1      32.646  30.274  27.058  1.00  0.00     0.202 C 
BRANCH   3   4
ATOM      4  C   UNL A   1      33.296  28.946  26.623  1.00  0.00     0.261 C 
BRANCH   4   5
ATOM      5  O   UNL A   1      32.724  28.320  25.455  1.00  0.00    -0.463 OA
BRANCH   5   6
ATOM      6  C   UNL A   1      33.051  27.021  25.251  1.00  0.00     0.309 C 
ATOM      7  O   UNL A   1      34.111  26.502  25.586  1.00  0.00    -0.252 OA
BRANCH   6   8
ATOM      8  C   UNL A   1      31.973  26.230  24.512  1.00  0.00     0.111 C 
ATOM      9  C   UNL A   1      32.023  26.485  23.010  1.00  0.00     0.093 C 
ATOM     10  C   UNL A   1      31.363  27.800  22.620  1.00  0.00     0.014 C 
ATOM     11  C   UNL A   1      29.873  27.668  22.926  1.00  0.00     0.001 C 
ATOM     12  C   UNL A   1      30.542  26.315  25.051  1.00  0.00     0.016 C 
ATOM     13  C   UNL A   1      29.614  27.336  24.392  1.00  0.00     0.001 C 
BRANCH   9  14
ATOM     14  C   UNL A   1      33.406  26.264  22.477  1.00  0.00     0.228 C 
ATOM     15  N   UNL A   1      34.047  25.086  22.723  1.00  0.00    -0.322 N 
ATOM     16  H   UNL A   1      35.017  25.163  22.578  1.00  0.00     0.170 HD
ATOM     17  O   UNL A   1      34.024  27.170  21.913  1.00  0.00    -0.274 OA
BRANCH  15  18
ATOM     18  C   UNL A   1      33.685  23.800  23.127  1.00  0.00     0.092 A 
ATOM     19  N   UNL A   1      32.995  21.930  24.070  1.00  0.00    -0.258 N 
ATOM     20  N   UNL A   1      32.459  21.881  22.835  1.00  0.00    -0.178 NA
ATOM     21  C   UNL A   1      33.886  22.976  24.244  1.00  0.00     0.150 A 
ATOM     22  C   UNL A   1      32.836  23.030  22.290  1.00  0.00     0.162 A 
BRANCH  19  23
ATOM     23  C   UNL A   1      32.481  20.963  25.029  1.00  0.00     0.142 C 
ATOM     24  C   UNL A   1      33.369  19.773  25.358  1.00  0.00     0.029 C 
ENDBRANCH  19  23
BRANCH  21  25
ATOM     25  C   UNL A   1      34.599  23.160  25.484  1.00  0.00     0.276 C 
ATOM     26  O   UNL A   1      34.094  22.928  26.582  1.00  0.00    -0.267 OA
ATOM     27  N   UNL A   1      35.860  23.748  25.421  1.00  0.00    -0.318 N 
ATOM     28  H   UNL A   1      35.961  24.725  25.378  1.00  0.00     0.170 HD
BRANCH  27  29
ATOM     29  C   UNL A   1      36.973  22.912  25.420  1.00  0.00     0.082 A 
ATOM     30  C   UNL A   1      37.131  21.616  24.903  1.00  0.00     0.161 A 
ATOM     31  C   UNL A   1      38.192  23.230  25.987  1.00  0.00     0.059 A 
ATOM     32  N   UNL A   1      38.287  21.068  25.288  1.00  0.00    -0.179 NA
ATOM     33  N   UNL A   1      38.884  22.042  26.006  1.00  0.00    -0.271 N 
ATOM     34  C   UNL A   1      38.684  24.475  26.632  1.00  0.00     0.068 C 
ATOM     35  C   UNL A   1      39.963  21.682  26.900  1.00  0.00     0.174 C 
ENDBRANCH  27  29
ENDBRANCH  21  25
ENDBRANCH  15  18
ENDBRANCH   9  14
ENDBRANCH   6   8
ENDBRANCH   5   6
ENDBRANCH   4   5
ENDBRANCH   3   4
ENDBRANCH   2   3
ENDBRANCH   1   2
BRANCH   1  36
ATOM     36  C   UNL A   1      35.648  32.385  28.100  1.00  0.00     0.188 C 
BRANCH  36  37
ATOM     37  O   UNL A   1      35.055  33.419  28.881  1.00  0.00    -0.376 OA
BRANCH  37  38
ATOM     38  C   UNL A   1      34.167  33.086  29.947  1.00  0.00     0.202 C 
BRANCH  38  39
ATOM     39  C   UNL A   1      34.720  32.368  31.173  1.00  0.00     0.261 C 
BRANCH  39  40
ATOM     40  O   UNL A   1      34.130  32.745  32.410  1.00  0.00    -0.460 OA
BRANCH  40  41
ATOM     41  C   UNL A   1      34.396  33.940  32.968  1.00  0.00     0.338 C 
ATOM     42  O   UNL A   1      33.608  34.823  33.276  1.00  0.00    -0.246 OA
BRANCH  41  43
ATOM     43  C   UNL A   1      35.853  33.962  33.172  1.00  0.00     0.060 A 
ATOM     44  C   UNL A   1      36.598  34.905  32.472  1.00  0.00     0.016 A 
ATOM     45  C   UNL A   1      36.468  32.923  33.901  1.00  0.00     0.016 A 
ATOM     46  C   UNL A   1      37.932  34.630  32.264  1.00  0.00     0.010 A 
ATOM     47  C   UNL A   1      37.789  32.641  33.682  1.00  0.00     0.010 A 
ATOM     48  C   UNL A   1      38.465  33.437  32.773  1.00  0.00    -0.014 A 
BRANCH  48  49
ATOM     49  C   UNL A   1      39.756  33.011  32.300  1.00  0.00     0.031 A 
ATOM     50  C   UNL A   1      39.709  31.847  31.408  1.00  0.00     0.074 A 
ATOM     51  C   UNL A   1      40.893  33.649  32.628  1.00  0.00     0.049 A 
ATOM     52  N   UNL A   1      39.950  30.625  31.734  1.00  0.00    -0.248 NA
ATOM     53  C   UNL A   1      39.158  32.029  30.061  1.00  0.00     0.031 C 
ATOM     54  C   UNL A   1      41.062  34.959  33.263  1.00  0.00     0.029 A 
ATOM     55  N   UNL A   1      42.168  33.261  32.372  1.00  0.00    -0.354 N 
ATOM     56  C   UNL A   1      39.803  29.900  30.563  1.00  0.00     0.074 A 
ATOM     57  C   UNL A   1      39.121  30.766  29.635  1.00  0.00     0.031 C 
ATOM     58  C   UNL A   1      42.356  35.343  33.146  1.00  0.00     0.029 A 
ATOM     59  C   UNL A   1      43.120  34.250  32.567  1.00  0.00     0.049 A 
ATOM     60  H   UNL A   1      42.398  32.353  32.072  1.00  0.00     0.167 HD
ATOM     61  C   UNL A   1      40.487  28.742  30.365  1.00  0.00     0.031 A 
ATOM     62  C   UNL A   1      44.428  34.174  32.215  1.00  0.00     0.031 A 
ATOM     63  C   UNL A   1      41.087  28.257  31.582  1.00  0.00     0.049 A 
ATOM     64  C   UNL A   1      44.769  32.734  32.099  1.00  0.00     0.074 A 
ATOM     65  C   UNL A   1      40.604  27.857  32.812  1.00  0.00     0.029 A 
ATOM     66  N   UNL A   1      42.428  28.516  31.759  1.00  0.00    -0.354 N 
ATOM     67  N   UNL A   1      44.807  31.922  33.120  1.00  0.00    -0.248 NA
ATOM     68  C   UNL A   1      44.640  32.089  30.801  1.00  0.00     0.031 C 
ATOM     69  C   UNL A   1      41.568  28.313  33.758  1.00  0.00     0.029 A 
ATOM     70  C   UNL A   1      42.616  28.917  33.057  1.00  0.00     0.049 A 
ATOM     71  H   UNL A   1      43.129  28.428  31.073  1.00  0.00     0.167 HD
ATOM     72  C   UNL A   1      44.280  30.727  32.648  1.00  0.00     0.074 A 
ATOM     73  C   UNL A   1      44.298  30.857  31.194  1.00  0.00     0.031 C 
ATOM     74  C   UNL A   1      43.626  29.865  33.483  1.00  0.00     0.031 A 
BRANCH  61  75
ATOM     75  C   UNL A   1      40.946  28.283  29.009  1.00  0.00    -0.014 A 
ATOM     76  C   UNL A   1      41.011  26.902  28.747  1.00  0.00     0.010 A 
ATOM     77  C   UNL A   1      41.560  29.144  28.077  1.00  0.00     0.010 A 
ATOM     78  C   UNL A   1      41.706  26.409  27.637  1.00  0.00     0.020 A 
ATOM     79  C   UNL A   1      42.213  28.668  26.941  1.00  0.00     0.020 A 
ATOM     80  C   UNL A   1      42.310  27.298  26.747  1.00  0.00     0.054 A 
BRANCH  80  81
ATOM     81  S   UNL A   1      43.282  26.650  25.368  1.00  0.00     0.124 S 
ATOM     82  O   UNL A   1      44.631  26.659  25.924  1.00  0.00    -0.237 OA
ATOM     83  O   UNL A   1      42.686  25.333  25.162  1.00  0.00    -0.237 OA
ATOM     84  O   UNL A   1      43.038  27.614  24.296  1.00  0.00    -0.744 OA
ENDBRANCH  80  81
ENDBRANCH  61  75
BRANCH  62  85
ATOM     85  C   UNL A   1      45.292  35.249  31.672  1.00  0.00    -0.014 A 
ATOM     86  C   UNL A   1      46.694  35.134  31.710  1.00  0.00     0.010 A 
ATOM     87  C   UNL A   1      44.739  36.252  30.848  1.00  0.00     0.010 A 
ATOM     88  C   UNL A   1      47.509  35.938  30.895  1.00  0.00     0.020 A 
ATOM     89  C   UNL A   1      45.545  37.063  30.041  1.00  0.00     0.020 A 
ATOM     90  C   UNL A   1      46.926  36.882  30.047  1.00  0.00     0.054 A 
BRANCH  90  91
ATOM     91  S   UNL A   1      47.966  37.775  28.854  1.00  0.00     0.124 S 
ATOM     92  O   UNL A   1      47.018  38.707  28.252  1.00  0.00    -0.237 OA
ATOM     93  O   UNL A   1      48.988  38.373  29.708  1.00  0.00    -0.237 OA
ATOM     94  O   UNL A   1      48.450  36.720  27.963  1.00  0.00    -0.744 OA
ENDBRANCH  90  91
ENDBRANCH  62  85
BRANCH  74  95
ATOM     95  C   UNL A   1      43.782  30.054  34.976  1.00  0.00    -0.014 A 
ATOM     96  C   UNL A   1      44.786  29.437  35.748  1.00  0.00     0.010 A 
ATOM     97  C   UNL A   1      42.958  31.012  35.592  1.00  0.00     0.010 A 
ATOM     98  C   UNL A   1      44.941  29.756  37.106  1.00  0.00     0.020 A 
ATOM     99  C   UNL A   1      43.121  31.349  36.938  1.00  0.00     0.020 A 
ATOM    100  C   UNL A   1      44.106  30.713  37.692  1.00  0.00     0.054 A 
BRANCH 100 101
ATOM    101  S   UNL A   1      44.345  31.163  39.434  1.00  0.00     0.124 S 
ATOM    102  O   UNL A   1      44.851  29.923  40.017  1.00  0.00    -0.237 OA
ATOM    103  O   UNL A   1      45.307  32.261  39.358  1.00  0.00    -0.237 OA
ATOM    104  O   UNL A   1      43.008  31.555  39.880  1.00  0.00    -0.744 OA
ENDBRANCH 100 101
ENDBRANCH  74  95
ENDBRANCH  48  49
ENDBRANCH  41  43
ENDBRANCH  40  41
ENDBRANCH  39  40
ENDBRANCH  38  39
ENDBRANCH  37  38
ENDBRANCH  36  37
ENDBRANCH   1  36
TORSDOF 25
ENDMDL
MODEL 3
REMARK VINA RESULT:      -8.5      6.067     13.612
REMARK SMILES CCn1ncc(NC(=O)[C@@H]2CCCC[C@@H]2C(=O)OCCOCCOCCOC(=O)c2ccc(-c3c4nc(c(-c5ccc(S(=O)(=O)[O-])cc5)c5ccc([nH]5)c(-c5ccc(S(=O)(=O)[O-])cc5)c5nc(c(-c6ccc(S(=O)(=O)[O-])cc6)c6ccc3[nH]6)C=C5)C=C4)cc2)c1C(=O)Nc1cnn(C)c1C
REMARK SMILES IDX 22 1 21 2 20 3 19 4 18 5 16 6 17 7 15 8 10 9 11 10 12 11
REMARK SMILES IDX 14 12 13 13 8 14 7 15 9 17 6 18 3 19 4 20 90 21 5 22 2 23
REMARK SMILES IDX 1 24 91 25 92 26 93 27 94 29 95 30 99 31 96 32 97 33 100 34
REMARK SMILES IDX 98 35 23 36 24 37 25 38 26 39 27 40 28 41 29 42 30 43 31 44
REMARK SMILES IDX 89 45 32 46 88 47 33 48 34 49 35 50 82 51 36 52 87 53 81 54
REMARK SMILES IDX 83 55 37 56 86 57 80 58 79 59 38 61 68 62 49 63 67 64 50 65
REMARK SMILES IDX 53 66 66 67 84 68 51 69 52 70 65 72 85 73 54 74 39 75 40 76
REMARK SMILES IDX 48 77 41 78 47 79 42 80 43 81 44 82 45 83 46 84 69 85 70 86
REMARK SMILES IDX 78 87 71 88 77 89 72 90 73 91 74 92 75 93 76 94 55 95 56 96
REMARK SMILES IDX 64 97 57 98 63 99 58 100 59 101 60 102 61 103 62 104
REMARK H PARENT 7 16 93 28 83 60 53 71
REMARK Flexibility Score: inf
ROOT
ATOM      1  C   UNL A   1      40.093  21.421  26.322  1.00  0.00     0.188 C 
ENDROOT
BRANCH   1   2
ATOM      2  O   UNL A   1      38.826  21.645  25.709  1.00  0.00    -0.376 OA
BRANCH   2   3
ATOM      3  C   UNL A   1      38.148  22.843  26.074  1.00  0.00     0.202 C 
BRANCH   3   4
ATOM      4  C   UNL A   1      37.361  23.573  24.970  1.00  0.00     0.261 C 
BRANCH   4   5
ATOM      5  O   UNL A   1      35.955  23.770  25.226  1.00  0.00    -0.463 OA
BRANCH   5   6
ATOM      6  C   UNL A   1      35.114  22.845  24.703  1.00  0.00     0.309 C 
ATOM      7  O   UNL A   1      35.292  21.632  24.743  1.00  0.00    -0.252 OA
BRANCH   6   8
ATOM      8  C   UNL A   1      33.900  23.451  24.002  1.00  0.00     0.111 C 
ATOM      9  C   UNL A   1      32.621  23.219  24.799  1.00  0.00     0.093 C 
ATOM     10  C   UNL A   1      32.063  21.815  24.608  1.00  0.00     0.014 C 
ATOM     11  C   UNL A   1      31.622  21.697  23.152  1.00  0.00     0.001 C 
ATOM     12  C   UNL A   1      33.706  23.127  22.518  1.00  0.00     0.016 C 
ATOM     13  C   UNL A   1      32.764  21.971  22.180  1.00  0.00     0.001 C 
BRANCH   9  14
ATOM     14  C   UNL A   1      32.787  23.669  26.218  1.00  0.00     0.228 C 
ATOM     15  N   UNL A   1      32.584  24.979  26.542  1.00  0.00    -0.322 N 
ATOM     16  H   UNL A   1      32.986  25.205  27.411  1.00  0.00     0.170 HD
ATOM     17  O   UNL A   1      33.214  22.903  27.085  1.00  0.00    -0.274 OA
BRANCH  15  18
ATOM     18  C   UNL A   1      31.953  26.080  25.962  1.00  0.00     0.092 A 
ATOM     19  N   UNL A   1      31.201  27.782  24.778  1.00  0.00    -0.258 N 
ATOM     20  N   UNL A   1      30.090  27.076  25.062  1.00  0.00    -0.178 NA
ATOM     21  C   UNL A   1      32.329  27.327  25.440  1.00  0.00     0.150 A 
ATOM     22  C   UNL A   1      30.553  26.029  25.731  1.00  0.00     0.162 A 
BRANCH  19  23
ATOM     23  C   UNL A   1      31.060  28.816  23.763  1.00  0.00     0.142 C 
ATOM     24  C   UNL A   1      30.077  28.549  22.633  1.00  0.00     0.029 C 
ENDBRANCH  19  23
BRANCH  21  25
ATOM     25  C   UNL A   1      33.603  27.988  25.303  1.00  0.00     0.276 C 
ATOM     26  O   UNL A   1      34.102  28.249  24.208  1.00  0.00    -0.267 OA
ATOM     27  N   UNL A   1      34.340  28.216  26.462  1.00  0.00    -0.318 N 
ATOM     28  H   UNL A   1      34.905  27.509  26.849  1.00  0.00     0.170 HD
BRANCH  27  29
ATOM     29  C   UNL A   1      34.255  29.471  27.057  1.00  0.00     0.082 A 
ATOM     30  C   UNL A   1      33.186  30.381  27.098  1.00  0.00     0.161 A 
ATOM     31  C   UNL A   1      35.286  30.085  27.741  1.00  0.00     0.059 A 
ATOM     32  N   UNL A   1      33.567  31.566  27.585  1.00  0.00    -0.179 NA
ATOM     33  N   UNL A   1      34.865  31.385  27.903  1.00  0.00    -0.271 N 
ATOM     34  C   UNL A   1      36.648  29.614  28.102  1.00  0.00     0.068 C 
ATOM     35  C   UNL A   1      35.703  32.549  28.090  1.00  0.00     0.174 C 
ENDBRANCH  27  29
ENDBRANCH  21  25
ENDBRANCH  15  18
ENDBRANCH   9  14
ENDBRANCH   6   8
ENDBRANCH   5   6
ENDBRANCH   4   5
ENDBRANCH   3   4
ENDBRANCH   2   3
ENDBRANCH   1   2
BRANCH   1  36
ATOM     36  C   UNL A   1      40.985  22.657  26.520  1.00  0.00     0.188 C 
BRANCH  36  37
ATOM     37  O   UNL A   1      42.035  22.781  25.564  1.00  0.00    -0.376 OA
BRANCH  37  38
ATOM     38  C   UNL A   1      43.090  23.717  25.784  1.00  0.00     0.202 C 
BRANCH  38  39
ATOM     39  C   UNL A   1      43.055  25.056  25.056  1.00  0.00     0.261 C 
BRANCH  39  40
ATOM     40  O   UNL A   1      41.948  25.888  25.376  1.00  0.00    -0.460 OA
BRANCH  40  41
ATOM     41  C   UNL A   1      42.072  27.227  25.402  1.00  0.00     0.338 C 
ATOM     42  O   UNL A   1      42.481  27.966  24.518  1.00  0.00    -0.246 OA
BRANCH  41  43
ATOM     43  C   UNL A   1      41.574  27.641  26.723  1.00  0.00     0.060 A 
ATOM     44  C   UNL A   1      41.754  28.966  27.105  1.00  0.00     0.016 A 
ATOM     45  C   UNL A   1      41.115  26.663  27.630  1.00  0.00     0.016 A 
ATOM     46  C   UNL A   1      41.759  29.240  28.455  1.00  0.00     0.010 A 
ATOM     47  C   UNL A   1      41.134  26.932  28.972  1.00  0.00     0.010 A 
ATOM     48  C   UNL A   1      41.570  28.187  29.361  1.00  0.00    -0.014 A 
BRANCH  48  49
ATOM     49  C   UNL A   1      41.878  28.418  30.749  1.00  0.00     0.031 A 
ATOM     50  C   UNL A   1      40.884  29.237  31.451  1.00  0.00     0.074 A 
ATOM     51  C   UNL A   1      42.967  27.901  31.344  1.00  0.00     0.049 A 
ATOM     52  N   UNL A   1      40.975  30.495  31.709  1.00  0.00    -0.248 NA
ATOM     53  C   UNL A   1      39.572  28.643  31.732  1.00  0.00     0.031 C 
ATOM     54  C   UNL A   1      43.875  26.859  30.854  1.00  0.00     0.029 A 
ATOM     55  N   UNL A   1      43.440  28.165  32.587  1.00  0.00    -0.354 N 
ATOM     56  C   UNL A   1      39.816  30.810  32.399  1.00  0.00     0.074 A 
ATOM     57  C   UNL A   1      38.914  29.703  32.200  1.00  0.00     0.031 C 
ATOM     58  C   UNL A   1      44.656  26.437  31.877  1.00  0.00     0.029 A 
ATOM     59  C   UNL A   1      44.403  27.276  33.038  1.00  0.00     0.049 A 
ATOM     60  H   UNL A   1      43.126  28.926  33.126  1.00  0.00     0.167 HD
ATOM     61  C   UNL A   1      39.789  31.833  33.295  1.00  0.00     0.031 A 
ATOM     62  C   UNL A   1      44.900  27.213  34.298  1.00  0.00     0.031 A 
ATOM     63  C   UNL A   1      40.956  32.671  33.188  1.00  0.00     0.049 A 
ATOM     64  C   UNL A   1      44.660  28.536  34.930  1.00  0.00     0.074 A 
ATOM     65  C   UNL A   1      41.505  33.451  32.190  1.00  0.00     0.029 A 
ATOM     66  N   UNL A   1      41.958  32.461  34.108  1.00  0.00    -0.354 N 
ATOM     67  N   UNL A   1      45.260  29.630  34.551  1.00  0.00    -0.248 NA
ATOM     68  C   UNL A   1      43.435  28.734  35.690  1.00  0.00     0.031 C 
ATOM     69  C   UNL A   1      42.915  33.306  32.336  1.00  0.00     0.029 A 
ATOM     70  C   UNL A   1      43.158  32.493  33.445  1.00  0.00     0.049 A 
ATOM     71  H   UNL A   1      41.834  32.313  35.074  1.00  0.00     0.167 HD
ATOM     72  C   UNL A   1      44.290  30.620  34.639  1.00  0.00     0.074 A 
ATOM     73  C   UNL A   1      43.226  30.032  35.447  1.00  0.00     0.031 C 
ATOM     74  C   UNL A   1      44.322  31.714  33.821  1.00  0.00     0.031 A 
BRANCH  61  75
ATOM     75  C   UNL A   1      38.918  31.826  34.520  1.00  0.00    -0.014 A 
ATOM     76  C   UNL A   1      38.376  33.044  34.972  1.00  0.00     0.010 A 
ATOM     77  C   UNL A   1      38.826  30.719  35.388  1.00  0.00     0.010 A 
ATOM     78  C   UNL A   1      37.822  33.157  36.252  1.00  0.00     0.020 A 
ATOM     79  C   UNL A   1      38.231  30.807  36.645  1.00  0.00     0.020 A 
ATOM     80  C   UNL A   1      37.763  32.037  37.082  1.00  0.00     0.054 A 
BRANCH  80  81
ATOM     81  S   UNL A   1      37.129  32.212  38.766  1.00  0.00     0.124 S 
ATOM     82  O   UNL A   1      35.780  32.716  38.525  1.00  0.00    -0.237 OA
ATOM     83  O   UNL A   1      37.218  30.846  39.274  1.00  0.00    -0.237 OA
ATOM     84  O   UNL A   1      38.053  33.163  39.381  1.00  0.00    -0.744 OA
ENDBRANCH  80  81
ENDBRANCH  61  75
BRANCH  62  85
ATOM     85  C   UNL A   1      45.269  26.007  35.077  1.00  0.00    -0.014 A 
ATOM     86  C   UNL A   1      46.532  25.904  35.689  1.00  0.00     0.010 A 
ATOM     87  C   UNL A   1      44.274  25.087  35.469  1.00  0.00     0.010 A 
ATOM     88  C   UNL A   1      46.768  24.968  36.710  1.00  0.00     0.020 A 
ATOM     89  C   UNL A   1      44.504  24.146  36.479  1.00  0.00     0.020 A 
ATOM     90  C   UNL A   1      45.743  24.110  37.115  1.00  0.00     0.054 A 
BRANCH  90  91
ATOM     91  S   UNL A   1      45.990  23.044  38.566  1.00  0.00     0.124 S 
ATOM     92  O   UNL A   1      47.381  23.316  38.917  1.00  0.00    -0.237 OA
ATOM     93  O   UNL A   1      44.991  23.548  39.504  1.00  0.00    -0.237 OA
ATOM     94  O   UNL A   1      45.731  21.699  38.054  1.00  0.00    -0.744 OA
ENDBRANCH  90  91
ENDBRANCH  62  85
BRANCH  74  95
ATOM     95  C   UNL A   1      45.599  32.010  33.066  1.00  0.00    -0.014 A 
ATOM     96  C   UNL A   1      45.912  31.468  31.804  1.00  0.00     0.010 A 
ATOM     97  C   UNL A   1      46.449  32.995  33.600  1.00  0.00     0.010 A 
ATOM     98  C   UNL A   1      47.060  31.884  31.111  1.00  0.00     0.020 A 
ATOM     99  C   UNL A   1      47.581  33.429  32.907  1.00  0.00     0.020 A 
ATOM    100  C   UNL A   1      47.887  32.864  31.668  1.00  0.00     0.054 A 
BRANCH 100 101
ATOM    101  S   UNL A   1      49.340  33.441  30.745  1.00  0.00     0.124 S 
ATOM    102  O   UNL A   1      48.864  33.426  29.364  1.00  0.00    -0.237 OA
ATOM    103  O   UNL A   1      49.582  34.765  31.313  1.00  0.00    -0.237 OA
ATOM    104  O   UNL A   1      50.367  32.447  31.055  1.00  0.00    -0.744 OA
ENDBRANCH 100 101
ENDBRANCH  74  95
ENDBRANCH  48  49
ENDBRANCH  41  43
ENDBRANCH  40  41
ENDBRANCH  39  40
ENDBRANCH  38  39
ENDBRANCH  37  38
ENDBRANCH  36  37
ENDBRANCH   1  36
TORSDOF 25
ENDMDL
