MODEL 1
REMARK VINA RESULT:      -8.7      0.000      0.000
REMARK SMILES O=C(COc1cc(-c2ccccc2)nc(NCc2ccc(Cl)cc2)n1)OCCOCCOCCOC(=O)c1ccc(-c2c3nc(c(-c4ccc(S(=O)(=O)[O-])cc4)c4ccc([nH]4)c(-c4ccc(S(=O)(=O)[O-])cc4)c4nc(c(-c5ccc(S(=O)(=O)[O-])cc5)c5ccc2[nH]5)C=C4)C=C3)cc1
REMARK SMILES IDX 30 1 29 2 28 3 27 4 26 5 2 6 1 7 3 8 4 9 5 10 6 11 25 12
REMARK SMILES IDX 7 13 15 14 14 15 8 16 9 17 13 18 10 19 12 20 11 21 16 22
REMARK SMILES IDX 17 24 18 25 19 26 24 27 20 28 23 29 21 30 22 31 31 32 32 33
REMARK SMILES IDX 33 34 34 35 35 36 36 37 37 38 38 39 39 40 97 41 40 42 96 43
REMARK SMILES IDX 41 44 42 45 43 46 90 47 44 48 95 49 89 50 91 51 45 52 94 53
REMARK SMILES IDX 88 54 87 55 46 57 76 58 57 59 75 60 58 61 61 62 74 63 92 64
REMARK SMILES IDX 59 65 60 66 73 68 93 69 62 70 47 71 48 72 56 73 49 74 55 75
REMARK SMILES IDX 50 76 51 77 52 78 53 79 54 80 77 81 78 82 86 83 79 84 85 85
REMARK SMILES IDX 80 86 81 87 82 88 83 89 84 90 63 91 64 92 72 93 65 94 71 95
REMARK SMILES IDX 66 96 67 97 68 98 69 99 70 100
REMARK H PARENT 16 23 91 56 61 67
REMARK Flexibility Score: inf
ROOT
ATOM      1  C   UNL A   1      42.354  24.937  26.288  1.00  0.00     0.188 C 
ENDROOT
BRANCH   1   2
ATOM      2  O   UNL A   1      42.516  24.579  27.657  1.00  0.00    -0.376 OA
BRANCH   2   3
ATOM      3  C   UNL A   1      41.321  24.264  28.348  1.00  0.00     0.202 C 
BRANCH   3   4
ATOM      4  C   UNL A   1      40.576  23.131  27.649  1.00  0.00     0.261 C 
BRANCH   4   5
ATOM      5  O   UNL A   1      39.476  23.537  26.794  1.00  0.00    -0.461 OA
BRANCH   5   6
ATOM      6  C   UNL A   1      38.587  22.759  26.138  1.00  0.00     0.344 C 
ATOM      7  O   UNL A   1      38.886  21.601  25.853  1.00  0.00    -0.248 OA
BRANCH   6   8
ATOM      8  C   UNL A   1      37.234  23.331  25.750  1.00  0.00     0.353 C 
BRANCH   8   9
ATOM      9  O   UNL A   1      36.455  22.515  24.894  1.00  0.00    -0.466 OA
BRANCH   9  10
ATOM     10  C   UNL A   1      35.148  22.895  24.902  1.00  0.00     0.219 A 
ATOM     11  C   UNL A   1      34.751  24.162  25.210  1.00  0.00     0.097 A 
ATOM     12  N   UNL A   1      34.313  21.912  24.610  1.00  0.00    -0.177 NA
ATOM     13  C   UNL A   1      33.397  24.349  25.336  1.00  0.00     0.080 A 
ATOM     14  C   UNL A   1      33.011  22.165  24.727  1.00  0.00     0.226 A 
ATOM     15  N   UNL A   1      32.512  23.353  25.115  1.00  0.00    -0.213 NA
BRANCH  13  16
ATOM     16  C   UNL A   1      32.926  25.647  25.845  1.00  0.00     0.000 A 
ATOM     17  C   UNL A   1      33.746  26.781  25.791  1.00  0.00     0.010 A 
ATOM     18  C   UNL A   1      31.575  25.823  26.211  1.00  0.00     0.010 A 
ATOM     19  C   UNL A   1      33.223  28.054  26.047  1.00  0.00     0.001 A 
ATOM     20  C   UNL A   1      31.052  27.092  26.467  1.00  0.00     0.001 A 
ATOM     21  C   UNL A   1      31.876  28.208  26.374  1.00  0.00     0.000 A 
ENDBRANCH  13  16
BRANCH  14  22
ATOM     22  N   UNL A   1      32.142  21.146  24.463  1.00  0.00    -0.350 N 
ATOM     23  H   UNL A   1      31.346  21.024  25.031  1.00  0.00     0.164 HD
BRANCH  22  24
ATOM     24  C   UNL A   1      32.376  20.241  23.354  1.00  0.00     0.152 C 
BRANCH  24  25
ATOM     25  C   UNL A   1      32.717  18.885  23.912  1.00  0.00    -0.029 A 
ATOM     26  C   UNL A   1      33.204  17.876  23.072  1.00  0.00     0.007 A 
ATOM     27  C   UNL A   1      32.482  18.600  25.268  1.00  0.00     0.007 A 
ATOM     28  C   UNL A   1      33.384  16.584  23.564  1.00  0.00     0.021 A 
ATOM     29  C   UNL A   1      32.662  17.307  25.756  1.00  0.00     0.021 A 
ATOM     30  C   UNL A   1      33.081  16.296  24.894  1.00  0.00     0.041 A 
ATOM     31  Cl  UNL A   1      33.157  14.672  25.465  1.00  0.00    -0.084 Cl
ENDBRANCH  24  25
ENDBRANCH  22  24
ENDBRANCH  14  22
ENDBRANCH   9  10
ENDBRANCH   8   9
ENDBRANCH   6   8
ENDBRANCH   5   6
ENDBRANCH   4   5
ENDBRANCH   3   4
ENDBRANCH   2   3
ENDBRANCH   1   2
BRANCH   1  32
ATOM     32  C   UNL A   1      43.174  24.032  25.356  1.00  0.00     0.188 C 
BRANCH  32  33
ATOM     33  O   UNL A   1      44.567  23.873  25.614  1.00  0.00    -0.376 OA
BRANCH  33  34
ATOM     34  C   UNL A   1      45.496  24.573  24.800  1.00  0.00     0.202 C 
BRANCH  34  35
ATOM     35  C   UNL A   1      46.972  24.455  25.200  1.00  0.00     0.261 C 
BRANCH  35  36
ATOM     36  O   UNL A   1      47.847  25.338  24.467  1.00  0.00    -0.460 OA
BRANCH  36  37
ATOM     37  C   UNL A   1      48.718  26.065  25.209  1.00  0.00     0.338 C 
ATOM     38  O   UNL A   1      49.933  25.938  25.237  1.00  0.00    -0.246 OA
BRANCH  37  39
ATOM     39  C   UNL A   1      48.020  27.190  25.882  1.00  0.00     0.060 A 
ATOM     40  C   UNL A   1      47.121  27.956  25.127  1.00  0.00     0.016 A 
ATOM     41  C   UNL A   1      48.277  27.536  27.211  1.00  0.00     0.016 A 
ATOM     42  C   UNL A   1      46.506  29.084  25.681  1.00  0.00     0.010 A 
ATOM     43  C   UNL A   1      47.676  28.682  27.759  1.00  0.00     0.010 A 
ATOM     44  C   UNL A   1      46.805  29.480  26.992  1.00  0.00    -0.014 A 
BRANCH  44  45
ATOM     45  C   UNL A   1      46.325  30.790  27.516  1.00  0.00     0.031 A 
ATOM     46  C   UNL A   1      47.208  32.004  27.366  1.00  0.00     0.074 A 
ATOM     47  C   UNL A   1      45.135  30.906  28.138  1.00  0.00     0.049 A 
ATOM     48  N   UNL A   1      47.051  33.206  27.858  1.00  0.00    -0.248 NA
ATOM     49  C   UNL A   1      48.429  31.838  26.559  1.00  0.00     0.031 C 
ATOM     50  C   UNL A   1      44.170  29.824  28.330  1.00  0.00     0.029 A 
ATOM     51  N   UNL A   1      44.551  31.988  28.758  1.00  0.00    -0.354 N 
ATOM     52  C   UNL A   1      48.158  33.937  27.436  1.00  0.00     0.074 A 
ATOM     53  C   UNL A   1      48.981  33.041  26.652  1.00  0.00     0.031 C 
ATOM     54  C   UNL A   1      43.144  30.280  29.072  1.00  0.00     0.029 A 
ATOM     55  C   UNL A   1      43.393  31.676  29.435  1.00  0.00     0.049 A 
ATOM     56  H   UNL A   1      44.926  32.898  28.722  1.00  0.00     0.167 HD
ATOM     57  C   UNL A   1      48.465  35.232  27.683  1.00  0.00     0.031 A 
ATOM     58  C   UNL A   1      42.654  32.405  30.299  1.00  0.00     0.031 A 
ATOM     59  C   UNL A   1      47.655  36.128  28.463  1.00  0.00     0.049 A 
ATOM     60  C   UNL A   1      43.066  33.826  30.625  1.00  0.00     0.074 A 
ATOM     61  C   UNL A   1      47.870  37.472  28.723  1.00  0.00     0.029 A 
ATOM     62  N   UNL A   1      46.492  35.775  29.124  1.00  0.00    -0.354 N 
ATOM     63  N   UNL A   1      44.075  34.522  30.155  1.00  0.00    -0.248 NA
ATOM     64  C   UNL A   1      42.247  34.558  31.605  1.00  0.00     0.031 C 
ATOM     65  C   UNL A   1      46.870  37.915  29.594  1.00  0.00     0.029 A 
ATOM     66  C   UNL A   1      46.003  36.862  29.829  1.00  0.00     0.049 A 
ATOM     67  H   UNL A   1      46.075  34.884  29.098  1.00  0.00     0.167 HD
ATOM     68  C   UNL A   1      43.999  35.769  30.775  1.00  0.00     0.074 A 
ATOM     69  C   UNL A   1      42.831  35.747  31.626  1.00  0.00     0.031 C 
ATOM     70  C   UNL A   1      44.829  36.835  30.661  1.00  0.00     0.031 A 
BRANCH  57  71
ATOM     71  C   UNL A   1      49.756  35.771  27.130  1.00  0.00    -0.014 A 
ATOM     72  C   UNL A   1      50.965  35.621  27.829  1.00  0.00     0.010 A 
ATOM     73  C   UNL A   1      49.770  36.343  25.842  1.00  0.00     0.010 A 
ATOM     74  C   UNL A   1      52.167  36.045  27.256  1.00  0.00     0.020 A 
ATOM     75  C   UNL A   1      50.972  36.749  25.259  1.00  0.00     0.020 A 
ATOM     76  C   UNL A   1      52.164  36.604  25.973  1.00  0.00     0.054 A 
BRANCH  76  77
ATOM     77  S   UNL A   1      53.746  37.087  25.229  1.00  0.00     0.124 S 
ATOM     78  O   UNL A   1      53.436  38.412  24.699  1.00  0.00    -0.237 OA
ATOM     79  O   UNL A   1      54.657  37.066  26.371  1.00  0.00    -0.237 OA
ATOM     80  O   UNL A   1      53.988  36.056  24.224  1.00  0.00    -0.744 OA
ENDBRANCH  76  77
ENDBRANCH  57  71
BRANCH  58  81
ATOM     81  C   UNL A   1      41.544  31.770  31.075  1.00  0.00    -0.014 A 
ATOM     82  C   UNL A   1      41.779  31.001  32.230  1.00  0.00     0.010 A 
ATOM     83  C   UNL A   1      40.243  31.807  30.539  1.00  0.00     0.010 A 
ATOM     84  C   UNL A   1      40.761  30.196  32.764  1.00  0.00     0.020 A 
ATOM     85  C   UNL A   1      39.218  31.038  31.092  1.00  0.00     0.020 A 
ATOM     86  C   UNL A   1      39.495  30.198  32.168  1.00  0.00     0.054 A 
BRANCH  86  87
ATOM     87  S   UNL A   1      38.242  28.995  32.708  1.00  0.00     0.124 S 
ATOM     88  O   UNL A   1      39.029  27.771  32.816  1.00  0.00    -0.237 OA
ATOM     89  O   UNL A   1      37.767  29.552  33.968  1.00  0.00    -0.237 OA
ATOM     90  O   UNL A   1      37.261  29.014  31.624  1.00  0.00    -0.744 OA
ENDBRANCH  86  87
ENDBRANCH  58  81
BRANCH  70  91
ATOM     91  C   UNL A   1      44.496  38.080  31.443  1.00  0.00    -0.014 A 
ATOM     92  C   UNL A   1      43.658  39.073  30.908  1.00  0.00     0.010 A 
ATOM     93  C   UNL A   1      44.964  38.220  32.764  1.00  0.00     0.010 A 
ATOM     94  C   UNL A   1      43.306  40.191  31.672  1.00  0.00     0.020 A 
ATOM     95  C   UNL A   1      44.595  39.324  33.539  1.00  0.00     0.020 A 
ATOM     96  C   UNL A   1      43.775  40.308  32.984  1.00  0.00     0.054 A 
BRANCH  96  97
ATOM     97  S   UNL A   1      43.252  41.734  33.978  1.00  0.00     0.124 S 
ATOM     98  O   UNL A   1      43.958  42.835  33.329  1.00  0.00    -0.237 OA
ATOM     99  O   UNL A   1      41.800  41.730  33.808  1.00  0.00    -0.237 OA
ATOM    100  O   UNL A   1      43.714  41.406  35.325  1.00  0.00    -0.744 OA
ENDBRANCH  96  97
ENDBRANCH  70  91
ENDBRANCH  44  45
ENDBRANCH  37  39
ENDBRANCH  36  37
ENDBRANCH  35  36
ENDBRANCH  34  35
ENDBRANCH  33  34
ENDBRANCH  32  33
ENDBRANCH   1  32
TORSDOF 26
ENDMDL
MODEL 2
REMARK VINA RESULT:      -8.7      2.277      8.883
REMARK SMILES O=C(COc1cc(-c2ccccc2)nc(NCc2ccc(Cl)cc2)n1)OCCOCCOCCOC(=O)c1ccc(-c2c3nc(c(-c4ccc(S(=O)(=O)[O-])cc4)c4ccc([nH]4)c(-c4ccc(S(=O)(=O)[O-])cc4)c4nc(c(-c5ccc(S(=O)(=O)[O-])cc5)c5ccc2[nH]5)C=C4)C=C3)cc1
REMARK SMILES IDX 30 1 29 2 28 3 27 4 26 5 2 6 1 7 3 8 4 9 5 10 6 11 25 12
REMARK SMILES IDX 7 13 15 14 14 15 8 16 9 17 13 18 10 19 12 20 11 21 16 22
REMARK SMILES IDX 17 24 18 25 19 26 24 27 20 28 23 29 21 30 22 31 31 32 32 33
REMARK SMILES IDX 33 34 34 35 35 36 36 37 37 38 38 39 39 40 97 41 40 42 96 43
REMARK SMILES IDX 41 44 42 45 43 46 90 47 44 48 95 49 89 50 91 51 45 52 94 53
REMARK SMILES IDX 88 54 87 55 46 57 76 58 57 59 75 60 58 61 61 62 74 63 92 64
REMARK SMILES IDX 59 65 60 66 73 68 93 69 62 70 47 71 48 72 56 73 49 74 55 75
REMARK SMILES IDX 50 76 51 77 52 78 53 79 54 80 77 81 78 82 86 83 79 84 85 85
REMARK SMILES IDX 80 86 81 87 82 88 83 89 84 90 63 91 64 92 72 93 65 94 71 95
REMARK SMILES IDX 66 96 67 97 68 98 69 99 70 100
REMARK H PARENT 16 23 91 56 61 67
REMARK Flexibility Score: inf
ROOT
ATOM      1  C   UNL A   1      40.098  28.495  28.874  1.00  0.00     0.188 C 
ENDROOT
BRANCH   1   2
ATOM      2  O   UNL A   1      40.441  27.118  28.748  1.00  0.00    -0.376 OA
BRANCH   2   3
ATOM      3  C   UNL A   1      39.841  26.440  27.659  1.00  0.00     0.202 C 
BRANCH   3   4
ATOM      4  C   UNL A   1      39.988  24.930  27.817  1.00  0.00     0.261 C 
BRANCH   4   5
ATOM      5  O   UNL A   1      40.178  24.187  26.584  1.00  0.00    -0.461 OA
BRANCH   5   6
ATOM      6  C   UNL A   1      40.221  22.848  26.405  1.00  0.00     0.344 C 
ATOM      7  O   UNL A   1      41.303  22.294  26.220  1.00  0.00    -0.248 OA
BRANCH   6   8
ATOM      8  C   UNL A   1      38.930  22.048  26.424  1.00  0.00     0.353 C 
BRANCH   8   9
ATOM      9  O   UNL A   1      38.269  21.937  25.177  1.00  0.00    -0.466 OA
BRANCH   9  10
ATOM     10  C   UNL A   1      36.937  21.713  25.340  1.00  0.00     0.219 A 
ATOM     11  C   UNL A   1      36.343  20.529  25.014  1.00  0.00     0.097 A 
ATOM     12  N   UNL A   1      36.283  22.757  25.819  1.00  0.00    -0.177 NA
ATOM     13  C   UNL A   1      34.971  20.512  25.081  1.00  0.00     0.080 A 
ATOM     14  C   UNL A   1      34.955  22.668  25.883  1.00  0.00     0.226 A 
ATOM     15  N   UNL A   1      34.260  21.582  25.497  1.00  0.00    -0.213 NA
BRANCH  13  16
ATOM     16  C   UNL A   1      34.273  19.324  24.565  1.00  0.00     0.000 A 
ATOM     17  C   UNL A   1      33.012  19.435  23.964  1.00  0.00     0.010 A 
ATOM     18  C   UNL A   1      34.939  18.084  24.482  1.00  0.00     0.010 A 
ATOM     19  C   UNL A   1      32.457  18.358  23.264  1.00  0.00     0.001 A 
ATOM     20  C   UNL A   1      34.386  17.009  23.783  1.00  0.00     0.001 A 
ATOM     21  C   UNL A   1      33.149  17.152  23.165  1.00  0.00     0.000 A 
ENDBRANCH  13  16
BRANCH  14  22
ATOM     22  N   UNL A   1      34.268  23.755  26.340  1.00  0.00    -0.350 N 
ATOM     23  H   UNL A   1      33.487  23.627  26.927  1.00  0.00     0.164 HD
BRANCH  22  24
ATOM     24  C   UNL A   1      34.677  25.097  25.972  1.00  0.00     0.152 C 
BRANCH  24  25
ATOM     25  C   UNL A   1      33.459  25.855  25.513  1.00  0.00    -0.029 A 
ATOM     26  C   UNL A   1      32.185  25.292  25.642  1.00  0.00     0.007 A 
ATOM     27  C   UNL A   1      33.601  27.106  24.888  1.00  0.00     0.007 A 
ATOM     28  C   UNL A   1      31.077  25.934  25.089  1.00  0.00     0.021 A 
ATOM     29  C   UNL A   1      32.492  27.745  24.335  1.00  0.00     0.021 A 
ATOM     30  C   UNL A   1      31.240  27.141  24.409  1.00  0.00     0.041 A 
ATOM     31  Cl  UNL A   1      29.901  27.860  23.596  1.00  0.00    -0.084 Cl
ENDBRANCH  24  25
ENDBRANCH  22  24
ENDBRANCH  14  22
ENDBRANCH   9  10
ENDBRANCH   8   9
ENDBRANCH   6   8
ENDBRANCH   5   6
ENDBRANCH   4   5
ENDBRANCH   3   4
ENDBRANCH   2   3
ENDBRANCH   1   2
BRANCH   1  32
ATOM     32  C   UNL A   1      38.848  28.699  29.743  1.00  0.00     0.188 C 
BRANCH  32  33
ATOM     33  O   UNL A   1      37.573  28.726  29.105  1.00  0.00    -0.376 OA
BRANCH  33  34
ATOM     34  C   UNL A   1      36.552  29.546  29.654  1.00  0.00     0.202 C 
BRANCH  34  35
ATOM     35  C   UNL A   1      36.509  29.643  31.184  1.00  0.00     0.261 C 
BRANCH  35  36
ATOM     36  O   UNL A   1      36.382  30.993  31.678  1.00  0.00    -0.460 OA
BRANCH  36  37
ATOM     37  C   UNL A   1      37.301  31.380  32.599  1.00  0.00     0.338 C 
ATOM     38  O   UNL A   1      37.135  31.452  33.806  1.00  0.00    -0.246 OA
BRANCH  37  39
ATOM     39  C   UNL A   1      38.634  31.551  31.967  1.00  0.00     0.060 A 
ATOM     40  C   UNL A   1      39.761  31.106  32.673  1.00  0.00     0.016 A 
ATOM     41  C   UNL A   1      38.798  32.187  30.734  1.00  0.00     0.016 A 
ATOM     42  C   UNL A   1      41.049  31.325  32.171  1.00  0.00     0.010 A 
ATOM     43  C   UNL A   1      40.091  32.426  30.242  1.00  0.00     0.010 A 
ATOM     44  C   UNL A   1      41.228  32.020  30.968  1.00  0.00    -0.014 A 
BRANCH  44  45
ATOM     45  C   UNL A   1      42.590  32.445  30.534  1.00  0.00     0.031 A 
ATOM     46  C   UNL A   1      43.003  33.883  30.730  1.00  0.00     0.074 A 
ATOM     47  C   UNL A   1      43.446  31.580  29.953  1.00  0.00     0.049 A 
ATOM     48  N   UNL A   1      44.081  34.497  30.314  1.00  0.00    -0.248 NA
ATOM     49  C   UNL A   1      42.078  34.738  31.492  1.00  0.00     0.031 C 
ATOM     50  C   UNL A   1      43.190  30.159  29.724  1.00  0.00     0.029 A 
ATOM     51  N   UNL A   1      44.695  31.785  29.413  1.00  0.00    -0.354 N 
ATOM     52  C   UNL A   1      43.959  35.814  30.747  1.00  0.00     0.074 A 
ATOM     53  C   UNL A   1      42.700  35.910  31.454  1.00  0.00     0.031 C 
ATOM     54  C   UNL A   1      44.221  29.633  29.039  1.00  0.00     0.029 A 
ATOM     55  C   UNL A   1      45.197  30.685  28.752  1.00  0.00     0.049 A 
ATOM     56  H   UNL A   1      45.185  32.635  29.492  1.00  0.00     0.167 HD
ATOM     57  C   UNL A   1      44.812  36.849  30.568  1.00  0.00     0.031 A 
ATOM     58  C   UNL A   1      46.277  30.555  27.952  1.00  0.00     0.031 A 
ATOM     59  C   UNL A   1      46.063  36.764  29.864  1.00  0.00     0.049 A 
ATOM     60  C   UNL A   1      47.171  31.753  27.699  1.00  0.00     0.074 A 
ATOM     61  C   UNL A   1      47.011  37.757  29.676  1.00  0.00     0.029 A 
ATOM     62  N   UNL A   1      46.533  35.636  29.215  1.00  0.00    -0.354 N 
ATOM     63  N   UNL A   1      47.078  32.970  28.181  1.00  0.00    -0.248 NA
ATOM     64  C   UNL A   1      48.310  31.562  26.786  1.00  0.00     0.031 C 
ATOM     65  C   UNL A   1      48.025  37.245  28.861  1.00  0.00     0.029 A 
ATOM     66  C   UNL A   1      47.734  35.919  28.589  1.00  0.00     0.049 A 
ATOM     67  H   UNL A   1      46.080  34.761  29.201  1.00  0.00     0.167 HD
ATOM     68  C   UNL A   1      48.149  33.678  27.636  1.00  0.00     0.074 A 
ATOM     69  C   UNL A   1      48.896  32.750  26.818  1.00  0.00     0.031 C 
ATOM     70  C   UNL A   1      48.480  34.984  27.790  1.00  0.00     0.031 A 
BRANCH  57  71
ATOM     71  C   UNL A   1      44.418  38.194  31.115  1.00  0.00    -0.014 A 
ATOM     72  C   UNL A   1      43.710  39.119  30.330  1.00  0.00     0.010 A 
ATOM     73  C   UNL A   1      44.670  38.489  32.469  1.00  0.00     0.010 A 
ATOM     74  C   UNL A   1      43.270  40.324  30.886  1.00  0.00     0.020 A 
ATOM     75  C   UNL A   1      44.216  39.684  33.032  1.00  0.00     0.020 A 
ATOM     76  C   UNL A   1      43.524  40.598  32.235  1.00  0.00     0.054 A 
BRANCH  76  77
ATOM     77  S   UNL A   1      42.888  42.141  32.945  1.00  0.00     0.124 S 
ATOM     78  O   UNL A   1      44.089  42.710  33.552  1.00  0.00    -0.237 OA
ATOM     79  O   UNL A   1      42.382  42.849  31.772  1.00  0.00    -0.237 OA
ATOM     80  O   UNL A   1      41.866  41.695  33.888  1.00  0.00    -0.744 OA
ENDBRANCH  76  77
ENDBRANCH  57  71
BRANCH  58  81
ATOM     81  C   UNL A   1      46.500  29.299  27.171  1.00  0.00    -0.014 A 
ATOM     82  C   UNL A   1      45.881  29.067  25.929  1.00  0.00     0.010 A 
ATOM     83  C   UNL A   1      47.218  28.251  27.776  1.00  0.00     0.010 A 
ATOM     84  C   UNL A   1      45.884  27.782  25.365  1.00  0.00     0.020 A 
ATOM     85  C   UNL A   1      47.257  26.982  27.198  1.00  0.00     0.020 A 
ATOM     86  C   UNL A   1      46.547  26.740  26.023  1.00  0.00     0.054 A 
BRANCH  86  87
ATOM     87  S   UNL A   1      46.366  25.033  25.423  1.00  0.00     0.124 S 
ATOM     88  O   UNL A   1      46.726  24.260  26.607  1.00  0.00    -0.237 OA
ATOM     89  O   UNL A   1      44.966  24.966  25.029  1.00  0.00    -0.237 OA
ATOM     90  O   UNL A   1      47.317  24.959  24.315  1.00  0.00    -0.744 OA
ENDBRANCH  86  87
ENDBRANCH  58  81
BRANCH  70  91
ATOM     91  C   UNL A   1      49.717  35.489  27.091  1.00  0.00    -0.014 A 
ATOM     92  C   UNL A   1      51.001  35.200  27.585  1.00  0.00     0.010 A 
ATOM     93  C   UNL A   1      49.595  36.193  25.878  1.00  0.00     0.010 A 
ATOM     94  C   UNL A   1      52.139  35.621  26.889  1.00  0.00     0.020 A 
ATOM     95  C   UNL A   1      50.730  36.594  25.167  1.00  0.00     0.020 A 
ATOM     96  C   UNL A   1      51.996  36.313  25.682  1.00  0.00     0.054 A 
BRANCH  96  97
ATOM     97  S   UNL A   1      53.487  36.790  24.764  1.00  0.00     0.124 S 
ATOM     98  O   UNL A   1      53.514  35.803  23.689  1.00  0.00    -0.237 OA
ATOM     99  O   UNL A   1      53.187  38.160  24.351  1.00  0.00    -0.237 OA
ATOM    100  O   UNL A   1      54.558  36.666  25.750  1.00  0.00    -0.744 OA
ENDBRANCH  96  97
ENDBRANCH  70  91
ENDBRANCH  44  45
ENDBRANCH  37  39
ENDBRANCH  36  37
ENDBRANCH  35  36
ENDBRANCH  34  35
ENDBRANCH  33  34
ENDBRANCH  32  33
ENDBRANCH   1  32
TORSDOF 26
ENDMDL
MODEL 3
REMARK VINA RESULT:      -8.6      7.054     11.956
REMARK SMILES O=C(COc1cc(-c2ccccc2)nc(NCc2ccc(Cl)cc2)n1)OCCOCCOCCOC(=O)c1ccc(-c2c3nc(c(-c4ccc(S(=O)(=O)[O-])cc4)c4ccc([nH]4)c(-c4ccc(S(=O)(=O)[O-])cc4)c4nc(c(-c5ccc(S(=O)(=O)[O-])cc5)c5ccc2[nH]5)C=C4)C=C3)cc1
REMARK SMILES IDX 30 1 29 2 28 3 27 4 26 5 2 6 1 7 3 8 4 9 5 10 6 11 25 12
REMARK SMILES IDX 7 13 15 14 14 15 8 16 9 17 13 18 10 19 12 20 11 21 16 22
REMARK SMILES IDX 17 24 18 25 19 26 24 27 20 28 23 29 21 30 22 31 31 32 32 33
REMARK SMILES IDX 33 34 34 35 35 36 36 37 37 38 38 39 39 40 97 41 40 42 96 43
REMARK SMILES IDX 41 44 42 45 43 46 90 47 44 48 95 49 89 50 91 51 45 52 94 53
REMARK SMILES IDX 88 54 87 55 46 57 76 58 57 59 75 60 58 61 61 62 74 63 92 64
REMARK SMILES IDX 59 65 60 66 73 68 93 69 62 70 47 71 48 72 56 73 49 74 55 75
REMARK SMILES IDX 50 76 51 77 52 78 53 79 54 80 77 81 78 82 86 83 79 84 85 85
REMARK SMILES IDX 80 86 81 87 82 88 83 89 84 90 63 91 64 92 72 93 65 94 71 95
REMARK SMILES IDX 66 96 67 97 68 98 69 99 70 100
REMARK H PARENT 16 23 91 56 61 67
REMARK Flexibility Score: inf
ROOT
ATOM      1  C   UNL A   1      47.052  24.527  24.670  1.00  0.00     0.188 C 
ENDROOT
BRANCH   1   2
ATOM      2  O   UNL A   1      46.825  25.908  24.410  1.00  0.00    -0.376 OA
BRANCH   2   3
ATOM      3  C   UNL A   1      45.683  26.463  25.038  1.00  0.00     0.202 C 
BRANCH   3   4
ATOM      4  C   UNL A   1      45.745  27.988  25.020  1.00  0.00     0.261 C 
BRANCH   4   5
ATOM      5  O   UNL A   1      47.050  28.565  25.287  1.00  0.00    -0.461 OA
BRANCH   5   6
ATOM      6  C   UNL A   1      47.496  29.153  26.419  1.00  0.00     0.344 C 
ATOM      7  O   UNL A   1      48.625  29.639  26.448  1.00  0.00    -0.248 OA
BRANCH   6   8
ATOM      8  C   UNL A   1      46.599  29.194  27.645  1.00  0.00     0.353 C 
BRANCH   8   9
ATOM      9  O   UNL A   1      45.903  30.411  27.844  1.00  0.00    -0.466 OA
BRANCH   9  10
ATOM     10  C   UNL A   1      45.436  30.511  29.119  1.00  0.00     0.219 A 
ATOM     11  C   UNL A   1      44.320  31.226  29.441  1.00  0.00     0.097 A 
ATOM     12  N   UNL A   1      46.182  29.872  30.004  1.00  0.00    -0.177 NA
ATOM     13  C   UNL A   1      44.071  31.369  30.783  1.00  0.00     0.080 A 
ATOM     14  C   UNL A   1      45.872  30.031  31.289  1.00  0.00     0.226 A 
ATOM     15  N   UNL A   1      44.849  30.790  31.723  1.00  0.00    -0.213 NA
BRANCH  13  16
ATOM     16  C   UNL A   1      42.989  32.280  31.189  1.00  0.00     0.000 A 
ATOM     17  C   UNL A   1      42.788  32.605  32.536  1.00  0.00     0.010 A 
ATOM     18  C   UNL A   1      42.263  33.002  30.219  1.00  0.00     0.010 A 
ATOM     19  C   UNL A   1      41.927  33.646  32.901  1.00  0.00     0.001 A 
ATOM     20  C   UNL A   1      41.403  34.041  30.581  1.00  0.00     0.001 A 
ATOM     21  C   UNL A   1      41.245  34.369  31.923  1.00  0.00     0.000 A 
ENDBRANCH  13  16
BRANCH  14  22
ATOM     22  N   UNL A   1      46.659  29.405  32.213  1.00  0.00    -0.350 N 
ATOM     23  H   UNL A   1      46.243  28.952  32.982  1.00  0.00     0.164 HD
BRANCH  22  24
ATOM     24  C   UNL A   1      48.102  29.399  32.072  1.00  0.00     0.152 C 
BRANCH  24  25
ATOM     25  C   UNL A   1      48.485  28.277  31.144  1.00  0.00    -0.029 A 
ATOM     26  C   UNL A   1      48.005  26.981  31.366  1.00  0.00     0.007 A 
ATOM     27  C   UNL A   1      49.382  28.510  30.087  1.00  0.00     0.007 A 
ATOM     28  C   UNL A   1      48.473  25.921  30.590  1.00  0.00     0.021 A 
ATOM     29  C   UNL A   1      49.848  27.447  29.314  1.00  0.00     0.021 A 
ATOM     30  C   UNL A   1      49.417  26.152  29.590  1.00  0.00     0.041 A 
ATOM     31  Cl  UNL A   1      50.108  24.827  28.732  1.00  0.00    -0.084 Cl
ENDBRANCH  24  25
ENDBRANCH  22  24
ENDBRANCH  14  22
ENDBRANCH   9  10
ENDBRANCH   8   9
ENDBRANCH   6   8
ENDBRANCH   5   6
ENDBRANCH   4   5
ENDBRANCH   3   4
ENDBRANCH   2   3
ENDBRANCH   1   2
BRANCH   1  32
ATOM     32  C   UNL A   1      45.816  23.844  25.274  1.00  0.00     0.188 C 
BRANCH  32  33
ATOM     33  O   UNL A   1      44.891  23.208  24.395  1.00  0.00    -0.376 OA
BRANCH  33  34
ATOM     34  C   UNL A   1      43.501  23.360  24.639  1.00  0.00     0.202 C 
BRANCH  34  35
ATOM     35  C   UNL A   1      43.116  24.130  25.909  1.00  0.00     0.261 C 
BRANCH  35  36
ATOM     36  O   UNL A   1      41.928  24.936  25.763  1.00  0.00    -0.460 OA
BRANCH  36  37
ATOM     37  C   UNL A   1      42.117  26.280  25.752  1.00  0.00     0.338 C 
ATOM     38  O   UNL A   1      42.182  26.998  24.766  1.00  0.00    -0.246 OA
BRANCH  37  39
ATOM     39  C   UNL A   1      42.066  26.826  27.133  1.00  0.00     0.060 A 
ATOM     40  C   UNL A   1      41.116  26.296  28.017  1.00  0.00     0.016 A 
ATOM     41  C   UNL A   1      42.886  27.879  27.547  1.00  0.00     0.016 A 
ATOM     42  C   UNL A   1      40.958  26.835  29.299  1.00  0.00     0.010 A 
ATOM     43  C   UNL A   1      42.711  28.433  28.826  1.00  0.00     0.010 A 
ATOM     44  C   UNL A   1      41.729  27.932  29.704  1.00  0.00    -0.014 A 
BRANCH  44  45
ATOM     45  C   UNL A   1      41.423  28.646  30.976  1.00  0.00     0.031 A 
ATOM     46  C   UNL A   1      40.289  29.641  31.002  1.00  0.00     0.074 A 
ATOM     47  C   UNL A   1      42.149  28.437  32.093  1.00  0.00     0.049 A 
ATOM     48  N   UNL A   1      39.932  30.463  31.955  1.00  0.00    -0.248 NA
ATOM     49  C   UNL A   1      39.452  29.720  29.792  1.00  0.00     0.031 C 
ATOM     50  C   UNL A   1      43.255  27.488  32.220  1.00  0.00     0.029 A 
ATOM     51  N   UNL A   1      42.087  29.043  33.327  1.00  0.00    -0.354 N 
ATOM     52  C   UNL A   1      38.841  31.169  31.458  1.00  0.00     0.074 A 
ATOM     53  C   UNL A   1      38.598  30.681  30.117  1.00  0.00     0.031 C 
ATOM     54  C   UNL A   1      43.805  27.618  33.441  1.00  0.00     0.029 A 
ATOM     55  C   UNL A   1      43.113  28.680  34.172  1.00  0.00     0.049 A 
ATOM     56  H   UNL A   1      41.377  29.676  33.583  1.00  0.00     0.167 HD
ATOM     57  C   UNL A   1      38.112  32.139  32.059  1.00  0.00     0.031 A 
ATOM     58  C   UNL A   1      43.495  29.188  35.364  1.00  0.00     0.031 A 
ATOM     59  C   UNL A   1      38.348  32.632  33.388  1.00  0.00     0.049 A 
ATOM     60  C   UNL A   1      42.711  30.331  35.977  1.00  0.00     0.074 A 
ATOM     61  C   UNL A   1      37.625  33.582  34.092  1.00  0.00     0.029 A 
ATOM     62  N   UNL A   1      39.390  32.236  34.208  1.00  0.00    -0.354 N 
ATOM     63  N   UNL A   1      41.636  30.933  35.524  1.00  0.00    -0.248 NA
ATOM     64  C   UNL A   1      43.198  30.871  37.257  1.00  0.00     0.031 C 
ATOM     65  C   UNL A   1      38.268  33.805  35.313  1.00  0.00     0.029 A 
ATOM     66  C   UNL A   1      39.358  32.954  35.391  1.00  0.00     0.049 A 
ATOM     67  H   UNL A   1      40.057  31.547  33.984  1.00  0.00     0.167 HD
ATOM     68  C   UNL A   1      41.319  31.908  36.469  1.00  0.00     0.074 A 
ATOM     69  C   UNL A   1      42.291  31.797  37.533  1.00  0.00     0.031 C 
ATOM     70  C   UNL A   1      40.320  32.824  36.453  1.00  0.00     0.031 A 
BRANCH  57  71
ATOM     71  C   UNL A   1      36.992  32.770  31.277  1.00  0.00    -0.014 A 
ATOM     72  C   UNL A   1      37.242  33.788  30.342  1.00  0.00     0.010 A 
ATOM     73  C   UNL A   1      35.686  32.259  31.406  1.00  0.00     0.010 A 
ATOM     74  C   UNL A   1      36.203  34.295  29.558  1.00  0.00     0.020 A 
ATOM     75  C   UNL A   1      34.649  32.751  30.611  1.00  0.00     0.020 A 
ATOM     76  C   UNL A   1      34.912  33.772  29.696  1.00  0.00     0.054 A 
BRANCH  76  77
ATOM     77  S   UNL A   1      33.596  34.406  28.621  1.00  0.00     0.124 S 
ATOM     78  O   UNL A   1      34.262  35.524  27.958  1.00  0.00    -0.237 OA
ATOM     79  O   UNL A   1      33.298  33.258  27.767  1.00  0.00    -0.237 OA
ATOM     80  O   UNL A   1      32.534  34.777  29.552  1.00  0.00    -0.744 OA
ENDBRANCH  76  77
ENDBRANCH  57  71
BRANCH  58  81
ATOM     81  C   UNL A   1      44.781  28.761  35.997  1.00  0.00    -0.014 A 
ATOM     82  C   UNL A   1      44.838  27.743  36.967  1.00  0.00     0.010 A 
ATOM     83  C   UNL A   1      45.941  29.513  35.735  1.00  0.00     0.010 A 
ATOM     84  C   UNL A   1      45.997  27.564  37.737  1.00  0.00     0.020 A 
ATOM     85  C   UNL A   1      47.108  29.310  36.472  1.00  0.00     0.020 A 
ATOM     86  C   UNL A   1      47.115  28.373  37.504  1.00  0.00     0.054 A 
BRANCH  86  87
ATOM     87  S   UNL A   1      48.533  28.304  38.640  1.00  0.00     0.124 S 
ATOM     88  O   UNL A   1      48.983  29.692  38.641  1.00  0.00    -0.237 OA
ATOM     89  O   UNL A   1      47.940  27.833  39.884  1.00  0.00    -0.237 OA
ATOM     90  O   UNL A   1      49.439  27.354  37.996  1.00  0.00    -0.744 OA
ENDBRANCH  86  87
ENDBRANCH  58  81
BRANCH  70  91
ATOM     91  C   UNL A   1      40.197  33.760  37.629  1.00  0.00    -0.014 A 
ATOM     92  C   UNL A   1      39.306  33.492  38.682  1.00  0.00     0.010 A 
ATOM     93  C   UNL A   1      41.042  34.882  37.719  1.00  0.00     0.010 A 
ATOM     94  C   UNL A   1      39.251  34.335  39.797  1.00  0.00     0.020 A 
ATOM     95  C   UNL A   1      41.008  35.714  38.842  1.00  0.00     0.020 A 
ATOM     96  C   UNL A   1      40.104  35.441  39.870  1.00  0.00     0.054 A 
BRANCH  96  97
ATOM     97  S   UNL A   1      40.062  36.484  41.356  1.00  0.00     0.124 S 
ATOM     98  O   UNL A   1      40.877  35.716  42.292  1.00  0.00    -0.237 OA
ATOM     99  O   UNL A   1      40.652  37.736  40.887  1.00  0.00    -0.237 OA
ATOM    100  O   UNL A   1      38.640  36.560  41.685  1.00  0.00    -0.744 OA
ENDBRANCH  96  97
ENDBRANCH  70  91
ENDBRANCH  44  45
ENDBRANCH  37  39
ENDBRANCH  36  37
ENDBRANCH  35  36
ENDBRANCH  34  35
ENDBRANCH  33  34
ENDBRANCH  32  33
ENDBRANCH   1  32
TORSDOF 26
ENDMDL
