MODEL 1
REMARK VINA RESULT:      -9.5      0.000      0.000
REMARK SMILES CC1(C)CCC[C@@]1(CC(=O)OCCOCCOCCOC(=O)c1ccc(-c2c3nc(c(-c4ccc(S(=O)(=O)[O-])cc4)c4ccc([nH]4)c(-c4ccc(S(=O)(=O)[O-])cc4)c4nc(c(-c5ccc(S(=O)(=O)[O-])cc5)c5ccc2[nH]5)C=C4)C=C3)cc1)[NH+]1CCCCC1
REMARK SMILES IDX 16 1 15 2 14 3 13 4 12 5 11 6 9 7 10 8 8 9 7 10 1 11 2 12
REMARK SMILES IDX 3 13 4 14 5 15 6 16 83 17 84 18 88 19 85 21 87 22 86 23
REMARK SMILES IDX 17 24 18 25 19 26 20 27 21 28 22 29 23 30 24 31 82 32 25 33
REMARK SMILES IDX 81 34 26 35 27 36 28 37 75 38 29 39 80 40 74 41 76 42 30 43
REMARK SMILES IDX 79 44 73 45 72 46 31 48 61 49 42 50 60 51 43 52 46 53 59 54
REMARK SMILES IDX 77 55 44 56 45 57 58 59 78 60 47 61 32 62 33 63 41 64 34 65
REMARK SMILES IDX 40 66 35 67 36 68 37 69 38 70 39 71 62 72 63 73 71 74 64 75
REMARK SMILES IDX 70 76 65 77 66 78 67 79 68 80 69 81 48 82 49 83 57 84 50 85
REMARK SMILES IDX 56 86 51 87 52 88 53 89 54 90 55 91
REMARK H PARENT 83 20 76 47 46 58
REMARK Flexibility Score: inf
ROOT
ATOM      1  C   UNL A   1      31.249  29.315  24.490  1.00  0.00     0.188 C 
ENDROOT
BRANCH   1   2
ATOM      2  C   UNL A   1      30.136  29.439  23.441  1.00  0.00     0.188 C 
BRANCH   2   3
ATOM      3  O   UNL A   1      29.674  28.238  22.826  1.00  0.00    -0.376 OA
BRANCH   3   4
ATOM      4  C   UNL A   1      28.901  27.341  23.622  1.00  0.00     0.202 C 
BRANCH   4   5
ATOM      5  C   UNL A   1      29.540  25.967  23.835  1.00  0.00     0.261 C 
BRANCH   5   6
ATOM      6  O   UNL A   1      29.856  25.805  25.226  1.00  0.00    -0.463 OA
BRANCH   6   7
ATOM      7  C   UNL A   1      30.587  24.713  25.559  1.00  0.00     0.312 C 
ATOM      8  O   UNL A   1      30.671  24.266  26.695  1.00  0.00    -0.252 OA
BRANCH   7   9
ATOM      9  C   UNL A   1      31.141  24.046  24.305  1.00  0.00     0.191 C 
BRANCH   9  10
ATOM     10  C   UNL A   1      32.620  23.489  24.252  1.00  0.00     0.113 C 
ATOM     11  C   UNL A   1      33.788  25.205  25.895  1.00  0.00     0.018 C 
ATOM     12  C   UNL A   1      33.643  24.717  24.441  1.00  0.00     0.020 C 
ATOM     13  C   UNL A   1      33.273  25.988  23.626  1.00  0.00     0.018 C 
ATOM     14  C   UNL A   1      34.964  24.213  23.823  1.00  0.00     0.013 C 
ATOM     15  C   UNL A   1      34.543  23.325  22.658  1.00  0.00     0.007 C 
ATOM     16  C   UNL A   1      33.062  22.975  22.855  1.00  0.00     0.070 C 
BRANCH  10  17
ATOM     17  N   UNL A   1      32.745  22.387  25.288  1.00  0.00    -0.329 N 
ATOM     18  C   UNL A   1      34.016  21.967  25.888  1.00  0.00     0.262 C 
ATOM     19  C   UNL A   1      31.851  21.217  25.228  1.00  0.00     0.262 C 
ATOM     20  H   UNL A   1      32.387  23.102  25.921  1.00  0.00     0.348 HD
ATOM     21  C   UNL A   1      34.698  20.779  25.210  1.00  0.00     0.062 C 
ATOM     22  C   UNL A   1      32.440  19.949  24.594  1.00  0.00     0.062 C 
ATOM     23  C   UNL A   1      33.783  19.570  25.183  1.00  0.00     0.012 C 
ENDBRANCH  10  17
ENDBRANCH   9  10
ENDBRANCH   7   9
ENDBRANCH   6   7
ENDBRANCH   5   6
ENDBRANCH   4   5
ENDBRANCH   3   4
ENDBRANCH   2   3
ENDBRANCH   1   2
BRANCH   1  24
ATOM     24  O   UNL A   1      31.256  30.401  25.411  1.00  0.00    -0.376 OA
BRANCH  24  25
ATOM     25  C   UNL A   1      32.447  30.459  26.195  1.00  0.00     0.202 C 
BRANCH  25  26
ATOM     26  C   UNL A   1      32.345  31.623  27.178  1.00  0.00     0.261 C 
BRANCH  26  27
ATOM     27  O   UNL A   1      33.634  32.217  27.434  1.00  0.00    -0.460 OA
BRANCH  27  28
ATOM     28  C   UNL A   1      33.622  33.281  28.264  1.00  0.00     0.338 C 
ATOM     29  O   UNL A   1      32.782  34.166  28.314  1.00  0.00    -0.246 OA
BRANCH  28  30
ATOM     30  C   UNL A   1      34.769  33.192  29.182  1.00  0.00     0.060 A 
ATOM     31  C   UNL A   1      35.936  33.899  28.890  1.00  0.00     0.016 A 
ATOM     32  C   UNL A   1      34.735  32.314  30.261  1.00  0.00     0.016 A 
ATOM     33  C   UNL A   1      37.102  33.671  29.616  1.00  0.00     0.010 A 
ATOM     34  C   UNL A   1      35.885  32.140  31.037  1.00  0.00     0.010 A 
ATOM     35  C   UNL A   1      37.090  32.789  30.700  1.00  0.00    -0.014 A 
BRANCH  35  36
ATOM     36  C   UNL A   1      38.344  32.468  31.432  1.00  0.00     0.031 A 
ATOM     37  C   UNL A   1      39.281  31.435  30.864  1.00  0.00     0.074 A 
ATOM     38  C   UNL A   1      38.664  33.092  32.582  1.00  0.00     0.049 A 
ATOM     39  N   UNL A   1      40.265  30.804  31.445  1.00  0.00    -0.248 NA
ATOM     40  C   UNL A   1      39.068  31.059  29.456  1.00  0.00     0.031 C 
ATOM     41  C   UNL A   1      37.912  34.186  33.201  1.00  0.00     0.029 A 
ATOM     42  N   UNL A   1      39.712  32.883  33.445  1.00  0.00    -0.354 N 
ATOM     43  C   UNL A   1      40.749  29.908  30.498  1.00  0.00     0.074 A 
ATOM     44  C   UNL A   1      39.959  30.089  29.299  1.00  0.00     0.031 C 
ATOM     45  C   UNL A   1      38.529  34.558  34.334  1.00  0.00     0.029 A 
ATOM     46  C   UNL A   1      39.662  33.670  34.571  1.00  0.00     0.049 A 
ATOM     47  H   UNL A   1      40.431  32.232  33.273  1.00  0.00     0.167 HD
ATOM     48  C   UNL A   1      41.752  29.007  30.626  1.00  0.00     0.031 A 
ATOM     49  C   UNL A   1      40.400  33.638  35.699  1.00  0.00     0.031 A 
ATOM     50  C   UNL A   1      42.555  28.859  31.809  1.00  0.00     0.049 A 
ATOM     51  C   UNL A   1      41.466  32.586  35.847  1.00  0.00     0.074 A 
ATOM     52  C   UNL A   1      43.573  27.954  32.054  1.00  0.00     0.029 A 
ATOM     53  N   UNL A   1      42.446  29.655  32.939  1.00  0.00    -0.354 N 
ATOM     54  N   UNL A   1      41.841  31.666  34.990  1.00  0.00    -0.248 NA
ATOM     55  C   UNL A   1      42.188  32.553  37.126  1.00  0.00     0.031 C 
ATOM     56  C   UNL A   1      44.058  28.184  33.346  1.00  0.00     0.029 A 
ATOM     57  C   UNL A   1      43.373  29.259  33.887  1.00  0.00     0.049 A 
ATOM     58  H   UNL A   1      41.802  30.392  33.051  1.00  0.00     0.167 HD
ATOM     59  C   UNL A   1      42.850  30.949  35.624  1.00  0.00     0.074 A 
ATOM     60  C   UNL A   1      43.041  31.555  36.927  1.00  0.00     0.031 C 
ATOM     61  C   UNL A   1      43.548  29.879  35.175  1.00  0.00     0.031 A 
BRANCH  48  62
ATOM     62  C   UNL A   1      41.994  28.071  29.474  1.00  0.00    -0.014 A 
ATOM     63  C   UNL A   1      41.285  26.866  29.342  1.00  0.00     0.010 A 
ATOM     64  C   UNL A   1      42.934  28.427  28.488  1.00  0.00     0.010 A 
ATOM     65  C   UNL A   1      41.534  26.015  28.261  1.00  0.00     0.020 A 
ATOM     66  C   UNL A   1      43.170  27.590  27.395  1.00  0.00     0.020 A 
ATOM     67  C   UNL A   1      42.479  26.381  27.297  1.00  0.00     0.054 A 
BRANCH  67  68
ATOM     68  S   UNL A   1      42.772  25.271  25.892  1.00  0.00     0.124 S 
ATOM     69  O   UNL A   1      42.512  23.961  26.484  1.00  0.00    -0.237 OA
ATOM     70  O   UNL A   1      41.787  25.724  24.912  1.00  0.00    -0.237 OA
ATOM     71  O   UNL A   1      44.165  25.526  25.533  1.00  0.00    -0.744 OA
ENDBRANCH  67  68
ENDBRANCH  48  62
BRANCH  49  72
ATOM     72  C   UNL A   1      40.098  34.575  36.815  1.00  0.00    -0.014 A 
ATOM     73  C   UNL A   1      40.749  35.816  36.907  1.00  0.00     0.010 A 
ATOM     74  C   UNL A   1      39.155  34.222  37.798  1.00  0.00     0.010 A 
ATOM     75  C   UNL A   1      40.475  36.681  37.972  1.00  0.00     0.020 A 
ATOM     76  C   UNL A   1      38.856  35.095  38.846  1.00  0.00     0.020 A 
ATOM     77  C   UNL A   1      39.530  36.314  38.934  1.00  0.00     0.054 A 
BRANCH  77  78
ATOM     78  S   UNL A   1      39.149  37.467  40.283  1.00  0.00     0.124 S 
ATOM     79  O   UNL A   1      38.233  38.400  39.634  1.00  0.00    -0.237 OA
ATOM     80  O   UNL A   1      38.554  36.593  41.291  1.00  0.00    -0.237 OA
ATOM     81  O   UNL A   1      40.456  38.014  40.641  1.00  0.00    -0.744 OA
ENDBRANCH  77  78
ENDBRANCH  49  72
BRANCH  61  82
ATOM     82  C   UNL A   1      44.608  29.319  36.081  1.00  0.00    -0.014 A 
ATOM     83  C   UNL A   1      45.900  29.871  36.112  1.00  0.00     0.010 A 
ATOM     84  C   UNL A   1      44.291  28.257  36.947  1.00  0.00     0.010 A 
ATOM     85  C   UNL A   1      46.868  29.350  36.975  1.00  0.00     0.020 A 
ATOM     86  C   UNL A   1      45.249  27.750  37.827  1.00  0.00     0.020 A 
ATOM     87  C   UNL A   1      46.537  28.291  37.825  1.00  0.00     0.054 A 
BRANCH  87  88
ATOM     88  S   UNL A   1      47.795  27.657  38.968  1.00  0.00     0.124 S 
ATOM     89  O   UNL A   1      48.871  27.280  38.056  1.00  0.00    -0.237 OA
ATOM     90  O   UNL A   1      48.069  28.812  39.820  1.00  0.00    -0.237 OA
ATOM     91  O   UNL A   1      47.125  26.544  39.636  1.00  0.00    -0.744 OA
ENDBRANCH  87  88
ENDBRANCH  61  82
ENDBRANCH  35  36
ENDBRANCH  28  30
ENDBRANCH  27  28
ENDBRANCH  26  27
ENDBRANCH  25  26
ENDBRANCH  24  25
ENDBRANCH   1  24
TORSDOF 22
ENDMDL
MODEL 2
REMARK VINA RESULT:      -9.5      6.196     10.486
REMARK SMILES CC1(C)CCC[C@@]1(CC(=O)OCCOCCOCCOC(=O)c1ccc(-c2c3nc(c(-c4ccc(S(=O)(=O)[O-])cc4)c4ccc([nH]4)c(-c4ccc(S(=O)(=O)[O-])cc4)c4nc(c(-c5ccc(S(=O)(=O)[O-])cc5)c5ccc2[nH]5)C=C4)C=C3)cc1)[NH+]1CCCCC1
REMARK SMILES IDX 16 1 15 2 14 3 13 4 12 5 11 6 9 7 10 8 8 9 7 10 1 11 2 12
REMARK SMILES IDX 3 13 4 14 5 15 6 16 83 17 84 18 88 19 85 21 87 22 86 23
REMARK SMILES IDX 17 24 18 25 19 26 20 27 21 28 22 29 23 30 24 31 82 32 25 33
REMARK SMILES IDX 81 34 26 35 27 36 28 37 75 38 29 39 80 40 74 41 76 42 30 43
REMARK SMILES IDX 79 44 73 45 72 46 31 48 61 49 42 50 60 51 43 52 46 53 59 54
REMARK SMILES IDX 77 55 44 56 45 57 58 59 78 60 47 61 32 62 33 63 41 64 34 65
REMARK SMILES IDX 40 66 35 67 36 68 37 69 38 70 39 71 62 72 63 73 71 74 64 75
REMARK SMILES IDX 70 76 65 77 66 78 67 79 68 80 69 81 48 82 49 83 57 84 50 85
REMARK SMILES IDX 56 86 51 87 52 88 53 89 54 90 55 91
REMARK H PARENT 83 20 76 47 46 58
REMARK Flexibility Score: inf
ROOT
ATOM      1  C   UNL A   1      31.796  28.874  26.393  1.00  0.00     0.188 C 
ENDROOT
BRANCH   1   2
ATOM      2  C   UNL A   1      31.412  29.487  25.040  1.00  0.00     0.188 C 
BRANCH   2   3
ATOM      3  O   UNL A   1      31.369  28.616  23.911  1.00  0.00    -0.376 OA
BRANCH   3   4
ATOM      4  C   UNL A   1      30.208  27.804  23.746  1.00  0.00     0.202 C 
BRANCH   4   5
ATOM      5  C   UNL A   1      30.323  26.400  24.344  1.00  0.00     0.261 C 
BRANCH   5   6
ATOM      6  O   UNL A   1      31.639  25.886  24.087  1.00  0.00    -0.463 OA
BRANCH   6   7
ATOM      7  C   UNL A   1      32.326  25.413  25.157  1.00  0.00     0.312 C 
ATOM      8  O   UNL A   1      31.828  25.220  26.257  1.00  0.00    -0.252 OA
BRANCH   7   9
ATOM      9  C   UNL A   1      33.738  25.013  24.745  1.00  0.00     0.191 C 
BRANCH   9  10
ATOM     10  C   UNL A   1      34.155  23.495  24.597  1.00  0.00     0.113 C 
ATOM     11  C   UNL A   1      34.461  22.879  27.154  1.00  0.00     0.018 C 
ATOM     12  C   UNL A   1      35.155  23.113  25.799  1.00  0.00     0.020 C 
ATOM     13  C   UNL A   1      36.246  24.183  26.085  1.00  0.00     0.018 C 
ATOM     14  C   UNL A   1      35.926  21.882  25.278  1.00  0.00     0.013 C 
ATOM     15  C   UNL A   1      36.074  22.113  23.779  1.00  0.00     0.007 C 
ATOM     16  C   UNL A   1      35.065  23.196  23.375  1.00  0.00     0.070 C 
BRANCH  10  17
ATOM     17  N   UNL A   1      32.886  22.664  24.532  1.00  0.00    -0.329 N 
ATOM     18  C   UNL A   1      32.694  21.405  25.260  1.00  0.00     0.262 C 
ATOM     19  C   UNL A   1      32.114  22.597  23.279  1.00  0.00     0.262 C 
ATOM     20  H   UNL A   1      32.524  23.381  25.160  1.00  0.00     0.348 HD
ATOM     21  C   UNL A   1      33.020  20.136  24.472  1.00  0.00     0.062 C 
ATOM     22  C   UNL A   1      32.336  21.348  22.414  1.00  0.00     0.062 C 
ATOM     23  C   UNL A   1      32.197  20.060  23.200  1.00  0.00     0.012 C 
ENDBRANCH  10  17
ENDBRANCH   9  10
ENDBRANCH   7   9
ENDBRANCH   6   7
ENDBRANCH   5   6
ENDBRANCH   4   5
ENDBRANCH   3   4
ENDBRANCH   2   3
ENDBRANCH   1   2
BRANCH   1  24
ATOM     24  O   UNL A   1      32.426  29.812  27.260  1.00  0.00    -0.376 OA
BRANCH  24  25
ATOM     25  C   UNL A   1      33.633  30.347  26.720  1.00  0.00     0.202 C 
BRANCH  25  26
ATOM     26  C   UNL A   1      34.362  31.138  27.804  1.00  0.00     0.261 C 
BRANCH  26  27
ATOM     27  O   UNL A   1      35.780  30.877  27.790  1.00  0.00    -0.460 OA
BRANCH  27  28
ATOM     28  C   UNL A   1      36.261  30.255  28.886  1.00  0.00     0.338 C 
ATOM     29  O   UNL A   1      35.618  29.850  29.843  1.00  0.00    -0.246 OA
BRANCH  28  30
ATOM     30  C   UNL A   1      37.712  30.063  28.738  1.00  0.00     0.060 A 
ATOM     31  C   UNL A   1      38.229  29.678  27.501  1.00  0.00     0.016 A 
ATOM     32  C   UNL A   1      38.545  30.142  29.850  1.00  0.00     0.016 A 
ATOM     33  C   UNL A   1      39.558  29.283  27.380  1.00  0.00     0.010 A 
ATOM     34  C   UNL A   1      39.898  29.817  29.714  1.00  0.00     0.010 A 
ATOM     35  C   UNL A   1      40.410  29.350  28.487  1.00  0.00    -0.014 A 
BRANCH  35  36
ATOM     36  C   UNL A   1      41.810  28.853  28.399  1.00  0.00     0.031 A 
ATOM     37  C   UNL A   1      42.945  29.827  28.563  1.00  0.00     0.074 A 
ATOM     38  C   UNL A   1      42.079  27.550  28.190  1.00  0.00     0.049 A 
ATOM     39  N   UNL A   1      44.207  29.685  28.258  1.00  0.00    -0.248 NA
ATOM     40  C   UNL A   1      42.607  31.141  29.138  1.00  0.00     0.031 C 
ATOM     41  C   UNL A   1      41.090  26.471  28.116  1.00  0.00     0.029 A 
ATOM     42  N   UNL A   1      43.279  26.911  27.993  1.00  0.00    -0.354 N 
ATOM     43  C   UNL A   1      44.803  30.908  28.541  1.00  0.00     0.074 A 
ATOM     44  C   UNL A   1      43.767  31.778  29.056  1.00  0.00     0.031 C 
ATOM     45  C   UNL A   1      41.724  25.308  27.901  1.00  0.00     0.029 A 
ATOM     46  C   UNL A   1      43.149  25.568  27.728  1.00  0.00     0.049 A 
ATOM     47  H   UNL A   1      44.149  27.371  28.036  1.00  0.00     0.167 HD
ATOM     48  C   UNL A   1      46.095  31.277  28.369  1.00  0.00     0.031 A 
ATOM     49  C   UNL A   1      44.060  24.660  27.325  1.00  0.00     0.031 A 
ATOM     50  C   UNL A   1      47.125  30.395  27.890  1.00  0.00     0.049 A 
ATOM     51  C   UNL A   1      45.477  25.103  27.078  1.00  0.00     0.074 A 
ATOM     52  C   UNL A   1      48.459  30.676  27.649  1.00  0.00     0.029 A 
ATOM     53  N   UNL A   1      46.941  29.052  27.602  1.00  0.00    -0.354 N 
ATOM     54  N   UNL A   1      46.008  26.292  27.238  1.00  0.00    -0.248 NA
ATOM     55  C   UNL A   1      46.408  24.088  26.571  1.00  0.00     0.031 C 
ATOM     56  C   UNL A   1      49.074  29.509  27.184  1.00  0.00     0.029 A 
ATOM     57  C   UNL A   1      48.133  28.491  27.179  1.00  0.00     0.049 A 
ATOM     58  H   UNL A   1      46.087  28.568  27.684  1.00  0.00     0.167 HD
ATOM     59  C   UNL A   1      47.339  26.164  26.857  1.00  0.00     0.074 A 
ATOM     60  C   UNL A   1      47.537  24.780  26.481  1.00  0.00     0.031 C 
ATOM     61  C   UNL A   1      48.309  27.110  26.813  1.00  0.00     0.031 A 
BRANCH  48  62
ATOM     62  C   UNL A   1      46.451  32.710  28.647  1.00  0.00    -0.014 A 
ATOM     63  C   UNL A   1      46.871  33.133  29.919  1.00  0.00     0.010 A 
ATOM     64  C   UNL A   1      46.389  33.647  27.598  1.00  0.00     0.010 A 
ATOM     65  C   UNL A   1      47.192  34.474  30.147  1.00  0.00     0.020 A 
ATOM     66  C   UNL A   1      46.731  34.984  27.816  1.00  0.00     0.020 A 
ATOM     67  C   UNL A   1      47.116  35.392  29.094  1.00  0.00     0.054 A 
BRANCH  67  68
ATOM     68  S   UNL A   1      47.557  37.123  29.408  1.00  0.00     0.124 S 
ATOM     69  O   UNL A   1      47.217  37.756  28.136  1.00  0.00    -0.237 OA
ATOM     70  O   UNL A   1      46.696  37.477  30.534  1.00  0.00    -0.237 OA
ATOM     71  O   UNL A   1      48.984  37.068  29.714  1.00  0.00    -0.744 OA
ENDBRANCH  67  68
ENDBRANCH  48  62
BRANCH  49  72
ATOM     72  C   UNL A   1      43.644  23.259  27.044  1.00  0.00    -0.014 A 
ATOM     73  C   UNL A   1      43.162  22.432  28.071  1.00  0.00     0.010 A 
ATOM     74  C   UNL A   1      43.733  22.745  25.736  1.00  0.00     0.010 A 
ATOM     75  C   UNL A   1      42.794  21.110  27.801  1.00  0.00     0.020 A 
ATOM     76  C   UNL A   1      43.337  21.435  25.456  1.00  0.00     0.020 A 
ATOM     77  C   UNL A   1      42.884  20.620  26.495  1.00  0.00     0.054 A 
BRANCH  77  78
ATOM     78  S   UNL A   1      42.356  18.919  26.150  1.00  0.00     0.124 S 
ATOM     79  O   UNL A   1      40.966  19.108  25.751  1.00  0.00    -0.237 OA
ATOM     80  O   UNL A   1      43.271  18.511  25.086  1.00  0.00    -0.237 OA
ATOM     81  O   UNL A   1      42.556  18.237  27.426  1.00  0.00    -0.744 OA
ENDBRANCH  77  78
ENDBRANCH  49  72
BRANCH  61  82
ATOM     82  C   UNL A   1      49.678  26.670  26.377  1.00  0.00    -0.014 A 
ATOM     83  C   UNL A   1      50.590  26.123  27.297  1.00  0.00     0.010 A 
ATOM     84  C   UNL A   1      50.039  26.764  25.021  1.00  0.00     0.010 A 
ATOM     85  C   UNL A   1      51.852  25.702  26.871  1.00  0.00     0.020 A 
ATOM     86  C   UNL A   1      51.291  26.323  24.588  1.00  0.00     0.020 A 
ATOM     87  C   UNL A   1      52.196  25.808  25.519  1.00  0.00     0.054 A 
BRANCH  87  88
ATOM     88  S   UNL A   1      53.824  25.216  24.979  1.00  0.00     0.124 S 
ATOM     89  O   UNL A   1      54.668  25.574  26.116  1.00  0.00    -0.237 OA
ATOM     90  O   UNL A   1      53.600  23.785  24.788  1.00  0.00    -0.237 OA
ATOM     91  O   UNL A   1      54.076  25.969  23.753  1.00  0.00    -0.744 OA
ENDBRANCH  87  88
ENDBRANCH  61  82
ENDBRANCH  35  36
ENDBRANCH  28  30
ENDBRANCH  27  28
ENDBRANCH  26  27
ENDBRANCH  25  26
ENDBRANCH  24  25
ENDBRANCH   1  24
TORSDOF 22
ENDMDL
MODEL 3
REMARK VINA RESULT:      -9.4      2.107      8.660
REMARK SMILES CC1(C)CCC[C@@]1(CC(=O)OCCOCCOCCOC(=O)c1ccc(-c2c3nc(c(-c4ccc(S(=O)(=O)[O-])cc4)c4ccc([nH]4)c(-c4ccc(S(=O)(=O)[O-])cc4)c4nc(c(-c5ccc(S(=O)(=O)[O-])cc5)c5ccc2[nH]5)C=C4)C=C3)cc1)[NH+]1CCCCC1
REMARK SMILES IDX 16 1 15 2 14 3 13 4 12 5 11 6 9 7 10 8 8 9 7 10 1 11 2 12
REMARK SMILES IDX 3 13 4 14 5 15 6 16 83 17 84 18 88 19 85 21 87 22 86 23
REMARK SMILES IDX 17 24 18 25 19 26 20 27 21 28 22 29 23 30 24 31 82 32 25 33
REMARK SMILES IDX 81 34 26 35 27 36 28 37 75 38 29 39 80 40 74 41 76 42 30 43
REMARK SMILES IDX 79 44 73 45 72 46 31 48 61 49 42 50 60 51 43 52 46 53 59 54
REMARK SMILES IDX 77 55 44 56 45 57 58 59 78 60 47 61 32 62 33 63 41 64 34 65
REMARK SMILES IDX 40 66 35 67 36 68 37 69 38 70 39 71 62 72 63 73 71 74 64 75
REMARK SMILES IDX 70 76 65 77 66 78 67 79 68 80 69 81 48 82 49 83 57 84 50 85
REMARK SMILES IDX 56 86 51 87 52 88 53 89 54 90 55 91
REMARK H PARENT 83 20 76 47 46 58
REMARK Flexibility Score: inf
ROOT
ATOM      1  C   UNL A   1      35.564  33.143  28.817  1.00  0.00     0.188 C 
ENDROOT
BRANCH   1   2
ATOM      2  C   UNL A   1      36.019  31.758  28.339  1.00  0.00     0.188 C 
BRANCH   2   3
ATOM      3  O   UNL A   1      35.217  31.103  27.358  1.00  0.00    -0.376 OA
BRANCH   3   4
ATOM      4  C   UNL A   1      34.849  29.746  27.603  1.00  0.00     0.202 C 
BRANCH   4   5
ATOM      5  C   UNL A   1      33.701  29.231  26.731  1.00  0.00     0.261 C 
BRANCH   5   6
ATOM      6  O   UNL A   1      33.198  28.008  27.291  1.00  0.00    -0.463 OA
BRANCH   6   7
ATOM      7  C   UNL A   1      31.954  27.631  26.906  1.00  0.00     0.312 C 
ATOM      8  O   UNL A   1      30.994  27.571  27.661  1.00  0.00    -0.252 OA
BRANCH   7   9
ATOM      9  C   UNL A   1      31.899  27.460  25.392  1.00  0.00     0.191 C 
BRANCH   9  10
ATOM     10  C   UNL A   1      31.963  26.030  24.721  1.00  0.00     0.113 C 
ATOM     11  C   UNL A   1      31.114  26.652  22.291  1.00  0.00     0.018 C 
ATOM     12  C   UNL A   1      30.800  25.924  23.613  1.00  0.00     0.020 C 
ATOM     13  C   UNL A   1      29.429  26.496  24.070  1.00  0.00     0.018 C 
ATOM     14  C   UNL A   1      30.568  24.408  23.445  1.00  0.00     0.013 C 
ATOM     15  C   UNL A   1      30.799  23.816  24.830  1.00  0.00     0.007 C 
ATOM     16  C   UNL A   1      31.554  24.863  25.660  1.00  0.00     0.070 C 
BRANCH  10  17
ATOM     17  N   UNL A   1      33.370  25.821  24.194  1.00  0.00    -0.329 N 
ATOM     18  C   UNL A   1      33.677  25.165  22.918  1.00  0.00     0.262 C 
ATOM     19  C   UNL A   1      34.475  25.551  25.131  1.00  0.00     0.262 C 
ATOM     20  H   UNL A   1      33.305  26.811  23.963  1.00  0.00     0.348 HD
ATOM     21  C   UNL A   1      33.980  23.668  23.008  1.00  0.00     0.062 C 
ATOM     22  C   UNL A   1      34.890  24.081  25.282  1.00  0.00     0.062 C 
ATOM     23  C   UNL A   1      35.140  23.404  23.950  1.00  0.00     0.012 C 
ENDBRANCH  10  17
ENDBRANCH   9  10
ENDBRANCH   7   9
ENDBRANCH   6   7
ENDBRANCH   5   6
ENDBRANCH   4   5
ENDBRANCH   3   4
ENDBRANCH   2   3
ENDBRANCH   1   2
BRANCH   1  24
ATOM     24  O   UNL A   1      34.154  33.221  29.004  1.00  0.00    -0.376 OA
BRANCH  24  25
ATOM     25  C   UNL A   1      33.571  34.358  28.368  1.00  0.00     0.202 C 
BRANCH  25  26
ATOM     26  C   UNL A   1      33.283  35.429  29.418  1.00  0.00     0.261 C 
BRANCH  26  27
ATOM     27  O   UNL A   1      32.720  34.860  30.617  1.00  0.00    -0.460 OA
BRANCH  27  28
ATOM     28  C   UNL A   1      32.969  35.546  31.751  1.00  0.00     0.338 C 
ATOM     29  O   UNL A   1      32.356  36.515  32.175  1.00  0.00    -0.246 OA
BRANCH  28  30
ATOM     30  C   UNL A   1      34.080  34.907  32.472  1.00  0.00     0.060 A 
ATOM     31  C   UNL A   1      35.285  35.595  32.622  1.00  0.00     0.016 A 
ATOM     32  C   UNL A   1      33.975  33.583  32.887  1.00  0.00     0.016 A 
ATOM     33  C   UNL A   1      36.417  34.944  33.105  1.00  0.00     0.010 A 
ATOM     34  C   UNL A   1      35.092  32.950  33.442  1.00  0.00     0.010 A 
ATOM     35  C   UNL A   1      36.333  33.613  33.523  1.00  0.00    -0.014 A 
BRANCH  35  36
ATOM     36  C   UNL A   1      37.549  32.877  33.961  1.00  0.00     0.031 A 
ATOM     37  C   UNL A   1      38.014  33.012  35.387  1.00  0.00     0.074 A 
ATOM     38  C   UNL A   1      38.232  32.083  33.114  1.00  0.00     0.049 A 
ATOM     39  N   UNL A   1      39.168  32.700  35.913  1.00  0.00    -0.248 NA
ATOM     40  C   UNL A   1      37.049  33.586  36.341  1.00  0.00     0.031 C 
ATOM     41  C   UNL A   1      37.847  31.770  31.735  1.00  0.00     0.029 A 
ATOM     42  N   UNL A   1      39.409  31.398  33.291  1.00  0.00    -0.354 N 
ATOM     43  C   UNL A   1      39.096  33.099  37.242  1.00  0.00     0.074 A 
ATOM     44  C   UNL A   1      37.778  33.662  37.447  1.00  0.00     0.031 C 
ATOM     45  C   UNL A   1      38.763  30.947  31.199  1.00  0.00     0.029 A 
ATOM     46  C   UNL A   1      39.844  30.752  32.158  1.00  0.00     0.049 A 
ATOM     47  H   UNL A   1      39.894  31.371  34.148  1.00  0.00     0.167 HD
ATOM     48  C   UNL A   1      40.049  33.016  38.201  1.00  0.00     0.031 A 
ATOM     49  C   UNL A   1      41.011  30.129  31.896  1.00  0.00     0.031 A 
ATOM     50  C   UNL A   1      41.343  32.423  37.998  1.00  0.00     0.049 A 
ATOM     51  C   UNL A   1      42.083  30.105  32.952  1.00  0.00     0.074 A 
ATOM     52  C   UNL A   1      42.395  32.318  38.892  1.00  0.00     0.029 A 
ATOM     53  N   UNL A   1      41.754  31.811  36.824  1.00  0.00    -0.354 N 
ATOM     54  N   UNL A   1      42.049  30.587  34.171  1.00  0.00    -0.248 NA
ATOM     55  C   UNL A   1      43.359  29.477  32.585  1.00  0.00     0.031 C 
ATOM     56  C   UNL A   1      43.453  31.670  38.246  1.00  0.00     0.029 A 
ATOM     57  C   UNL A   1      43.044  31.332  36.967  1.00  0.00     0.049 A 
ATOM     58  H   UNL A   1      41.208  31.731  36.008  1.00  0.00     0.167 HD
ATOM     59  C   UNL A   1      43.296  30.313  34.720  1.00  0.00     0.074 A 
ATOM     60  C   UNL A   1      44.054  29.605  33.708  1.00  0.00     0.031 C 
ATOM     61  C   UNL A   1      43.777  30.627  35.947  1.00  0.00     0.031 A 
BRANCH  48  62
ATOM     62  C   UNL A   1      39.746  33.636  39.536  1.00  0.00    -0.014 A 
ATOM     63  C   UNL A   1      39.137  32.903  40.568  1.00  0.00     0.010 A 
ATOM     64  C   UNL A   1      40.109  34.976  39.768  1.00  0.00     0.010 A 
ATOM     65  C   UNL A   1      38.866  33.508  41.798  1.00  0.00     0.020 A 
ATOM     66  C   UNL A   1      39.860  35.579  41.004  1.00  0.00     0.020 A 
ATOM     67  C   UNL A   1      39.225  34.844  42.006  1.00  0.00     0.054 A 
BRANCH  67  68
ATOM     68  S   UNL A   1      38.881  35.602  43.618  1.00  0.00     0.124 S 
ATOM     69  O   UNL A   1      39.660  34.758  44.520  1.00  0.00    -0.237 OA
ATOM     70  O   UNL A   1      39.381  36.965  43.447  1.00  0.00    -0.237 OA
ATOM     71  O   UNL A   1      37.432  35.487  43.754  1.00  0.00    -0.744 OA
ENDBRANCH  67  68
ENDBRANCH  48  62
BRANCH  49  72
ATOM     72  C   UNL A   1      41.262  29.554  30.546  1.00  0.00    -0.014 A 
ATOM     73  C   UNL A   1      41.897  30.313  29.549  1.00  0.00     0.010 A 
ATOM     74  C   UNL A   1      40.860  28.238  30.253  1.00  0.00     0.010 A 
ATOM     75  C   UNL A   1      42.109  29.772  28.277  1.00  0.00     0.020 A 
ATOM     76  C   UNL A   1      41.097  27.684  28.993  1.00  0.00     0.020 A 
ATOM     77  C   UNL A   1      41.708  28.461  28.007  1.00  0.00     0.054 A 
BRANCH  77  78
ATOM     78  S   UNL A   1      42.034  27.756  26.367  1.00  0.00     0.124 S 
ATOM     79  O   UNL A   1      40.883  26.879  26.181  1.00  0.00    -0.237 OA
ATOM     80  O   UNL A   1      42.073  28.941  25.512  1.00  0.00    -0.237 OA
ATOM     81  O   UNL A   1      43.318  27.080  26.538  1.00  0.00    -0.744 OA
ENDBRANCH  77  78
ENDBRANCH  49  72
BRANCH  61  82
ATOM     82  C   UNL A   1      45.173  30.176  36.276  1.00  0.00    -0.014 A 
ATOM     83  C   UNL A   1      46.292  30.888  35.812  1.00  0.00     0.010 A 
ATOM     84  C   UNL A   1      45.363  29.051  37.098  1.00  0.00     0.010 A 
ATOM     85  C   UNL A   1      47.582  30.465  36.143  1.00  0.00     0.020 A 
ATOM     86  C   UNL A   1      46.650  28.639  37.449  1.00  0.00     0.020 A 
ATOM     87  C   UNL A   1      47.752  29.341  36.957  1.00  0.00     0.054 A 
BRANCH  87  88
ATOM     88  S   UNL A   1      49.434  28.832  37.410  1.00  0.00     0.124 S 
ATOM     89  O   UNL A   1      49.484  29.180  38.828  1.00  0.00    -0.237 OA
ATOM     90  O   UNL A   1      49.430  27.401  37.114  1.00  0.00    -0.237 OA
ATOM     91  O   UNL A   1      50.285  29.639  36.539  1.00  0.00    -0.744 OA
ENDBRANCH  87  88
ENDBRANCH  61  82
ENDBRANCH  35  36
ENDBRANCH  28  30
ENDBRANCH  27  28
ENDBRANCH  26  27
ENDBRANCH  25  26
ENDBRANCH  24  25
ENDBRANCH   1  24
TORSDOF 22
ENDMDL
