MODEL 1
REMARK VINA RESULT:     -11.0      0.000      0.000
REMARK SMILES CCc1ccc(S(=O)(=O)c2nnn(-c3ccc(C(=O)OCCOCCOCCOC(=O)c4ccc(-c5c6nc(c(-c7ccc(S(=O)(=O)[O-])cc7)c7ccc([nH]7)c(-c7ccc(S(=O)(=O)[O-])cc7)c7nc(c(-c8ccc(S(=O)(=O)[O-])cc8)c8ccc5[nH]8)C=C7)C=C6)cc4)cc3)c2C)cc1
REMARK SMILES IDX 24 1 23 2 22 3 21 4 20 5 18 6 19 7 17 8 14 9 15 10 93 11
REMARK SMILES IDX 16 12 92 13 13 14 10 15 11 16 94 17 12 18 95 19 7 20 8 21
REMARK SMILES IDX 9 22 6 23 3 24 4 25 97 26 5 27 96 28 2 29 1 30 25 31 26 32
REMARK SMILES IDX 27 33 28 34 29 35 30 36 31 37 32 38 33 39 91 40 34 41 90 42
REMARK SMILES IDX 35 43 36 44 37 45 84 46 38 47 89 48 83 49 85 50 39 51 88 52
REMARK SMILES IDX 82 53 81 54 40 56 70 57 51 58 69 59 52 60 55 61 68 62 86 63
REMARK SMILES IDX 53 64 54 65 67 67 87 68 56 69 41 70 42 71 50 72 43 73 49 74
REMARK SMILES IDX 44 75 45 76 46 77 47 78 48 79 71 80 72 81 80 82 73 83 79 84
REMARK SMILES IDX 74 85 75 86 76 87 77 88 78 89 57 90 58 91 66 92 59 93 65 94
REMARK SMILES IDX 60 95 61 96 62 97 63 98 64 99
REMARK H PARENT 85 55 55 66
REMARK Flexibility Score: inf
ROOT
ATOM      1  C   UNL A   1      42.100  19.903  27.361  1.00  0.00     0.188 C 
ENDROOT
BRANCH   1   2
ATOM      2  O   UNL A   1      40.804  20.460  27.332  1.00  0.00    -0.376 OA
BRANCH   2   3
ATOM      3  C   UNL A   1      40.589  21.855  27.224  1.00  0.00     0.202 C 
BRANCH   3   4
ATOM      4  C   UNL A   1      39.617  22.532  26.240  1.00  0.00     0.261 C 
BRANCH   4   5
ATOM      5  O   UNL A   1      38.257  22.102  26.269  1.00  0.00    -0.460 OA
BRANCH   5   6
ATOM      6  C   UNL A   1      37.892  21.253  25.282  1.00  0.00     0.338 C 
ATOM      7  O   UNL A   1      38.442  20.213  24.961  1.00  0.00    -0.246 OA
BRANCH   6   8
ATOM      8  C   UNL A   1      36.603  21.687  24.705  1.00  0.00     0.060 A 
ATOM      9  C   UNL A   1      34.183  22.732  23.864  1.00  0.00     0.067 A 
ATOM     10  C   UNL A   1      35.359  23.407  23.526  1.00  0.00     0.029 A 
ATOM     11  C   UNL A   1      34.222  21.466  24.466  1.00  0.00     0.029 A 
ATOM     12  C   UNL A   1      36.571  22.892  23.983  1.00  0.00     0.018 A 
ATOM     13  C   UNL A   1      35.439  20.934  24.881  1.00  0.00     0.018 A 
BRANCH   9  14
ATOM     14  N   UNL A   1      32.959  23.433  23.819  1.00  0.00    -0.216 N 
ATOM     15  C   UNL A   1      31.257  24.688  24.343  1.00  0.00     0.205 A 
ATOM     16  N   UNL A   1      31.329  24.594  22.979  1.00  0.00    -0.117 NA
ATOM     17  C   UNL A   1      32.328  24.018  24.908  1.00  0.00     0.081 A 
ATOM     18  N   UNL A   1      32.421  23.902  22.673  1.00  0.00    -0.061 NA
ATOM     19  C   UNL A   1      32.888  24.042  26.285  1.00  0.00     0.070 C 
BRANCH  15  20
ATOM     20  S   UNL A   1      30.109  25.698  25.148  1.00  0.00     0.227 S 
ATOM     21  O   UNL A   1      29.800  24.969  26.369  1.00  0.00    -0.217 OA
ATOM     22  O   UNL A   1      29.100  26.040  24.173  1.00  0.00    -0.217 OA
BRANCH  20  23
ATOM     23  C   UNL A   1      30.942  27.191  25.624  1.00  0.00     0.073 A 
ATOM     24  C   UNL A   1      32.112  29.649  26.321  1.00  0.00    -0.048 A 
ATOM     25  C   UNL A   1      31.683  29.407  25.006  1.00  0.00     0.005 A 
ATOM     26  C   UNL A   1      31.931  28.644  27.281  1.00  0.00     0.005 A 
ATOM     27  C   UNL A   1      31.098  28.189  24.657  1.00  0.00     0.021 A 
ATOM     28  C   UNL A   1      31.372  27.412  26.934  1.00  0.00     0.021 A 
BRANCH  24  29
ATOM     29  C   UNL A   1      32.686  31.003  26.677  1.00  0.00     0.032 C 
ATOM     30  C   UNL A   1      31.657  32.068  27.039  1.00  0.00     0.009 C 
ENDBRANCH  24  29
ENDBRANCH  20  23
ENDBRANCH  15  20
ENDBRANCH   9  14
ENDBRANCH   6   8
ENDBRANCH   5   6
ENDBRANCH   4   5
ENDBRANCH   3   4
ENDBRANCH   2   3
ENDBRANCH   1   2
BRANCH   1  31
ATOM     31  C   UNL A   1      42.652  19.126  26.147  1.00  0.00     0.188 C 
BRANCH  31  32
ATOM     32  O   UNL A   1      43.979  18.646  26.163  1.00  0.00    -0.376 OA
BRANCH  32  33
ATOM     33  C   UNL A   1      44.747  18.475  24.985  1.00  0.00     0.202 C 
BRANCH  33  34
ATOM     34  C   UNL A   1      44.896  19.487  23.852  1.00  0.00     0.261 C 
BRANCH  34  35
ATOM     35  O   UNL A   1      44.214  20.714  23.997  1.00  0.00    -0.460 OA
BRANCH  35  36
ATOM     36  C   UNL A   1      45.003  21.698  24.477  1.00  0.00     0.338 C 
ATOM     37  O   UNL A   1      46.202  21.832  24.291  1.00  0.00    -0.246 OA
BRANCH  36  38
ATOM     38  C   UNL A   1      44.227  22.536  25.386  1.00  0.00     0.060 A 
ATOM     39  C   UNL A   1      43.439  23.522  24.796  1.00  0.00     0.016 A 
ATOM     40  C   UNL A   1      44.564  22.555  26.748  1.00  0.00     0.016 A 
ATOM     41  C   UNL A   1      43.194  24.663  25.520  1.00  0.00     0.010 A 
ATOM     42  C   UNL A   1      44.326  23.701  27.467  1.00  0.00     0.010 A 
ATOM     43  C   UNL A   1      43.733  24.773  26.811  1.00  0.00    -0.014 A 
BRANCH  43  44
ATOM     44  C   UNL A   1      43.549  26.030  27.501  1.00  0.00     0.031 A 
ATOM     45  C   UNL A   1      44.634  26.984  27.201  1.00  0.00     0.074 A 
ATOM     46  C   UNL A   1      42.483  26.310  28.274  1.00  0.00     0.049 A 
ATOM     47  N   UNL A   1      45.591  27.347  27.985  1.00  0.00    -0.248 NA
ATOM     48  C   UNL A   1      44.797  27.412  25.801  1.00  0.00     0.031 C 
ATOM     49  C   UNL A   1      41.239  25.555  28.433  1.00  0.00     0.029 A 
ATOM     50  N   UNL A   1      42.258  27.418  29.025  1.00  0.00    -0.354 N 
ATOM     51  C   UNL A   1      46.345  28.245  27.245  1.00  0.00     0.074 A 
ATOM     52  C   UNL A   1      45.946  28.082  25.870  1.00  0.00     0.031 C 
ATOM     53  C   UNL A   1      40.311  26.346  29.024  1.00  0.00     0.029 A 
ATOM     54  C   UNL A   1      40.936  27.600  29.411  1.00  0.00     0.049 A 
ATOM     55  H   UNL A   1      42.976  28.044  29.278  1.00  0.00     0.167 HD
ATOM     56  C   UNL A   1      47.018  29.260  27.851  1.00  0.00     0.031 A 
ATOM     57  C   UNL A   1      40.402  28.732  29.945  1.00  0.00     0.031 A 
ATOM     58  C   UNL A   1      47.213  29.016  29.255  1.00  0.00     0.049 A 
ATOM     59  C   UNL A   1      41.532  29.523  30.497  1.00  0.00     0.074 A 
ATOM     60  C   UNL A   1      47.815  28.005  29.980  1.00  0.00     0.029 A 
ATOM     61  N   UNL A   1      46.374  29.660  30.135  1.00  0.00    -0.354 N 
ATOM     62  N   UNL A   1      42.250  29.135  31.513  1.00  0.00    -0.248 NA
ATOM     63  C   UNL A   1      42.164  30.500  29.622  1.00  0.00     0.031 C 
ATOM     64  C   UNL A   1      46.955  27.787  31.096  1.00  0.00     0.029 A 
ATOM     65  C   UNL A   1      45.927  28.729  31.039  1.00  0.00     0.049 A 
ATOM     66  H   UNL A   1      46.137  30.616  30.118  1.00  0.00     0.167 HD
ATOM     67  C   UNL A   1      43.555  29.465  31.173  1.00  0.00     0.074 A 
ATOM     68  C   UNL A   1      43.430  30.369  30.029  1.00  0.00     0.031 C 
ATOM     69  C   UNL A   1      44.620  28.764  31.663  1.00  0.00     0.031 A 
BRANCH  56  70
ATOM     70  C   UNL A   1      47.096  30.629  27.231  1.00  0.00    -0.014 A 
ATOM     71  C   UNL A   1      48.332  31.296  27.185  1.00  0.00     0.010 A 
ATOM     72  C   UNL A   1      45.944  31.386  26.923  1.00  0.00     0.010 A 
ATOM     73  C   UNL A   1      48.402  32.659  26.864  1.00  0.00     0.020 A 
ATOM     74  C   UNL A   1      46.005  32.728  26.558  1.00  0.00     0.020 A 
ATOM     75  C   UNL A   1      47.237  33.364  26.553  1.00  0.00     0.054 A 
BRANCH  75  76
ATOM     76  S   UNL A   1      47.332  35.130  26.182  1.00  0.00     0.124 S 
ATOM     77  O   UNL A   1      47.650  35.695  27.489  1.00  0.00    -0.237 OA
ATOM     78  O   UNL A   1      48.403  35.177  25.191  1.00  0.00    -0.237 OA
ATOM     79  O   UNL A   1      46.001  35.445  25.669  1.00  0.00    -0.744 OA
ENDBRANCH  75  76
ENDBRANCH  56  70
BRANCH  57  80
ATOM     80  C   UNL A   1      39.076  29.346  29.659  1.00  0.00    -0.014 A 
ATOM     81  C   UNL A   1      38.233  29.770  30.707  1.00  0.00     0.010 A 
ATOM     82  C   UNL A   1      38.772  29.802  28.359  1.00  0.00     0.010 A 
ATOM     83  C   UNL A   1      37.179  30.674  30.476  1.00  0.00     0.020 A 
ATOM     84  C   UNL A   1      37.720  30.697  28.120  1.00  0.00     0.020 A 
ATOM     85  C   UNL A   1      36.946  31.153  29.184  1.00  0.00     0.054 A 
BRANCH  85  86
ATOM     86  S   UNL A   1      35.721  32.472  28.920  1.00  0.00     0.124 S 
ATOM     87  O   UNL A   1      34.585  32.006  29.710  1.00  0.00    -0.237 OA
ATOM     88  O   UNL A   1      36.408  33.652  29.438  1.00  0.00    -0.237 OA
ATOM     89  O   UNL A   1      35.514  32.465  27.473  1.00  0.00    -0.744 OA
ENDBRANCH  85  86
ENDBRANCH  57  80
BRANCH  69  90
ATOM     90  C   UNL A   1      44.392  27.798  32.807  1.00  0.00    -0.014 A 
ATOM     91  C   UNL A   1      44.253  28.175  34.158  1.00  0.00     0.010 A 
ATOM     92  C   UNL A   1      44.163  26.452  32.466  1.00  0.00     0.010 A 
ATOM     93  C   UNL A   1      43.919  27.225  35.139  1.00  0.00     0.020 A 
ATOM     94  C   UNL A   1      43.813  25.507  33.432  1.00  0.00     0.020 A 
ATOM     95  C   UNL A   1      43.703  25.894  34.767  1.00  0.00     0.054 A 
BRANCH  95  96
ATOM     96  S   UNL A   1      43.239  24.669  36.024  1.00  0.00     0.124 S 
ATOM     97  O   UNL A   1      44.325  23.696  35.937  1.00  0.00    -0.237 OA
ATOM     98  O   UNL A   1      43.200  25.460  37.252  1.00  0.00    -0.237 OA
ATOM     99  O   UNL A   1      41.936  24.180  35.573  1.00  0.00    -0.744 OA
ENDBRANCH  95  96
ENDBRANCH  69  90
ENDBRANCH  43  44
ENDBRANCH  36  38
ENDBRANCH  35  36
ENDBRANCH  34  35
ENDBRANCH  33  34
ENDBRANCH  32  33
ENDBRANCH  31  32
ENDBRANCH   1  31
TORSDOF 24
ENDMDL
MODEL 2
REMARK VINA RESULT:     -10.3      1.466      2.139
REMARK SMILES CCc1ccc(S(=O)(=O)c2nnn(-c3ccc(C(=O)OCCOCCOCCOC(=O)c4ccc(-c5c6nc(c(-c7ccc(S(=O)(=O)[O-])cc7)c7ccc([nH]7)c(-c7ccc(S(=O)(=O)[O-])cc7)c7nc(c(-c8ccc(S(=O)(=O)[O-])cc8)c8ccc5[nH]8)C=C7)C=C6)cc4)cc3)c2C)cc1
REMARK SMILES IDX 24 1 23 2 22 3 21 4 20 5 18 6 19 7 17 8 14 9 15 10 93 11
REMARK SMILES IDX 16 12 92 13 13 14 10 15 11 16 94 17 12 18 95 19 7 20 8 21
REMARK SMILES IDX 9 22 6 23 3 24 4 25 97 26 5 27 96 28 2 29 1 30 25 31 26 32
REMARK SMILES IDX 27 33 28 34 29 35 30 36 31 37 32 38 33 39 91 40 34 41 90 42
REMARK SMILES IDX 35 43 36 44 37 45 84 46 38 47 89 48 83 49 85 50 39 51 88 52
REMARK SMILES IDX 82 53 81 54 40 56 70 57 51 58 69 59 52 60 55 61 68 62 86 63
REMARK SMILES IDX 53 64 54 65 67 67 87 68 56 69 41 70 42 71 50 72 43 73 49 74
REMARK SMILES IDX 44 75 45 76 46 77 47 78 48 79 71 80 72 81 80 82 73 83 79 84
REMARK SMILES IDX 74 85 75 86 76 87 77 88 78 89 57 90 58 91 66 92 59 93 65 94
REMARK SMILES IDX 60 95 61 96 62 97 63 98 64 99
REMARK H PARENT 85 55 55 66
REMARK Flexibility Score: inf
ROOT
ATOM      1  C   UNL A   1      41.195  21.755  27.880  1.00  0.00     0.188 C 
ENDROOT
BRANCH   1   2
ATOM      2  O   UNL A   1      40.063  22.582  27.724  1.00  0.00    -0.376 OA
BRANCH   2   3
ATOM      3  C   UNL A   1      39.668  23.084  26.461  1.00  0.00     0.202 C 
BRANCH   3   4
ATOM      4  C   UNL A   1      38.338  22.767  25.752  1.00  0.00     0.261 C 
BRANCH   4   5
ATOM      5  O   UNL A   1      37.715  21.523  26.065  1.00  0.00    -0.460 OA
BRANCH   5   6
ATOM      6  C   UNL A   1      37.301  20.794  25.004  1.00  0.00     0.338 C 
ATOM      7  O   UNL A   1      37.822  19.790  24.548  1.00  0.00    -0.246 OA
BRANCH   6   8
ATOM      8  C   UNL A   1      35.998  21.305  24.529  1.00  0.00     0.060 A 
ATOM      9  C   UNL A   1      33.604  22.514  23.852  1.00  0.00     0.067 A 
ATOM     10  C   UNL A   1      34.788  23.028  23.319  1.00  0.00     0.029 A 
ATOM     11  C   UNL A   1      33.596  21.312  24.575  1.00  0.00     0.029 A 
ATOM     12  C   UNL A   1      35.994  22.434  23.692  1.00  0.00     0.018 A 
ATOM     13  C   UNL A   1      34.799  20.698  24.909  1.00  0.00     0.018 A 
BRANCH   9  14
ATOM     14  N   UNL A   1      32.454  23.332  23.868  1.00  0.00    -0.216 N 
ATOM     15  C   UNL A   1      30.949  24.799  24.442  1.00  0.00     0.205 A 
ATOM     16  N   UNL A   1      30.853  24.577  23.094  1.00  0.00    -0.117 NA
ATOM     17  C   UNL A   1      32.011  24.074  24.954  1.00  0.00     0.081 A 
ATOM     18  N   UNL A   1      31.832  23.751  22.744  1.00  0.00    -0.061 NA
ATOM     19  C   UNL A   1      32.726  24.161  26.254  1.00  0.00     0.070 C 
BRANCH  15  20
ATOM     20  S   UNL A   1      30.001  25.991  25.259  1.00  0.00     0.227 S 
ATOM     21  O   UNL A   1      29.583  25.324  26.483  1.00  0.00    -0.217 OA
ATOM     22  O   UNL A   1      29.057  26.505  24.295  1.00  0.00    -0.217 OA
BRANCH  20  23
ATOM     23  C   UNL A   1      31.085  27.316  25.727  1.00  0.00     0.073 A 
ATOM     24  C   UNL A   1      32.920  29.286  26.531  1.00  0.00    -0.048 A 
ATOM     25  C   UNL A   1      32.406  28.365  27.457  1.00  0.00     0.005 A 
ATOM     26  C   UNL A   1      32.509  29.193  25.194  1.00  0.00     0.005 A 
ATOM     27  C   UNL A   1      31.498  27.382  27.061  1.00  0.00     0.021 A 
ATOM     28  C   UNL A   1      31.579  28.231  24.794  1.00  0.00     0.021 A 
BRANCH  24  29
ATOM     29  C   UNL A   1      33.949  30.299  26.984  1.00  0.00     0.032 C 
ATOM     30  C   UNL A   1      35.308  29.719  27.359  1.00  0.00     0.009 C 
ENDBRANCH  24  29
ENDBRANCH  20  23
ENDBRANCH  15  20
ENDBRANCH   9  14
ENDBRANCH   6   8
ENDBRANCH   5   6
ENDBRANCH   4   5
ENDBRANCH   3   4
ENDBRANCH   2   3
ENDBRANCH   1   2
BRANCH   1  31
ATOM     31  C   UNL A   1      41.744  20.936  26.693  1.00  0.00     0.188 C 
BRANCH  31  32
ATOM     32  O   UNL A   1      42.261  19.641  26.911  1.00  0.00    -0.376 OA
BRANCH  32  33
ATOM     33  C   UNL A   1      42.803  18.846  25.871  1.00  0.00     0.202 C 
BRANCH  33  34
ATOM     34  C   UNL A   1      44.172  19.024  25.220  1.00  0.00     0.261 C 
BRANCH  34  35
ATOM     35  O   UNL A   1      44.795  20.281  25.375  1.00  0.00    -0.460 OA
BRANCH  35  36
ATOM     36  C   UNL A   1      44.725  21.040  24.261  1.00  0.00     0.338 C 
ATOM     37  O   UNL A   1      44.595  20.647  23.114  1.00  0.00    -0.246 OA
BRANCH  36  38
ATOM     38  C   UNL A   1      44.961  22.436  24.616  1.00  0.00     0.060 A 
ATOM     39  C   UNL A   1      46.036  22.684  25.468  1.00  0.00     0.016 A 
ATOM     40  C   UNL A   1      43.942  23.376  24.396  1.00  0.00     0.016 A 
ATOM     41  C   UNL A   1      45.958  23.780  26.293  1.00  0.00     0.010 A 
ATOM     42  C   UNL A   1      43.863  24.465  25.227  1.00  0.00     0.010 A 
ATOM     43  C   UNL A   1      44.819  24.596  26.228  1.00  0.00    -0.014 A 
BRANCH  43  44
ATOM     44  C   UNL A   1      44.721  25.675  27.185  1.00  0.00     0.031 A 
ATOM     45  C   UNL A   1      45.842  26.625  27.057  1.00  0.00     0.074 A 
ATOM     46  C   UNL A   1      43.695  25.821  28.044  1.00  0.00     0.049 A 
ATOM     47  N   UNL A   1      46.840  26.765  27.861  1.00  0.00    -0.248 NA
ATOM     48  C   UNL A   1      45.982  27.346  25.780  1.00  0.00     0.031 C 
ATOM     49  C   UNL A   1      42.420  25.102  28.085  1.00  0.00     0.029 A 
ATOM     50  N   UNL A   1      43.549  26.744  29.029  1.00  0.00    -0.354 N 
ATOM     51  C   UNL A   1      47.614  27.772  27.306  1.00  0.00     0.074 A 
ATOM     52  C   UNL A   1      47.165  27.935  25.947  1.00  0.00     0.031 C 
ATOM     53  C   UNL A   1      41.551  25.780  28.874  1.00  0.00     0.029 A 
ATOM     54  C   UNL A   1      42.250  26.890  29.501  1.00  0.00     0.049 A 
ATOM     55  H   UNL A   1      44.305  27.267  29.383  1.00  0.00     0.167 HD
ATOM     56  C   UNL A   1      48.356  28.599  28.091  1.00  0.00     0.031 A 
ATOM     57  C   UNL A   1      41.790  27.897  30.293  1.00  0.00     0.031 A 
ATOM     58  C   UNL A   1      48.582  28.042  29.398  1.00  0.00     0.049 A 
ATOM     59  C   UNL A   1      42.976  28.499  30.957  1.00  0.00     0.074 A 
ATOM     60  C   UNL A   1      49.156  26.871  29.857  1.00  0.00     0.029 A 
ATOM     61  N   UNL A   1      47.804  28.510  30.432  1.00  0.00    -0.354 N 
ATOM     62  N   UNL A   1      43.706  27.865  31.832  1.00  0.00    -0.248 NA
ATOM     63  C   UNL A   1      43.628  29.617  30.293  1.00  0.00     0.031 C 
ATOM     64  C   UNL A   1      48.322  26.448  30.933  1.00  0.00     0.029 A 
ATOM     65  C   UNL A   1      47.340  27.421  31.127  1.00  0.00     0.049 A 
ATOM     66  H   UNL A   1      47.615  29.455  30.636  1.00  0.00     0.167 HD
ATOM     67  C   UNL A   1      45.013  28.208  31.518  1.00  0.00     0.074 A 
ATOM     68  C   UNL A   1      44.898  29.347  30.607  1.00  0.00     0.031 C 
ATOM     69  C   UNL A   1      46.057  27.371  31.798  1.00  0.00     0.031 A 
BRANCH  56  70
ATOM     70  C   UNL A   1      48.483  30.067  27.785  1.00  0.00    -0.014 A 
ATOM     71  C   UNL A   1      47.354  30.896  27.895  1.00  0.00     0.010 A 
ATOM     72  C   UNL A   1      49.620  30.610  27.146  1.00  0.00     0.010 A 
ATOM     73  C   UNL A   1      47.362  32.196  27.372  1.00  0.00     0.020 A 
ATOM     74  C   UNL A   1      49.656  31.915  26.664  1.00  0.00     0.020 A 
ATOM     75  C   UNL A   1      48.514  32.695  26.760  1.00  0.00     0.054 A 
BRANCH  75  76
ATOM     76  S   UNL A   1      48.502  34.357  26.051  1.00  0.00     0.124 S 
ATOM     77  O   UNL A   1      49.745  34.367  25.287  1.00  0.00    -0.237 OA
ATOM     78  O   UNL A   1      47.272  34.344  25.264  1.00  0.00    -0.237 OA
ATOM     79  O   UNL A   1      48.476  35.230  27.223  1.00  0.00    -0.744 OA
ENDBRANCH  75  76
ENDBRANCH  56  70
BRANCH  57  80
ATOM     80  C   UNL A   1      40.489  28.615  30.204  1.00  0.00    -0.014 A 
ATOM     81  C   UNL A   1      39.445  28.335  31.110  1.00  0.00     0.010 A 
ATOM     82  C   UNL A   1      40.378  29.789  29.431  1.00  0.00     0.010 A 
ATOM     83  C   UNL A   1      38.377  29.234  31.293  1.00  0.00     0.020 A 
ATOM     84  C   UNL A   1      39.314  30.685  29.601  1.00  0.00     0.020 A 
ATOM     85  C   UNL A   1      38.333  30.418  30.553  1.00  0.00     0.054 A 
BRANCH  85  86
ATOM     86  S   UNL A   1      37.069  31.671  30.933  1.00  0.00     0.124 S 
ATOM     87  O   UNL A   1      37.810  32.919  30.777  1.00  0.00    -0.237 OA
ATOM     88  O   UNL A   1      36.049  31.412  29.921  1.00  0.00    -0.237 OA
ATOM     89  O   UNL A   1      36.671  31.354  32.303  1.00  0.00    -0.744 OA
ENDBRANCH  85  86
ENDBRANCH  57  80
BRANCH  69  90
ATOM     90  C   UNL A   1      45.818  26.186  32.710  1.00  0.00    -0.014 A 
ATOM     91  C   UNL A   1      45.217  24.976  32.308  1.00  0.00     0.010 A 
ATOM     92  C   UNL A   1      46.366  26.259  34.003  1.00  0.00     0.010 A 
ATOM     93  C   UNL A   1      45.148  23.880  33.188  1.00  0.00     0.020 A 
ATOM     94  C   UNL A   1      46.317  25.170  34.875  1.00  0.00     0.020 A 
ATOM     95  C   UNL A   1      45.699  23.988  34.470  1.00  0.00     0.054 A 
BRANCH  95  96
ATOM     96  S   UNL A   1      45.643  22.567  35.599  1.00  0.00     0.124 S 
ATOM     97  O   UNL A   1      45.295  23.189  36.874  1.00  0.00    -0.237 OA
ATOM     98  O   UNL A   1      44.607  21.722  35.008  1.00  0.00    -0.237 OA
ATOM     99  O   UNL A   1      46.995  22.012  35.532  1.00  0.00    -0.744 OA
ENDBRANCH  95  96
ENDBRANCH  69  90
ENDBRANCH  43  44
ENDBRANCH  36  38
ENDBRANCH  35  36
ENDBRANCH  34  35
ENDBRANCH  33  34
ENDBRANCH  32  33
ENDBRANCH  31  32
ENDBRANCH   1  31
TORSDOF 24
ENDMDL
MODEL 3
REMARK VINA RESULT:     -10.2      1.702      2.426
REMARK SMILES CCc1ccc(S(=O)(=O)c2nnn(-c3ccc(C(=O)OCCOCCOCCOC(=O)c4ccc(-c5c6nc(c(-c7ccc(S(=O)(=O)[O-])cc7)c7ccc([nH]7)c(-c7ccc(S(=O)(=O)[O-])cc7)c7nc(c(-c8ccc(S(=O)(=O)[O-])cc8)c8ccc5[nH]8)C=C7)C=C6)cc4)cc3)c2C)cc1
REMARK SMILES IDX 24 1 23 2 22 3 21 4 20 5 18 6 19 7 17 8 14 9 15 10 93 11
REMARK SMILES IDX 16 12 92 13 13 14 10 15 11 16 94 17 12 18 95 19 7 20 8 21
REMARK SMILES IDX 9 22 6 23 3 24 4 25 97 26 5 27 96 28 2 29 1 30 25 31 26 32
REMARK SMILES IDX 27 33 28 34 29 35 30 36 31 37 32 38 33 39 91 40 34 41 90 42
REMARK SMILES IDX 35 43 36 44 37 45 84 46 38 47 89 48 83 49 85 50 39 51 88 52
REMARK SMILES IDX 82 53 81 54 40 56 70 57 51 58 69 59 52 60 55 61 68 62 86 63
REMARK SMILES IDX 53 64 54 65 67 67 87 68 56 69 41 70 42 71 50 72 43 73 49 74
REMARK SMILES IDX 44 75 45 76 46 77 47 78 48 79 71 80 72 81 80 82 73 83 79 84
REMARK SMILES IDX 74 85 75 86 76 87 77 88 78 89 57 90 58 91 66 92 59 93 65 94
REMARK SMILES IDX 60 95 61 96 62 97 63 98 64 99
REMARK H PARENT 85 55 55 66
REMARK Flexibility Score: inf
ROOT
ATOM      1  C   UNL A   1      41.163  22.049  27.998  1.00  0.00     0.188 C 
ENDROOT
BRANCH   1   2
ATOM      2  O   UNL A   1      40.055  22.910  27.852  1.00  0.00    -0.376 OA
BRANCH   2   3
ATOM      3  C   UNL A   1      39.525  23.241  26.582  1.00  0.00     0.202 C 
BRANCH   3   4
ATOM      4  C   UNL A   1      38.322  22.552  25.911  1.00  0.00     0.261 C 
BRANCH   4   5
ATOM      5  O   UNL A   1      38.213  21.138  26.067  1.00  0.00    -0.460 OA
BRANCH   5   6
ATOM      6  C   UNL A   1      37.701  20.472  25.007  1.00  0.00     0.338 C 
ATOM      7  O   UNL A   1      38.103  19.424  24.529  1.00  0.00    -0.246 OA
BRANCH   6   8
ATOM      8  C   UNL A   1      36.452  21.125  24.566  1.00  0.00     0.060 A 
ATOM      9  C   UNL A   1      34.180  22.585  23.963  1.00  0.00     0.067 A 
ATOM     10  C   UNL A   1      35.406  23.005  23.440  1.00  0.00     0.029 A 
ATOM     11  C   UNL A   1      34.061  21.361  24.636  1.00  0.00     0.029 A 
ATOM     12  C   UNL A   1      36.551  22.283  23.777  1.00  0.00     0.018 A 
ATOM     13  C   UNL A   1      35.201  20.620  24.932  1.00  0.00     0.018 A 
BRANCH   9  14
ATOM     14  N   UNL A   1      33.115  23.508  24.024  1.00  0.00    -0.216 N 
ATOM     15  C   UNL A   1      31.670  24.978  24.730  1.00  0.00     0.205 A 
ATOM     16  N   UNL A   1      31.761  25.073  23.367  1.00  0.00    -0.117 NA
ATOM     17  C   UNL A   1      32.577  24.038  25.188  1.00  0.00     0.081 A 
ATOM     18  N   UNL A   1      32.709  24.235  22.961  1.00  0.00    -0.061 NA
ATOM     19  C   UNL A   1      33.091  23.752  26.553  1.00  0.00     0.070 C 
BRANCH  15  20
ATOM     20  S   UNL A   1      30.714  26.062  25.677  1.00  0.00     0.227 S 
ATOM     21  O   UNL A   1      31.640  26.550  26.688  1.00  0.00    -0.217 OA
ATOM     22  O   UNL A   1      29.498  25.360  26.013  1.00  0.00    -0.217 OA
BRANCH  20  23
ATOM     23  C   UNL A   1      30.284  27.444  24.649  1.00  0.00     0.073 A 
ATOM     24  C   UNL A   1      29.439  29.635  23.106  1.00  0.00    -0.048 A 
ATOM     25  C   UNL A   1      28.713  28.433  23.102  1.00  0.00     0.005 A 
ATOM     26  C   UNL A   1      30.586  29.722  23.906  1.00  0.00     0.005 A 
ATOM     27  C   UNL A   1      29.127  27.344  23.871  1.00  0.00     0.021 A 
ATOM     28  C   UNL A   1      31.023  28.629  24.657  1.00  0.00     0.021 A 
BRANCH  24  29
ATOM     29  C   UNL A   1      28.927  30.814  22.308  1.00  0.00     0.032 C 
ATOM     30  C   UNL A   1      27.671  31.475  22.863  1.00  0.00     0.009 C 
ENDBRANCH  24  29
ENDBRANCH  20  23
ENDBRANCH  15  20
ENDBRANCH   9  14
ENDBRANCH   6   8
ENDBRANCH   5   6
ENDBRANCH   4   5
ENDBRANCH   3   4
ENDBRANCH   2   3
ENDBRANCH   1   2
BRANCH   1  31
ATOM     31  C   UNL A   1      41.565  21.079  26.868  1.00  0.00     0.188 C 
BRANCH  31  32
ATOM     32  O   UNL A   1      42.180  19.848  27.181  1.00  0.00    -0.376 OA
BRANCH  32  33
ATOM     33  C   UNL A   1      42.491  18.874  26.201  1.00  0.00     0.202 C 
BRANCH  33  34
ATOM     34  C   UNL A   1      43.778  18.797  25.384  1.00  0.00     0.261 C 
BRANCH  34  35
ATOM     35  O   UNL A   1      44.628  19.923  25.422  1.00  0.00    -0.460 OA
BRANCH  35  36
ATOM     36  C   UNL A   1      44.729  20.543  24.227  1.00  0.00     0.338 C 
ATOM     37  O   UNL A   1      44.663  20.023  23.125  1.00  0.00    -0.246 OA
BRANCH  36  38
ATOM     38  C   UNL A   1      45.069  21.946  24.441  1.00  0.00     0.060 A 
ATOM     39  C   UNL A   1      46.097  22.202  25.346  1.00  0.00     0.016 A 
ATOM     40  C   UNL A   1      44.161  22.935  24.032  1.00  0.00     0.016 A 
ATOM     41  C   UNL A   1      46.063  23.391  26.033  1.00  0.00     0.010 A 
ATOM     42  C   UNL A   1      44.124  24.119  24.726  1.00  0.00     0.010 A 
ATOM     43  C   UNL A   1      45.013  24.287  25.782  1.00  0.00    -0.014 A 
BRANCH  43  44
ATOM     44  C   UNL A   1      44.946  25.477  26.600  1.00  0.00     0.031 A 
ATOM     45  C   UNL A   1      46.176  26.285  26.493  1.00  0.00     0.074 A 
ATOM     46  C   UNL A   1      43.865  25.829  27.321  1.00  0.00     0.049 A 
ATOM     47  N   UNL A   1      47.101  26.417  27.381  1.00  0.00    -0.248 NA
ATOM     48  C   UNL A   1      46.520  26.830  25.168  1.00  0.00     0.031 C 
ATOM     49  C   UNL A   1      42.519  25.255  27.300  1.00  0.00     0.029 A 
ATOM     50  N   UNL A   1      43.732  26.873  28.179  1.00  0.00    -0.354 N 
ATOM     51  C   UNL A   1      48.035  27.266  26.807  1.00  0.00     0.074 A 
ATOM     52  C   UNL A   1      47.741  27.310  25.398  1.00  0.00     0.031 C 
ATOM     53  C   UNL A   1      41.661  26.108  27.912  1.00  0.00     0.029 A 
ATOM     54  C   UNL A   1      42.419  27.208  28.487  1.00  0.00     0.049 A 
ATOM     55  H   UNL A   1      44.504  27.355  28.554  1.00  0.00     0.167 HD
ATOM     56  C   UNL A   1      48.787  28.101  27.575  1.00  0.00     0.031 A 
ATOM     57  C   UNL A   1      42.003  28.343  29.110  1.00  0.00     0.031 A 
ATOM     58  C   UNL A   1      48.821  27.683  28.951  1.00  0.00     0.049 A 
ATOM     59  C   UNL A   1      43.179  28.896  29.831  1.00  0.00     0.074 A 
ATOM     60  C   UNL A   1      49.210  26.524  29.595  1.00  0.00     0.029 A 
ATOM     61  N   UNL A   1      48.005  28.349  29.837  1.00  0.00    -0.354 N 
ATOM     62  N   UNL A   1      43.744  28.300  30.843  1.00  0.00    -0.248 NA
ATOM     63  C   UNL A   1      44.016  29.854  29.124  1.00  0.00     0.031 C 
ATOM     64  C   UNL A   1      48.233  26.320  30.612  1.00  0.00     0.029 A 
ATOM     65  C   UNL A   1      47.355  27.405  30.591  1.00  0.00     0.049 A 
ATOM     66  H   UNL A   1      47.906  29.326  29.916  1.00  0.00     0.167 HD
ATOM     67  C   UNL A   1      45.106  28.467  30.639  1.00  0.00     0.074 A 
ATOM     68  C   UNL A   1      45.210  29.495  29.603  1.00  0.00     0.031 C 
ATOM     69  C   UNL A   1      46.015  27.567  31.120  1.00  0.00     0.031 A 
BRANCH  56  70
ATOM     70  C   UNL A   1      49.110  29.501  27.127  1.00  0.00    -0.014 A 
ATOM     71  C   UNL A   1      50.445  29.850  26.864  1.00  0.00     0.010 A 
ATOM     72  C   UNL A   1      48.171  30.554  27.203  1.00  0.00     0.010 A 
ATOM     73  C   UNL A   1      50.819  31.192  26.705  1.00  0.00     0.020 A 
ATOM     74  C   UNL A   1      48.522  31.885  27.001  1.00  0.00     0.020 A 
ATOM     75  C   UNL A   1      49.854  32.199  26.775  1.00  0.00     0.054 A 
BRANCH  75  76
ATOM     76  S   UNL A   1      50.352  33.928  26.611  1.00  0.00     0.124 S 
ATOM     77  O   UNL A   1      49.290  34.617  27.338  1.00  0.00    -0.237 OA
ATOM     78  O   UNL A   1      51.665  33.930  27.250  1.00  0.00    -0.237 OA
ATOM     79  O   UNL A   1      50.368  34.146  25.166  1.00  0.00    -0.744 OA
ENDBRANCH  75  76
ENDBRANCH  56  70
BRANCH  57  80
ATOM     80  C   UNL A   1      40.806  29.175  28.802  1.00  0.00    -0.014 A 
ATOM     81  C   UNL A   1      40.096  29.002  27.596  1.00  0.00     0.010 A 
ATOM     82  C   UNL A   1      40.179  29.920  29.822  1.00  0.00     0.010 A 
ATOM     83  C   UNL A   1      38.782  29.484  27.448  1.00  0.00     0.020 A 
ATOM     84  C   UNL A   1      38.874  30.410  29.679  1.00  0.00     0.020 A 
ATOM     85  C   UNL A   1      38.169  30.165  28.503  1.00  0.00     0.054 A 
BRANCH  85  86
ATOM     86  S   UNL A   1      36.408  30.608  28.387  1.00  0.00     0.124 S 
ATOM     87  O   UNL A   1      35.913  29.659  27.394  1.00  0.00    -0.237 OA
ATOM     88  O   UNL A   1      35.936  30.395  29.753  1.00  0.00    -0.237 OA
ATOM     89  O   UNL A   1      36.431  32.003  27.954  1.00  0.00    -0.744 OA
ENDBRANCH  85  86
ENDBRANCH  57  80
BRANCH  69  90
ATOM     90  C   UNL A   1      45.555  26.531  32.123  1.00  0.00    -0.014 A 
ATOM     91  C   UNL A   1      45.043  25.262  31.785  1.00  0.00     0.010 A 
ATOM     92  C   UNL A   1      45.795  26.811  33.481  1.00  0.00     0.010 A 
ATOM     93  C   UNL A   1      44.758  24.312  32.783  1.00  0.00     0.020 A 
ATOM     94  C   UNL A   1      45.530  25.867  34.475  1.00  0.00     0.020 A 
ATOM     95  C   UNL A   1      45.003  24.624  34.124  1.00  0.00     0.054 A 
BRANCH  95  96
ATOM     96  S   UNL A   1      44.667  23.392  35.414  1.00  0.00     0.124 S 
ATOM     97  O   UNL A   1      43.303  23.720  35.820  1.00  0.00    -0.237 OA
ATOM     98  O   UNL A   1      44.824  22.125  34.703  1.00  0.00    -0.237 OA
ATOM     99  O   UNL A   1      45.691  23.655  36.426  1.00  0.00    -0.744 OA
ENDBRANCH  95  96
ENDBRANCH  69  90
ENDBRANCH  43  44
ENDBRANCH  36  38
ENDBRANCH  35  36
ENDBRANCH  34  35
ENDBRANCH  33  34
ENDBRANCH  32  33
ENDBRANCH  31  32
ENDBRANCH   1  31
TORSDOF 24
ENDMDL
