MODEL 1
REMARK VINA RESULT:      -8.8      0.000      0.000
REMARK SMILES CC(C)(C)OC(=O)N[C@H](Cc1ccc(O)c(Cl)c1)C(=O)OCCOCCOCCOC(=O)c1ccc(-c2c3nc(c(-c4ccc(S(=O)(=O)[O-])cc4)c4ccc([nH]4)c(-c4ccc(S(=O)(=O)[O-])cc4)c4nc(c(-c5ccc(S(=O)(=O)[O-])cc5)c5ccc2[nH]5)C=C4)C=C3)cc1
REMARK SMILES IDX 25 1 24 2 23 3 22 4 21 5 19 6 20 7 9 8 8 9 6 10 7 11 5 13
REMARK SMILES IDX 2 14 1 15 3 16 4 17 10 18 11 19 12 20 18 21 13 22 16 23
REMARK SMILES IDX 14 24 17 25 15 26 26 28 27 29 28 30 29 31 30 32 31 33 32 34
REMARK SMILES IDX 33 35 34 36 92 37 35 38 91 39 36 40 37 41 38 42 85 43 39 44
REMARK SMILES IDX 90 45 84 46 86 47 40 48 89 49 83 50 82 51 41 53 71 54 52 55
REMARK SMILES IDX 70 56 53 57 56 58 69 59 87 60 54 61 55 62 68 64 88 65 57 66
REMARK SMILES IDX 42 67 43 68 51 69 44 70 50 71 45 72 46 73 47 74 48 75 49 76
REMARK SMILES IDX 72 77 73 78 81 79 74 80 80 81 75 82 76 83 77 84 78 85 79 86
REMARK SMILES IDX 58 87 59 88 67 89 60 90 66 91 61 92 62 93 63 94 64 95 65 96
REMARK H PARENT 8 12 15 27 86 52 56 63
REMARK Flexibility Score: inf
ROOT
ATOM      1  C   UNL A   1      33.730  21.000  24.763  1.00  0.00     0.188 C 
ENDROOT
BRANCH   1   2
ATOM      2  O   UNL A   1      33.960  22.394  24.651  1.00  0.00    -0.376 OA
BRANCH   2   3
ATOM      3  C   UNL A   1      33.128  23.281  25.391  1.00  0.00     0.202 C 
BRANCH   3   4
ATOM      4  C   UNL A   1      31.597  23.117  25.339  1.00  0.00     0.261 C 
BRANCH   4   5
ATOM      5  O   UNL A   1      30.862  24.258  24.822  1.00  0.00    -0.462 OA
BRANCH   5   6
ATOM      6  C   UNL A   1      30.747  25.307  25.670  1.00  0.00     0.329 C 
ATOM      7  O   UNL A   1      29.975  25.304  26.631  1.00  0.00    -0.250 OA
BRANCH   6   8
ATOM      8  C   UNL A   1      31.643  26.547  25.407  1.00  0.00     0.199 C 
BRANCH   8   9
ATOM      9  N   UNL A   1      31.916  26.435  23.964  1.00  0.00    -0.308 N 
ATOM     10  C   UNL A   1      31.977  27.447  23.053  1.00  0.00     0.408 C 
ATOM     11  O   UNL A   1      32.406  27.265  21.926  1.00  0.00    -0.225 OA
ATOM     12  H   UNL A   1      32.073  25.526  23.619  1.00  0.00     0.168 HD
BRANCH  10  13
ATOM     13  O   UNL A   1      31.456  28.603  23.524  1.00  0.00    -0.444 OA
BRANCH  13  14
ATOM     14  C   UNL A   1      30.166  29.077  23.065  1.00  0.00     0.106 C 
ATOM     15  C   UNL A   1      29.813  30.253  23.994  1.00  0.00     0.056 C 
ATOM     16  C   UNL A   1      29.080  28.006  23.236  1.00  0.00     0.056 C 
ATOM     17  C   UNL A   1      30.270  29.588  21.630  1.00  0.00     0.056 C 
ENDBRANCH  13  14
ENDBRANCH  10  13
ENDBRANCH   8   9
BRANCH   8  18
ATOM     18  C   UNL A   1      32.905  26.923  26.233  1.00  0.00     0.072 C 
BRANCH  18  19
ATOM     19  C   UNL A   1      33.134  28.359  26.711  1.00  0.00    -0.044 A 
ATOM     20  C   UNL A   1      34.433  28.728  27.120  1.00  0.00     0.008 A 
ATOM     21  C   UNL A   1      32.171  29.374  26.609  1.00  0.00     0.028 A 
ATOM     22  C   UNL A   1      34.749  30.050  27.463  1.00  0.00     0.048 A 
ATOM     23  C   UNL A   1      32.487  30.701  26.940  1.00  0.00     0.083 A 
ATOM     24  C   UNL A   1      33.770  31.034  27.381  1.00  0.00     0.134 A 
ATOM     25  Cl  UNL A   1      31.253  31.899  26.789  1.00  0.00    -0.080 Cl
BRANCH  24  26
ATOM     26  O   UNL A   1      34.058  32.320  27.744  1.00  0.00    -0.506 OA
ATOM     27  H   UNL A   1      33.779  33.033  27.205  1.00  0.00     0.293 HD
ENDBRANCH  24  26
ENDBRANCH  18  19
ENDBRANCH   8  18
ENDBRANCH   6   8
ENDBRANCH   5   6
ENDBRANCH   4   5
ENDBRANCH   3   4
ENDBRANCH   2   3
ENDBRANCH   1   2
BRANCH   1  28
ATOM     28  C   UNL A   1      34.940  20.079  24.983  1.00  0.00     0.188 C 
BRANCH  28  29
ATOM     29  O   UNL A   1      36.207  20.584  24.659  1.00  0.00    -0.376 OA
BRANCH  29  30
ATOM     30  C   UNL A   1      37.154  20.822  25.683  1.00  0.00     0.202 C 
BRANCH  30  31
ATOM     31  C   UNL A   1      38.540  21.478  25.493  1.00  0.00     0.261 C 
BRANCH  31  32
ATOM     32  O   UNL A   1      38.931  22.545  26.363  1.00  0.00    -0.460 OA
BRANCH  32  33
ATOM     33  C   UNL A   1      38.270  23.720  26.209  1.00  0.00     0.338 C 
ATOM     34  O   UNL A   1      37.159  23.881  25.735  1.00  0.00    -0.246 OA
BRANCH  33  35
ATOM     35  C   UNL A   1      39.031  24.774  26.910  1.00  0.00     0.060 A 
ATOM     36  C   UNL A   1      38.783  24.996  28.269  1.00  0.00     0.016 A 
ATOM     37  C   UNL A   1      39.951  25.569  26.231  1.00  0.00     0.016 A 
ATOM     38  C   UNL A   1      39.435  26.016  28.953  1.00  0.00     0.010 A 
ATOM     39  C   UNL A   1      40.591  26.611  26.915  1.00  0.00     0.010 A 
ATOM     40  C   UNL A   1      40.316  26.858  28.274  1.00  0.00    -0.014 A 
BRANCH  40  41
ATOM     41  C   UNL A   1      40.784  28.101  28.937  1.00  0.00     0.031 A 
ATOM     42  C   UNL A   1      42.228  28.192  29.348  1.00  0.00     0.074 A 
ATOM     43  C   UNL A   1      39.973  29.162  29.112  1.00  0.00     0.049 A 
ATOM     44  N   UNL A   1      42.831  29.097  30.072  1.00  0.00    -0.248 NA
ATOM     45  C   UNL A   1      43.111  27.109  28.880  1.00  0.00     0.031 C 
ATOM     46  C   UNL A   1      38.590  29.263  28.646  1.00  0.00     0.029 A 
ATOM     47  N   UNL A   1      40.205  30.366  29.732  1.00  0.00    -0.354 N 
ATOM     48  C   UNL A   1      44.150  28.673  30.183  1.00  0.00     0.074 A 
ATOM     49  C   UNL A   1      44.257  27.423  29.463  1.00  0.00     0.031 C 
ATOM     50  C   UNL A   1      38.097  30.462  29.001  1.00  0.00     0.029 A 
ATOM     51  C   UNL A   1      39.101  31.185  29.778  1.00  0.00     0.049 A 
ATOM     52  H   UNL A   1      41.079  30.617  30.109  1.00  0.00     0.167 HD
ATOM     53  C   UNL A   1      45.177  29.268  30.834  1.00  0.00     0.031 A 
ATOM     54  C   UNL A   1      38.910  32.361  30.409  1.00  0.00     0.031 A 
ATOM     55  C   UNL A   1      45.068  30.522  31.530  1.00  0.00     0.049 A 
ATOM     56  C   UNL A   1      40.037  32.958  31.215  1.00  0.00     0.074 A 
ATOM     57  C   UNL A   1      46.047  31.203  32.230  1.00  0.00     0.029 A 
ATOM     58  N   UNL A   1      43.916  31.290  31.604  1.00  0.00    -0.354 N 
ATOM     59  N   UNL A   1      41.263  32.516  31.372  1.00  0.00    -0.248 NA
ATOM     60  C   UNL A   1      39.754  34.208  31.935  1.00  0.00     0.031 C 
ATOM     61  C   UNL A   1      45.470  32.350  32.783  1.00  0.00     0.029 A 
ATOM     62  C   UNL A   1      44.152  32.423  32.362  1.00  0.00     0.049 A 
ATOM     63  H   UNL A   1      43.056  31.061  31.181  1.00  0.00     0.167 HD
ATOM     64  C   UNL A   1      41.904  33.451  32.180  1.00  0.00     0.074 A 
ATOM     65  C   UNL A   1      40.934  34.485  32.472  1.00  0.00     0.031 C 
ATOM     66  C   UNL A   1      43.181  33.453  32.637  1.00  0.00     0.031 A 
BRANCH  53  67
ATOM     67  C   UNL A   1      46.492  28.536  30.881  1.00  0.00    -0.014 A 
ATOM     68  C   UNL A   1      46.795  27.619  31.902  1.00  0.00     0.010 A 
ATOM     69  C   UNL A   1      47.431  28.752  29.855  1.00  0.00     0.010 A 
ATOM     70  C   UNL A   1      48.028  26.960  31.916  1.00  0.00     0.020 A 
ATOM     71  C   UNL A   1      48.649  28.071  29.846  1.00  0.00     0.020 A 
ATOM     72  C   UNL A   1      48.947  27.191  30.887  1.00  0.00     0.054 A 
BRANCH  72  73
ATOM     73  S   UNL A   1      50.529  26.305  30.918  1.00  0.00     0.124 S 
ATOM     74  O   UNL A   1      50.302  25.250  29.933  1.00  0.00    -0.237 OA
ATOM     75  O   UNL A   1      51.482  27.339  30.523  1.00  0.00    -0.237 OA
ATOM     76  O   UNL A   1      50.647  25.848  32.301  1.00  0.00    -0.744 OA
ENDBRANCH  72  73
ENDBRANCH  53  67
BRANCH  54  77
ATOM     77  C   UNL A   1      37.577  33.027  30.362  1.00  0.00    -0.014 A 
ATOM     78  C   UNL A   1      37.171  33.754  29.230  1.00  0.00     0.010 A 
ATOM     79  C   UNL A   1      36.706  32.945  31.466  1.00  0.00     0.010 A 
ATOM     80  C   UNL A   1      35.928  34.398  29.208  1.00  0.00     0.020 A 
ATOM     81  C   UNL A   1      35.450  33.557  31.435  1.00  0.00     0.020 A 
ATOM     82  C   UNL A   1      35.074  34.291  30.310  1.00  0.00     0.054 A 
BRANCH  82  83
ATOM     83  S   UNL A   1      33.446  35.091  30.240  1.00  0.00     0.124 S 
ATOM     84  O   UNL A   1      32.796  34.364  29.155  1.00  0.00    -0.237 OA
ATOM     85  O   UNL A   1      32.915  34.841  31.578  1.00  0.00    -0.237 OA
ATOM     86  O   UNL A   1      33.764  36.488  29.955  1.00  0.00    -0.744 OA
ENDBRANCH  82  83
ENDBRANCH  54  77
BRANCH  66  87
ATOM     87  C   UNL A   1      43.635  34.635  33.456  1.00  0.00    -0.014 A 
ATOM     88  C   UNL A   1      43.595  34.617  34.860  1.00  0.00     0.010 A 
ATOM     89  C   UNL A   1      44.188  35.753  32.801  1.00  0.00     0.010 A 
ATOM     90  C   UNL A   1      44.078  35.705  35.594  1.00  0.00     0.020 A 
ATOM     91  C   UNL A   1      44.699  36.828  33.532  1.00  0.00     0.020 A 
ATOM     92  C   UNL A   1      44.631  36.801  34.925  1.00  0.00     0.054 A 
BRANCH  92  93
ATOM     93  S   UNL A   1      45.306  38.173  35.903  1.00  0.00     0.124 S 
ATOM     94  O   UNL A   1      46.130  37.471  36.884  1.00  0.00    -0.237 OA
ATOM     95  O   UNL A   1      46.040  38.946  34.905  1.00  0.00    -0.237 OA
ATOM     96  O   UNL A   1      44.120  38.831  36.445  1.00  0.00    -0.744 OA
ENDBRANCH  92  93
ENDBRANCH  66  87
ENDBRANCH  40  41
ENDBRANCH  33  35
ENDBRANCH  32  33
ENDBRANCH  31  32
ENDBRANCH  30  31
ENDBRANCH  29  30
ENDBRANCH  28  29
ENDBRANCH   1  28
TORSDOF 26
ENDMDL
MODEL 2
REMARK VINA RESULT:      -8.7      3.201      4.439
REMARK SMILES CC(C)(C)OC(=O)N[C@H](Cc1ccc(O)c(Cl)c1)C(=O)OCCOCCOCCOC(=O)c1ccc(-c2c3nc(c(-c4ccc(S(=O)(=O)[O-])cc4)c4ccc([nH]4)c(-c4ccc(S(=O)(=O)[O-])cc4)c4nc(c(-c5ccc(S(=O)(=O)[O-])cc5)c5ccc2[nH]5)C=C4)C=C3)cc1
REMARK SMILES IDX 25 1 24 2 23 3 22 4 21 5 19 6 20 7 9 8 8 9 6 10 7 11 5 13
REMARK SMILES IDX 2 14 1 15 3 16 4 17 10 18 11 19 12 20 18 21 13 22 16 23
REMARK SMILES IDX 14 24 17 25 15 26 26 28 27 29 28 30 29 31 30 32 31 33 32 34
REMARK SMILES IDX 33 35 34 36 92 37 35 38 91 39 36 40 37 41 38 42 85 43 39 44
REMARK SMILES IDX 90 45 84 46 86 47 40 48 89 49 83 50 82 51 41 53 71 54 52 55
REMARK SMILES IDX 70 56 53 57 56 58 69 59 87 60 54 61 55 62 68 64 88 65 57 66
REMARK SMILES IDX 42 67 43 68 51 69 44 70 50 71 45 72 46 73 47 74 48 75 49 76
REMARK SMILES IDX 72 77 73 78 81 79 74 80 80 81 75 82 76 83 77 84 78 85 79 86
REMARK SMILES IDX 58 87 59 88 67 89 60 90 66 91 61 92 62 93 63 94 64 95 65 96
REMARK H PARENT 8 12 15 27 86 52 56 63
REMARK Flexibility Score: inf
ROOT
ATOM      1  C   UNL A   1      35.132  21.304  26.074  1.00  0.00     0.188 C 
ENDROOT
BRANCH   1   2
ATOM      2  O   UNL A   1      33.906  21.483  26.762  1.00  0.00    -0.376 OA
BRANCH   2   3
ATOM      3  C   UNL A   1      32.722  21.685  26.000  1.00  0.00     0.202 C 
BRANCH   3   4
ATOM      4  C   UNL A   1      32.029  23.061  26.011  1.00  0.00     0.261 C 
BRANCH   4   5
ATOM      5  O   UNL A   1      32.054  23.786  24.754  1.00  0.00    -0.462 OA
BRANCH   5   6
ATOM      6  C   UNL A   1      32.453  25.077  24.836  1.00  0.00     0.329 C 
ATOM      7  O   UNL A   1      33.632  25.419  24.724  1.00  0.00    -0.250 OA
BRANCH   6   8
ATOM      8  C   UNL A   1      31.360  26.154  25.069  1.00  0.00     0.199 C 
BRANCH   8   9
ATOM      9  N   UNL A   1      31.496  26.431  26.510  1.00  0.00    -0.308 N 
ATOM     10  C   UNL A   1      31.441  27.645  27.128  1.00  0.00     0.408 C 
ATOM     11  O   UNL A   1      31.366  27.739  28.341  1.00  0.00    -0.225 OA
ATOM     12  H   UNL A   1      31.643  25.650  27.092  1.00  0.00     0.168 HD
BRANCH  10  13
ATOM     13  O   UNL A   1      31.548  28.676  26.258  1.00  0.00    -0.444 OA
BRANCH  13  14
ATOM     14  C   UNL A   1      32.838  29.263  25.959  1.00  0.00     0.106 C 
ATOM     15  C   UNL A   1      32.680  30.764  26.264  1.00  0.00     0.056 C 
ATOM     16  C   UNL A   1      33.188  29.125  24.471  1.00  0.00     0.056 C 
ATOM     17  C   UNL A   1      33.911  28.677  26.874  1.00  0.00     0.056 C 
ENDBRANCH  13  14
ENDBRANCH  10  13
ENDBRANCH   8   9
BRANCH   8  18
ATOM     18  C   UNL A   1      29.878  26.030  24.616  1.00  0.00     0.072 C 
BRANCH  18  19
ATOM     19  C   UNL A   1      29.217  27.126  23.776  1.00  0.00    -0.044 A 
ATOM     20  C   UNL A   1      27.819  27.288  23.870  1.00  0.00     0.008 A 
ATOM     21  C   UNL A   1      29.936  28.086  23.047  1.00  0.00     0.028 A 
ATOM     22  C   UNL A   1      27.155  28.338  23.222  1.00  0.00     0.048 A 
ATOM     23  C   UNL A   1      29.275  29.146  22.407  1.00  0.00     0.083 A 
ATOM     24  C   UNL A   1      27.886  29.262  22.482  1.00  0.00     0.134 A 
ATOM     25  Cl  UNL A   1      30.224  30.292  21.530  1.00  0.00    -0.080 Cl
BRANCH  24  26
ATOM     26  O   UNL A   1      27.245  30.271  21.818  1.00  0.00    -0.506 OA
ATOM     27  H   UNL A   1      26.992  31.046  22.277  1.00  0.00     0.293 HD
ENDBRANCH  24  26
ENDBRANCH  18  19
ENDBRANCH   8  18
ENDBRANCH   6   8
ENDBRANCH   5   6
ENDBRANCH   4   5
ENDBRANCH   3   4
ENDBRANCH   2   3
ENDBRANCH   1   2
BRANCH   1  28
ATOM     28  C   UNL A   1      35.978  22.547  25.759  1.00  0.00     0.188 C 
BRANCH  28  29
ATOM     29  O   UNL A   1      37.075  22.385  24.901  1.00  0.00    -0.376 OA
BRANCH  29  30
ATOM     30  C   UNL A   1      38.255  21.764  25.376  1.00  0.00     0.202 C 
BRANCH  30  31
ATOM     31  C   UNL A   1      39.090  22.227  26.590  1.00  0.00     0.261 C 
BRANCH  31  32
ATOM     32  O   UNL A   1      39.457  23.606  26.698  1.00  0.00    -0.460 OA
BRANCH  32  33
ATOM     33  C   UNL A   1      40.647  23.867  27.296  1.00  0.00     0.338 C 
ATOM     34  O   UNL A   1      41.695  23.266  27.139  1.00  0.00    -0.246 OA
BRANCH  33  35
ATOM     35  C   UNL A   1      40.528  25.149  28.022  1.00  0.00     0.060 A 
ATOM     36  C   UNL A   1      41.688  25.884  28.288  1.00  0.00     0.016 A 
ATOM     37  C   UNL A   1      39.294  25.605  28.478  1.00  0.00     0.016 A 
ATOM     38  C   UNL A   1      41.628  27.066  29.019  1.00  0.00     0.010 A 
ATOM     39  C   UNL A   1      39.237  26.784  29.234  1.00  0.00     0.010 A 
ATOM     40  C   UNL A   1      40.409  27.507  29.532  1.00  0.00    -0.014 A 
BRANCH  40  41
ATOM     41  C   UNL A   1      40.399  28.602  30.534  1.00  0.00     0.031 A 
ATOM     42  C   UNL A   1      41.416  28.565  31.642  1.00  0.00     0.074 A 
ATOM     43  C   UNL A   1      39.559  29.649  30.434  1.00  0.00     0.049 A 
ATOM     44  N   UNL A   1      41.508  29.311  32.711  1.00  0.00    -0.248 NA
ATOM     45  C   UNL A   1      42.470  27.542  31.529  1.00  0.00     0.031 C 
ATOM     46  C   UNL A   1      38.613  29.881  29.344  1.00  0.00     0.029 A 
ATOM     47  N   UNL A   1      39.372  30.722  31.273  1.00  0.00    -0.354 N 
ATOM     48  C   UNL A   1      42.600  28.823  33.418  1.00  0.00     0.074 A 
ATOM     49  C   UNL A   1      43.131  27.709  32.664  1.00  0.00     0.031 C 
ATOM     50  C   UNL A   1      37.942  31.022  29.582  1.00  0.00     0.029 A 
ATOM     51  C   UNL A   1      38.361  31.564  30.873  1.00  0.00     0.049 A 
ATOM     52  H   UNL A   1      39.910  30.872  32.083  1.00  0.00     0.167 HD
ATOM     53  C   UNL A   1      43.109  29.259  34.593  1.00  0.00     0.031 A 
ATOM     54  C   UNL A   1      37.807  32.624  31.497  1.00  0.00     0.031 A 
ATOM     55  C   UNL A   1      42.589  30.383  35.326  1.00  0.00     0.049 A 
ATOM     56  C   UNL A   1      38.322  33.032  32.855  1.00  0.00     0.074 A 
ATOM     57  C   UNL A   1      43.027  30.897  36.534  1.00  0.00     0.029 A 
ATOM     58  N   UNL A   1      41.525  31.172  34.918  1.00  0.00    -0.354 N 
ATOM     59  N   UNL A   1      39.312  32.523  33.550  1.00  0.00    -0.248 NA
ATOM     60  C   UNL A   1      37.641  34.154  33.518  1.00  0.00     0.031 C 
ATOM     61  C   UNL A   1      42.187  31.957  36.887  1.00  0.00     0.029 A 
ATOM     62  C   UNL A   1      41.274  32.152  35.862  1.00  0.00     0.049 A 
ATOM     63  H   UNL A   1      41.021  31.052  34.080  1.00  0.00     0.167 HD
ATOM     64  C   UNL A   1      39.392  33.283  34.713  1.00  0.00     0.074 A 
ATOM     65  C   UNL A   1      38.357  34.291  34.625  1.00  0.00     0.031 C 
ATOM     66  C   UNL A   1      40.247  33.158  35.758  1.00  0.00     0.031 A 
BRANCH  53  67
ATOM     67  C   UNL A   1      44.249  28.479  35.194  1.00  0.00    -0.014 A 
ATOM     68  C   UNL A   1      45.586  28.730  34.843  1.00  0.00     0.010 A 
ATOM     69  C   UNL A   1      43.968  27.493  36.159  1.00  0.00     0.010 A 
ATOM     70  C   UNL A   1      46.619  27.983  35.418  1.00  0.00     0.020 A 
ATOM     71  C   UNL A   1      44.998  26.768  36.761  1.00  0.00     0.020 A 
ATOM     72  C   UNL A   1      46.317  27.007  36.373  1.00  0.00     0.054 A 
BRANCH  72  73
ATOM     73  S   UNL A   1      47.678  26.069  37.120  1.00  0.00     0.124 S 
ATOM     74  O   UNL A   1      47.514  26.379  38.539  1.00  0.00    -0.237 OA
ATOM     75  O   UNL A   1      47.367  24.695  36.737  1.00  0.00    -0.237 OA
ATOM     76  O   UNL A   1      48.873  26.632  36.496  1.00  0.00    -0.744 OA
ENDBRANCH  72  73
ENDBRANCH  53  67
BRANCH  54  77
ATOM     77  C   UNL A   1      36.657  33.341  30.875  1.00  0.00    -0.014 A 
ATOM     78  C   UNL A   1      36.840  34.172  29.757  1.00  0.00     0.010 A 
ATOM     79  C   UNL A   1      35.363  33.201  31.414  1.00  0.00     0.010 A 
ATOM     80  C   UNL A   1      35.757  34.861  29.200  1.00  0.00     0.020 A 
ATOM     81  C   UNL A   1      34.273  33.860  30.840  1.00  0.00     0.020 A 
ATOM     82  C   UNL A   1      34.479  34.696  29.742  1.00  0.00     0.054 A 
BRANCH  82  83
ATOM     83  S   UNL A   1      33.081  35.559  28.971  1.00  0.00     0.124 S 
ATOM     84  O   UNL A   1      32.408  34.475  28.263  1.00  0.00    -0.237 OA
ATOM     85  O   UNL A   1      32.369  36.098  30.127  1.00  0.00    -0.237 OA
ATOM     86  O   UNL A   1      33.722  36.560  28.121  1.00  0.00    -0.744 OA
ENDBRANCH  82  83
ENDBRANCH  54  77
BRANCH  66  87
ATOM     87  C   UNL A   1      40.148  34.167  36.875  1.00  0.00    -0.014 A 
ATOM     88  C   UNL A   1      40.935  35.331  36.887  1.00  0.00     0.010 A 
ATOM     89  C   UNL A   1      39.189  33.978  37.889  1.00  0.00     0.010 A 
ATOM     90  C   UNL A   1      40.779  36.278  37.905  1.00  0.00     0.020 A 
ATOM     91  C   UNL A   1      39.010  34.936  38.890  1.00  0.00     0.020 A 
ATOM     92  C   UNL A   1      39.815  36.076  38.897  1.00  0.00     0.054 A 
BRANCH  92  93
ATOM     93  S   UNL A   1      39.593  37.348  40.171  1.00  0.00     0.124 S 
ATOM     94  O   UNL A   1      40.641  38.307  39.831  1.00  0.00    -0.237 OA
ATOM     95  O   UNL A   1      38.225  37.804  39.933  1.00  0.00    -0.237 OA
ATOM     96  O   UNL A   1      39.793  36.625  41.425  1.00  0.00    -0.744 OA
ENDBRANCH  92  93
ENDBRANCH  66  87
ENDBRANCH  40  41
ENDBRANCH  33  35
ENDBRANCH  32  33
ENDBRANCH  31  32
ENDBRANCH  30  31
ENDBRANCH  29  30
ENDBRANCH  28  29
ENDBRANCH   1  28
TORSDOF 26
ENDMDL
MODEL 3
REMARK VINA RESULT:      -8.7      3.614      8.974
REMARK SMILES CC(C)(C)OC(=O)N[C@H](Cc1ccc(O)c(Cl)c1)C(=O)OCCOCCOCCOC(=O)c1ccc(-c2c3nc(c(-c4ccc(S(=O)(=O)[O-])cc4)c4ccc([nH]4)c(-c4ccc(S(=O)(=O)[O-])cc4)c4nc(c(-c5ccc(S(=O)(=O)[O-])cc5)c5ccc2[nH]5)C=C4)C=C3)cc1
REMARK SMILES IDX 25 1 24 2 23 3 22 4 21 5 19 6 20 7 9 8 8 9 6 10 7 11 5 13
REMARK SMILES IDX 2 14 1 15 3 16 4 17 10 18 11 19 12 20 18 21 13 22 16 23
REMARK SMILES IDX 14 24 17 25 15 26 26 28 27 29 28 30 29 31 30 32 31 33 32 34
REMARK SMILES IDX 33 35 34 36 92 37 35 38 91 39 36 40 37 41 38 42 85 43 39 44
REMARK SMILES IDX 90 45 84 46 86 47 40 48 89 49 83 50 82 51 41 53 71 54 52 55
REMARK SMILES IDX 70 56 53 57 56 58 69 59 87 60 54 61 55 62 68 64 88 65 57 66
REMARK SMILES IDX 42 67 43 68 51 69 44 70 50 71 45 72 46 73 47 74 48 75 49 76
REMARK SMILES IDX 72 77 73 78 81 79 74 80 80 81 75 82 76 83 77 84 78 85 79 86
REMARK SMILES IDX 58 87 59 88 67 89 60 90 66 91 61 92 62 93 63 94 64 95 65 96
REMARK H PARENT 8 12 15 27 86 52 56 63
REMARK Flexibility Score: inf
ROOT
ATOM      1  C   UNL A   1      37.866  22.934  26.076  1.00  0.00     0.188 C 
ENDROOT
BRANCH   1   2
ATOM      2  O   UNL A   1      37.645  23.762  24.946  1.00  0.00    -0.376 OA
BRANCH   2   3
ATOM      3  C   UNL A   1      36.308  23.967  24.506  1.00  0.00     0.202 C 
BRANCH   3   4
ATOM      4  C   UNL A   1      35.193  24.227  25.538  1.00  0.00     0.261 C 
BRANCH   4   5
ATOM      5  O   UNL A   1      34.354  25.383  25.276  1.00  0.00    -0.462 OA
BRANCH   5   6
ATOM      6  C   UNL A   1      33.475  25.242  24.257  1.00  0.00     0.329 C 
ATOM      7  O   UNL A   1      33.674  25.711  23.134  1.00  0.00    -0.250 OA
BRANCH   6   8
ATOM      8  C   UNL A   1      32.173  24.443  24.536  1.00  0.00     0.199 C 
BRANCH   8   9
ATOM      9  N   UNL A   1      32.210  23.410  23.486  1.00  0.00    -0.308 N 
ATOM     10  C   UNL A   1      32.051  22.066  23.643  1.00  0.00     0.408 C 
ATOM     11  O   UNL A   1      31.901  21.325  22.686  1.00  0.00    -0.225 OA
ATOM     12  H   UNL A   1      32.367  23.728  22.567  1.00  0.00     0.168 HD
BRANCH  10  13
ATOM     13  O   UNL A   1      32.150  21.678  24.936  1.00  0.00    -0.444 OA
BRANCH  13  14
ATOM     14  C   UNL A   1      33.171  20.738  25.351  1.00  0.00     0.106 C 
ATOM     15  C   UNL A   1      33.384  21.011  26.852  1.00  0.00     0.056 C 
ATOM     16  C   UNL A   1      34.504  21.002  24.637  1.00  0.00     0.056 C 
ATOM     17  C   UNL A   1      32.677  19.305  25.169  1.00  0.00     0.056 C 
ENDBRANCH  13  14
ENDBRANCH  10  13
ENDBRANCH   8   9
BRANCH   8  18
ATOM     18  C   UNL A   1      30.763  25.074  24.713  1.00  0.00     0.072 C 
BRANCH  18  19
ATOM     19  C   UNL A   1      30.550  26.582  24.558  1.00  0.00    -0.044 A 
ATOM     20  C   UNL A   1      31.342  27.451  25.337  1.00  0.00     0.008 A 
ATOM     21  C   UNL A   1      29.734  27.154  23.571  1.00  0.00     0.028 A 
ATOM     22  C   UNL A   1      31.287  28.842  25.173  1.00  0.00     0.048 A 
ATOM     23  C   UNL A   1      29.686  28.545  23.394  1.00  0.00     0.083 A 
ATOM     24  C   UNL A   1      30.449  29.388  24.205  1.00  0.00     0.134 A 
ATOM     25  Cl  UNL A   1      28.661  29.179  22.157  1.00  0.00    -0.080 Cl
BRANCH  24  26
ATOM     26  O   UNL A   1      30.363  30.744  24.058  1.00  0.00    -0.506 OA
ATOM     27  H   UNL A   1      30.069  31.110  23.248  1.00  0.00     0.293 HD
ENDBRANCH  24  26
ENDBRANCH  18  19
ENDBRANCH   8  18
ENDBRANCH   6   8
ENDBRANCH   5   6
ENDBRANCH   4   5
ENDBRANCH   3   4
ENDBRANCH   2   3
ENDBRANCH   1   2
BRANCH   1  28
ATOM     28  C   UNL A   1      38.486  21.547  25.851  1.00  0.00     0.188 C 
BRANCH  28  29
ATOM     29  O   UNL A   1      39.858  21.401  26.099  1.00  0.00    -0.376 OA
BRANCH  29  30
ATOM     30  C   UNL A   1      40.520  22.312  26.957  1.00  0.00     0.202 C 
BRANCH  30  31
ATOM     31  C   UNL A   1      41.314  23.558  26.507  1.00  0.00     0.261 C 
BRANCH  31  32
ATOM     32  O   UNL A   1      40.606  24.769  26.223  1.00  0.00    -0.460 OA
BRANCH  32  33
ATOM     33  C   UNL A   1      41.355  25.896  26.127  1.00  0.00     0.338 C 
ATOM     34  O   UNL A   1      41.778  26.412  25.108  1.00  0.00    -0.246 OA
BRANCH  33  35
ATOM     35  C   UNL A   1      41.405  26.533  27.460  1.00  0.00     0.060 A 
ATOM     36  C   UNL A   1      40.424  26.204  28.402  1.00  0.00     0.016 A 
ATOM     37  C   UNL A   1      42.380  27.478  27.768  1.00  0.00     0.016 A 
ATOM     38  C   UNL A   1      40.400  26.823  29.647  1.00  0.00     0.010 A 
ATOM     39  C   UNL A   1      42.341  28.118  29.015  1.00  0.00     0.010 A 
ATOM     40  C   UNL A   1      41.334  27.814  29.951  1.00  0.00    -0.014 A 
BRANCH  40  41
ATOM     41  C   UNL A   1      41.129  28.656  31.157  1.00  0.00     0.031 A 
ATOM     42  C   UNL A   1      40.002  29.651  31.150  1.00  0.00     0.074 A 
ATOM     43  C   UNL A   1      41.875  28.499  32.267  1.00  0.00     0.049 A 
ATOM     44  N   UNL A   1      39.720  30.595  32.009  1.00  0.00    -0.248 NA
ATOM     45  C   UNL A   1      39.066  29.573  30.014  1.00  0.00     0.031 C 
ATOM     46  C   UNL A   1      42.912  27.488  32.462  1.00  0.00     0.029 A 
ATOM     47  N   UNL A   1      41.866  29.201  33.449  1.00  0.00    -0.354 N 
ATOM     48  C   UNL A   1      38.606  31.249  31.498  1.00  0.00     0.074 A 
ATOM     49  C   UNL A   1      38.269  30.603  30.249  1.00  0.00     0.031 C 
ATOM     50  C   UNL A   1      43.442  27.636  33.688  1.00  0.00     0.029 A 
ATOM     51  C   UNL A   1      42.832  28.794  34.339  1.00  0.00     0.049 A 
ATOM     52  H   UNL A   1      41.228  29.925  33.641  1.00  0.00     0.167 HD
ATOM     53  C   UNL A   1      37.929  32.298  32.021  1.00  0.00     0.031 A 
ATOM     54  C   UNL A   1      43.212  29.321  35.521  1.00  0.00     0.031 A 
ATOM     55  C   UNL A   1      38.257  32.921  33.275  1.00  0.00     0.049 A 
ATOM     56  C   UNL A   1      42.512  30.553  36.037  1.00  0.00     0.074 A 
ATOM     57  C   UNL A   1      37.640  33.999  33.886  1.00  0.00     0.029 A 
ATOM     58  N   UNL A   1      39.283  32.518  34.116  1.00  0.00    -0.354 N 
ATOM     59  N   UNL A   1      41.501  31.208  35.515  1.00  0.00    -0.248 NA
ATOM     60  C   UNL A   1      43.007  31.124  37.299  1.00  0.00     0.031 C 
ATOM     61  C   UNL A   1      38.333  34.288  35.065  1.00  0.00     0.029 A 
ATOM     62  C   UNL A   1      39.334  33.342  35.227  1.00  0.00     0.049 A 
ATOM     63  H   UNL A   1      39.887  31.759  33.947  1.00  0.00     0.167 HD
ATOM     64  C   UNL A   1      41.220  32.245  36.401  1.00  0.00     0.074 A 
ATOM     65  C   UNL A   1      42.161  32.126  37.495  1.00  0.00     0.031 C 
ATOM     66  C   UNL A   1      40.268  33.207  36.316  1.00  0.00     0.031 A 
BRANCH  53  67
ATOM     67  C   UNL A   1      36.807  32.882  31.204  1.00  0.00    -0.014 A 
ATOM     68  C   UNL A   1      35.458  32.663  31.533  1.00  0.00     0.010 A 
ATOM     69  C   UNL A   1      37.117  33.697  30.099  1.00  0.00     0.010 A 
ATOM     70  C   UNL A   1      34.441  33.218  30.750  1.00  0.00     0.020 A 
ATOM     71  C   UNL A   1      36.106  34.280  29.334  1.00  0.00     0.020 A 
ATOM     72  C   UNL A   1      34.773  34.022  29.655  1.00  0.00     0.054 A 
BRANCH  72  73
ATOM     73  S   UNL A   1      33.434  34.748  28.670  1.00  0.00     0.124 S 
ATOM     74  O   UNL A   1      32.495  35.174  29.706  1.00  0.00    -0.237 OA
ATOM     75  O   UNL A   1      34.111  35.826  27.955  1.00  0.00    -0.237 OA
ATOM     76  O   UNL A   1      32.975  33.640  27.835  1.00  0.00    -0.744 OA
ENDBRANCH  72  73
ENDBRANCH  53  67
BRANCH  54  77
ATOM     77  C   UNL A   1      44.353  28.726  36.273  1.00  0.00    -0.014 A 
ATOM     78  C   UNL A   1      44.148  27.694  37.205  1.00  0.00     0.010 A 
ATOM     79  C   UNL A   1      45.662  29.205  36.067  1.00  0.00     0.010 A 
ATOM     80  C   UNL A   1      45.224  27.163  37.925  1.00  0.00     0.020 A 
ATOM     81  C   UNL A   1      46.744  28.655  36.758  1.00  0.00     0.020 A 
ATOM     82  C   UNL A   1      46.516  27.644  37.693  1.00  0.00     0.054 A 
BRANCH  82  83
ATOM     83  S   UNL A   1      47.904  26.906  38.600  1.00  0.00     0.124 S 
ATOM     84  O   UNL A   1      48.604  26.178  37.547  1.00  0.00    -0.237 OA
ATOM     85  O   UNL A   1      48.595  28.080  39.127  1.00  0.00    -0.237 OA
ATOM     86  O   UNL A   1      47.250  26.073  39.608  1.00  0.00    -0.744 OA
ENDBRANCH  82  83
ENDBRANCH  54  77
BRANCH  66  87
ATOM     87  C   UNL A   1      40.146  34.181  37.461  1.00  0.00    -0.014 A 
ATOM     88  C   UNL A   1      40.926  35.349  37.520  1.00  0.00     0.010 A 
ATOM     89  C   UNL A   1      39.172  33.957  38.453  1.00  0.00     0.010 A 
ATOM     90  C   UNL A   1      40.749  36.264  38.563  1.00  0.00     0.020 A 
ATOM     91  C   UNL A   1      38.972  34.884  39.479  1.00  0.00     0.020 A 
ATOM     92  C   UNL A   1      39.771  36.028  39.533  1.00  0.00     0.054 A 
BRANCH  92  93
ATOM     93  S   UNL A   1      39.521  37.260  40.841  1.00  0.00     0.124 S 
ATOM     94  O   UNL A   1      39.228  36.420  41.999  1.00  0.00    -0.237 OA
ATOM     95  O   UNL A   1      40.806  37.952  40.877  1.00  0.00    -0.237 OA
ATOM     96  O   UNL A   1      38.401  38.062  40.355  1.00  0.00    -0.744 OA
ENDBRANCH  92  93
ENDBRANCH  66  87
ENDBRANCH  40  41
ENDBRANCH  33  35
ENDBRANCH  32  33
ENDBRANCH  31  32
ENDBRANCH  30  31
ENDBRANCH  29  30
ENDBRANCH  28  29
ENDBRANCH   1  28
TORSDOF 26
ENDMDL
