MODEL 1
REMARK VINA RESULT:      -9.3      0.000      0.000
REMARK SMILES CSCc1ccc(C(=O)N[C@H]2C=C[C@@H](C(=O)OCCOCCOCCOC(=O)c3ccc(-c4c5nc(c(-c6ccc(S(=O)(=O)[O-])cc6)c6ccc([nH]6)c(-c6ccc(S(=O)(=O)[O-])cc6)c6nc(c(-c7ccc(S(=O)(=O)[O-])cc7)c7ccc4[nH]7)C=C6)C=C5)cc3)C2)o1
REMARK SMILES IDX 21 1 20 2 19 3 18 4 17 5 15 6 16 7 14 8 11 9 12 10 89 11
REMARK SMILES IDX 13 12 10 13 8 14 9 15 7 17 4 18 5 19 90 20 6 21 3 22 2 23
REMARK SMILES IDX 1 24 22 25 23 26 24 27 25 28 26 29 27 30 28 31 29 32 30 33
REMARK SMILES IDX 88 34 31 35 87 36 32 37 33 38 34 39 81 40 35 41 86 42 80 43
REMARK SMILES IDX 82 44 36 45 85 46 79 47 78 48 37 50 67 51 48 52 66 53 49 54
REMARK SMILES IDX 52 55 65 56 83 57 50 58 51 59 64 61 84 62 53 63 38 64 39 65
REMARK SMILES IDX 47 66 40 67 46 68 41 69 42 70 43 71 44 72 45 73 68 74 69 75
REMARK SMILES IDX 77 76 70 77 76 78 71 79 72 80 73 81 74 82 75 83 54 84 55 85
REMARK SMILES IDX 63 86 56 87 62 88 57 89 58 90 59 91 60 92 61 93
REMARK H PARENT 10 16 82 49 52 60
REMARK Flexibility Score: inf
ROOT
ATOM      1  C   UNL A   1      36.992  20.734  25.059  1.00  0.00     0.188 C 
ENDROOT
BRANCH   1   2
ATOM      2  O   UNL A   1      35.621  21.104  25.135  1.00  0.00    -0.376 OA
BRANCH   2   3
ATOM      3  C   UNL A   1      35.257  22.451  24.834  1.00  0.00     0.202 C 
BRANCH   3   4
ATOM      4  C   UNL A   1      34.629  23.311  25.948  1.00  0.00     0.261 C 
BRANCH   4   5
ATOM      5  O   UNL A   1      33.926  24.463  25.440  1.00  0.00    -0.463 OA
BRANCH   5   6
ATOM      6  C   UNL A   1      32.694  24.262  24.898  1.00  0.00     0.312 C 
ATOM      7  O   UNL A   1      31.663  24.179  25.554  1.00  0.00    -0.252 OA
BRANCH   6   8
ATOM      8  C   UNL A   1      32.734  24.284  23.351  1.00  0.00     0.124 C 
ATOM      9  C   UNL A   1      31.863  26.004  21.798  1.00  0.00     0.106 C 
ATOM     10  C   UNL A   1      33.320  26.149  22.001  1.00  0.00    -0.006 C 
ATOM     11  C   UNL A   1      31.462  24.812  22.660  1.00  0.00     0.048 C 
ATOM     12  C   UNL A   1      33.804  25.189  22.801  1.00  0.00    -0.014 C 
BRANCH   9  13
ATOM     13  N   UNL A   1      31.048  27.178  22.023  1.00  0.00    -0.343 N 
ATOM     14  C   UNL A   1      30.640  27.955  23.075  1.00  0.00     0.287 C 
ATOM     15  O   UNL A   1      29.757  28.772  22.787  1.00  0.00    -0.266 OA
ATOM     16  H   UNL A   1      30.680  27.517  21.175  1.00  0.00     0.164 HD
BRANCH  14  17
ATOM     17  C   UNL A   1      31.212  27.888  24.402  1.00  0.00     0.191 A 
ATOM     18  C   UNL A   1      32.809  28.355  25.872  1.00  0.00     0.114 A 
ATOM     19  C   UNL A   1      31.871  27.619  26.552  1.00  0.00     0.047 A 
ATOM     20  O   UNL A   1      32.434  28.505  24.571  1.00  0.00    -0.455 OA
ATOM     21  C   UNL A   1      30.834  27.384  25.627  1.00  0.00     0.056 A 
BRANCH  18  22
ATOM     22  C   UNL A   1      34.057  29.026  26.290  1.00  0.00     0.144 C 
BRANCH  22  23
ATOM     23  S   UNL A   1      33.702  30.536  27.256  1.00  0.00    -0.157 SA
ATOM     24  C   UNL A   1      35.395  30.987  27.720  1.00  0.00     0.085 C 
ENDBRANCH  22  23
ENDBRANCH  18  22
ENDBRANCH  14  17
ENDBRANCH   9  13
ENDBRANCH   6   8
ENDBRANCH   5   6
ENDBRANCH   4   5
ENDBRANCH   3   4
ENDBRANCH   2   3
ENDBRANCH   1   2
BRANCH   1  25
ATOM     25  C   UNL A   1      38.051  21.810  25.333  1.00  0.00     0.188 C 
BRANCH  25  26
ATOM     26  O   UNL A   1      39.225  21.352  25.952  1.00  0.00    -0.376 OA
BRANCH  26  27
ATOM     27  C   UNL A   1      40.020  22.249  26.701  1.00  0.00     0.202 C 
BRANCH  27  28
ATOM     28  C   UNL A   1      41.563  22.236  26.665  1.00  0.00     0.261 C 
BRANCH  28  29
ATOM     29  O   UNL A   1      42.269  23.280  27.350  1.00  0.00    -0.460 OA
BRANCH  29  30
ATOM     30  C   UNL A   1      42.464  24.442  26.674  1.00  0.00     0.338 C 
ATOM     31  O   UNL A   1      42.681  24.565  25.487  1.00  0.00    -0.246 OA
BRANCH  30  32
ATOM     32  C   UNL A   1      42.082  25.550  27.590  1.00  0.00     0.060 A 
ATOM     33  C   UNL A   1      42.898  26.692  27.651  1.00  0.00     0.016 A 
ATOM     34  C   UNL A   1      40.915  25.481  28.348  1.00  0.00     0.016 A 
ATOM     35  C   UNL A   1      42.559  27.756  28.490  1.00  0.00     0.010 A 
ATOM     36  C   UNL A   1      40.592  26.535  29.209  1.00  0.00     0.010 A 
ATOM     37  C   UNL A   1      41.425  27.664  29.307  1.00  0.00    -0.014 A 
BRANCH  37  38
ATOM     38  C   UNL A   1      41.215  28.638  30.408  1.00  0.00     0.031 A 
ATOM     39  C   UNL A   1      42.102  28.538  31.621  1.00  0.00     0.074 A 
ATOM     40  C   UNL A   1      40.264  29.589  30.347  1.00  0.00     0.049 A 
ATOM     41  N   UNL A   1      42.054  29.207  32.742  1.00  0.00    -0.248 NA
ATOM     42  C   UNL A   1      43.185  27.542  31.558  1.00  0.00     0.031 C 
ATOM     43  C   UNL A   1      39.377  29.832  29.212  1.00  0.00     0.029 A 
ATOM     44  N   UNL A   1      39.880  30.521  31.280  1.00  0.00    -0.354 N 
ATOM     45  C   UNL A   1      43.087  28.705  33.525  1.00  0.00     0.074 A 
ATOM     46  C   UNL A   1      43.728  27.657  32.760  1.00  0.00     0.031 C 
ATOM     47  C   UNL A   1      38.541  30.839  29.520  1.00  0.00     0.029 A 
ATOM     48  C   UNL A   1      38.805  31.284  30.889  1.00  0.00     0.049 A 
ATOM     49  H   UNL A   1      40.333  30.633  32.147  1.00  0.00     0.167 HD
ATOM     50  C   UNL A   1      43.471  29.080  34.767  1.00  0.00     0.031 A 
ATOM     51  C   UNL A   1      38.097  32.211  31.568  1.00  0.00     0.031 A 
ATOM     52  C   UNL A   1      42.822  30.108  35.535  1.00  0.00     0.049 A 
ATOM     53  C   UNL A   1      38.486  32.551  32.986  1.00  0.00     0.074 A 
ATOM     54  C   UNL A   1      43.144  30.567  36.801  1.00  0.00     0.029 A 
ATOM     55  N   UNL A   1      41.715  30.831  35.117  1.00  0.00    -0.354 N 
ATOM     56  N   UNL A   1      39.475  32.079  33.707  1.00  0.00    -0.248 NA
ATOM     57  C   UNL A   1      37.664  33.554  33.679  1.00  0.00     0.031 C 
ATOM     58  C   UNL A   1      42.192  31.521  37.174  1.00  0.00     0.029 A 
ATOM     59  C   UNL A   1      41.323  31.711  36.112  1.00  0.00     0.049 A 
ATOM     60  H   UNL A   1      41.274  30.733  34.243  1.00  0.00     0.167 HD
ATOM     61  C   UNL A   1      39.414  32.753  34.924  1.00  0.00     0.074 A 
ATOM     62  C   UNL A   1      38.299  33.673  34.837  1.00  0.00     0.031 C 
ATOM     63  C   UNL A   1      40.212  32.626  36.014  1.00  0.00     0.031 A 
BRANCH  50  64
ATOM     64  C   UNL A   1      44.625  28.339  35.392  1.00  0.00    -0.014 A 
ATOM     65  C   UNL A   1      45.948  28.801  35.261  1.00  0.00     0.010 A 
ATOM     66  C   UNL A   1      44.377  27.180  36.149  1.00  0.00     0.010 A 
ATOM     67  C   UNL A   1      47.003  28.096  35.844  1.00  0.00     0.020 A 
ATOM     68  C   UNL A   1      45.427  26.490  36.761  1.00  0.00     0.020 A 
ATOM     69  C   UNL A   1      46.736  26.943  36.589  1.00  0.00     0.054 A 
BRANCH  69  70
ATOM     70  S   UNL A   1      48.124  26.062  37.354  1.00  0.00     0.124 S 
ATOM     71  O   UNL A   1      49.156  27.097  37.385  1.00  0.00    -0.237 OA
ATOM     72  O   UNL A   1      47.581  25.678  38.655  1.00  0.00    -0.237 OA
ATOM     73  O   UNL A   1      48.382  24.956  36.437  1.00  0.00    -0.744 OA
ENDBRANCH  69  70
ENDBRANCH  50  64
BRANCH  51  74
ATOM     74  C   UNL A   1      36.927  32.874  30.926  1.00  0.00    -0.014 A 
ATOM     75  C   UNL A   1      37.107  33.960  30.050  1.00  0.00     0.010 A 
ATOM     76  C   UNL A   1      35.619  32.429  31.198  1.00  0.00     0.010 A 
ATOM     77  C   UNL A   1      36.004  34.595  29.470  1.00  0.00     0.020 A 
ATOM     78  C   UNL A   1      34.517  33.042  30.596  1.00  0.00     0.020 A 
ATOM     79  C   UNL A   1      34.716  34.129  29.743  1.00  0.00     0.054 A 
BRANCH  79  80
ATOM     80  S   UNL A   1      33.305  34.934  28.934  1.00  0.00     0.124 S 
ATOM     81  O   UNL A   1      33.939  36.074  28.280  1.00  0.00    -0.237 OA
ATOM     82  O   UNL A   1      32.814  33.884  28.045  1.00  0.00    -0.237 OA
ATOM     83  O   UNL A   1      32.417  35.266  30.046  1.00  0.00    -0.744 OA
ENDBRANCH  79  80
ENDBRANCH  51  74
BRANCH  63  84
ATOM     84  C   UNL A   1      39.946  33.531  37.191  1.00  0.00    -0.014 A 
ATOM     85  C   UNL A   1      40.574  34.784  37.313  1.00  0.00     0.010 A 
ATOM     86  C   UNL A   1      39.000  33.144  38.159  1.00  0.00     0.010 A 
ATOM     87  C   UNL A   1      40.284  35.617  38.398  1.00  0.00     0.020 A 
ATOM     88  C   UNL A   1      38.684  33.988  39.228  1.00  0.00     0.020 A 
ATOM     89  C   UNL A   1      39.339  35.214  39.348  1.00  0.00     0.054 A 
BRANCH  89  90
ATOM     90  S   UNL A   1      38.949  36.333  40.722  1.00  0.00     0.124 S 
ATOM     91  O   UNL A   1      40.230  36.415  41.420  1.00  0.00    -0.237 OA
ATOM     92  O   UNL A   1      38.530  37.550  40.033  1.00  0.00    -0.237 OA
ATOM     93  O   UNL A   1      37.889  35.637  41.447  1.00  0.00    -0.744 OA
ENDBRANCH  89  90
ENDBRANCH  63  84
ENDBRANCH  37  38
ENDBRANCH  30  32
ENDBRANCH  29  30
ENDBRANCH  28  29
ENDBRANCH  27  28
ENDBRANCH  26  27
ENDBRANCH  25  26
ENDBRANCH   1  25
TORSDOF 24
ENDMDL
MODEL 2
REMARK VINA RESULT:      -8.9      1.376      8.332
REMARK SMILES CSCc1ccc(C(=O)N[C@H]2C=C[C@@H](C(=O)OCCOCCOCCOC(=O)c3ccc(-c4c5nc(c(-c6ccc(S(=O)(=O)[O-])cc6)c6ccc([nH]6)c(-c6ccc(S(=O)(=O)[O-])cc6)c6nc(c(-c7ccc(S(=O)(=O)[O-])cc7)c7ccc4[nH]7)C=C6)C=C5)cc3)C2)o1
REMARK SMILES IDX 21 1 20 2 19 3 18 4 17 5 15 6 16 7 14 8 11 9 12 10 89 11
REMARK SMILES IDX 13 12 10 13 8 14 9 15 7 17 4 18 5 19 90 20 6 21 3 22 2 23
REMARK SMILES IDX 1 24 22 25 23 26 24 27 25 28 26 29 27 30 28 31 29 32 30 33
REMARK SMILES IDX 88 34 31 35 87 36 32 37 33 38 34 39 81 40 35 41 86 42 80 43
REMARK SMILES IDX 82 44 36 45 85 46 79 47 78 48 37 50 67 51 48 52 66 53 49 54
REMARK SMILES IDX 52 55 65 56 83 57 50 58 51 59 64 61 84 62 53 63 38 64 39 65
REMARK SMILES IDX 47 66 40 67 46 68 41 69 42 70 43 71 44 72 45 73 68 74 69 75
REMARK SMILES IDX 77 76 70 77 76 78 71 79 72 80 73 81 74 82 75 83 54 84 55 85
REMARK SMILES IDX 63 86 56 87 62 88 57 89 58 90 59 91 60 92 61 93
REMARK H PARENT 10 16 82 49 52 60
REMARK Flexibility Score: inf
ROOT
ATOM      1  C   UNL A   1      41.681  23.055  28.125  1.00  0.00     0.188 C 
ENDROOT
BRANCH   1   2
ATOM      2  O   UNL A   1      40.450  22.707  27.503  1.00  0.00    -0.376 OA
BRANCH   2   3
ATOM      3  C   UNL A   1      39.918  23.576  26.502  1.00  0.00     0.202 C 
BRANCH   3   4
ATOM      4  C   UNL A   1      38.635  24.368  26.821  1.00  0.00     0.261 C 
BRANCH   4   5
ATOM      5  O   UNL A   1      37.438  23.577  26.682  1.00  0.00    -0.463 OA
BRANCH   5   6
ATOM      6  C   UNL A   1      36.793  23.614  25.484  1.00  0.00     0.312 C 
ATOM      7  O   UNL A   1      37.355  23.510  24.400  1.00  0.00    -0.252 OA
BRANCH   6   8
ATOM      8  C   UNL A   1      35.256  23.669  25.658  1.00  0.00     0.124 C 
ATOM      9  C   UNL A   1      33.537  24.457  24.058  1.00  0.00     0.106 C 
ATOM     10  C   UNL A   1      33.648  22.983  24.049  1.00  0.00    -0.006 C 
ATOM     11  C   UNL A   1      34.566  24.922  25.084  1.00  0.00     0.048 C 
ATOM     12  C   UNL A   1      34.541  22.549  24.949  1.00  0.00    -0.014 C 
BRANCH   9  13
ATOM     13  N   UNL A   1      33.649  25.134  22.784  1.00  0.00    -0.343 N 
ATOM     14  C   UNL A   1      32.997  26.117  22.087  1.00  0.00     0.287 C 
ATOM     15  O   UNL A   1      33.361  26.226  20.909  1.00  0.00    -0.266 OA
ATOM     16  H   UNL A   1      34.413  24.789  22.270  1.00  0.00     0.164 HD
BRANCH  14  17
ATOM     17  C   UNL A   1      32.010  27.003  22.665  1.00  0.00     0.191 A 
ATOM     18  C   UNL A   1      31.336  28.434  24.221  1.00  0.00     0.114 A 
ATOM     19  C   UNL A   1      30.288  28.306  23.345  1.00  0.00     0.047 A 
ATOM     20  O   UNL A   1      32.371  27.637  23.835  1.00  0.00    -0.455 OA
ATOM     21  C   UNL A   1      30.751  27.447  22.328  1.00  0.00     0.056 A 
BRANCH  18  22
ATOM     22  C   UNL A   1      31.552  29.279  25.414  1.00  0.00     0.144 C 
BRANCH  22  23
ATOM     23  S   UNL A   1      33.333  29.461  25.779  1.00  0.00    -0.157 SA
ATOM     24  C   UNL A   1      33.404  28.539  27.338  1.00  0.00     0.085 C 
ENDBRANCH  22  23
ENDBRANCH  18  22
ENDBRANCH  14  17
ENDBRANCH   9  13
ENDBRANCH   6   8
ENDBRANCH   5   6
ENDBRANCH   4   5
ENDBRANCH   3   4
ENDBRANCH   2   3
ENDBRANCH   1   2
BRANCH   1  25
ATOM     25  C   UNL A   1      42.986  22.705  27.398  1.00  0.00     0.188 C 
BRANCH  25  26
ATOM     26  O   UNL A   1      42.842  22.321  26.056  1.00  0.00    -0.376 OA
BRANCH  26  27
ATOM     27  C   UNL A   1      43.119  23.249  25.026  1.00  0.00     0.202 C 
BRANCH  27  28
ATOM     28  C   UNL A   1      43.404  24.741  25.294  1.00  0.00     0.261 C 
BRANCH  28  29
ATOM     29  O   UNL A   1      42.290  25.629  25.461  1.00  0.00    -0.460 OA
BRANCH  29  30
ATOM     30  C   UNL A   1      42.552  26.962  25.435  1.00  0.00     0.338 C 
ATOM     31  O   UNL A   1      42.638  27.667  24.452  1.00  0.00    -0.246 OA
BRANCH  30  32
ATOM     32  C   UNL A   1      42.432  27.459  26.832  1.00  0.00     0.060 A 
ATOM     33  C   UNL A   1      41.528  26.828  27.702  1.00  0.00     0.016 A 
ATOM     34  C   UNL A   1      43.228  28.510  27.287  1.00  0.00     0.016 A 
ATOM     35  C   UNL A   1      41.404  27.262  29.024  1.00  0.00     0.010 A 
ATOM     36  C   UNL A   1      43.081  28.962  28.603  1.00  0.00     0.010 A 
ATOM     37  C   UNL A   1      42.150  28.361  29.469  1.00  0.00    -0.014 A 
BRANCH  37  38
ATOM     38  C   UNL A   1      41.818  29.018  30.759  1.00  0.00     0.031 A 
ATOM     39  C   UNL A   1      40.613  29.921  30.805  1.00  0.00     0.074 A 
ATOM     40  C   UNL A   1      42.559  28.829  31.866  1.00  0.00     0.049 A 
ATOM     41  N   UNL A   1      40.175  30.673  31.779  1.00  0.00    -0.248 NA
ATOM     42  C   UNL A   1      39.798  29.984  29.580  1.00  0.00     0.031 C 
ATOM     43  C   UNL A   1      43.713  27.940  31.975  1.00  0.00     0.029 A 
ATOM     44  N   UNL A   1      42.450  29.394  33.114  1.00  0.00    -0.354 N 
ATOM     45  C   UNL A   1      39.045  31.312  31.283  1.00  0.00     0.074 A 
ATOM     46  C   UNL A   1      38.880  30.878  29.913  1.00  0.00     0.031 C 
ATOM     47  C   UNL A   1      44.217  28.031  33.219  1.00  0.00     0.029 A 
ATOM     48  C   UNL A   1      43.447  29.014  33.981  1.00  0.00     0.049 A 
ATOM     49  H   UNL A   1      41.726  30.013  33.364  1.00  0.00     0.167 HD
ATOM     50  C   UNL A   1      38.218  32.181  31.909  1.00  0.00     0.031 A 
ATOM     51  C   UNL A   1      43.724  29.434  35.234  1.00  0.00     0.031 A 
ATOM     52  C   UNL A   1      38.393  32.627  33.265  1.00  0.00     0.049 A 
ATOM     53  C   UNL A   1      42.840  30.471  35.882  1.00  0.00     0.074 A 
ATOM     54  C   UNL A   1      37.601  33.499  33.992  1.00  0.00     0.029 A 
ATOM     55  N   UNL A   1      39.435  32.246  34.097  1.00  0.00    -0.354 N 
ATOM     56  N   UNL A   1      41.765  31.055  35.407  1.00  0.00    -0.248 NA
ATOM     57  C   UNL A   1      43.205  30.902  37.240  1.00  0.00     0.031 C 
ATOM     58  C   UNL A   1      38.200  33.696  35.240  1.00  0.00     0.029 A 
ATOM     59  C   UNL A   1      39.323  32.888  35.318  1.00  0.00     0.049 A 
ATOM     60  H   UNL A   1      40.148  31.612  33.854  1.00  0.00     0.167 HD
ATOM     61  C   UNL A   1      41.308  31.894  36.419  1.00  0.00     0.074 A 
ATOM     62  C   UNL A   1      42.215  31.734  37.536  1.00  0.00     0.031 C 
ATOM     63  C   UNL A   1      40.231  32.720  36.426  1.00  0.00     0.031 A 
BRANCH  50  64
ATOM     64  C   UNL A   1      37.067  32.741  31.113  1.00  0.00    -0.014 A 
ATOM     65  C   UNL A   1      35.776  32.188  31.204  1.00  0.00     0.010 A 
ATOM     66  C   UNL A   1      37.275  33.861  30.287  1.00  0.00     0.010 A 
ATOM     67  C   UNL A   1      34.726  32.720  30.453  1.00  0.00     0.020 A 
ATOM     68  C   UNL A   1      36.220  34.416  29.560  1.00  0.00     0.020 A 
ATOM     69  C   UNL A   1      34.954  33.831  29.634  1.00  0.00     0.054 A 
BRANCH  69  70
ATOM     70  S   UNL A   1      33.565  34.514  28.690  1.00  0.00     0.124 S 
ATOM     71  O   UNL A   1      33.219  33.396  27.814  1.00  0.00    -0.237 OA
ATOM     72  O   UNL A   1      32.589  34.819  29.733  1.00  0.00    -0.237 OA
ATOM     73  O   UNL A   1      34.140  35.675  28.017  1.00  0.00    -0.744 OA
ENDBRANCH  69  70
ENDBRANCH  50  64
BRANCH  51  74
ATOM     74  C   UNL A   1      44.908  28.892  35.958  1.00  0.00    -0.014 A 
ATOM     75  C   UNL A   1      46.184  29.452  35.771  1.00  0.00     0.010 A 
ATOM     76  C   UNL A   1      44.766  27.799  36.835  1.00  0.00     0.010 A 
ATOM     77  C   UNL A   1      47.296  28.923  36.434  1.00  0.00     0.020 A 
ATOM     78  C   UNL A   1      45.871  27.288  37.523  1.00  0.00     0.020 A 
ATOM     79  C   UNL A   1      47.132  27.847  37.310  1.00  0.00     0.054 A 
BRANCH  79  80
ATOM     80  S   UNL A   1      48.581  27.215  38.201  1.00  0.00     0.124 S 
ATOM     81  O   UNL A   1      49.589  28.226  37.899  1.00  0.00    -0.237 OA
ATOM     82  O   UNL A   1      48.108  27.184  39.583  1.00  0.00    -0.237 OA
ATOM     83  O   UNL A   1      48.808  25.904  37.597  1.00  0.00    -0.744 OA
ENDBRANCH  79  80
ENDBRANCH  51  74
BRANCH  63  84
ATOM     84  C   UNL A   1      39.938  33.483  37.693  1.00  0.00    -0.014 A 
ATOM     85  C   UNL A   1      40.181  34.865  37.794  1.00  0.00     0.010 A 
ATOM     86  C   UNL A   1      39.345  32.813  38.781  1.00  0.00     0.010 A 
ATOM     87  C   UNL A   1      39.869  35.554  38.970  1.00  0.00     0.020 A 
ATOM     88  C   UNL A   1      39.002  33.504  39.946  1.00  0.00     0.020 A 
ATOM     89  C   UNL A   1      39.279  34.869  40.039  1.00  0.00     0.054 A 
BRANCH  89  90
ATOM     90  S   UNL A   1      38.843  35.795  41.537  1.00  0.00     0.124 S 
ATOM     91  O   UNL A   1      37.458  35.386  41.754  1.00  0.00    -0.237 OA
ATOM     92  O   UNL A   1      39.807  35.296  42.513  1.00  0.00    -0.237 OA
ATOM     93  O   UNL A   1      39.024  37.192  41.147  1.00  0.00    -0.744 OA
ENDBRANCH  89  90
ENDBRANCH  63  84
ENDBRANCH  37  38
ENDBRANCH  30  32
ENDBRANCH  29  30
ENDBRANCH  28  29
ENDBRANCH  27  28
ENDBRANCH  26  27
ENDBRANCH  25  26
ENDBRANCH   1  25
TORSDOF 24
ENDMDL
MODEL 3
REMARK VINA RESULT:      -8.8      0.893      8.068
REMARK SMILES CSCc1ccc(C(=O)N[C@H]2C=C[C@@H](C(=O)OCCOCCOCCOC(=O)c3ccc(-c4c5nc(c(-c6ccc(S(=O)(=O)[O-])cc6)c6ccc([nH]6)c(-c6ccc(S(=O)(=O)[O-])cc6)c6nc(c(-c7ccc(S(=O)(=O)[O-])cc7)c7ccc4[nH]7)C=C6)C=C5)cc3)C2)o1
REMARK SMILES IDX 21 1 20 2 19 3 18 4 17 5 15 6 16 7 14 8 11 9 12 10 89 11
REMARK SMILES IDX 13 12 10 13 8 14 9 15 7 17 4 18 5 19 90 20 6 21 3 22 2 23
REMARK SMILES IDX 1 24 22 25 23 26 24 27 25 28 26 29 27 30 28 31 29 32 30 33
REMARK SMILES IDX 88 34 31 35 87 36 32 37 33 38 34 39 81 40 35 41 86 42 80 43
REMARK SMILES IDX 82 44 36 45 85 46 79 47 78 48 37 50 67 51 48 52 66 53 49 54
REMARK SMILES IDX 52 55 65 56 83 57 50 58 51 59 64 61 84 62 53 63 38 64 39 65
REMARK SMILES IDX 47 66 40 67 46 68 41 69 42 70 43 71 44 72 45 73 68 74 69 75
REMARK SMILES IDX 77 76 70 77 76 78 71 79 72 80 73 81 74 82 75 83 54 84 55 85
REMARK SMILES IDX 63 86 56 87 62 88 57 89 58 90 59 91 60 92 61 93
REMARK H PARENT 10 16 82 49 52 60
REMARK Flexibility Score: inf
ROOT
ATOM      1  C   UNL A   1      36.833  21.357  25.600  1.00  0.00     0.188 C 
ENDROOT
BRANCH   1   2
ATOM      2  O   UNL A   1      35.524  21.680  26.055  1.00  0.00    -0.376 OA
BRANCH   2   3
ATOM      3  C   UNL A   1      34.785  22.682  25.357  1.00  0.00     0.202 C 
BRANCH   3   4
ATOM      4  C   UNL A   1      34.563  24.044  26.042  1.00  0.00     0.261 C 
BRANCH   4   5
ATOM      5  O   UNL A   1      33.515  24.819  25.426  1.00  0.00    -0.463 OA
BRANCH   5   6
ATOM      6  C   UNL A   1      32.659  24.171  24.590  1.00  0.00     0.312 C 
ATOM      7  O   UNL A   1      31.702  23.507  24.970  1.00  0.00    -0.252 OA
BRANCH   6   8
ATOM      8  C   UNL A   1      32.958  24.481  23.103  1.00  0.00     0.124 C 
ATOM      9  C   UNL A   1      32.090  26.322  21.694  1.00  0.00     0.106 C 
ATOM     10  C   UNL A   1      33.446  26.623  22.199  1.00  0.00    -0.006 C 
ATOM     11  C   UNL A   1      31.753  24.949  22.265  1.00  0.00     0.048 C 
ATOM     12  C   UNL A   1      33.940  25.608  22.922  1.00  0.00    -0.014 C 
BRANCH   9  13
ATOM     13  N   UNL A   1      31.063  27.313  21.933  1.00  0.00    -0.343 N 
ATOM     14  C   UNL A   1      30.508  27.977  22.995  1.00  0.00     0.287 C 
ATOM     15  O   UNL A   1      29.486  28.615  22.713  1.00  0.00    -0.266 OA
ATOM     16  H   UNL A   1      30.642  27.592  21.088  1.00  0.00     0.164 HD
BRANCH  14  17
ATOM     17  C   UNL A   1      31.076  27.996  24.325  1.00  0.00     0.191 A 
ATOM     18  C   UNL A   1      32.353  28.905  25.897  1.00  0.00     0.114 A 
ATOM     19  C   UNL A   1      31.819  27.770  26.452  1.00  0.00     0.047 A 
ATOM     20  O   UNL A   1      31.931  29.041  24.609  1.00  0.00    -0.455 OA
ATOM     21  C   UNL A   1      30.962  27.238  25.469  1.00  0.00     0.056 A 
BRANCH  18  22
ATOM     22  C   UNL A   1      33.212  29.980  26.435  1.00  0.00     0.144 C 
BRANCH  22  23
ATOM     23  S   UNL A   1      34.502  29.304  27.538  1.00  0.00    -0.157 SA
ATOM     24  C   UNL A   1      35.581  30.757  27.646  1.00  0.00     0.085 C 
ENDBRANCH  22  23
ENDBRANCH  18  22
ENDBRANCH  14  17
ENDBRANCH   9  13
ENDBRANCH   6   8
ENDBRANCH   5   6
ENDBRANCH   4   5
ENDBRANCH   3   4
ENDBRANCH   2   3
ENDBRANCH   1   2
BRANCH   1  25
ATOM     25  C   UNL A   1      37.930  22.422  25.728  1.00  0.00     0.188 C 
BRANCH  25  26
ATOM     26  O   UNL A   1      39.185  21.944  26.137  1.00  0.00    -0.376 OA
BRANCH  26  27
ATOM     27  C   UNL A   1      40.121  22.832  26.715  1.00  0.00     0.202 C 
BRANCH  27  28
ATOM     28  C   UNL A   1      41.400  23.295  25.987  1.00  0.00     0.261 C 
BRANCH  28  29
ATOM     29  O   UNL A   1      42.125  24.409  26.526  1.00  0.00    -0.460 OA
BRANCH  29  30
ATOM     30  C   UNL A   1      41.618  25.648  26.295  1.00  0.00     0.338 C 
ATOM     31  O   UNL A   1      41.075  26.033  25.280  1.00  0.00    -0.246 OA
BRANCH  30  32
ATOM     32  C   UNL A   1      41.589  26.361  27.600  1.00  0.00     0.060 A 
ATOM     33  C   UNL A   1      40.691  25.929  28.590  1.00  0.00     0.016 A 
ATOM     34  C   UNL A   1      42.463  27.416  27.857  1.00  0.00     0.016 A 
ATOM     35  C   UNL A   1      40.651  26.568  29.831  1.00  0.00     0.010 A 
ATOM     36  C   UNL A   1      42.401  28.074  29.090  1.00  0.00     0.010 A 
ATOM     37  C   UNL A   1      41.477  27.673  30.072  1.00  0.00    -0.014 A 
BRANCH  37  38
ATOM     38  C   UNL A   1      41.241  28.540  31.254  1.00  0.00     0.031 A 
ATOM     39  C   UNL A   1      40.129  29.553  31.179  1.00  0.00     0.074 A 
ATOM     40  C   UNL A   1      41.988  28.443  32.370  1.00  0.00     0.049 A 
ATOM     41  N   UNL A   1      39.789  30.479  32.037  1.00  0.00    -0.248 NA
ATOM     42  C   UNL A   1      39.293  29.517  29.968  1.00  0.00     0.031 C 
ATOM     43  C   UNL A   1      43.055  27.472  32.596  1.00  0.00     0.029 A 
ATOM     44  N   UNL A   1      41.964  29.192  33.521  1.00  0.00    -0.354 N 
ATOM     45  C   UNL A   1      38.712  31.145  31.464  1.00  0.00     0.074 A 
ATOM     46  C   UNL A   1      38.472  30.535  30.175  1.00  0.00     0.031 C 
ATOM     47  C   UNL A   1      43.596  27.693  33.808  1.00  0.00     0.029 A 
ATOM     48  C   UNL A   1      42.941  28.848  34.425  1.00  0.00     0.049 A 
ATOM     49  H   UNL A   1      41.309  29.908  33.685  1.00  0.00     0.167 HD
ATOM     50  C   UNL A   1      37.986  32.173  31.964  1.00  0.00     0.031 A 
ATOM     51  C   UNL A   1      43.288  29.416  35.598  1.00  0.00     0.031 A 
ATOM     52  C   UNL A   1      38.237  32.792  33.237  1.00  0.00     0.049 A 
ATOM     53  C   UNL A   1      42.523  30.618  36.096  1.00  0.00     0.074 A 
ATOM     54  C   UNL A   1      37.549  33.834  33.836  1.00  0.00     0.029 A 
ATOM     55  N   UNL A   1      39.258  32.437  34.105  1.00  0.00    -0.354 N 
ATOM     56  N   UNL A   1      41.496  31.228  35.551  1.00  0.00    -0.248 NA
ATOM     57  C   UNL A   1      42.960  31.204  37.371  1.00  0.00     0.031 C 
ATOM     58  C   UNL A   1      38.195  34.151  35.034  1.00  0.00     0.029 A 
ATOM     59  C   UNL A   1      39.238  33.258  35.220  1.00  0.00     0.049 A 
ATOM     60  H   UNL A   1      39.902  31.708  33.951  1.00  0.00     0.167 HD
ATOM     61  C   UNL A   1      41.146  32.246  36.434  1.00  0.00     0.074 A 
ATOM     62  C   UNL A   1      42.062  32.163  37.553  1.00  0.00     0.031 C 
ATOM     63  C   UNL A   1      40.153  33.165  36.331  1.00  0.00     0.031 A 
BRANCH  50  64
ATOM     64  C   UNL A   1      36.875  32.721  31.106  1.00  0.00    -0.014 A 
ATOM     65  C   UNL A   1      35.543  32.299  31.277  1.00  0.00     0.010 A 
ATOM     66  C   UNL A   1      37.164  33.698  30.136  1.00  0.00     0.010 A 
ATOM     67  C   UNL A   1      34.530  32.816  30.467  1.00  0.00     0.020 A 
ATOM     68  C   UNL A   1      36.148  34.241  29.347  1.00  0.00     0.020 A 
ATOM     69  C   UNL A   1      34.839  33.784  29.506  1.00  0.00     0.054 A 
BRANCH  69  70
ATOM     70  S   UNL A   1      33.498  34.454  28.486  1.00  0.00     0.124 S 
ATOM     71  O   UNL A   1      32.570  34.953  29.500  1.00  0.00    -0.237 OA
ATOM     72  O   UNL A   1      34.177  35.480  27.699  1.00  0.00    -0.237 OA
ATOM     73  O   UNL A   1      33.026  33.299  27.727  1.00  0.00    -0.744 OA
ENDBRANCH  69  70
ENDBRANCH  50  64
BRANCH  51  74
ATOM     74  C   UNL A   1      44.433  28.872  36.383  1.00  0.00    -0.014 A 
ATOM     75  C   UNL A   1      44.239  27.839  37.316  1.00  0.00     0.010 A 
ATOM     76  C   UNL A   1      45.728  29.397  36.208  1.00  0.00     0.010 A 
ATOM     77  C   UNL A   1      45.312  27.349  38.067  1.00  0.00     0.020 A 
ATOM     78  C   UNL A   1      46.808  28.889  36.935  1.00  0.00     0.020 A 
ATOM     79  C   UNL A   1      46.592  27.874  37.868  1.00  0.00     0.054 A 
BRANCH  79  80
ATOM     80  S   UNL A   1      47.977  27.184  38.815  1.00  0.00     0.124 S 
ATOM     81  O   UNL A   1      48.786  26.571  37.767  1.00  0.00    -0.237 OA
ATOM     82  O   UNL A   1      48.549  28.373  39.443  1.00  0.00    -0.237 OA
ATOM     83  O   UNL A   1      47.332  26.251  39.735  1.00  0.00    -0.744 OA
ENDBRANCH  79  80
ENDBRANCH  51  74
BRANCH  63  84
ATOM     84  C   UNL A   1      39.965  34.130  37.474  1.00  0.00    -0.014 A 
ATOM     85  C   UNL A   1      39.479  33.706  38.724  1.00  0.00     0.010 A 
ATOM     86  C   UNL A   1      40.344  35.476  37.310  1.00  0.00     0.010 A 
ATOM     87  C   UNL A   1      39.345  34.617  39.776  1.00  0.00     0.020 A 
ATOM     88  C   UNL A   1      40.242  36.383  38.369  1.00  0.00     0.020 A 
ATOM     89  C   UNL A   1      39.729  35.950  39.592  1.00  0.00     0.054 A 
BRANCH  89  90
ATOM     90  S   UNL A   1      39.587  37.101  40.988  1.00  0.00     0.124 S 
ATOM     91  O   UNL A   1      39.012  36.250  42.026  1.00  0.00    -0.237 OA
ATOM     92  O   UNL A   1      40.971  37.512  41.206  1.00  0.00    -0.237 OA
ATOM     93  O   UNL A   1      38.703  38.150  40.484  1.00  0.00    -0.744 OA
ENDBRANCH  89  90
ENDBRANCH  63  84
ENDBRANCH  37  38
ENDBRANCH  30  32
ENDBRANCH  29  30
ENDBRANCH  28  29
ENDBRANCH  27  28
ENDBRANCH  26  27
ENDBRANCH  25  26
ENDBRANCH   1  25
TORSDOF 24
ENDMDL
