MODEL 1
REMARK VINA RESULT:     -11.0      0.000      0.000
REMARK SMILES CCOC(=O)c1c(NC(=O)[C@@H]2[C@@H](C(=O)OCCOCCOCCOC(=O)c3ccc(-c4c5nc(c(-c6ccc(S(=O)(=O)[O-])cc6)c6ccc([nH]6)c(-c6ccc(S(=O)(=O)[O-])cc6)c6nc(c(-c7ccc(S(=O)(=O)[O-])cc7)c7ccc4[nH]7)C=C6)C=C5)cc3)[C@@H]3C=C[C@H]2CC3)sc2c1CCC2
REMARK SMILES IDX 19 1 18 2 17 3 16 4 15 5 13 6 14 7 12 8 11 9 90 10 87 11
REMARK SMILES IDX 89 12 91 13 88 14 92 15 9 16 8 17 10 19 7 20 6 21 95 22
REMARK SMILES IDX 93 23 94 24 96 25 98 26 97 27 4 28 5 29 3 30 2 31 1 32 20 33
REMARK SMILES IDX 21 34 22 35 23 36 24 37 25 38 26 39 27 40 28 41 86 42 29 43
REMARK SMILES IDX 85 44 30 45 31 46 32 47 79 48 33 49 84 50 78 51 80 52 34 53
REMARK SMILES IDX 83 54 77 55 76 56 35 58 65 59 46 60 64 61 47 62 50 63 63 64
REMARK SMILES IDX 81 65 48 66 49 67 62 69 82 70 51 71 36 72 37 73 45 74 38 75
REMARK SMILES IDX 44 76 39 77 40 78 41 79 42 80 43 81 66 82 67 83 75 84 68 85
REMARK SMILES IDX 74 86 69 87 70 88 71 89 72 90 73 91 52 92 53 93 61 94 54 95
REMARK SMILES IDX 60 96 55 97 56 98 57 99 58 100 59 101
REMARK H PARENT 8 18 80 57 50 68
REMARK Flexibility Score: inf
ROOT
ATOM      1  C   UNL A   1      37.593  22.760  25.305  1.00  0.00     0.188 C 
ENDROOT
BRANCH   1   2
ATOM      2  O   UNL A   1      37.196  22.123  24.095  1.00  0.00    -0.376 OA
BRANCH   2   3
ATOM      3  C   UNL A   1      36.543  22.932  23.137  1.00  0.00     0.202 C 
BRANCH   3   4
ATOM      4  C   UNL A   1      35.416  23.824  23.682  1.00  0.00     0.261 C 
BRANCH   4   5
ATOM      5  O   UNL A   1      34.324  24.115  22.776  1.00  0.00    -0.463 OA
BRANCH   5   6
ATOM      6  C   UNL A   1      33.813  25.372  22.825  1.00  0.00     0.310 C 
ATOM      7  O   UNL A   1      34.041  26.232  21.980  1.00  0.00    -0.252 OA
BRANCH   6   8
ATOM      8  C   UNL A   1      32.986  25.679  24.072  1.00  0.00     0.119 C 
ATOM      9  C   UNL A   1      31.530  26.155  23.861  1.00  0.00     0.100 C 
ATOM     10  C   UNL A   1      31.231  27.346  24.827  1.00  0.00     0.025 C 
ATOM     11  C   UNL A   1      33.686  26.540  25.182  1.00  0.00     0.026 C 
ATOM     12  C   UNL A   1      31.550  26.936  26.247  1.00  0.00    -0.027 C 
ATOM     13  C   UNL A   1      32.238  28.491  24.508  1.00  0.00     0.009 C 
ATOM     14  C   UNL A   1      32.821  26.531  26.435  1.00  0.00    -0.027 C 
ATOM     15  C   UNL A   1      33.669  28.042  24.884  1.00  0.00     0.009 C 
BRANCH   9  16
ATOM     16  C   UNL A   1      30.360  25.125  23.803  1.00  0.00     0.229 C 
ATOM     17  N   UNL A   1      30.381  23.794  24.129  1.00  0.00    -0.317 N 
ATOM     18  H   UNL A   1      29.657  23.265  23.722  1.00  0.00     0.170 HD
ATOM     19  O   UNL A   1      29.299  25.520  23.286  1.00  0.00    -0.274 OA
BRANCH  17  20
ATOM     20  C   UNL A   1      31.236  23.068  24.924  1.00  0.00     0.110 A 
ATOM     21  C   UNL A   1      32.127  22.022  24.680  1.00  0.00     0.098 A 
ATOM     22  C   UNL A   1      33.057  21.997  25.768  1.00  0.00    -0.017 A 
ATOM     23  S   UNL A   1      30.959  23.012  26.622  1.00  0.00    -0.122 S 
ATOM     24  C   UNL A   1      32.598  22.756  26.808  1.00  0.00     0.011 A 
ATOM     25  C   UNL A   1      34.355  21.376  26.134  1.00  0.00     0.038 C 
ATOM     26  C   UNL A   1      33.542  22.948  27.918  1.00  0.00     0.047 C 
ATOM     27  C   UNL A   1      34.498  21.753  27.657  1.00  0.00     0.010 C 
BRANCH  21  28
ATOM     28  C   UNL A   1      32.063  21.142  23.542  1.00  0.00     0.341 C 
ATOM     29  O   UNL A   1      32.021  21.516  22.373  1.00  0.00    -0.246 OA
BRANCH  28  30
ATOM     30  O   UNL A   1      31.812  19.877  23.976  1.00  0.00    -0.462 OA
BRANCH  30  31
ATOM     31  C   UNL A   1      32.827  18.891  23.757  1.00  0.00     0.230 C 
ATOM     32  C   UNL A   1      32.489  17.970  22.593  1.00  0.00     0.049 C 
ENDBRANCH  30  31
ENDBRANCH  28  30
ENDBRANCH  21  28
ENDBRANCH  17  20
ENDBRANCH   9  16
ENDBRANCH   6   8
ENDBRANCH   5   6
ENDBRANCH   4   5
ENDBRANCH   3   4
ENDBRANCH   2   3
ENDBRANCH   1   2
BRANCH   1  33
ATOM     33  C   UNL A   1      38.770  22.172  26.108  1.00  0.00     0.188 C 
BRANCH  33  34
ATOM     34  O   UNL A   1      39.089  20.838  25.711  1.00  0.00    -0.376 OA
BRANCH  34  35
ATOM     35  C   UNL A   1      40.487  20.567  25.866  1.00  0.00     0.202 C 
BRANCH  35  36
ATOM     36  C   UNL A   1      41.207  21.784  26.430  1.00  0.00     0.261 C 
BRANCH  36  37
ATOM     37  O   UNL A   1      41.987  22.461  25.448  1.00  0.00    -0.460 OA
BRANCH  37  38
ATOM     38  C   UNL A   1      42.507  23.672  25.736  1.00  0.00     0.338 C 
ATOM     39  O   UNL A   1      43.655  24.037  25.565  1.00  0.00    -0.246 OA
BRANCH  38  40
ATOM     40  C   UNL A   1      41.441  24.440  26.414  1.00  0.00     0.060 A 
ATOM     41  C   UNL A   1      41.042  25.624  25.793  1.00  0.00     0.016 A 
ATOM     42  C   UNL A   1      41.227  24.210  27.782  1.00  0.00     0.016 A 
ATOM     43  C   UNL A   1      40.783  26.709  26.602  1.00  0.00     0.010 A 
ATOM     44  C   UNL A   1      41.030  25.298  28.587  1.00  0.00     0.010 A 
ATOM     45  C   UNL A   1      40.939  26.547  27.980  1.00  0.00    -0.014 A 
BRANCH  45  46
ATOM     46  C   UNL A   1      41.188  27.720  28.787  1.00  0.00     0.031 A 
ATOM     47  C   UNL A   1      42.341  28.525  28.367  1.00  0.00     0.074 A 
ATOM     48  C   UNL A   1      40.307  28.104  29.731  1.00  0.00     0.049 A 
ATOM     49  N   UNL A   1      43.471  28.662  28.974  1.00  0.00    -0.248 NA
ATOM     50  C   UNL A   1      42.292  29.116  27.020  1.00  0.00     0.031 C 
ATOM     51  C   UNL A   1      38.964  27.556  29.972  1.00  0.00     0.029 A 
ATOM     52  N   UNL A   1      40.370  29.159  30.586  1.00  0.00    -0.354 N 
ATOM     53  C   UNL A   1      44.195  29.541  28.181  1.00  0.00     0.074 A 
ATOM     54  C   UNL A   1      43.536  29.573  26.901  1.00  0.00     0.031 C 
ATOM     55  C   UNL A   1      38.269  28.419  30.745  1.00  0.00     0.029 A 
ATOM     56  C   UNL A   1      39.146  29.508  31.141  1.00  0.00     0.049 A 
ATOM     57  H   UNL A   1      41.208  29.634  30.792  1.00  0.00     0.167 HD
ATOM     58  C   UNL A   1      45.089  30.416  28.714  1.00  0.00     0.031 A 
ATOM     59  C   UNL A   1      38.857  30.656  31.801  1.00  0.00     0.031 A 
ATOM     60  C   UNL A   1      45.403  30.095  30.083  1.00  0.00     0.049 A 
ATOM     61  C   UNL A   1      40.140  31.275  32.216  1.00  0.00     0.074 A 
ATOM     62  C   UNL A   1      45.975  29.019  30.729  1.00  0.00     0.029 A 
ATOM     63  N   UNL A   1      44.762  30.838  31.048  1.00  0.00    -0.354 N 
ATOM     64  N   UNL A   1      40.936  30.758  33.110  1.00  0.00    -0.248 NA
ATOM     65  C   UNL A   1      40.756  32.269  31.347  1.00  0.00     0.031 C 
ATOM     66  C   UNL A   1      45.341  28.958  32.002  1.00  0.00     0.029 A 
ATOM     67  C   UNL A   1      44.427  30.011  32.089  1.00  0.00     0.049 A 
ATOM     68  H   UNL A   1      44.575  31.803  31.000  1.00  0.00     0.167 HD
ATOM     69  C   UNL A   1      42.217  31.032  32.653  1.00  0.00     0.074 A 
ATOM     70  C   UNL A   1      42.044  32.076  31.650  1.00  0.00     0.031 C 
ATOM     71  C   UNL A   1      43.254  30.184  32.926  1.00  0.00     0.031 A 
BRANCH  58  72
ATOM     72  C   UNL A   1      45.326  31.793  28.143  1.00  0.00    -0.014 A 
ATOM     73  C   UNL A   1      46.618  32.346  28.233  1.00  0.00     0.010 A 
ATOM     74  C   UNL A   1      44.281  32.668  27.776  1.00  0.00     0.010 A 
ATOM     75  C   UNL A   1      46.830  33.719  28.052  1.00  0.00     0.020 A 
ATOM     76  C   UNL A   1      44.489  34.025  27.541  1.00  0.00     0.020 A 
ATOM     77  C   UNL A   1      45.757  34.551  27.729  1.00  0.00     0.054 A 
BRANCH  77  78
ATOM     78  S   UNL A   1      46.002  36.339  27.657  1.00  0.00     0.124 S 
ATOM     79  O   UNL A   1      45.502  36.758  28.962  1.00  0.00    -0.237 OA
ATOM     80  O   UNL A   1      47.444  36.448  27.461  1.00  0.00    -0.237 OA
ATOM     81  O   UNL A   1      45.189  36.748  26.512  1.00  0.00    -0.744 OA
ENDBRANCH  77  78
ENDBRANCH  58  72
BRANCH  59  82
ATOM     82  C   UNL A   1      37.558  31.370  31.832  1.00  0.00    -0.014 A 
ATOM     83  C   UNL A   1      36.869  31.591  33.037  1.00  0.00     0.010 A 
ATOM     84  C   UNL A   1      37.102  32.048  30.681  1.00  0.00     0.010 A 
ATOM     85  C   UNL A   1      35.789  32.489  33.095  1.00  0.00     0.020 A 
ATOM     86  C   UNL A   1      36.021  32.934  30.728  1.00  0.00     0.020 A 
ATOM     87  C   UNL A   1      35.381  33.166  31.941  1.00  0.00     0.054 A 
BRANCH  87  88
ATOM     88  S   UNL A   1      34.083  34.433  32.054  1.00  0.00     0.124 S 
ATOM     89  O   UNL A   1      33.137  33.827  32.985  1.00  0.00    -0.237 OA
ATOM     90  O   UNL A   1      34.814  35.592  32.558  1.00  0.00    -0.237 OA
ATOM     91  O   UNL A   1      33.605  34.558  30.677  1.00  0.00    -0.744 OA
ENDBRANCH  87  88
ENDBRANCH  59  82
BRANCH  71  92
ATOM     92  C   UNL A   1      43.055  29.165  34.024  1.00  0.00    -0.014 A 
ATOM     93  C   UNL A   1      43.385  29.409  35.371  1.00  0.00     0.010 A 
ATOM     94  C   UNL A   1      42.382  27.973  33.701  1.00  0.00     0.010 A 
ATOM     95  C   UNL A   1      43.073  28.471  36.365  1.00  0.00     0.020 A 
ATOM     96  C   UNL A   1      42.052  27.043  34.690  1.00  0.00     0.020 A 
ATOM     97  C   UNL A   1      42.407  27.293  36.018  1.00  0.00     0.054 A 
BRANCH  97  98
ATOM     98  S   UNL A   1      41.950  26.115  37.319  1.00  0.00     0.124 S 
ATOM     99  O   UNL A   1      42.976  26.346  38.332  1.00  0.00    -0.237 OA
ATOM    100  O   UNL A   1      40.600  26.538  37.683  1.00  0.00    -0.237 OA
ATOM    101  O   UNL A   1      42.020  24.815  36.653  1.00  0.00    -0.744 OA
ENDBRANCH  97  98
ENDBRANCH  71  92
ENDBRANCH  45  46
ENDBRANCH  38  40
ENDBRANCH  37  38
ENDBRANCH  36  37
ENDBRANCH  35  36
ENDBRANCH  34  35
ENDBRANCH  33  34
ENDBRANCH   1  33
TORSDOF 25
ENDMDL
MODEL 2
REMARK VINA RESULT:     -10.8      2.949      5.148
REMARK SMILES CCOC(=O)c1c(NC(=O)[C@@H]2[C@@H](C(=O)OCCOCCOCCOC(=O)c3ccc(-c4c5nc(c(-c6ccc(S(=O)(=O)[O-])cc6)c6ccc([nH]6)c(-c6ccc(S(=O)(=O)[O-])cc6)c6nc(c(-c7ccc(S(=O)(=O)[O-])cc7)c7ccc4[nH]7)C=C6)C=C5)cc3)[C@@H]3C=C[C@H]2CC3)sc2c1CCC2
REMARK SMILES IDX 19 1 18 2 17 3 16 4 15 5 13 6 14 7 12 8 11 9 90 10 87 11
REMARK SMILES IDX 89 12 91 13 88 14 92 15 9 16 8 17 10 19 7 20 6 21 95 22
REMARK SMILES IDX 93 23 94 24 96 25 98 26 97 27 4 28 5 29 3 30 2 31 1 32 20 33
REMARK SMILES IDX 21 34 22 35 23 36 24 37 25 38 26 39 27 40 28 41 86 42 29 43
REMARK SMILES IDX 85 44 30 45 31 46 32 47 79 48 33 49 84 50 78 51 80 52 34 53
REMARK SMILES IDX 83 54 77 55 76 56 35 58 65 59 46 60 64 61 47 62 50 63 63 64
REMARK SMILES IDX 81 65 48 66 49 67 62 69 82 70 51 71 36 72 37 73 45 74 38 75
REMARK SMILES IDX 44 76 39 77 40 78 41 79 42 80 43 81 66 82 67 83 75 84 68 85
REMARK SMILES IDX 74 86 69 87 70 88 71 89 72 90 73 91 52 92 53 93 61 94 54 95
REMARK SMILES IDX 60 96 55 97 56 98 57 99 58 100 59 101
REMARK H PARENT 8 18 80 57 50 68
REMARK Flexibility Score: inf
ROOT
ATOM      1  C   UNL A   1      38.976  23.092  26.454  1.00  0.00     0.188 C 
ENDROOT
BRANCH   1   2
ATOM      2  O   UNL A   1      37.778  22.716  25.781  1.00  0.00    -0.376 OA
BRANCH   2   3
ATOM      3  C   UNL A   1      36.935  23.766  25.355  1.00  0.00     0.202 C 
BRANCH   3   4
ATOM      4  C   UNL A   1      35.808  24.148  26.330  1.00  0.00     0.261 C 
BRANCH   4   5
ATOM      5  O   UNL A   1      34.760  24.998  25.807  1.00  0.00    -0.463 OA
BRANCH   5   6
ATOM      6  C   UNL A   1      34.214  24.630  24.620  1.00  0.00     0.310 C 
ATOM      7  O   UNL A   1      34.447  25.197  23.557  1.00  0.00    -0.252 OA
BRANCH   6   8
ATOM      8  C   UNL A   1      33.200  23.490  24.707  1.00  0.00     0.119 C 
ATOM      9  C   UNL A   1      32.760  23.036  26.118  1.00  0.00     0.100 C 
ATOM     10  C   UNL A   1      32.726  21.474  26.170  1.00  0.00     0.025 C 
ATOM     11  C   UNL A   1      33.466  22.244  23.791  1.00  0.00     0.026 C 
ATOM     12  C   UNL A   1      31.855  20.951  25.050  1.00  0.00    -0.027 C 
ATOM     13  C   UNL A   1      34.155  20.949  25.841  1.00  0.00     0.009 C 
ATOM     14  C   UNL A   1      32.243  21.337  23.819  1.00  0.00    -0.027 C 
ATOM     15  C   UNL A   1      34.501  21.276  24.370  1.00  0.00     0.009 C 
BRANCH   9  16
ATOM     16  C   UNL A   1      31.521  23.683  26.809  1.00  0.00     0.229 C 
ATOM     17  N   UNL A   1      31.077  24.977  26.722  1.00  0.00    -0.317 N 
ATOM     18  H   UNL A   1      30.498  25.259  27.467  1.00  0.00     0.170 HD
ATOM     19  O   UNL A   1      30.918  22.978  27.640  1.00  0.00    -0.274 OA
BRANCH  17  20
ATOM     20  C   UNL A   1      31.300  25.951  25.778  1.00  0.00     0.110 A 
ATOM     21  C   UNL A   1      31.862  27.228  25.823  1.00  0.00     0.098 A 
ATOM     22  C   UNL A   1      32.246  27.567  24.486  1.00  0.00    -0.017 A 
ATOM     23  S   UNL A   1      30.387  25.931  24.319  1.00  0.00    -0.122 S 
ATOM     24  C   UNL A   1      31.670  26.711  23.590  1.00  0.00     0.011 A 
ATOM     25  C   UNL A   1      33.053  28.583  23.763  1.00  0.00     0.038 C 
ATOM     26  C   UNL A   1      32.124  26.850  22.199  1.00  0.00     0.047 C 
ATOM     27  C   UNL A   1      32.703  28.290  22.256  1.00  0.00     0.010 C 
BRANCH  21  28
ATOM     28  C   UNL A   1      31.982  28.027  27.015  1.00  0.00     0.341 C 
ATOM     29  O   UNL A   1      31.381  27.809  28.064  1.00  0.00    -0.246 OA
BRANCH  28  30
ATOM     30  O   UNL A   1      32.656  29.170  26.714  1.00  0.00    -0.462 OA
BRANCH  30  31
ATOM     31  C   UNL A   1      31.949  30.408  26.848  1.00  0.00     0.230 C 
ATOM     32  C   UNL A   1      32.875  31.560  27.214  1.00  0.00     0.049 C 
ENDBRANCH  30  31
ENDBRANCH  28  30
ENDBRANCH  21  28
ENDBRANCH  17  20
ENDBRANCH   9  16
ENDBRANCH   6   8
ENDBRANCH   5   6
ENDBRANCH   4   5
ENDBRANCH   3   4
ENDBRANCH   2   3
ENDBRANCH   1   2
BRANCH   1  33
ATOM     33  C   UNL A   1      40.203  22.162  26.372  1.00  0.00     0.188 C 
BRANCH  33  34
ATOM     34  O   UNL A   1      40.094  21.036  27.243  1.00  0.00    -0.376 OA
BRANCH  34  35
ATOM     35  C   UNL A   1      41.367  20.415  27.455  1.00  0.00     0.202 C 
BRANCH  35  36
ATOM     36  C   UNL A   1      42.025  20.078  26.124  1.00  0.00     0.261 C 
BRANCH  36  37
ATOM     37  O   UNL A   1      43.403  20.440  26.089  1.00  0.00    -0.460 OA
BRANCH  37  38
ATOM     38  C   UNL A   1      44.083  20.340  24.927  1.00  0.00     0.338 C 
ATOM     39  O   UNL A   1      44.199  19.351  24.228  1.00  0.00    -0.246 OA
BRANCH  38  40
ATOM     40  C   UNL A   1      44.762  21.638  24.722  1.00  0.00     0.060 A 
ATOM     41  C   UNL A   1      45.918  21.856  25.472  1.00  0.00     0.016 A 
ATOM     42  C   UNL A   1      44.015  22.697  24.183  1.00  0.00     0.016 A 
ATOM     43  C   UNL A   1      46.107  23.117  25.994  1.00  0.00     0.010 A 
ATOM     44  C   UNL A   1      44.167  23.934  24.746  1.00  0.00     0.010 A 
ATOM     45  C   UNL A   1      45.132  24.082  25.737  1.00  0.00    -0.014 A 
BRANCH  45  46
ATOM     46  C   UNL A   1      45.013  25.200  26.646  1.00  0.00     0.031 A 
ATOM     47  C   UNL A   1      46.062  26.218  26.514  1.00  0.00     0.074 A 
ATOM     48  C   UNL A   1      43.916  25.346  27.415  1.00  0.00     0.049 A 
ATOM     49  N   UNL A   1      47.015  26.481  27.342  1.00  0.00    -0.248 NA
ATOM     50  C   UNL A   1      46.160  26.916  25.222  1.00  0.00     0.031 C 
ATOM     51  C   UNL A   1      42.672  24.566  27.349  1.00  0.00     0.029 A 
ATOM     52  N   UNL A   1      43.629  26.313  28.326  1.00  0.00    -0.354 N 
ATOM     53  C   UNL A   1      47.706  27.537  26.764  1.00  0.00     0.074 A 
ATOM     54  C   UNL A   1      47.303  27.579  25.382  1.00  0.00     0.031 C 
ATOM     55  C   UNL A   1      41.701  25.228  28.017  1.00  0.00     0.029 A 
ATOM     56  C   UNL A   1      42.281  26.404  28.645  1.00  0.00     0.049 A 
ATOM     57  H   UNL A   1      44.315  26.896  28.724  1.00  0.00     0.167 HD
ATOM     58  C   UNL A   1      48.314  28.492  27.517  1.00  0.00     0.031 A 
ATOM     59  C   UNL A   1      41.673  27.423  29.300  1.00  0.00     0.031 A 
ATOM     60  C   UNL A   1      48.418  28.101  28.899  1.00  0.00     0.049 A 
ATOM     61  C   UNL A   1      42.724  28.202  30.000  1.00  0.00     0.074 A 
ATOM     62  C   UNL A   1      49.042  27.078  29.581  1.00  0.00     0.029 A 
ATOM     63  N   UNL A   1      47.485  28.636  29.758  1.00  0.00    -0.354 N 
ATOM     64  N   UNL A   1      43.418  27.740  31.003  1.00  0.00    -0.248 NA
ATOM     65  C   UNL A   1      43.305  29.359  29.333  1.00  0.00     0.031 C 
ATOM     66  C   UNL A   1      48.201  26.795  30.696  1.00  0.00     0.029 A 
ATOM     67  C   UNL A   1      47.114  27.672  30.660  1.00  0.00     0.049 A 
ATOM     68  H   UNL A   1      47.141  29.558  29.731  1.00  0.00     0.167 HD
ATOM     69  C   UNL A   1      44.693  28.261  30.829  1.00  0.00     0.074 A 
ATOM     70  C   UNL A   1      44.526  29.352  29.875  1.00  0.00     0.031 C 
ATOM     71  C   UNL A   1      45.794  27.572  31.253  1.00  0.00     0.031 A 
BRANCH  58  72
ATOM     72  C   UNL A   1      48.404  29.937  27.087  1.00  0.00    -0.014 A 
ATOM     73  C   UNL A   1      49.669  30.555  27.065  1.00  0.00     0.010 A 
ATOM     74  C   UNL A   1      47.279  30.781  26.975  1.00  0.00     0.010 A 
ATOM     75  C   UNL A   1      49.791  31.950  27.023  1.00  0.00     0.020 A 
ATOM     76  C   UNL A   1      47.390  32.166  26.877  1.00  0.00     0.020 A 
ATOM     77  C   UNL A   1      48.646  32.744  26.951  1.00  0.00     0.054 A 
BRANCH  77  78
ATOM     78  S   UNL A   1      48.797  34.542  27.061  1.00  0.00     0.124 S 
ATOM     79  O   UNL A   1      49.953  34.687  27.939  1.00  0.00    -0.237 OA
ATOM     80  O   UNL A   1      49.003  34.922  25.667  1.00  0.00    -0.237 OA
ATOM     81  O   UNL A   1      47.518  34.957  27.634  1.00  0.00    -0.744 OA
ENDBRANCH  77  78
ENDBRANCH  58  72
BRANCH  59  82
ATOM     82  C   UNL A   1      40.285  27.908  29.113  1.00  0.00    -0.014 A 
ATOM     83  C   UNL A   1      39.335  27.837  30.146  1.00  0.00     0.010 A 
ATOM     84  C   UNL A   1      39.955  28.668  27.970  1.00  0.00     0.010 A 
ATOM     85  C   UNL A   1      38.117  28.534  30.054  1.00  0.00     0.020 A 
ATOM     86  C   UNL A   1      38.742  29.354  27.865  1.00  0.00     0.020 A 
ATOM     87  C   UNL A   1      37.835  29.300  28.919  1.00  0.00     0.054 A 
BRANCH  87  88
ATOM     88  S   UNL A   1      36.328  30.315  28.871  1.00  0.00     0.124 S 
ATOM     89  O   UNL A   1      35.334  29.371  28.368  1.00  0.00    -0.237 OA
ATOM     90  O   UNL A   1      36.171  30.716  30.265  1.00  0.00    -0.237 OA
ATOM     91  O   UNL A   1      36.673  31.399  27.952  1.00  0.00    -0.744 OA
ENDBRANCH  87  88
ENDBRANCH  59  82
BRANCH  71  92
ATOM     92  C   UNL A   1      45.578  26.437  32.227  1.00  0.00    -0.014 A 
ATOM     93  C   UNL A   1      45.759  26.569  33.617  1.00  0.00     0.010 A 
ATOM     94  C   UNL A   1      45.040  25.237  31.729  1.00  0.00     0.010 A 
ATOM     95  C   UNL A   1      45.433  25.516  34.484  1.00  0.00     0.020 A 
ATOM     96  C   UNL A   1      44.697  24.191  32.589  1.00  0.00     0.020 A 
ATOM     97  C   UNL A   1      44.903  24.332  33.963  1.00  0.00     0.054 A 
BRANCH  97  98
ATOM     98  S   UNL A   1      44.425  22.999  35.097  1.00  0.00     0.124 S 
ATOM     99  O   UNL A   1      42.969  23.107  35.119  1.00  0.00    -0.237 OA
ATOM    100  O   UNL A   1      44.959  21.807  34.443  1.00  0.00    -0.237 OA
ATOM    101  O   UNL A   1      45.090  23.354  36.351  1.00  0.00    -0.744 OA
ENDBRANCH  97  98
ENDBRANCH  71  92
ENDBRANCH  45  46
ENDBRANCH  38  40
ENDBRANCH  37  38
ENDBRANCH  36  37
ENDBRANCH  35  36
ENDBRANCH  34  35
ENDBRANCH  33  34
ENDBRANCH   1  33
TORSDOF 25
ENDMDL
MODEL 3
REMARK VINA RESULT:     -10.8      1.963      4.241
REMARK SMILES CCOC(=O)c1c(NC(=O)[C@@H]2[C@@H](C(=O)OCCOCCOCCOC(=O)c3ccc(-c4c5nc(c(-c6ccc(S(=O)(=O)[O-])cc6)c6ccc([nH]6)c(-c6ccc(S(=O)(=O)[O-])cc6)c6nc(c(-c7ccc(S(=O)(=O)[O-])cc7)c7ccc4[nH]7)C=C6)C=C5)cc3)[C@@H]3C=C[C@H]2CC3)sc2c1CCC2
REMARK SMILES IDX 19 1 18 2 17 3 16 4 15 5 13 6 14 7 12 8 11 9 90 10 87 11
REMARK SMILES IDX 89 12 91 13 88 14 92 15 9 16 8 17 10 19 7 20 6 21 95 22
REMARK SMILES IDX 93 23 94 24 96 25 98 26 97 27 4 28 5 29 3 30 2 31 1 32 20 33
REMARK SMILES IDX 21 34 22 35 23 36 24 37 25 38 26 39 27 40 28 41 86 42 29 43
REMARK SMILES IDX 85 44 30 45 31 46 32 47 79 48 33 49 84 50 78 51 80 52 34 53
REMARK SMILES IDX 83 54 77 55 76 56 35 58 65 59 46 60 64 61 47 62 50 63 63 64
REMARK SMILES IDX 81 65 48 66 49 67 62 69 82 70 51 71 36 72 37 73 45 74 38 75
REMARK SMILES IDX 44 76 39 77 40 78 41 79 42 80 43 81 66 82 67 83 75 84 68 85
REMARK SMILES IDX 74 86 69 87 70 88 71 89 72 90 73 91 52 92 53 93 61 94 54 95
REMARK SMILES IDX 60 96 55 97 56 98 57 99 58 100 59 101
REMARK H PARENT 8 18 80 57 50 68
REMARK Flexibility Score: inf
ROOT
ATOM      1  C   UNL A   1      40.602  20.598  26.866  1.00  0.00     0.188 C 
ENDROOT
BRANCH   1   2
ATOM      2  O   UNL A   1      39.684  20.721  25.784  1.00  0.00    -0.376 OA
BRANCH   2   3
ATOM      3  C   UNL A   1      38.851  21.862  25.786  1.00  0.00     0.202 C 
BRANCH   3   4
ATOM      4  C   UNL A   1      37.517  21.710  25.038  1.00  0.00     0.261 C 
BRANCH   4   5
ATOM      5  O   UNL A   1      36.434  21.082  25.765  1.00  0.00    -0.463 OA
BRANCH   5   6
ATOM      6  C   UNL A   1      35.285  21.795  25.879  1.00  0.00     0.310 C 
ATOM      7  O   UNL A   1      34.959  22.404  26.893  1.00  0.00    -0.252 OA
BRANCH   6   8
ATOM      8  C   UNL A   1      34.361  21.721  24.664  1.00  0.00     0.119 C 
ATOM      9  C   UNL A   1      33.668  23.028  24.216  1.00  0.00     0.100 C 
ATOM     10  C   UNL A   1      32.173  22.728  23.873  1.00  0.00     0.025 C 
ATOM     11  C   UNL A   1      33.346  20.525  24.628  1.00  0.00     0.026 C 
ATOM     12  C   UNL A   1      32.103  21.609  22.859  1.00  0.00    -0.027 C 
ATOM     13  C   UNL A   1      31.492  22.150  25.150  1.00  0.00     0.009 C 
ATOM     14  C   UNL A   1      32.697  20.466  23.251  1.00  0.00    -0.027 C 
ATOM     15  C   UNL A   1      32.096  20.765  25.478  1.00  0.00     0.009 C 
BRANCH   9  16
ATOM     16  C   UNL A   1      34.343  23.965  23.168  1.00  0.00     0.229 C 
ATOM     17  N   UNL A   1      33.862  25.134  22.637  1.00  0.00    -0.317 N 
ATOM     18  H   UNL A   1      34.272  25.389  21.779  1.00  0.00     0.170 HD
ATOM     19  O   UNL A   1      35.399  23.553  22.654  1.00  0.00    -0.274 OA
BRANCH  17  20
ATOM     20  C   UNL A   1      32.906  26.011  23.091  1.00  0.00     0.110 A 
ATOM     21  C   UNL A   1      32.873  26.956  24.118  1.00  0.00     0.098 A 
ATOM     22  C   UNL A   1      31.812  27.869  23.816  1.00  0.00    -0.017 A 
ATOM     23  S   UNL A   1      31.251  25.713  22.724  1.00  0.00    -0.122 S 
ATOM     24  C   UNL A   1      31.002  27.358  22.841  1.00  0.00     0.011 A 
ATOM     25  C   UNL A   1      31.296  29.191  24.257  1.00  0.00     0.038 C 
ATOM     26  C   UNL A   1      29.977  28.276  22.324  1.00  0.00     0.047 C 
ATOM     27  C   UNL A   1      29.920  29.292  23.496  1.00  0.00     0.010 C 
BRANCH  21  28
ATOM     28  C   UNL A   1      33.747  26.952  25.262  1.00  0.00     0.341 C 
ATOM     29  O   UNL A   1      34.057  25.948  25.898  1.00  0.00    -0.246 OA
BRANCH  28  30
ATOM     30  O   UNL A   1      33.961  28.236  25.659  1.00  0.00    -0.462 OA
BRANCH  30  31
ATOM     31  C   UNL A   1      33.672  28.561  27.023  1.00  0.00     0.230 C 
ATOM     32  C   UNL A   1      33.985  30.017  27.343  1.00  0.00     0.049 C 
ENDBRANCH  30  31
ENDBRANCH  28  30
ENDBRANCH  21  28
ENDBRANCH  17  20
ENDBRANCH   9  16
ENDBRANCH   6   8
ENDBRANCH   5   6
ENDBRANCH   4   5
ENDBRANCH   3   4
ENDBRANCH   2   3
ENDBRANCH   1   2
BRANCH   1  33
ATOM     33  C   UNL A   1      42.114  20.676  26.577  1.00  0.00     0.188 C 
BRANCH  33  34
ATOM     34  O   UNL A   1      42.406  21.430  25.400  1.00  0.00    -0.376 OA
BRANCH  34  35
ATOM     35  C   UNL A   1      43.787  21.806  25.351  1.00  0.00     0.202 C 
BRANCH  35  36
ATOM     36  C   UNL A   1      43.926  23.316  25.214  1.00  0.00     0.261 C 
BRANCH  36  37
ATOM     37  O   UNL A   1      42.672  23.963  25.016  1.00  0.00    -0.460 OA
BRANCH  37  38
ATOM     38  C   UNL A   1      42.128  24.673  26.026  1.00  0.00     0.338 C 
ATOM     39  O   UNL A   1      41.259  24.307  26.796  1.00  0.00    -0.246 OA
BRANCH  38  40
ATOM     40  C   UNL A   1      42.707  26.031  25.949  1.00  0.00     0.060 A 
ATOM     41  C   UNL A   1      43.780  26.295  26.802  1.00  0.00     0.016 A 
ATOM     42  C   UNL A   1      41.917  27.059  25.411  1.00  0.00     0.016 A 
ATOM     43  C   UNL A   1      43.820  27.532  27.406  1.00  0.00     0.010 A 
ATOM     44  C   UNL A   1      41.919  28.266  26.053  1.00  0.00     0.010 A 
ATOM     45  C   UNL A   1      42.789  28.430  27.125  1.00  0.00    -0.014 A 
BRANCH  45  46
ATOM     46  C   UNL A   1      42.506  29.476  28.083  1.00  0.00     0.031 A 
ATOM     47  C   UNL A   1      43.544  30.508  28.195  1.00  0.00     0.074 A 
ATOM     48  C   UNL A   1      41.299  29.557  28.674  1.00  0.00     0.049 A 
ATOM     49  N   UNL A   1      44.348  30.714  29.182  1.00  0.00    -0.248 NA
ATOM     50  C   UNL A   1      43.835  31.300  26.990  1.00  0.00     0.031 C 
ATOM     51  C   UNL A   1      40.095  28.776  28.352  1.00  0.00     0.029 A 
ATOM     52  N   UNL A   1      40.852  30.451  29.596  1.00  0.00    -0.354 N 
ATOM     53  C   UNL A   1      45.103  31.814  28.800  1.00  0.00     0.074 A 
ATOM     54  C   UNL A   1      44.925  31.957  27.379  1.00  0.00     0.031 C 
ATOM     55  C   UNL A   1      39.018  29.380  28.903  1.00  0.00     0.029 A 
ATOM     56  C   UNL A   1      39.469  30.509  29.699  1.00  0.00     0.049 A 
ATOM     57  H   UNL A   1      41.455  31.008  30.140  1.00  0.00     0.167 HD
ATOM     58  C   UNL A   1      45.565  32.714  29.709  1.00  0.00     0.031 A 
ATOM     59  C   UNL A   1      38.746  31.473  30.321  1.00  0.00     0.031 A 
ATOM     60  C   UNL A   1      45.455  32.222  31.057  1.00  0.00     0.049 A 
ATOM     61  C   UNL A   1      39.657  32.204  31.235  1.00  0.00     0.074 A 
ATOM     62  C   UNL A   1      45.980  31.154  31.755  1.00  0.00     0.029 A 
ATOM     63  N   UNL A   1      44.387  32.685  31.793  1.00  0.00    -0.354 N 
ATOM     64  N   UNL A   1      40.191  31.673  32.300  1.00  0.00    -0.248 NA
ATOM     65  C   UNL A   1      40.316  33.412  30.756  1.00  0.00     0.031 C 
ATOM     66  C   UNL A   1      44.978  30.784  32.697  1.00  0.00     0.029 A 
ATOM     67  C   UNL A   1      43.895  31.654  32.550  1.00  0.00     0.049 A 
ATOM     68  H   UNL A   1      44.036  33.604  31.778  1.00  0.00     0.167 HD
ATOM     69  C   UNL A   1      41.467  32.214  32.371  1.00  0.00     0.074 A 
ATOM     70  C   UNL A   1      41.435  33.371  31.485  1.00  0.00     0.031 C 
ATOM     71  C   UNL A   1      42.499  31.502  32.915  1.00  0.00     0.031 A 
BRANCH  58  72
ATOM     72  C   UNL A   1      45.697  34.188  29.405  1.00  0.00    -0.014 A 
ATOM     73  C   UNL A   1      44.531  34.924  29.123  1.00  0.00     0.010 A 
ATOM     74  C   UNL A   1      46.930  34.810  29.115  1.00  0.00     0.010 A 
ATOM     75  C   UNL A   1      44.600  36.178  28.502  1.00  0.00     0.020 A 
ATOM     76  C   UNL A   1      47.013  36.079  28.547  1.00  0.00     0.020 A 
ATOM     77  C   UNL A   1      45.844  36.734  28.199  1.00  0.00     0.054 A 
BRANCH  77  78
ATOM     78  S   UNL A   1      45.929  38.271  27.254  1.00  0.00     0.124 S 
ATOM     79  O   UNL A   1      46.924  39.027  28.008  1.00  0.00    -0.237 OA
ATOM     80  O   UNL A   1      46.347  37.804  25.936  1.00  0.00    -0.237 OA
ATOM     81  O   UNL A   1      44.563  38.789  27.322  1.00  0.00    -0.744 OA
ENDBRANCH  77  78
ENDBRANCH  58  72
BRANCH  59  82
ATOM     82  C   UNL A   1      37.397  31.962  29.950  1.00  0.00    -0.014 A 
ATOM     83  C   UNL A   1      36.463  32.355  30.923  1.00  0.00     0.010 A 
ATOM     84  C   UNL A   1      37.107  32.267  28.601  1.00  0.00     0.010 A 
ATOM     85  C   UNL A   1      35.301  33.062  30.564  1.00  0.00     0.020 A 
ATOM     86  C   UNL A   1      35.949  32.959  28.235  1.00  0.00     0.020 A 
ATOM     87  C   UNL A   1      35.060  33.372  29.222  1.00  0.00     0.054 A 
BRANCH  87  88
ATOM     88  S   UNL A   1      33.636  34.411  28.781  1.00  0.00     0.124 S 
ATOM     89  O   UNL A   1      34.279  35.619  28.272  1.00  0.00    -0.237 OA
ATOM     90  O   UNL A   1      32.943  33.597  27.788  1.00  0.00    -0.237 OA
ATOM     91  O   UNL A   1      32.925  34.576  30.048  1.00  0.00    -0.744 OA
ENDBRANCH  87  88
ENDBRANCH  59  82
BRANCH  71  92
ATOM     92  C   UNL A   1      42.151  30.296  33.756  1.00  0.00    -0.014 A 
ATOM     93  C   UNL A   1      41.962  29.008  33.217  1.00  0.00     0.010 A 
ATOM     94  C   UNL A   1      42.155  30.445  35.154  1.00  0.00     0.010 A 
ATOM     95  C   UNL A   1      41.755  27.905  34.056  1.00  0.00     0.020 A 
ATOM     96  C   UNL A   1      41.968  29.346  35.996  1.00  0.00     0.020 A 
ATOM     97  C   UNL A   1      41.760  28.081  35.442  1.00  0.00     0.054 A 
BRANCH  97  98
ATOM     98  S   UNL A   1      41.556  26.637  36.522  1.00  0.00     0.124 S 
ATOM     99  O   UNL A   1      40.435  27.031  37.371  1.00  0.00    -0.237 OA
ATOM    100  O   UNL A   1      41.279  25.559  35.575  1.00  0.00    -0.237 OA
ATOM    101  O   UNL A   1      42.843  26.529  37.207  1.00  0.00    -0.744 OA
ENDBRANCH  97  98
ENDBRANCH  71  92
ENDBRANCH  45  46
ENDBRANCH  38  40
ENDBRANCH  37  38
ENDBRANCH  36  37
ENDBRANCH  35  36
ENDBRANCH  34  35
ENDBRANCH  33  34
ENDBRANCH   1  33
TORSDOF 25
ENDMDL
