MODEL 1
REMARK VINA RESULT:     -10.3      0.000      0.000
REMARK SMILES Cc1cc(F)ccc1NC(=O)[C@H]1CC=CC[C@@H]1C(=O)OCCOCCOCCOC(=O)c1ccc(-c2c3nc(c(-c4ccc(S(=O)(=O)[O-])cc4)c4ccc([nH]4)c(-c4ccc(S(=O)(=O)[O-])cc4)c4nc(c(-c5ccc(S(=O)(=O)[O-])cc5)c5ccc2[nH]5)C=C4)C=C3)cc1
REMARK SMILES IDX 25 1 24 2 23 3 22 4 21 5 20 6 18 7 19 8 17 9 12 10 13 11
REMARK SMILES IDX 14 12 16 13 15 14 10 15 9 16 11 18 8 19 1 20 2 21 3 22 4 23
REMARK SMILES IDX 7 24 5 25 6 26 26 27 27 28 28 29 29 30 30 31 31 32 32 33
REMARK SMILES IDX 33 34 91 35 34 36 90 37 35 38 36 39 37 40 84 41 38 42 89 43
REMARK SMILES IDX 83 44 85 45 39 46 88 47 82 48 81 49 40 51 70 52 51 53 69 54
REMARK SMILES IDX 52 55 55 56 68 57 86 58 53 59 54 60 67 62 87 63 56 64 41 65
REMARK SMILES IDX 42 66 50 67 43 68 49 69 44 70 45 71 46 72 47 73 48 74 71 75
REMARK SMILES IDX 72 76 80 77 73 78 79 79 74 80 75 81 76 82 77 83 78 84 57 85
REMARK SMILES IDX 58 86 66 87 59 88 65 89 60 90 61 91 62 92 63 93 64 94
REMARK H PARENT 9 17 85 50 55 61
REMARK Flexibility Score: inf
ROOT
ATOM      1  C   UNL A   1      32.453  28.915  23.270  1.00  0.00     0.188 C 
ENDROOT
BRANCH   1   2
ATOM      2  C   UNL A   1      30.941  28.618  23.169  1.00  0.00     0.188 C 
BRANCH   2   3
ATOM      3  O   UNL A   1      30.480  27.277  22.963  1.00  0.00    -0.376 OA
BRANCH   3   4
ATOM      4  C   UNL A   1      30.718  26.262  23.939  1.00  0.00     0.202 C 
BRANCH   4   5
ATOM      5  C   UNL A   1      30.635  24.801  23.481  1.00  0.00     0.261 C 
BRANCH   5   6
ATOM      6  O   UNL A   1      31.684  24.575  22.550  1.00  0.00    -0.463 OA
BRANCH   6   7
ATOM      7  C   UNL A   1      33.027  24.618  22.767  1.00  0.00     0.310 C 
ATOM      8  O   UNL A   1      33.822  25.382  22.258  1.00  0.00    -0.252 OA
BRANCH   7   9
ATOM      9  C   UNL A   1      33.261  23.495  23.784  1.00  0.00     0.116 C 
ATOM     10  C   UNL A   1      33.441  23.704  25.277  1.00  0.00     0.097 C 
ATOM     11  C   UNL A   1      34.589  24.707  25.523  1.00  0.00     0.041 C 
ATOM     12  C   UNL A   1      35.852  24.196  24.900  1.00  0.00    -0.030 C 
ATOM     13  C   UNL A   1      34.534  22.834  23.288  1.00  0.00     0.043 C 
ATOM     14  C   UNL A   1      35.814  23.300  23.907  1.00  0.00    -0.030 C 
BRANCH  10  15
ATOM     15  C   UNL A   1      33.633  22.440  26.234  1.00  0.00     0.228 C 
ATOM     16  N   UNL A   1      33.550  21.076  26.088  1.00  0.00    -0.326 N 
ATOM     17  H   UNL A   1      33.418  20.700  26.988  1.00  0.00     0.169 HD
ATOM     18  O   UNL A   1      33.804  22.739  27.438  1.00  0.00    -0.274 OA
BRANCH  16  19
ATOM     19  C   UNL A   1      33.575  19.973  25.174  1.00  0.00     0.044 A 
ATOM     20  C   UNL A   1      36.156  19.958  25.086  1.00  0.00     0.047 C 
ATOM     21  C   UNL A   1      34.801  19.350  24.847  1.00  0.00    -0.025 A 
ATOM     22  C   UNL A   1      34.814  18.114  24.144  1.00  0.00     0.044 A 
ATOM     23  C   UNL A   1      33.640  17.546  23.687  1.00  0.00     0.123 A 
ATOM     24  C   UNL A   1      32.483  19.510  24.430  1.00  0.00     0.029 A 
ATOM     25  F   UNL A   1      33.651  16.360  23.064  1.00  0.00    -0.207 F 
ATOM     26  C   UNL A   1      32.470  18.261  23.786  1.00  0.00     0.041 A 
ENDBRANCH  16  19
ENDBRANCH  10  15
ENDBRANCH   7   9
ENDBRANCH   6   7
ENDBRANCH   5   6
ENDBRANCH   4   5
ENDBRANCH   3   4
ENDBRANCH   2   3
ENDBRANCH   1   2
BRANCH   1  27
ATOM     27  O   UNL A   1      32.844  29.190  24.596  1.00  0.00    -0.376 OA
BRANCH  27  28
ATOM     28  C   UNL A   1      31.854  29.498  25.553  1.00  0.00     0.202 C 
BRANCH  28  29
ATOM     29  C   UNL A   1      32.230  30.361  26.768  1.00  0.00     0.261 C 
BRANCH  29  30
ATOM     30  O   UNL A   1      33.565  30.217  27.270  1.00  0.00    -0.460 OA
BRANCH  30  31
ATOM     31  C   UNL A   1      34.171  31.340  27.718  1.00  0.00     0.338 C 
ATOM     32  O   UNL A   1      33.679  32.457  27.818  1.00  0.00    -0.246 OA
BRANCH  31  33
ATOM     33  C   UNL A   1      35.492  30.971  28.255  1.00  0.00     0.060 A 
ATOM     34  C   UNL A   1      35.659  29.716  28.858  1.00  0.00     0.016 A 
ATOM     35  C   UNL A   1      36.558  31.868  28.175  1.00  0.00     0.016 A 
ATOM     36  C   UNL A   1      36.897  29.361  29.401  1.00  0.00     0.010 A 
ATOM     37  C   UNL A   1      37.789  31.516  28.730  1.00  0.00     0.010 A 
ATOM     38  C   UNL A   1      37.961  30.273  29.366  1.00  0.00    -0.014 A 
BRANCH  38  39
ATOM     39  C   UNL A   1      39.216  30.022  30.116  1.00  0.00     0.031 A 
ATOM     40  C   UNL A   1      40.114  28.904  29.660  1.00  0.00     0.074 A 
ATOM     41  C   UNL A   1      39.524  30.728  31.219  1.00  0.00     0.049 A 
ATOM     42  N   UNL A   1      41.171  28.399  30.238  1.00  0.00    -0.248 NA
ATOM     43  C   UNL A   1      39.758  28.261  28.383  1.00  0.00     0.031 C 
ATOM     44  C   UNL A   1      38.759  31.859  31.743  1.00  0.00     0.029 A 
ATOM     45  N   UNL A   1      40.556  30.576  32.113  1.00  0.00    -0.354 N 
ATOM     46  C   UNL A   1      41.593  27.363  29.413  1.00  0.00     0.074 A 
ATOM     47  C   UNL A   1      40.664  27.298  28.305  1.00  0.00     0.031 C 
ATOM     48  C   UNL A   1      39.339  32.287  32.879  1.00  0.00     0.029 A 
ATOM     49  C   UNL A   1      40.485  31.434  33.186  1.00  0.00     0.049 A 
ATOM     50  H   UNL A   1      41.276  29.915  31.996  1.00  0.00     0.167 HD
ATOM     51  C   UNL A   1      42.656  26.537  29.566  1.00  0.00     0.031 A 
ATOM     52  C   UNL A   1      41.239  31.498  34.302  1.00  0.00     0.031 A 
ATOM     53  C   UNL A   1      43.568  26.596  30.678  1.00  0.00     0.049 A 
ATOM     54  C   UNL A   1      42.373  30.520  34.488  1.00  0.00     0.074 A 
ATOM     55  C   UNL A   1      44.691  25.823  30.911  1.00  0.00     0.029 A 
ATOM     56  N   UNL A   1      43.455  27.469  31.751  1.00  0.00    -0.354 N 
ATOM     57  N   UNL A   1      42.780  29.564  33.686  1.00  0.00    -0.248 NA
ATOM     58  C   UNL A   1      43.152  30.634  35.729  1.00  0.00     0.031 C 
ATOM     59  C   UNL A   1      45.218  26.181  32.155  1.00  0.00     0.029 A 
ATOM     60  C   UNL A   1      44.469  27.232  32.662  1.00  0.00     0.049 A 
ATOM     61  H   UNL A   1      42.757  28.156  31.849  1.00  0.00     0.167 HD
ATOM     62  C   UNL A   1      43.884  28.989  34.310  1.00  0.00     0.074 A 
ATOM     63  C   UNL A   1      44.087  29.711  35.548  1.00  0.00     0.031 C 
ATOM     64  C   UNL A   1      44.664  27.959  33.892  1.00  0.00     0.031 A 
BRANCH  51  65
ATOM     65  C   UNL A   1      42.866  25.468  28.523  1.00  0.00    -0.014 A 
ATOM     66  C   UNL A   1      42.299  24.190  28.658  1.00  0.00     0.010 A 
ATOM     67  C   UNL A   1      43.617  25.765  27.370  1.00  0.00     0.010 A 
ATOM     68  C   UNL A   1      42.511  23.214  27.680  1.00  0.00     0.020 A 
ATOM     69  C   UNL A   1      43.804  24.803  26.374  1.00  0.00     0.020 A 
ATOM     70  C   UNL A   1      43.263  23.528  26.544  1.00  0.00     0.054 A 
BRANCH  70  71
ATOM     71  S   UNL A   1      43.502  22.248  25.281  1.00  0.00     0.124 S 
ATOM     72  O   UNL A   1      42.364  21.367  25.524  1.00  0.00    -0.237 OA
ATOM     73  O   UNL A   1      43.449  23.013  24.038  1.00  0.00    -0.237 OA
ATOM     74  O   UNL A   1      44.809  21.680  25.604  1.00  0.00    -0.744 OA
ENDBRANCH  70  71
ENDBRANCH  51  65
BRANCH  52  75
ATOM     75  C   UNL A   1      40.941  32.518  35.348  1.00  0.00    -0.014 A 
ATOM     76  C   UNL A   1      41.556  33.781  35.308  1.00  0.00     0.010 A 
ATOM     77  C   UNL A   1      40.047  32.229  36.395  1.00  0.00     0.010 A 
ATOM     78  C   UNL A   1      41.300  34.728  36.303  1.00  0.00     0.020 A 
ATOM     79  C   UNL A   1      39.761  33.185  37.375  1.00  0.00     0.020 A 
ATOM     80  C   UNL A   1      40.399  34.426  37.329  1.00  0.00     0.054 A 
BRANCH  80  81
ATOM     81  S   UNL A   1      40.046  35.691  38.581  1.00  0.00     0.124 S 
ATOM     82  O   UNL A   1      39.734  36.855  37.758  1.00  0.00    -0.237 OA
ATOM     83  O   UNL A   1      38.922  35.108  39.307  1.00  0.00    -0.237 OA
ATOM     84  O   UNL A   1      41.292  35.778  39.339  1.00  0.00    -0.744 OA
ENDBRANCH  80  81
ENDBRANCH  52  75
BRANCH  64  85
ATOM     85  C   UNL A   1      45.844  27.578  34.751  1.00  0.00    -0.014 A 
ATOM     86  C   UNL A   1      45.728  26.634  35.787  1.00  0.00     0.010 A 
ATOM     87  C   UNL A   1      47.107  28.134  34.473  1.00  0.00     0.010 A 
ATOM     88  C   UNL A   1      46.846  26.279  36.548  1.00  0.00     0.020 A 
ATOM     89  C   UNL A   1      48.233  27.756  35.209  1.00  0.00     0.020 A 
ATOM     90  C   UNL A   1      48.093  26.840  36.252  1.00  0.00     0.054 A 
BRANCH  90  91
ATOM     91  S   UNL A   1      49.535  26.328  37.225  1.00  0.00     0.124 S 
ATOM     92  O   UNL A   1      50.029  25.185  36.461  1.00  0.00    -0.237 OA
ATOM     93  O   UNL A   1      50.381  27.519  37.193  1.00  0.00    -0.237 OA
ATOM     94  O   UNL A   1      48.974  26.005  38.536  1.00  0.00    -0.744 OA
ENDBRANCH  90  91
ENDBRANCH  64  85
ENDBRANCH  38  39
ENDBRANCH  31  33
ENDBRANCH  30  31
ENDBRANCH  29  30
ENDBRANCH  28  29
ENDBRANCH  27  28
ENDBRANCH   1  27
TORSDOF 22
ENDMDL
MODEL 2
REMARK VINA RESULT:     -10.2      3.525      8.653
REMARK SMILES Cc1cc(F)ccc1NC(=O)[C@H]1CC=CC[C@@H]1C(=O)OCCOCCOCCOC(=O)c1ccc(-c2c3nc(c(-c4ccc(S(=O)(=O)[O-])cc4)c4ccc([nH]4)c(-c4ccc(S(=O)(=O)[O-])cc4)c4nc(c(-c5ccc(S(=O)(=O)[O-])cc5)c5ccc2[nH]5)C=C4)C=C3)cc1
REMARK SMILES IDX 25 1 24 2 23 3 22 4 21 5 20 6 18 7 19 8 17 9 12 10 13 11
REMARK SMILES IDX 14 12 16 13 15 14 10 15 9 16 11 18 8 19 1 20 2 21 3 22 4 23
REMARK SMILES IDX 7 24 5 25 6 26 26 27 27 28 28 29 29 30 30 31 31 32 32 33
REMARK SMILES IDX 33 34 91 35 34 36 90 37 35 38 36 39 37 40 84 41 38 42 89 43
REMARK SMILES IDX 83 44 85 45 39 46 88 47 82 48 81 49 40 51 70 52 51 53 69 54
REMARK SMILES IDX 52 55 55 56 68 57 86 58 53 59 54 60 67 62 87 63 56 64 41 65
REMARK SMILES IDX 42 66 50 67 43 68 49 69 44 70 45 71 46 72 47 73 48 74 71 75
REMARK SMILES IDX 72 76 80 77 73 78 79 79 74 80 75 81 76 82 77 83 78 84 57 85
REMARK SMILES IDX 58 86 66 87 59 88 65 89 60 90 61 91 62 92 63 93 64 94
REMARK H PARENT 9 17 85 50 55 61
REMARK Flexibility Score: inf
ROOT
ATOM      1  C   UNL A   1      31.721  29.612  24.602  1.00  0.00     0.188 C 
ENDROOT
BRANCH   1   2
ATOM      2  C   UNL A   1      31.935  29.071  23.172  1.00  0.00     0.188 C 
BRANCH   2   3
ATOM      3  O   UNL A   1      30.846  28.484  22.451  1.00  0.00    -0.376 OA
BRANCH   3   4
ATOM      4  C   UNL A   1      29.522  28.495  22.985  1.00  0.00     0.202 C 
BRANCH   4   5
ATOM      5  C   UNL A   1      28.962  27.176  23.530  1.00  0.00     0.261 C 
BRANCH   5   6
ATOM      6  O   UNL A   1      29.995  26.202  23.464  1.00  0.00    -0.463 OA
BRANCH   6   7
ATOM      7  C   UNL A   1      30.571  25.514  24.487  1.00  0.00     0.310 C 
ATOM      8  O   UNL A   1      30.228  25.518  25.651  1.00  0.00    -0.252 OA
BRANCH   7   9
ATOM      9  C   UNL A   1      31.721  24.761  23.807  1.00  0.00     0.116 C 
ATOM     10  C   UNL A   1      32.554  23.677  24.468  1.00  0.00     0.097 C 
ATOM     11  C   UNL A   1      33.156  24.217  25.783  1.00  0.00     0.041 C 
ATOM     12  C   UNL A   1      33.988  25.430  25.500  1.00  0.00    -0.030 C 
ATOM     13  C   UNL A   1      32.686  25.869  23.424  1.00  0.00     0.043 C 
ATOM     14  C   UNL A   1      33.794  26.152  24.389  1.00  0.00    -0.030 C 
BRANCH  10  15
ATOM     15  C   UNL A   1      33.697  22.938  23.631  1.00  0.00     0.228 C 
ATOM     16  N   UNL A   1      35.047  22.734  23.780  1.00  0.00    -0.326 N 
ATOM     17  H   UNL A   1      35.405  22.523  22.888  1.00  0.00     0.169 HD
ATOM     18  O   UNL A   1      33.315  22.522  22.513  1.00  0.00    -0.274 OA
BRANCH  16  19
ATOM     19  C   UNL A   1      36.153  22.700  24.692  1.00  0.00     0.044 A 
ATOM     20  C   UNL A   1      36.109  20.121  24.825  1.00  0.00     0.047 C 
ATOM     21  C   UNL A   1      36.749  21.465  25.038  1.00  0.00    -0.025 A 
ATOM     22  C   UNL A   1      37.986  21.436  25.738  1.00  0.00     0.044 A 
ATOM     23  C   UNL A   1      38.582  22.605  26.173  1.00  0.00     0.123 A 
ATOM     24  C   UNL A   1      36.643  23.793  25.415  1.00  0.00     0.029 A 
ATOM     25  F   UNL A   1      39.769  22.578  26.792  1.00  0.00    -0.207 F 
ATOM     26  C   UNL A   1      37.894  23.789  26.055  1.00  0.00     0.041 A 
ENDBRANCH  16  19
ENDBRANCH  10  15
ENDBRANCH   7   9
ENDBRANCH   6   7
ENDBRANCH   5   6
ENDBRANCH   4   5
ENDBRANCH   3   4
ENDBRANCH   2   3
ENDBRANCH   1   2
BRANCH   1  27
ATOM     27  O   UNL A   1      31.766  28.582  25.563  1.00  0.00    -0.376 OA
BRANCH  27  28
ATOM     28  C   UNL A   1      32.342  28.847  26.824  1.00  0.00     0.202 C 
BRANCH  28  29
ATOM     29  C   UNL A   1      32.898  30.251  27.113  1.00  0.00     0.261 C 
BRANCH  29  30
ATOM     30  O   UNL A   1      34.325  30.382  27.148  1.00  0.00    -0.460 OA
BRANCH  30  31
ATOM     31  C   UNL A   1      34.859  30.927  28.264  1.00  0.00     0.338 C 
ATOM     32  O   UNL A   1      34.311  31.691  29.049  1.00  0.00    -0.246 OA
BRANCH  31  33
ATOM     33  C   UNL A   1      36.172  30.304  28.503  1.00  0.00     0.060 A 
ATOM     34  C   UNL A   1      36.495  29.862  29.794  1.00  0.00     0.016 A 
ATOM     35  C   UNL A   1      37.085  30.167  27.457  1.00  0.00     0.016 A 
ATOM     36  C   UNL A   1      37.747  29.296  30.046  1.00  0.00     0.010 A 
ATOM     37  C   UNL A   1      38.340  29.613  27.714  1.00  0.00     0.010 A 
ATOM     38  C   UNL A   1      38.688  29.196  29.012  1.00  0.00    -0.014 A 
BRANCH  38  39
ATOM     39  C   UNL A   1      40.093  28.804  29.283  1.00  0.00     0.031 A 
ATOM     40  C   UNL A   1      41.030  29.836  29.849  1.00  0.00     0.074 A 
ATOM     41  C   UNL A   1      40.547  27.575  28.975  1.00  0.00     0.049 A 
ATOM     42  N   UNL A   1      42.324  29.777  30.022  1.00  0.00    -0.248 NA
ATOM     43  C   UNL A   1      40.423  31.113  30.261  1.00  0.00     0.031 C 
ATOM     44  C   UNL A   1      39.734  26.475  28.459  1.00  0.00     0.029 A 
ATOM     45  N   UNL A   1      41.819  27.058  29.029  1.00  0.00    -0.354 N 
ATOM     46  C   UNL A   1      42.692  31.015  30.536  1.00  0.00     0.074 A 
ATOM     47  C   UNL A   1      41.487  31.812  30.627  1.00  0.00     0.031 C 
ATOM     48  C   UNL A   1      40.532  25.417  28.226  1.00  0.00     0.029 A 
ATOM     49  C   UNL A   1      41.914  25.780  28.532  1.00  0.00     0.049 A 
ATOM     50  H   UNL A   1      42.587  27.556  29.391  1.00  0.00     0.167 HD
ATOM     51  C   UNL A   1      43.923  31.451  30.897  1.00  0.00     0.031 A 
ATOM     52  C   UNL A   1      42.998  25.006  28.317  1.00  0.00     0.031 A 
ATOM     53  C   UNL A   1      45.120  30.659  30.791  1.00  0.00     0.049 A 
ATOM     54  C   UNL A   1      44.368  25.539  28.657  1.00  0.00     0.074 A 
ATOM     55  C   UNL A   1      46.411  31.000  31.156  1.00  0.00     0.029 A 
ATOM     56  N   UNL A   1      45.178  29.375  30.269  1.00  0.00    -0.354 N 
ATOM     57  N   UNL A   1      44.699  26.700  29.171  1.00  0.00    -0.248 NA
ATOM     58  C   UNL A   1      45.510  24.653  28.391  1.00  0.00     0.031 C 
ATOM     59  C   UNL A   1      47.258  29.949  30.793  1.00  0.00     0.029 A 
ATOM     60  C   UNL A   1      46.485  28.921  30.274  1.00  0.00     0.049 A 
ATOM     61  H   UNL A   1      44.403  28.862  29.945  1.00  0.00     0.167 HD
ATOM     62  C   UNL A   1      46.083  26.668  29.324  1.00  0.00     0.074 A 
ATOM     63  C   UNL A   1      46.523  25.370  28.859  1.00  0.00     0.031 C 
ATOM     64  C   UNL A   1      46.913  27.624  29.811  1.00  0.00     0.031 A 
BRANCH  51  65
ATOM     65  C   UNL A   1      44.042  32.866  31.404  1.00  0.00    -0.014 A 
ATOM     66  C   UNL A   1      44.183  33.952  30.522  1.00  0.00     0.010 A 
ATOM     67  C   UNL A   1      43.974  33.114  32.788  1.00  0.00     0.010 A 
ATOM     68  C   UNL A   1      44.296  35.255  31.016  1.00  0.00     0.020 A 
ATOM     69  C   UNL A   1      44.053  34.418  33.283  1.00  0.00     0.020 A 
ATOM     70  C   UNL A   1      44.230  35.479  32.394  1.00  0.00     0.054 A 
BRANCH  70  71
ATOM     71  S   UNL A   1      44.357  37.182  33.004  1.00  0.00     0.124 S 
ATOM     72  O   UNL A   1      45.614  37.145  33.745  1.00  0.00    -0.237 OA
ATOM     73  O   UNL A   1      44.380  37.962  31.769  1.00  0.00    -0.237 OA
ATOM     74  O   UNL A   1      43.157  37.350  33.821  1.00  0.00    -0.744 OA
ENDBRANCH  70  71
ENDBRANCH  51  65
BRANCH  52  75
ATOM     75  C   UNL A   1      42.839  23.643  27.734  1.00  0.00    -0.014 A 
ATOM     76  C   UNL A   1      42.568  22.540  28.563  1.00  0.00     0.010 A 
ATOM     77  C   UNL A   1      42.968  23.438  26.348  1.00  0.00     0.010 A 
ATOM     78  C   UNL A   1      42.448  21.257  28.021  1.00  0.00     0.020 A 
ATOM     79  C   UNL A   1      42.817  22.161  25.797  1.00  0.00     0.020 A 
ATOM     80  C   UNL A   1      42.568  21.077  26.640  1.00  0.00     0.054 A 
BRANCH  80  81
ATOM     81  S   UNL A   1      42.359  19.408  25.957  1.00  0.00     0.124 S 
ATOM     82  O   UNL A   1      40.915  19.341  25.754  1.00  0.00    -0.237 OA
ATOM     83  O   UNL A   1      43.167  19.463  24.742  1.00  0.00    -0.237 OA
ATOM     84  O   UNL A   1      42.883  18.540  27.009  1.00  0.00    -0.744 OA
ENDBRANCH  80  81
ENDBRANCH  52  75
BRANCH  64  85
ATOM     85  C   UNL A   1      48.381  27.293  29.918  1.00  0.00    -0.014 A 
ATOM     86  C   UNL A   1      49.272  27.536  28.858  1.00  0.00     0.010 A 
ATOM     87  C   UNL A   1      48.886  26.783  31.130  1.00  0.00     0.010 A 
ATOM     88  C   UNL A   1      50.632  27.245  28.995  1.00  0.00     0.020 A 
ATOM     89  C   UNL A   1      50.250  26.524  31.284  1.00  0.00     0.020 A 
ATOM     90  C   UNL A   1      51.114  26.743  30.209  1.00  0.00     0.054 A 
BRANCH  90  91
ATOM     91  S   UNL A   1      52.890  26.417  30.378  1.00  0.00     0.124 S 
ATOM     92  O   UNL A   1      53.390  27.697  30.871  1.00  0.00    -0.237 OA
ATOM     93  O   UNL A   1      52.923  25.317  31.339  1.00  0.00    -0.237 OA
ATOM     94  O   UNL A   1      53.310  26.065  29.023  1.00  0.00    -0.744 OA
ENDBRANCH  90  91
ENDBRANCH  64  85
ENDBRANCH  38  39
ENDBRANCH  31  33
ENDBRANCH  30  31
ENDBRANCH  29  30
ENDBRANCH  28  29
ENDBRANCH  27  28
ENDBRANCH   1  27
TORSDOF 22
ENDMDL
MODEL 3
REMARK VINA RESULT:     -10.2      3.387      8.493
REMARK SMILES Cc1cc(F)ccc1NC(=O)[C@H]1CC=CC[C@@H]1C(=O)OCCOCCOCCOC(=O)c1ccc(-c2c3nc(c(-c4ccc(S(=O)(=O)[O-])cc4)c4ccc([nH]4)c(-c4ccc(S(=O)(=O)[O-])cc4)c4nc(c(-c5ccc(S(=O)(=O)[O-])cc5)c5ccc2[nH]5)C=C4)C=C3)cc1
REMARK SMILES IDX 25 1 24 2 23 3 22 4 21 5 20 6 18 7 19 8 17 9 12 10 13 11
REMARK SMILES IDX 14 12 16 13 15 14 10 15 9 16 11 18 8 19 1 20 2 21 3 22 4 23
REMARK SMILES IDX 7 24 5 25 6 26 26 27 27 28 28 29 29 30 30 31 31 32 32 33
REMARK SMILES IDX 33 34 91 35 34 36 90 37 35 38 36 39 37 40 84 41 38 42 89 43
REMARK SMILES IDX 83 44 85 45 39 46 88 47 82 48 81 49 40 51 70 52 51 53 69 54
REMARK SMILES IDX 52 55 55 56 68 57 86 58 53 59 54 60 67 62 87 63 56 64 41 65
REMARK SMILES IDX 42 66 50 67 43 68 49 69 44 70 45 71 46 72 47 73 48 74 71 75
REMARK SMILES IDX 72 76 80 77 73 78 79 79 74 80 75 81 76 82 77 83 78 84 57 85
REMARK SMILES IDX 58 86 66 87 59 88 65 89 60 90 61 91 62 92 63 93 64 94
REMARK H PARENT 9 17 85 50 55 61
REMARK Flexibility Score: inf
ROOT
ATOM      1  C   UNL A   1      31.355  29.413  24.652  1.00  0.00     0.188 C 
ENDROOT
BRANCH   1   2
ATOM      2  C   UNL A   1      31.527  28.831  23.232  1.00  0.00     0.188 C 
BRANCH   2   3
ATOM      3  O   UNL A   1      30.387  28.375  22.495  1.00  0.00    -0.376 OA
BRANCH   3   4
ATOM      4  C   UNL A   1      29.063  28.579  22.991  1.00  0.00     0.202 C 
BRANCH   4   5
ATOM      5  C   UNL A   1      28.368  27.396  23.674  1.00  0.00     0.261 C 
BRANCH   5   6
ATOM      6  O   UNL A   1      29.281  26.308  23.699  1.00  0.00    -0.463 OA
BRANCH   6   7
ATOM      7  C   UNL A   1      29.909  25.759  24.775  1.00  0.00     0.310 C 
ATOM      8  O   UNL A   1      29.611  25.902  25.943  1.00  0.00    -0.252 OA
BRANCH   7   9
ATOM      9  C   UNL A   1      31.046  24.945  24.146  1.00  0.00     0.116 C 
ATOM     10  C   UNL A   1      31.033  23.436  23.967  1.00  0.00     0.097 C 
ATOM     11  C   UNL A   1      30.763  22.757  25.327  1.00  0.00     0.041 C 
ATOM     12  C   UNL A   1      31.810  23.168  26.316  1.00  0.00    -0.030 C 
ATOM     13  C   UNL A   1      32.235  25.259  25.036  1.00  0.00     0.043 C 
ATOM     14  C   UNL A   1      32.513  24.294  26.145  1.00  0.00    -0.030 C 
BRANCH  10  15
ATOM     15  C   UNL A   1      32.267  22.715  23.254  1.00  0.00     0.228 C 
ATOM     16  N   UNL A   1      32.966  21.548  23.445  1.00  0.00    -0.326 N 
ATOM     17  H   UNL A   1      33.836  21.659  22.998  1.00  0.00     0.169 HD
ATOM     18  O   UNL A   1      32.812  23.408  22.365  1.00  0.00    -0.274 OA
BRANCH  16  19
ATOM     19  C   UNL A   1      32.957  20.235  24.022  1.00  0.00     0.044 A 
ATOM     20  C   UNL A   1      34.575  20.932  25.911  1.00  0.00     0.047 C 
ATOM     21  C   UNL A   1      33.577  20.006  25.272  1.00  0.00    -0.025 A 
ATOM     22  C   UNL A   1      33.366  18.782  25.964  1.00  0.00     0.044 A 
ATOM     23  C   UNL A   1      32.630  17.762  25.392  1.00  0.00     0.123 A 
ATOM     24  C   UNL A   1      32.499  19.074  23.390  1.00  0.00     0.029 A 
ATOM     25  F   UNL A   1      32.394  16.628  26.065  1.00  0.00    -0.207 F 
ATOM     26  C   UNL A   1      32.229  17.881  24.083  1.00  0.00     0.041 A 
ENDBRANCH  16  19
ENDBRANCH  10  15
ENDBRANCH   7   9
ENDBRANCH   6   7
ENDBRANCH   5   6
ENDBRANCH   4   5
ENDBRANCH   3   4
ENDBRANCH   2   3
ENDBRANCH   1   2
BRANCH   1  27
ATOM     27  O   UNL A   1      31.434  28.413  25.641  1.00  0.00    -0.376 OA
BRANCH  27  28
ATOM     28  C   UNL A   1      31.946  28.747  26.913  1.00  0.00     0.202 C 
BRANCH  28  29
ATOM     29  C   UNL A   1      32.566  30.137  27.129  1.00  0.00     0.261 C 
BRANCH  29  30
ATOM     30  O   UNL A   1      33.996  30.221  27.054  1.00  0.00    -0.460 OA
BRANCH  30  31
ATOM     31  C   UNL A   1      34.616  30.924  28.027  1.00  0.00     0.338 C 
ATOM     32  O   UNL A   1      34.139  31.821  28.711  1.00  0.00    -0.246 OA
BRANCH  31  33
ATOM     33  C   UNL A   1      35.931  30.310  28.277  1.00  0.00     0.060 A 
ATOM     34  C   UNL A   1      36.234  29.842  29.564  1.00  0.00     0.016 A 
ATOM     35  C   UNL A   1      36.866  30.208  27.246  1.00  0.00     0.016 A 
ATOM     36  C   UNL A   1      37.488  29.284  29.827  1.00  0.00     0.010 A 
ATOM     37  C   UNL A   1      38.122  29.662  27.515  1.00  0.00     0.010 A 
ATOM     38  C   UNL A   1      38.450  29.219  28.810  1.00  0.00    -0.014 A 
BRANCH  38  39
ATOM     39  C   UNL A   1      39.854  28.836  29.099  1.00  0.00     0.031 A 
ATOM     40  C   UNL A   1      40.787  29.885  29.642  1.00  0.00     0.074 A 
ATOM     41  C   UNL A   1      40.311  27.600  28.827  1.00  0.00     0.049 A 
ATOM     42  N   UNL A   1      42.079  29.832  29.824  1.00  0.00    -0.248 NA
ATOM     43  C   UNL A   1      40.175  31.172  30.016  1.00  0.00     0.031 C 
ATOM     44  C   UNL A   1      39.503  26.485  28.336  1.00  0.00     0.029 A 
ATOM     45  N   UNL A   1      41.583  27.087  28.902  1.00  0.00    -0.354 N 
ATOM     46  C   UNL A   1      42.443  31.084  30.307  1.00  0.00     0.074 A 
ATOM     47  C   UNL A   1      41.236  31.881  30.369  1.00  0.00     0.031 C 
ATOM     48  C   UNL A   1      40.303  25.423  28.136  1.00  0.00     0.029 A 
ATOM     49  C   UNL A   1      41.683  25.796  28.440  1.00  0.00     0.049 A 
ATOM     50  H   UNL A   1      42.349  27.595  29.254  1.00  0.00     0.167 HD
ATOM     51  C   UNL A   1      43.671  31.531  30.663  1.00  0.00     0.031 A 
ATOM     52  C   UNL A   1      42.769  25.018  28.252  1.00  0.00     0.031 A 
ATOM     53  C   UNL A   1      44.870  30.739  30.584  1.00  0.00     0.049 A 
ATOM     54  C   UNL A   1      44.137  25.562  28.585  1.00  0.00     0.074 A 
ATOM     55  C   UNL A   1      46.158  31.090  30.947  1.00  0.00     0.029 A 
ATOM     56  N   UNL A   1      44.932  29.441  30.098  1.00  0.00    -0.354 N 
ATOM     57  N   UNL A   1      44.463  26.737  29.069  1.00  0.00    -0.248 NA
ATOM     58  C   UNL A   1      45.281  24.670  28.350  1.00  0.00     0.031 C 
ATOM     59  C   UNL A   1      47.009  30.031  30.618  1.00  0.00     0.029 A 
ATOM     60  C   UNL A   1      46.240  28.989  30.122  1.00  0.00     0.049 A 
ATOM     61  H   UNL A   1      44.160  28.918  29.783  1.00  0.00     0.167 HD
ATOM     62  C   UNL A   1      45.847  26.711  29.231  1.00  0.00     0.074 A 
ATOM     63  C   UNL A   1      46.291  25.401  28.804  1.00  0.00     0.031 C 
ATOM     64  C   UNL A   1      46.673  27.681  29.697  1.00  0.00     0.031 A 
BRANCH  51  65
ATOM     65  C   UNL A   1      43.786  32.959  31.132  1.00  0.00    -0.014 A 
ATOM     66  C   UNL A   1      43.980  34.016  30.226  1.00  0.00     0.010 A 
ATOM     67  C   UNL A   1      43.659  33.250  32.503  1.00  0.00     0.010 A 
ATOM     68  C   UNL A   1      44.088  35.332  30.685  1.00  0.00     0.020 A 
ATOM     69  C   UNL A   1      43.732  34.567  32.963  1.00  0.00     0.020 A 
ATOM     70  C   UNL A   1      43.963  35.599  32.051  1.00  0.00     0.054 A 
BRANCH  70  71
ATOM     71  S   UNL A   1      44.084  37.318  32.615  1.00  0.00     0.124 S 
ATOM     72  O   UNL A   1      43.871  38.058  31.374  1.00  0.00    -0.237 OA
ATOM     73  O   UNL A   1      43.002  37.411  33.592  1.00  0.00    -0.237 OA
ATOM     74  O   UNL A   1      45.431  37.409  33.170  1.00  0.00    -0.744 OA
ENDBRANCH  70  71
ENDBRANCH  51  65
BRANCH  52  75
ATOM     75  C   UNL A   1      42.616  23.639  27.705  1.00  0.00    -0.014 A 
ATOM     76  C   UNL A   1      42.859  23.380  26.346  1.00  0.00     0.010 A 
ATOM     77  C   UNL A   1      42.216  22.579  28.540  1.00  0.00     0.010 A 
ATOM     78  C   UNL A   1      42.689  22.093  25.826  1.00  0.00     0.020 A 
ATOM     79  C   UNL A   1      42.075  21.283  28.032  1.00  0.00     0.020 A 
ATOM     80  C   UNL A   1      42.302  21.051  26.674  1.00  0.00     0.054 A 
BRANCH  80  81
ATOM     81  S   UNL A   1      42.135  19.381  25.984  1.00  0.00     0.124 S 
ATOM     82  O   UNL A   1      43.002  19.448  24.813  1.00  0.00    -0.237 OA
ATOM     83  O   UNL A   1      42.612  18.541  27.079  1.00  0.00    -0.237 OA
ATOM     84  O   UNL A   1      40.706  19.271  25.699  1.00  0.00    -0.744 OA
ENDBRANCH  80  81
ENDBRANCH  52  75
BRANCH  64  85
ATOM     85  C   UNL A   1      48.140  27.355  29.821  1.00  0.00    -0.014 A 
ATOM     86  C   UNL A   1      49.043  27.605  28.773  1.00  0.00     0.010 A 
ATOM     87  C   UNL A   1      48.632  26.842  31.037  1.00  0.00     0.010 A 
ATOM     88  C   UNL A   1      50.403  27.319  28.926  1.00  0.00     0.020 A 
ATOM     89  C   UNL A   1      49.995  26.587  31.207  1.00  0.00     0.020 A 
ATOM     90  C   UNL A   1      50.871  26.814  30.144  1.00  0.00     0.054 A 
BRANCH  90  91
ATOM     91  S   UNL A   1      52.646  26.494  30.334  1.00  0.00     0.124 S 
ATOM     92  O   UNL A   1      53.176  27.836  30.560  1.00  0.00    -0.237 OA
ATOM     93  O   UNL A   1      52.688  25.599  31.488  1.00  0.00    -0.237 OA
ATOM     94  O   UNL A   1      53.027  25.881  29.063  1.00  0.00    -0.744 OA
ENDBRANCH  90  91
ENDBRANCH  64  85
ENDBRANCH  38  39
ENDBRANCH  31  33
ENDBRANCH  30  31
ENDBRANCH  29  30
ENDBRANCH  28  29
ENDBRANCH  27  28
ENDBRANCH   1  27
TORSDOF 22
ENDMDL
