MODEL 1
REMARK VINA RESULT:      -9.4      0.000      0.000
REMARK SMILES Cc1ccc2c(c1)=N[C@H](/C(C#N)=C/c1ccccc1C(=O)OCCOCCOCCOC(=O)c1ccc(-c3c4nc(c(-c5ccc(S(=O)(=O)[O-])cc5)c5ccc([nH]5)c(-c5ccc(S(=O)(=O)[O-])cc5)c5nc(c(-c6ccc(S(=O)(=O)[O-])cc6)c6ccc3[nH]6)C=C5)C=C4)cc1)N=2
REMARK SMILES IDX 27 1 26 2 25 3 24 4 23 5 22 6 20 7 21 8 19 9 14 10 15 11
REMARK SMILES IDX 16 12 18 13 17 14 13 15 10 16 9 17 1 18 2 19 3 20 7 21 4 22
REMARK SMILES IDX 6 23 5 24 8 25 94 26 11 27 12 28 28 29 29 30 30 31 31 32
REMARK SMILES IDX 32 33 33 34 34 35 35 36 93 37 36 38 92 39 37 40 38 41 39 42
REMARK SMILES IDX 86 43 40 44 91 45 85 46 87 47 41 48 90 49 84 50 83 51 42 53
REMARK SMILES IDX 72 54 53 55 71 56 54 57 57 58 70 59 88 60 55 61 56 62 69 64
REMARK SMILES IDX 89 65 58 66 43 67 44 68 52 69 45 70 51 71 46 72 47 73 48 74
REMARK SMILES IDX 49 75 50 76 73 77 74 78 82 79 75 80 81 81 76 82 77 83 78 84
REMARK SMILES IDX 79 85 80 86 59 87 60 88 68 89 61 90 67 91 62 92 63 93 64 94
REMARK SMILES IDX 65 95 66 96
REMARK H PARENT 87 52 57 63
REMARK Flexibility Score: inf
ROOT
ATOM      1  C   UNL A   1      46.112  39.431  26.255  1.00  0.00     0.188 C 
ENDROOT
BRANCH   1   2
ATOM      2  C   UNL A   1      45.269  40.568  25.636  1.00  0.00     0.188 C 
BRANCH   2   3
ATOM      3  O   UNL A   1      43.871  40.469  25.771  1.00  0.00    -0.376 OA
BRANCH   3   4
ATOM      4  C   UNL A   1      43.045  41.581  25.465  1.00  0.00     0.202 C 
BRANCH   4   5
ATOM      5  C   UNL A   1      42.247  41.781  24.159  1.00  0.00     0.261 C 
BRANCH   5   6
ATOM      6  O   UNL A   1      42.963  42.239  23.007  1.00  0.00    -0.460 OA
BRANCH   6   7
ATOM      7  C   UNL A   1      42.677  43.501  22.598  1.00  0.00     0.338 C 
ATOM      8  O   UNL A   1      42.491  44.466  23.323  1.00  0.00    -0.246 OA
BRANCH   7   9
ATOM      9  C   UNL A   1      42.838  43.642  21.130  1.00  0.00     0.067 A 
ATOM     10  C   UNL A   1      43.984  44.146  20.486  1.00  0.00    -0.010 A 
ATOM     11  C   UNL A   1      44.012  44.091  19.077  1.00  0.00     0.009 A 
ATOM     12  C   UNL A   1      42.887  43.726  18.334  1.00  0.00     0.001 A 
ATOM     13  C   UNL A   1      41.710  43.264  20.370  1.00  0.00     0.016 A 
ATOM     14  C   UNL A   1      41.721  43.346  18.980  1.00  0.00     0.001 A 
BRANCH  10  15
ATOM     15  C   UNL A   1      45.146  44.721  21.202  1.00  0.00     0.028 C 
ATOM     16  C   UNL A   1      46.363  44.141  21.354  1.00  0.00     0.076 C 
BRANCH  16  17
ATOM     17  C   UNL A   1      47.473  44.818  22.136  1.00  0.00     0.263 C 
ATOM     18  C   UNL A   1      53.229  44.167  20.676  1.00  0.00     0.044 C 
ATOM     19  C   UNL A   1      51.829  44.639  20.946  1.00  0.00    -0.049 A 
ATOM     20  C   UNL A   1      51.488  45.970  20.454  1.00  0.00     0.006 A 
ATOM     21  C   UNL A   1      50.936  43.873  21.599  1.00  0.00     0.033 A 
ATOM     22  C   UNL A   1      50.262  46.505  20.549  1.00  0.00     0.030 A 
ATOM     23  C   UNL A   1      49.579  44.398  21.785  1.00  0.00     0.086 A 
ATOM     24  C   UNL A   1      49.224  45.710  21.207  1.00  0.00     0.086 A 
ATOM     25  N   UNL A   1      48.588  43.863  22.411  1.00  0.00    -0.251 NA
ATOM     26  N   UNL A   1      47.985  46.003  21.397  1.00  0.00    -0.251 NA
ENDBRANCH  16  17
BRANCH  16  27
ATOM     27  C   UNL A   1      46.660  42.848  20.817  1.00  0.00     0.099 C 
ATOM     28  N   UNL A   1      46.930  41.823  20.335  1.00  0.00    -0.193 NA
ENDBRANCH  16  27
ENDBRANCH  10  15
ENDBRANCH   7   9
ENDBRANCH   6   7
ENDBRANCH   5   6
ENDBRANCH   4   5
ENDBRANCH   3   4
ENDBRANCH   2   3
ENDBRANCH   1   2
BRANCH   1  29
ATOM     29  O   UNL A   1      47.509  39.409  26.054  1.00  0.00    -0.376 OA
BRANCH  29  30
ATOM     30  C   UNL A   1      48.347  38.757  26.991  1.00  0.00     0.202 C 
BRANCH  30  31
ATOM     31  C   UNL A   1      48.010  38.558  28.485  1.00  0.00     0.261 C 
BRANCH  31  32
ATOM     32  O   UNL A   1      47.512  37.281  28.900  1.00  0.00    -0.460 OA
BRANCH  32  33
ATOM     33  C   UNL A   1      48.450  36.325  29.130  1.00  0.00     0.338 C 
ATOM     34  O   UNL A   1      49.601  36.495  29.488  1.00  0.00    -0.246 OA
BRANCH  33  35
ATOM     35  C   UNL A   1      47.794  35.003  29.052  1.00  0.00     0.060 A 
ATOM     36  C   UNL A   1      47.166  34.606  27.874  1.00  0.00     0.016 A 
ATOM     37  C   UNL A   1      47.804  34.154  30.170  1.00  0.00     0.016 A 
ATOM     38  C   UNL A   1      46.558  33.349  27.811  1.00  0.00     0.010 A 
ATOM     39  C   UNL A   1      47.182  32.903  30.109  1.00  0.00     0.010 A 
ATOM     40  C   UNL A   1      46.571  32.481  28.921  1.00  0.00    -0.014 A 
BRANCH  40  41
ATOM     41  C   UNL A   1      46.076  31.087  28.768  1.00  0.00     0.031 A 
ATOM     42  C   UNL A   1      44.641  30.721  29.017  1.00  0.00     0.074 A 
ATOM     43  C   UNL A   1      46.952  30.143  28.365  1.00  0.00     0.049 A 
ATOM     44  N   UNL A   1      44.045  29.574  28.806  1.00  0.00    -0.248 NA
ATOM     45  C   UNL A   1      43.763  31.762  29.570  1.00  0.00     0.031 C 
ATOM     46  C   UNL A   1      48.374  30.385  28.110  1.00  0.00     0.029 A 
ATOM     47  N   UNL A   1      46.782  28.814  28.067  1.00  0.00    -0.354 N 
ATOM     48  C   UNL A   1      42.717  29.761  29.168  1.00  0.00     0.074 A 
ATOM     49  C   UNL A   1      42.608  31.114  29.673  1.00  0.00     0.031 C 
ATOM     50  C   UNL A   1      48.931  29.261  27.635  1.00  0.00     0.029 A 
ATOM     51  C   UNL A   1      47.923  28.204  27.596  1.00  0.00     0.049 A 
ATOM     52  H   UNL A   1      45.926  28.342  28.180  1.00  0.00     0.167 HD
ATOM     53  C   UNL A   1      41.683  28.891  29.058  1.00  0.00     0.031 A 
ATOM     54  C   UNL A   1      48.140  26.944  27.164  1.00  0.00     0.031 A 
ATOM     55  C   UNL A   1      41.812  27.541  28.561  1.00  0.00     0.049 A 
ATOM     56  C   UNL A   1      46.984  25.981  27.114  1.00  0.00     0.074 A 
ATOM     57  C   UNL A   1      40.814  26.596  28.391  1.00  0.00     0.029 A 
ATOM     58  N   UNL A   1      42.996  26.942  28.152  1.00  0.00    -0.354 N 
ATOM     59  N   UNL A   1      45.720  26.198  27.390  1.00  0.00    -0.248 NA
ATOM     60  C   UNL A   1      47.276  24.608  26.677  1.00  0.00     0.031 C 
ATOM     61  C   UNL A   1      41.403  25.404  27.967  1.00  0.00     0.029 A 
ATOM     62  C   UNL A   1      42.754  25.631  27.768  1.00  0.00     0.049 A 
ATOM     63  H   UNL A   1      43.876  27.382  28.137  1.00  0.00     0.167 HD
ATOM     64  C   UNL A   1      45.062  25.001  27.126  1.00  0.00     0.074 A 
ATOM     65  C   UNL A   1      46.063  24.070  26.648  1.00  0.00     0.031 C 
ATOM     66  C   UNL A   1      43.748  24.705  27.272  1.00  0.00     0.031 A 
BRANCH  53  67
ATOM     67  C   UNL A   1      40.296  29.356  29.435  1.00  0.00    -0.014 A 
ATOM     68  C   UNL A   1      39.395  29.775  28.436  1.00  0.00     0.010 A 
ATOM     69  C   UNL A   1      39.954  29.558  30.785  1.00  0.00     0.010 A 
ATOM     70  C   UNL A   1      38.211  30.439  28.777  1.00  0.00     0.020 A 
ATOM     71  C   UNL A   1      38.755  30.188  31.131  1.00  0.00     0.020 A 
ATOM     72  C   UNL A   1      37.908  30.655  30.124  1.00  0.00     0.054 A 
BRANCH  72  73
ATOM     73  S   UNL A   1      36.412  31.593  30.542  1.00  0.00     0.124 S 
ATOM     74  O   UNL A   1      35.897  30.859  31.693  1.00  0.00    -0.237 OA
ATOM     75  O   UNL A   1      36.943  32.924  30.827  1.00  0.00    -0.237 OA
ATOM     76  O   UNL A   1      35.599  31.504  29.330  1.00  0.00    -0.744 OA
ENDBRANCH  72  73
ENDBRANCH  53  67
BRANCH  54  77
ATOM     77  C   UNL A   1      49.498  26.554  26.683  1.00  0.00    -0.014 A 
ATOM     78  C   UNL A   1      49.893  26.819  25.358  1.00  0.00     0.010 A 
ATOM     79  C   UNL A   1      50.382  25.858  27.527  1.00  0.00     0.010 A 
ATOM     80  C   UNL A   1      51.114  26.345  24.870  1.00  0.00     0.020 A 
ATOM     81  C   UNL A   1      51.624  25.421  27.056  1.00  0.00     0.020 A 
ATOM     82  C   UNL A   1      51.968  25.640  25.721  1.00  0.00     0.054 A 
BRANCH  82  83
ATOM     83  S   UNL A   1      53.524  24.994  25.049  1.00  0.00     0.124 S 
ATOM     84  O   UNL A   1      53.337  23.553  25.193  1.00  0.00    -0.237 OA
ATOM     85  O   UNL A   1      53.508  25.497  23.678  1.00  0.00    -0.237 OA
ATOM     86  O   UNL A   1      54.544  25.580  25.914  1.00  0.00    -0.744 OA
ENDBRANCH  82  83
ENDBRANCH  54  77
BRANCH  66  87
ATOM     87  C   UNL A   1      43.270  23.319  26.901  1.00  0.00    -0.014 A 
ATOM     88  C   UNL A   1      42.613  22.528  27.864  1.00  0.00     0.010 A 
ATOM     89  C   UNL A   1      43.604  22.743  25.663  1.00  0.00     0.010 A 
ATOM     90  C   UNL A   1      42.353  21.177  27.621  1.00  0.00     0.020 A 
ATOM     91  C   UNL A   1      43.308  21.400  25.400  1.00  0.00     0.020 A 
ATOM     92  C   UNL A   1      42.715  20.618  26.393  1.00  0.00     0.054 A 
BRANCH  92  93
ATOM     93  S   UNL A   1      42.436  18.846  26.125  1.00  0.00     0.124 S 
ATOM     94  O   UNL A   1      43.390  18.541  25.063  1.00  0.00    -0.237 OA
ATOM     95  O   UNL A   1      42.745  18.272  27.433  1.00  0.00    -0.237 OA
ATOM     96  O   UNL A   1      41.029  18.773  25.738  1.00  0.00    -0.744 OA
ENDBRANCH  92  93
ENDBRANCH  66  87
ENDBRANCH  40  41
ENDBRANCH  33  35
ENDBRANCH  32  33
ENDBRANCH  31  32
ENDBRANCH  30  31
ENDBRANCH  29  30
ENDBRANCH   1  29
TORSDOF 23
ENDMDL
MODEL 2
REMARK VINA RESULT:      -9.2      1.462      2.418
REMARK SMILES Cc1ccc2c(c1)=N[C@H](/C(C#N)=C/c1ccccc1C(=O)OCCOCCOCCOC(=O)c1ccc(-c3c4nc(c(-c5ccc(S(=O)(=O)[O-])cc5)c5ccc([nH]5)c(-c5ccc(S(=O)(=O)[O-])cc5)c5nc(c(-c6ccc(S(=O)(=O)[O-])cc6)c6ccc3[nH]6)C=C5)C=C4)cc1)N=2
REMARK SMILES IDX 27 1 26 2 25 3 24 4 23 5 22 6 20 7 21 8 19 9 14 10 15 11
REMARK SMILES IDX 16 12 18 13 17 14 13 15 10 16 9 17 1 18 2 19 3 20 7 21 4 22
REMARK SMILES IDX 6 23 5 24 8 25 94 26 11 27 12 28 28 29 29 30 30 31 31 32
REMARK SMILES IDX 32 33 33 34 34 35 35 36 93 37 36 38 92 39 37 40 38 41 39 42
REMARK SMILES IDX 86 43 40 44 91 45 85 46 87 47 41 48 90 49 84 50 83 51 42 53
REMARK SMILES IDX 72 54 53 55 71 56 54 57 57 58 70 59 88 60 55 61 56 62 69 64
REMARK SMILES IDX 89 65 58 66 43 67 44 68 52 69 45 70 51 71 46 72 47 73 48 74
REMARK SMILES IDX 49 75 50 76 73 77 74 78 82 79 75 80 81 81 76 82 77 83 78 84
REMARK SMILES IDX 79 85 80 86 59 87 60 88 68 89 61 90 67 91 62 92 63 93 64 94
REMARK SMILES IDX 65 95 66 96
REMARK H PARENT 87 52 57 63
REMARK Flexibility Score: inf
ROOT
ATOM      1  C   UNL A   1      45.783  39.346  26.337  1.00  0.00     0.188 C 
ENDROOT
BRANCH   1   2
ATOM      2  C   UNL A   1      44.815  40.369  25.704  1.00  0.00     0.188 C 
BRANCH   2   3
ATOM      3  O   UNL A   1      43.437  40.131  25.875  1.00  0.00    -0.376 OA
BRANCH   3   4
ATOM      4  C   UNL A   1      42.501  41.174  25.658  1.00  0.00     0.202 C 
BRANCH   4   5
ATOM      5  C   UNL A   1      41.767  41.466  24.332  1.00  0.00     0.261 C 
BRANCH   5   6
ATOM      6  O   UNL A   1      42.547  41.957  23.235  1.00  0.00    -0.460 OA
BRANCH   6   7
ATOM      7  C   UNL A   1      42.163  43.156  22.729  1.00  0.00     0.338 C 
ATOM      8  O   UNL A   1      41.612  44.054  23.347  1.00  0.00    -0.246 OA
BRANCH   7   9
ATOM      9  C   UNL A   1      42.698  43.359  21.359  1.00  0.00     0.067 A 
ATOM     10  C   UNL A   1      44.014  43.754  21.055  1.00  0.00    -0.010 A 
ATOM     11  C   UNL A   1      44.386  43.776  19.695  1.00  0.00     0.009 A 
ATOM     12  C   UNL A   1      43.449  43.594  18.674  1.00  0.00     0.001 A 
ATOM     13  C   UNL A   1      41.761  43.164  20.322  1.00  0.00     0.016 A 
ATOM     14  C   UNL A   1      42.126  43.323  18.987  1.00  0.00     0.001 A 
BRANCH  10  15
ATOM     15  C   UNL A   1      45.016  44.142  22.076  1.00  0.00     0.028 C 
ATOM     16  C   UNL A   1      46.232  43.572  22.265  1.00  0.00     0.076 C 
BRANCH  16  17
ATOM     17  C   UNL A   1      47.164  44.038  23.367  1.00  0.00     0.263 C 
ATOM     18  C   UNL A   1      45.182  45.350  28.848  1.00  0.00     0.044 C 
ATOM     19  C   UNL A   1      45.826  44.770  27.621  1.00  0.00    -0.049 A 
ATOM     20  C   UNL A   1      46.446  43.457  27.774  1.00  0.00     0.006 A 
ATOM     21  C   UNL A   1      45.822  45.420  26.443  1.00  0.00     0.033 A 
ATOM     22  C   UNL A   1      46.995  42.772  26.760  1.00  0.00     0.030 A 
ATOM     23  C   UNL A   1      46.440  44.762  25.287  1.00  0.00     0.086 A 
ATOM     24  C   UNL A   1      46.987  43.398  25.437  1.00  0.00     0.086 A 
ATOM     25  N   UNL A   1      46.589  45.212  24.089  1.00  0.00    -0.251 NA
ATOM     26  N   UNL A   1      47.434  42.931  24.324  1.00  0.00    -0.251 NA
ENDBRANCH  16  17
BRANCH  16  27
ATOM     27  C   UNL A   1      46.691  42.480  21.462  1.00  0.00     0.099 C 
ATOM     28  N   UNL A   1      47.073  41.559  20.860  1.00  0.00    -0.193 NA
ENDBRANCH  16  27
ENDBRANCH  10  15
ENDBRANCH   7   9
ENDBRANCH   6   7
ENDBRANCH   5   6
ENDBRANCH   4   5
ENDBRANCH   3   4
ENDBRANCH   2   3
ENDBRANCH   1   2
BRANCH   1  29
ATOM     29  O   UNL A   1      47.168  39.448  26.083  1.00  0.00    -0.376 OA
BRANCH  29  30
ATOM     30  C   UNL A   1      48.091  38.775  26.921  1.00  0.00     0.202 C 
BRANCH  30  31
ATOM     31  C   UNL A   1      47.861  38.471  28.418  1.00  0.00     0.261 C 
BRANCH  31  32
ATOM     32  O   UNL A   1      47.387  37.169  28.776  1.00  0.00    -0.460 OA
BRANCH  32  33
ATOM     33  C   UNL A   1      48.343  36.225  28.983  1.00  0.00     0.338 C 
ATOM     34  O   UNL A   1      49.495  36.409  29.332  1.00  0.00    -0.246 OA
BRANCH  33  35
ATOM     35  C   UNL A   1      47.709  34.893  28.893  1.00  0.00     0.060 A 
ATOM     36  C   UNL A   1      47.163  34.463  27.686  1.00  0.00     0.016 A 
ATOM     37  C   UNL A   1      47.658  34.069  30.028  1.00  0.00     0.016 A 
ATOM     38  C   UNL A   1      46.575  33.198  27.612  1.00  0.00     0.010 A 
ATOM     39  C   UNL A   1      47.055  32.808  29.954  1.00  0.00     0.010 A 
ATOM     40  C   UNL A   1      46.527  32.353  28.739  1.00  0.00    -0.014 A 
BRANCH  40  41
ATOM     41  C   UNL A   1      46.059  30.950  28.586  1.00  0.00     0.031 A 
ATOM     42  C   UNL A   1      44.625  30.562  28.803  1.00  0.00     0.074 A 
ATOM     43  C   UNL A   1      46.960  30.018  28.211  1.00  0.00     0.049 A 
ATOM     44  N   UNL A   1      44.053  29.404  28.588  1.00  0.00    -0.248 NA
ATOM     45  C   UNL A   1      43.716  31.593  29.327  1.00  0.00     0.031 C 
ATOM     46  C   UNL A   1      48.383  30.282  27.989  1.00  0.00     0.029 A 
ATOM     47  N   UNL A   1      46.819  28.684  27.920  1.00  0.00    -0.354 N 
ATOM     48  C   UNL A   1      42.713  29.571  28.916  1.00  0.00     0.074 A 
ATOM     49  C   UNL A   1      42.570  30.926  29.407  1.00  0.00     0.031 C 
ATOM     50  C   UNL A   1      48.970  29.164  27.536  1.00  0.00     0.029 A 
ATOM     51  C   UNL A   1      47.981  28.090  27.482  1.00  0.00     0.049 A 
ATOM     52  H   UNL A   1      45.968  28.198  28.016  1.00  0.00     0.167 HD
ATOM     53  C   UNL A   1      41.698  28.682  28.788  1.00  0.00     0.031 A 
ATOM     54  C   UNL A   1      48.229  26.831  27.065  1.00  0.00     0.031 A 
ATOM     55  C   UNL A   1      41.860  27.331  28.305  1.00  0.00     0.049 A 
ATOM     56  C   UNL A   1      47.091  25.848  26.995  1.00  0.00     0.074 A 
ATOM     57  C   UNL A   1      40.882  26.368  28.119  1.00  0.00     0.029 A 
ATOM     58  N   UNL A   1      43.064  26.749  27.930  1.00  0.00    -0.354 N 
ATOM     59  N   UNL A   1      45.817  26.045  27.239  1.00  0.00    -0.248 NA
ATOM     60  C   UNL A   1      47.416  24.476  26.576  1.00  0.00     0.031 C 
ATOM     61  C   UNL A   1      41.502  25.184  27.719  1.00  0.00     0.029 A 
ATOM     62  C   UNL A   1      42.853  25.432  27.550  1.00  0.00     0.049 A 
ATOM     63  H   UNL A   1      43.936  27.204  27.933  1.00  0.00     0.167 HD
ATOM     64  C   UNL A   1      45.186  24.836  26.969  1.00  0.00     0.074 A 
ATOM     65  C   UNL A   1      46.214  23.918  26.523  1.00  0.00     0.031 C 
ATOM     66  C   UNL A   1      43.874  24.519  27.085  1.00  0.00     0.031 A 
BRANCH  53  67
ATOM     67  C   UNL A   1      40.294  29.127  29.128  1.00  0.00    -0.014 A 
ATOM     68  C   UNL A   1      39.484  29.726  28.143  1.00  0.00     0.010 A 
ATOM     69  C   UNL A   1      39.849  29.126  30.463  1.00  0.00     0.010 A 
ATOM     70  C   UNL A   1      38.290  30.366  28.494  1.00  0.00     0.020 A 
ATOM     71  C   UNL A   1      38.639  29.733  30.813  1.00  0.00     0.020 A 
ATOM     72  C   UNL A   1      37.884  30.378  29.831  1.00  0.00     0.054 A 
BRANCH  72  73
ATOM     73  S   UNL A   1      36.379  31.287  30.278  1.00  0.00     0.124 S 
ATOM     74  O   UNL A   1      36.460  32.464  29.419  1.00  0.00    -0.237 OA
ATOM     75  O   UNL A   1      35.323  30.333  29.947  1.00  0.00    -0.237 OA
ATOM     76  O   UNL A   1      36.545  31.546  31.707  1.00  0.00    -0.744 OA
ENDBRANCH  72  73
ENDBRANCH  53  67
BRANCH  54  77
ATOM     77  C   UNL A   1      49.605  26.459  26.620  1.00  0.00    -0.014 A 
ATOM     78  C   UNL A   1      50.011  26.675  25.289  1.00  0.00     0.010 A 
ATOM     79  C   UNL A   1      50.497  25.831  27.506  1.00  0.00     0.010 A 
ATOM     80  C   UNL A   1      51.252  26.216  24.839  1.00  0.00     0.020 A 
ATOM     81  C   UNL A   1      51.758  25.410  27.072  1.00  0.00     0.020 A 
ATOM     82  C   UNL A   1      52.114  25.577  25.733  1.00  0.00     0.054 A 
BRANCH  82  83
ATOM     83  S   UNL A   1      53.698  24.947  25.111  1.00  0.00     0.124 S 
ATOM     84  O   UNL A   1      53.438  23.512  25.028  1.00  0.00    -0.237 OA
ATOM     85  O   UNL A   1      53.831  25.638  23.832  1.00  0.00    -0.237 OA
ATOM     86  O   UNL A   1      54.656  25.349  26.138  1.00  0.00    -0.744 OA
ENDBRANCH  82  83
ENDBRANCH  54  77
BRANCH  66  87
ATOM     87  C   UNL A   1      43.428  23.122  26.715  1.00  0.00    -0.014 A 
ATOM     88  C   UNL A   1      42.461  22.467  27.503  1.00  0.00     0.010 A 
ATOM     89  C   UNL A   1      44.070  22.403  25.691  1.00  0.00     0.010 A 
ATOM     90  C   UNL A   1      42.189  21.109  27.315  1.00  0.00     0.020 A 
ATOM     91  C   UNL A   1      43.769  21.054  25.473  1.00  0.00     0.020 A 
ATOM     92  C   UNL A   1      42.855  20.408  26.309  1.00  0.00     0.054 A 
BRANCH  92  93
ATOM     93  S   UNL A   1      42.541  18.630  26.130  1.00  0.00     0.124 S 
ATOM     94  O   UNL A   1      42.947  18.113  27.433  1.00  0.00    -0.237 OA
ATOM     95  O   UNL A   1      41.108  18.585  25.852  1.00  0.00    -0.237 OA
ATOM     96  O   UNL A   1      43.397  18.239  25.012  1.00  0.00    -0.744 OA
ENDBRANCH  92  93
ENDBRANCH  66  87
ENDBRANCH  40  41
ENDBRANCH  33  35
ENDBRANCH  32  33
ENDBRANCH  31  32
ENDBRANCH  30  31
ENDBRANCH  29  30
ENDBRANCH   1  29
TORSDOF 23
ENDMDL
MODEL 3
REMARK VINA RESULT:      -9.0      6.230     17.854
REMARK SMILES Cc1ccc2c(c1)=N[C@H](/C(C#N)=C/c1ccccc1C(=O)OCCOCCOCCOC(=O)c1ccc(-c3c4nc(c(-c5ccc(S(=O)(=O)[O-])cc5)c5ccc([nH]5)c(-c5ccc(S(=O)(=O)[O-])cc5)c5nc(c(-c6ccc(S(=O)(=O)[O-])cc6)c6ccc3[nH]6)C=C5)C=C4)cc1)N=2
REMARK SMILES IDX 27 1 26 2 25 3 24 4 23 5 22 6 20 7 21 8 19 9 14 10 15 11
REMARK SMILES IDX 16 12 18 13 17 14 13 15 10 16 9 17 1 18 2 19 3 20 7 21 4 22
REMARK SMILES IDX 6 23 5 24 8 25 94 26 11 27 12 28 28 29 29 30 30 31 31 32
REMARK SMILES IDX 32 33 33 34 34 35 35 36 93 37 36 38 92 39 37 40 38 41 39 42
REMARK SMILES IDX 86 43 40 44 91 45 85 46 87 47 41 48 90 49 84 50 83 51 42 53
REMARK SMILES IDX 72 54 53 55 71 56 54 57 57 58 70 59 88 60 55 61 56 62 69 64
REMARK SMILES IDX 89 65 58 66 43 67 44 68 52 69 45 70 51 71 46 72 47 73 48 74
REMARK SMILES IDX 49 75 50 76 73 77 74 78 82 79 75 80 81 81 76 82 77 83 78 84
REMARK SMILES IDX 79 85 80 86 59 87 60 88 68 89 61 90 67 91 62 92 63 93 64 94
REMARK SMILES IDX 65 95 66 96
REMARK H PARENT 87 52 57 63
REMARK Flexibility Score: inf
ROOT
ATOM      1  C   UNL A   1      40.886  23.332  27.123  1.00  0.00     0.188 C 
ENDROOT
BRANCH   1   2
ATOM      2  C   UNL A   1      40.554  21.857  27.442  1.00  0.00     0.188 C 
BRANCH   2   3
ATOM      3  O   UNL A   1      39.733  21.177  26.522  1.00  0.00    -0.376 OA
BRANCH   3   4
ATOM      4  C   UNL A   1      38.847  21.901  25.685  1.00  0.00     0.202 C 
BRANCH   4   5
ATOM      5  C   UNL A   1      37.305  21.853  25.747  1.00  0.00     0.261 C 
BRANCH   5   6
ATOM      6  O   UNL A   1      36.582  22.924  25.130  1.00  0.00    -0.460 OA
BRANCH   6   7
ATOM      7  C   UNL A   1      36.101  22.670  23.886  1.00  0.00     0.338 C 
ATOM      8  O   UNL A   1      36.726  22.763  22.842  1.00  0.00    -0.246 OA
BRANCH   7   9
ATOM      9  C   UNL A   1      34.762  22.033  23.946  1.00  0.00     0.067 A 
ATOM     10  C   UNL A   1      33.575  22.593  23.435  1.00  0.00    -0.010 A 
ATOM     11  C   UNL A   1      32.415  21.792  23.468  1.00  0.00     0.009 A 
ATOM     12  C   UNL A   1      32.386  20.567  24.138  1.00  0.00     0.001 A 
ATOM     13  C   UNL A   1      34.726  20.789  24.613  1.00  0.00     0.016 A 
ATOM     14  C   UNL A   1      33.535  20.080  24.744  1.00  0.00     0.001 A 
BRANCH  10  15
ATOM     15  C   UNL A   1      33.484  23.960  22.872  1.00  0.00     0.028 C 
ATOM     16  C   UNL A   1      33.476  25.119  23.577  1.00  0.00     0.076 C 
BRANCH  16  17
ATOM     17  C   UNL A   1      33.349  26.466  22.889  1.00  0.00     0.263 C 
ATOM     18  C   UNL A   1      28.260  29.595  22.967  1.00  0.00     0.044 C 
ATOM     19  C   UNL A   1      29.651  29.052  23.134  1.00  0.00    -0.049 A 
ATOM     20  C   UNL A   1      30.498  29.731  24.110  1.00  0.00     0.006 A 
ATOM     21  C   UNL A   1      30.087  27.992  22.430  1.00  0.00     0.033 A 
ATOM     22  C   UNL A   1      31.735  29.324  24.429  1.00  0.00     0.030 A 
ATOM     23  C   UNL A   1      31.447  27.503  22.686  1.00  0.00     0.086 A 
ATOM     24  C   UNL A   1      32.262  28.147  23.736  1.00  0.00     0.086 A 
ATOM     25  N   UNL A   1      32.081  26.544  22.104  1.00  0.00    -0.251 NA
ATOM     26  N   UNL A   1      33.402  27.568  23.887  1.00  0.00    -0.251 NA
ENDBRANCH  16  17
BRANCH  16  27
ATOM     27  C   UNL A   1      33.549  25.140  25.006  1.00  0.00     0.099 C 
ATOM     28  N   UNL A   1      33.622  25.215  26.166  1.00  0.00    -0.193 NA
ENDBRANCH  16  27
ENDBRANCH  10  15
ENDBRANCH   7   9
ENDBRANCH   6   7
ENDBRANCH   5   6
ENDBRANCH   4   5
ENDBRANCH   3   4
ENDBRANCH   2   3
ENDBRANCH   1   2
BRANCH   1  29
ATOM     29  O   UNL A   1      41.102  24.242  28.181  1.00  0.00    -0.376 OA
BRANCH  29  30
ATOM     30  C   UNL A   1      42.348  24.904  28.299  1.00  0.00     0.202 C 
BRANCH  30  31
ATOM     31  C   UNL A   1      43.578  24.630  27.407  1.00  0.00     0.261 C 
BRANCH  31  32
ATOM     32  O   UNL A   1      44.657  23.869  27.960  1.00  0.00    -0.460 OA
BRANCH  32  33
ATOM     33  C   UNL A   1      45.751  23.727  27.167  1.00  0.00     0.338 C 
ATOM     34  O   UNL A   1      46.055  22.755  26.499  1.00  0.00    -0.246 OA
BRANCH  33  35
ATOM     35  C   UNL A   1      46.443  25.031  27.092  1.00  0.00     0.060 A 
ATOM     36  C   UNL A   1      46.977  25.602  28.246  1.00  0.00     0.016 A 
ATOM     37  C   UNL A   1      46.555  25.690  25.858  1.00  0.00     0.016 A 
ATOM     38  C   UNL A   1      47.637  26.830  28.160  1.00  0.00     0.010 A 
ATOM     39  C   UNL A   1      47.204  26.927  25.778  1.00  0.00     0.010 A 
ATOM     40  C   UNL A   1      47.769  27.498  26.926  1.00  0.00    -0.014 A 
BRANCH  40  41
ATOM     41  C   UNL A   1      48.628  28.709  26.834  1.00  0.00     0.031 A 
ATOM     42  C   UNL A   1      50.098  28.622  26.546  1.00  0.00     0.074 A 
ATOM     43  C   UNL A   1      48.041  29.915  26.989  1.00  0.00     0.049 A 
ATOM     44  N   UNL A   1      50.942  29.596  26.318  1.00  0.00    -0.248 NA
ATOM     45  C   UNL A   1      50.702  27.282  26.508  1.00  0.00     0.031 C 
ATOM     46  C   UNL A   1      46.622  30.116  27.288  1.00  0.00     0.029 A 
ATOM     47  N   UNL A   1      48.543  31.189  26.886  1.00  0.00    -0.354 N 
ATOM     48  C   UNL A   1      52.170  28.991  26.077  1.00  0.00     0.074 A 
ATOM     49  C   UNL A   1      51.974  27.567  26.250  1.00  0.00     0.031 C 
ATOM     50  C   UNL A   1      46.354  31.430  27.282  1.00  0.00     0.029 A 
ATOM     51  C   UNL A   1      47.588  32.170  27.027  1.00  0.00     0.049 A 
ATOM     52  H   UNL A   1      49.495  31.381  26.725  1.00  0.00     0.167 HD
ATOM     53  C   UNL A   1      53.339  29.574  25.715  1.00  0.00     0.031 A 
ATOM     54  C   UNL A   1      47.681  33.514  26.946  1.00  0.00     0.031 A 
ATOM     55  C   UNL A   1      53.519  30.998  25.556  1.00  0.00     0.049 A 
ATOM     56  C   UNL A   1      49.010  34.134  26.606  1.00  0.00     0.074 A 
ATOM     57  C   UNL A   1      54.663  31.675  25.168  1.00  0.00     0.029 A 
ATOM     58  N   UNL A   1      52.543  31.962  25.769  1.00  0.00    -0.354 N 
ATOM     59  N   UNL A   1      50.142  33.543  26.308  1.00  0.00    -0.248 NA
ATOM     60  C   UNL A   1      49.073  35.603  26.570  1.00  0.00     0.031 C 
ATOM     61  C   UNL A   1      54.407  33.045  25.232  1.00  0.00     0.029 A 
ATOM     62  C   UNL A   1      53.073  33.226  25.556  1.00  0.00     0.049 A 
ATOM     63  H   UNL A   1      51.613  31.776  26.032  1.00  0.00     0.167 HD
ATOM     64  C   UNL A   1      51.040  34.563  26.016  1.00  0.00     0.074 A 
ATOM     65  C   UNL A   1      50.315  35.810  26.152  1.00  0.00     0.031 C 
ATOM     66  C   UNL A   1      52.347  34.471  25.671  1.00  0.00     0.031 A 
BRANCH  53  67
ATOM     67  C   UNL A   1      54.530  28.692  25.415  1.00  0.00    -0.014 A 
ATOM     68  C   UNL A   1      54.585  27.963  24.211  1.00  0.00     0.010 A 
ATOM     69  C   UNL A   1      55.497  28.439  26.406  1.00  0.00     0.010 A 
ATOM     70  C   UNL A   1      55.543  26.960  24.027  1.00  0.00     0.020 A 
ATOM     71  C   UNL A   1      56.479  27.462  26.212  1.00  0.00     0.020 A 
ATOM     72  C   UNL A   1      56.474  26.707  25.037  1.00  0.00     0.054 A 
BRANCH  72  73
ATOM     73  S   UNL A   1      57.652  25.344  24.817  1.00  0.00     0.124 S 
ATOM     74  O   UNL A   1      58.155  25.584  23.468  1.00  0.00    -0.237 OA
ATOM     75  O   UNL A   1      58.607  25.574  25.898  1.00  0.00    -0.237 OA
ATOM     76  O   UNL A   1      56.827  24.147  24.971  1.00  0.00    -0.744 OA
ENDBRANCH  72  73
ENDBRANCH  53  67
BRANCH  54  77
ATOM     77  C   UNL A   1      46.457  34.349  27.127  1.00  0.00    -0.014 A 
ATOM     78  C   UNL A   1      46.143  34.899  28.385  1.00  0.00     0.010 A 
ATOM     79  C   UNL A   1      45.565  34.550  26.059  1.00  0.00     0.010 A 
ATOM     80  C   UNL A   1      44.937  35.575  28.586  1.00  0.00     0.020 A 
ATOM     81  C   UNL A   1      44.377  35.265  26.244  1.00  0.00     0.020 A 
ATOM     82  C   UNL A   1      44.057  35.746  27.515  1.00  0.00     0.054 A 
BRANCH  82  83
ATOM     83  S   UNL A   1      42.477  36.585  27.815  1.00  0.00     0.124 S 
ATOM     84  O   UNL A   1      42.768  37.348  29.026  1.00  0.00    -0.237 OA
ATOM     85  O   UNL A   1      42.303  37.374  26.600  1.00  0.00    -0.237 OA
ATOM     86  O   UNL A   1      41.530  35.486  27.984  1.00  0.00    -0.744 OA
ENDBRANCH  82  83
ENDBRANCH  54  77
BRANCH  66  87
ATOM     87  C   UNL A   1      53.115  35.742  25.389  1.00  0.00    -0.014 A 
ATOM     88  C   UNL A   1      53.807  36.385  26.434  1.00  0.00     0.010 A 
ATOM     89  C   UNL A   1      53.028  36.381  24.140  1.00  0.00     0.010 A 
ATOM     90  C   UNL A   1      54.342  37.664  26.256  1.00  0.00     0.020 A 
ATOM     91  C   UNL A   1      53.600  37.644  23.944  1.00  0.00     0.020 A 
ATOM     92  C   UNL A   1      54.223  38.290  25.014  1.00  0.00     0.054 A 
BRANCH  92  93
ATOM     93  S   UNL A   1      54.860  39.978  24.824  1.00  0.00     0.124 S 
ATOM     94  O   UNL A   1      56.276  39.746  24.555  1.00  0.00    -0.237 OA
ATOM     95  O   UNL A   1      54.080  40.490  23.700  1.00  0.00    -0.237 OA
ATOM     96  O   UNL A   1      54.567  40.604  26.112  1.00  0.00    -0.744 OA
ENDBRANCH  92  93
ENDBRANCH  66  87
ENDBRANCH  40  41
ENDBRANCH  33  35
ENDBRANCH  32  33
ENDBRANCH  31  32
ENDBRANCH  30  31
ENDBRANCH  29  30
ENDBRANCH   1  29
TORSDOF 23
ENDMDL
