MODEL 1
REMARK VINA RESULT:      -7.1      0.000      0.000
REMARK SMILES COc1ccc(S(=O)(=O)N2CCC[C@H](C(=O)N3CCC[C@H](C(=O)OCCOCCOCCOC(=O)c4ccc(-c5c6nc(c(-c7ccc(S(=O)(=O)[O-])cc7)c7ccc([nH]7)c(-c7ccc(S(=O)(=O)[O-])cc7)c7nc(c(-c8ccc(S(=O)(=O)[O-])cc8)c8ccc5[nH]8)C=C7)C=C6)cc4)C3)C2)cc1
REMARK SMILES IDX 28 1 27 2 26 3 25 4 24 5 22 6 23 7 21 8 17 9 18 10 96 11
REMARK SMILES IDX 19 12 20 13 15 14 16 15 14 16 10 17 11 18 97 19 12 20 13 21
REMARK SMILES IDX 7 22 8 23 9 24 6 25 3 26 4 27 99 28 5 29 98 30 2 31 1 32
REMARK SMILES IDX 29 33 30 34 31 35 32 36 33 37 34 38 35 39 36 40 37 41 95 42
REMARK SMILES IDX 38 43 94 44 39 45 40 46 41 47 88 48 42 49 93 50 87 51 89 52
REMARK SMILES IDX 43 53 92 54 86 55 85 56 44 58 74 59 55 60 73 61 56 62 59 63
REMARK SMILES IDX 72 64 90 65 57 66 58 67 71 69 91 70 60 71 45 72 46 73 54 74
REMARK SMILES IDX 47 75 53 76 48 77 49 78 50 79 51 80 52 81 75 82 76 83 84 84
REMARK SMILES IDX 77 85 83 86 78 87 79 88 80 89 81 90 82 91 61 92 62 93 70 94
REMARK SMILES IDX 63 95 69 96 64 97 65 98 66 99 67 100 68 101
REMARK H PARENT 89 57 59 68
REMARK Flexibility Score: inf
ROOT
ATOM      1  C   UNL A   1      47.490  41.958  27.418  1.00  0.00     0.188 C 
ENDROOT
BRANCH   1   2
ATOM      2  O   UNL A   1      46.618  43.021  27.790  1.00  0.00    -0.376 OA
BRANCH   2   3
ATOM      3  C   UNL A   1      46.688  43.471  29.149  1.00  0.00     0.202 C 
BRANCH   3   4
ATOM      4  C   UNL A   1      45.470  43.183  30.037  1.00  0.00     0.261 C 
BRANCH   4   5
ATOM      5  O   UNL A   1      45.367  44.105  31.148  1.00  0.00    -0.463 OA
BRANCH   5   6
ATOM      6  C   UNL A   1      44.121  44.415  31.573  1.00  0.00     0.310 C 
ATOM      7  O   UNL A   1      43.106  44.297  30.892  1.00  0.00    -0.252 OA
BRANCH   6   8
ATOM      8  C   UNL A   1      44.056  44.992  32.979  1.00  0.00     0.119 C 
ATOM      9  N   UNL A   1      44.190  42.831  34.112  1.00  0.00    -0.342 N 
ATOM     10  C   UNL A   1      42.926  42.995  34.816  1.00  0.00     0.119 C 
ATOM     11  C   UNL A   1      44.900  44.079  33.861  1.00  0.00     0.134 C 
ATOM     12  C   UNL A   1      41.988  43.938  34.074  1.00  0.00     0.022 C 
ATOM     13  C   UNL A   1      42.690  45.224  33.637  1.00  0.00     0.019 C 
BRANCH   9  14
ATOM     14  C   UNL A   1      44.421  41.656  33.421  1.00  0.00     0.227 C 
ATOM     15  O   UNL A   1      43.585  41.208  32.629  1.00  0.00    -0.275 OA
BRANCH  14  16
ATOM     16  C   UNL A   1      45.603  40.767  33.817  1.00  0.00     0.094 C 
ATOM     17  N   UNL A   1      44.391  38.694  34.409  1.00  0.00    -0.197 NA
ATOM     18  C   UNL A   1      44.668  38.841  35.849  1.00  0.00     0.102 C 
ATOM     19  C   UNL A   1      45.282  39.334  33.426  1.00  0.00     0.116 C 
ATOM     20  C   UNL A   1      45.857  39.737  36.181  1.00  0.00     0.018 C 
ATOM     21  C   UNL A   1      46.211  40.864  35.208  1.00  0.00     0.016 C 
BRANCH  17  22
ATOM     22  S   UNL A   1      43.489  37.346  33.922  1.00  0.00     0.243 S 
ATOM     23  O   UNL A   1      43.391  37.355  32.477  1.00  0.00    -0.207 OA
ATOM     24  O   UNL A   1      42.311  37.283  34.759  1.00  0.00    -0.207 OA
BRANCH  22  25
ATOM     25  C   UNL A   1      44.488  35.938  34.350  1.00  0.00     0.082 A 
ATOM     26  C   UNL A   1      46.063  33.785  35.178  1.00  0.00     0.118 A 
ATOM     27  C   UNL A   1      44.849  34.055  35.816  1.00  0.00     0.048 A 
ATOM     28  C   UNL A   1      46.464  34.568  34.098  1.00  0.00     0.048 A 
ATOM     29  C   UNL A   1      44.061  35.135  35.411  1.00  0.00     0.025 A 
ATOM     30  C   UNL A   1      45.682  35.646  33.690  1.00  0.00     0.025 A 
BRANCH  26  31
ATOM     31  O   UNL A   1      46.779  32.730  35.676  1.00  0.00    -0.497 OA
ATOM     32  C   UNL A   1      48.002  33.082  36.319  1.00  0.00     0.278 C 
ENDBRANCH  26  31
ENDBRANCH  22  25
ENDBRANCH  17  22
ENDBRANCH  14  16
ENDBRANCH   9  14
ENDBRANCH   6   8
ENDBRANCH   5   6
ENDBRANCH   4   5
ENDBRANCH   3   4
ENDBRANCH   2   3
ENDBRANCH   1   2
BRANCH   1  33
ATOM     33  C   UNL A   1      47.272  40.626  28.145  1.00  0.00     0.188 C 
BRANCH  33  34
ATOM     34  O   UNL A   1      46.392  39.765  27.446  1.00  0.00    -0.376 OA
BRANCH  34  35
ATOM     35  C   UNL A   1      45.407  39.023  28.155  1.00  0.00     0.202 C 
BRANCH  35  36
ATOM     36  C   UNL A   1      45.553  38.971  29.686  1.00  0.00     0.261 C 
BRANCH  36  37
ATOM     37  O   UNL A   1      45.823  37.669  30.237  1.00  0.00    -0.460 OA
BRANCH  37  38
ATOM     38  C   UNL A   1      47.061  37.149  30.049  1.00  0.00     0.338 C 
ATOM     39  O   UNL A   1      48.120  37.649  30.383  1.00  0.00    -0.246 OA
BRANCH  38  40
ATOM     40  C   UNL A   1      46.891  35.736  29.622  1.00  0.00     0.060 A 
ATOM     41  C   UNL A   1      46.450  35.484  28.315  1.00  0.00     0.016 A 
ATOM     42  C   UNL A   1      47.261  34.673  30.453  1.00  0.00     0.016 A 
ATOM     43  C   UNL A   1      46.331  34.168  27.857  1.00  0.00     0.010 A 
ATOM     44  C   UNL A   1      47.140  33.360  29.996  1.00  0.00     0.010 A 
ATOM     45  C   UNL A   1      46.639  33.099  28.710  1.00  0.00    -0.014 A 
BRANCH  45  46
ATOM     46  C   UNL A   1      46.209  31.722  28.369  1.00  0.00     0.031 A 
ATOM     47  C   UNL A   1      44.828  31.300  28.793  1.00  0.00     0.074 A 
ATOM     48  C   UNL A   1      47.011  30.854  27.728  1.00  0.00     0.049 A 
ATOM     49  N   UNL A   1      44.237  30.141  28.668  1.00  0.00    -0.248 NA
ATOM     50  C   UNL A   1      44.009  32.329  29.457  1.00  0.00     0.031 C 
ATOM     51  C   UNL A   1      48.359  31.140  27.240  1.00  0.00     0.029 A 
ATOM     52  N   UNL A   1      46.802  29.539  27.392  1.00  0.00    -0.354 N 
ATOM     53  C   UNL A   1      42.983  30.298  29.244  1.00  0.00     0.074 A 
ATOM     54  C   UNL A   1      42.908  31.654  29.743  1.00  0.00     0.031 C 
ATOM     55  C   UNL A   1      48.862  30.026  26.677  1.00  0.00     0.029 A 
ATOM     56  C   UNL A   1      47.884  28.943  26.791  1.00  0.00     0.049 A 
ATOM     57  H   UNL A   1      45.955  29.067  27.565  1.00  0.00     0.167 HD
ATOM     58  C   UNL A   1      41.978  29.399  29.350  1.00  0.00     0.031 A 
ATOM     59  C   UNL A   1      48.071  27.666  26.396  1.00  0.00     0.031 A 
ATOM     60  C   UNL A   1      42.056  28.042  28.887  1.00  0.00     0.049 A 
ATOM     61  C   UNL A   1      46.965  26.659  26.583  1.00  0.00     0.074 A 
ATOM     62  C   UNL A   1      41.086  27.058  28.938  1.00  0.00     0.029 A 
ATOM     63  N   UNL A   1      43.177  27.474  28.302  1.00  0.00    -0.354 N 
ATOM     64  N   UNL A   1      45.768  26.832  27.093  1.00  0.00    -0.248 NA
ATOM     65  C   UNL A   1      47.232  25.284  26.132  1.00  0.00     0.031 C 
ATOM     66  C   UNL A   1      41.639  25.877  28.429  1.00  0.00     0.029 A 
ATOM     67  C   UNL A   1      42.934  26.144  28.011  1.00  0.00     0.049 A 
ATOM     68  H   UNL A   1      44.021  27.947  28.121  1.00  0.00     0.167 HD
ATOM     69  C   UNL A   1      45.133  25.596  27.005  1.00  0.00     0.074 A 
ATOM     70  C   UNL A   1      46.074  24.687  26.384  1.00  0.00     0.031 C 
ATOM     71  C   UNL A   1      43.881  25.248  27.396  1.00  0.00     0.031 A 
BRANCH  58  72
ATOM     72  C   UNL A   1      40.727  29.862  30.044  1.00  0.00    -0.014 A 
ATOM     73  C   UNL A   1      39.646  30.393  29.316  1.00  0.00     0.010 A 
ATOM     74  C   UNL A   1      40.643  29.790  31.445  1.00  0.00     0.010 A 
ATOM     75  C   UNL A   1      38.527  30.898  29.982  1.00  0.00     0.020 A 
ATOM     76  C   UNL A   1      39.514  30.270  32.114  1.00  0.00     0.020 A 
ATOM     77  C   UNL A   1      38.475  30.844  31.379  1.00  0.00     0.054 A 
BRANCH  77  78
ATOM     78  S   UNL A   1      37.021  31.522  32.224  1.00  0.00     0.124 S 
ATOM     79  O   UNL A   1      36.809  32.771  31.497  1.00  0.00    -0.237 OA
ATOM     80  O   UNL A   1      36.011  30.490  32.006  1.00  0.00    -0.237 OA
ATOM     81  O   UNL A   1      37.464  31.674  33.607  1.00  0.00    -0.744 OA
ENDBRANCH  77  78
ENDBRANCH  58  72
BRANCH  59  82
ATOM     82  C   UNL A   1      49.371  27.263  25.793  1.00  0.00    -0.014 A 
ATOM     83  C   UNL A   1      49.585  27.376  24.409  1.00  0.00     0.010 A 
ATOM     84  C   UNL A   1      50.412  26.781  26.608  1.00  0.00     0.010 A 
ATOM     85  C   UNL A   1      50.816  27.018  23.850  1.00  0.00     0.020 A 
ATOM     86  C   UNL A   1      51.652  26.443  26.057  1.00  0.00     0.020 A 
ATOM     87  C   UNL A   1      51.844  26.561  24.678  1.00  0.00     0.054 A 
BRANCH  87  88
ATOM     88  S   UNL A   1      53.461  26.186  23.943  1.00  0.00     0.124 S 
ATOM     89  O   UNL A   1      54.234  27.376  24.284  1.00  0.00    -0.237 OA
ATOM     90  O   UNL A   1      53.847  24.960  24.638  1.00  0.00    -0.237 OA
ATOM     91  O   UNL A   1      53.160  26.018  22.522  1.00  0.00    -0.744 OA
ENDBRANCH  87  88
ENDBRANCH  59  82
BRANCH  71  92
ATOM     92  C   UNL A   1      43.435  23.832  27.142  1.00  0.00    -0.014 A 
ATOM     93  C   UNL A   1      43.320  22.904  28.192  1.00  0.00     0.010 A 
ATOM     94  C   UNL A   1      43.050  23.451  25.844  1.00  0.00     0.010 A 
ATOM     95  C   UNL A   1      42.851  21.611  27.941  1.00  0.00     0.020 A 
ATOM     96  C   UNL A   1      42.558  22.167  25.594  1.00  0.00     0.020 A 
ATOM     97  C   UNL A   1      42.473  21.251  26.644  1.00  0.00     0.054 A 
BRANCH  97  98
ATOM     98  S   UNL A   1      41.816  19.584  26.351  1.00  0.00     0.124 S 
ATOM     99  O   UNL A   1      40.386  19.842  26.214  1.00  0.00    -0.237 OA
ATOM    100  O   UNL A   1      42.502  19.179  25.126  1.00  0.00    -0.237 OA
ATOM    101  O   UNL A   1      42.205  18.844  27.548  1.00  0.00    -0.744 OA
ENDBRANCH  97  98
ENDBRANCH  71  92
ENDBRANCH  45  46
ENDBRANCH  38  40
ENDBRANCH  37  38
ENDBRANCH  36  37
ENDBRANCH  35  36
ENDBRANCH  34  35
ENDBRANCH  33  34
ENDBRANCH   1  33
TORSDOF 25
ENDMDL
MODEL 2
REMARK VINA RESULT:      -7.0      4.941     12.884
REMARK SMILES COc1ccc(S(=O)(=O)N2CCC[C@H](C(=O)N3CCC[C@H](C(=O)OCCOCCOCCOC(=O)c4ccc(-c5c6nc(c(-c7ccc(S(=O)(=O)[O-])cc7)c7ccc([nH]7)c(-c7ccc(S(=O)(=O)[O-])cc7)c7nc(c(-c8ccc(S(=O)(=O)[O-])cc8)c8ccc5[nH]8)C=C7)C=C6)cc4)C3)C2)cc1
REMARK SMILES IDX 28 1 27 2 26 3 25 4 24 5 22 6 23 7 21 8 17 9 18 10 96 11
REMARK SMILES IDX 19 12 20 13 15 14 16 15 14 16 10 17 11 18 97 19 12 20 13 21
REMARK SMILES IDX 7 22 8 23 9 24 6 25 3 26 4 27 99 28 5 29 98 30 2 31 1 32
REMARK SMILES IDX 29 33 30 34 31 35 32 36 33 37 34 38 35 39 36 40 37 41 95 42
REMARK SMILES IDX 38 43 94 44 39 45 40 46 41 47 88 48 42 49 93 50 87 51 89 52
REMARK SMILES IDX 43 53 92 54 86 55 85 56 44 58 74 59 55 60 73 61 56 62 59 63
REMARK SMILES IDX 72 64 90 65 57 66 58 67 71 69 91 70 60 71 45 72 46 73 54 74
REMARK SMILES IDX 47 75 53 76 48 77 49 78 50 79 51 80 52 81 75 82 76 83 84 84
REMARK SMILES IDX 77 85 83 86 78 87 79 88 80 89 81 90 82 91 61 92 62 93 70 94
REMARK SMILES IDX 63 95 69 96 64 97 65 98 66 99 67 100 68 101
REMARK H PARENT 89 57 59 68
REMARK Flexibility Score: inf
ROOT
ATOM      1  C   UNL A   1      42.958  21.829  25.648  1.00  0.00     0.188 C 
ENDROOT
BRANCH   1   2
ATOM      2  O   UNL A   1      41.958  22.013  26.646  1.00  0.00    -0.376 OA
BRANCH   2   3
ATOM      3  C   UNL A   1      41.989  23.246  27.376  1.00  0.00     0.202 C 
BRANCH   3   4
ATOM      4  C   UNL A   1      40.773  23.559  28.258  1.00  0.00     0.261 C 
BRANCH   4   5
ATOM      5  O   UNL A   1      40.458  24.970  28.281  1.00  0.00    -0.463 OA
BRANCH   5   6
ATOM      6  C   UNL A   1      40.688  25.669  27.146  1.00  0.00     0.310 C 
ATOM      7  O   UNL A   1      39.937  25.680  26.175  1.00  0.00    -0.252 OA
BRANCH   6   8
ATOM      8  C   UNL A   1      42.009  26.423  27.123  1.00  0.00     0.119 C 
ATOM      9  N   UNL A   1      41.156  28.398  28.281  1.00  0.00    -0.342 N 
ATOM     10  C   UNL A   1      41.496  29.317  27.203  1.00  0.00     0.119 C 
ATOM     11  C   UNL A   1      42.054  27.256  28.399  1.00  0.00     0.134 C 
ATOM     12  C   UNL A   1      41.545  28.607  25.857  1.00  0.00     0.022 C 
ATOM     13  C   UNL A   1      42.351  27.309  25.918  1.00  0.00     0.019 C 
BRANCH   9  14
ATOM     14  C   UNL A   1      39.881  28.440  28.815  1.00  0.00     0.227 C 
ATOM     15  O   UNL A   1      39.215  27.409  28.957  1.00  0.00    -0.275 OA
BRANCH  14  16
ATOM     16  C   UNL A   1      39.185  29.792  29.003  1.00  0.00     0.094 C 
ATOM     17  N   UNL A   1      38.164  29.434  31.227  1.00  0.00    -0.197 NA
ATOM     18  C   UNL A   1      36.796  29.373  30.683  1.00  0.00     0.102 C 
ATOM     19  C   UNL A   1      39.213  30.149  30.479  1.00  0.00     0.116 C 
ATOM     20  C   UNL A   1      36.624  30.022  29.314  1.00  0.00     0.018 C 
ATOM     21  C   UNL A   1      37.828  30.056  28.369  1.00  0.00     0.016 C 
BRANCH  17  22
ATOM     22  S   UNL A   1      38.348  29.251  32.899  1.00  0.00     0.243 S 
ATOM     23  O   UNL A   1      39.632  28.632  33.157  1.00  0.00    -0.207 OA
ATOM     24  O   UNL A   1      37.121  28.686  33.415  1.00  0.00    -0.207 OA
BRANCH  22  25
ATOM     25  C   UNL A   1      38.449  30.908  33.541  1.00  0.00     0.082 A 
ATOM     26  C   UNL A   1      38.569  33.564  34.397  1.00  0.00     0.118 A 
ATOM     27  C   UNL A   1      37.399  33.063  33.818  1.00  0.00     0.048 A 
ATOM     28  C   UNL A   1      39.661  32.720  34.585  1.00  0.00     0.048 A 
ATOM     29  C   UNL A   1      37.336  31.737  33.381  1.00  0.00     0.025 A 
ATOM     30  C   UNL A   1      39.604  31.398  34.151  1.00  0.00     0.025 A 
BRANCH  26  31
ATOM     31  O   UNL A   1      38.541  34.884  34.753  1.00  0.00    -0.497 OA
ATOM     32  C   UNL A   1      39.808  35.444  35.092  1.00  0.00     0.278 C 
ENDBRANCH  26  31
ENDBRANCH  22  25
ENDBRANCH  17  22
ENDBRANCH  14  16
ENDBRANCH   9  14
ENDBRANCH   6   8
ENDBRANCH   5   6
ENDBRANCH   4   5
ENDBRANCH   3   4
ENDBRANCH   2   3
ENDBRANCH   1   2
BRANCH   1  33
ATOM     33  C   UNL A   1      44.235  22.660  25.817  1.00  0.00     0.188 C 
BRANCH  33  34
ATOM     34  O   UNL A   1      44.848  22.970  24.579  1.00  0.00    -0.376 OA
BRANCH  34  35
ATOM     35  C   UNL A   1      46.237  22.733  24.393  1.00  0.00     0.202 C 
BRANCH  35  36
ATOM     36  C   UNL A   1      47.134  23.975  24.241  1.00  0.00     0.261 C 
BRANCH  36  37
ATOM     37  O   UNL A   1      46.487  25.237  24.489  1.00  0.00    -0.460 OA
BRANCH  37  38
ATOM     38  C   UNL A   1      47.269  26.289  24.834  1.00  0.00     0.338 C 
ATOM     39  O   UNL A   1      47.960  26.959  24.088  1.00  0.00    -0.246 OA
BRANCH  38  40
ATOM     40  C   UNL A   1      46.920  26.667  26.228  1.00  0.00     0.060 A 
ATOM     41  C   UNL A   1      45.690  26.236  26.747  1.00  0.00     0.016 A 
ATOM     42  C   UNL A   1      47.829  27.342  27.051  1.00  0.00     0.016 A 
ATOM     43  C   UNL A   1      45.349  26.522  28.072  1.00  0.00     0.010 A 
ATOM     44  C   UNL A   1      47.487  27.630  28.373  1.00  0.00     0.010 A 
ATOM     45  C   UNL A   1      46.231  27.255  28.879  1.00  0.00    -0.014 A 
BRANCH  45  46
ATOM     46  C   UNL A   1      45.760  27.850  30.153  1.00  0.00     0.031 A 
ATOM     47  C   UNL A   1      45.302  29.283  30.123  1.00  0.00     0.074 A 
ATOM     48  C   UNL A   1      45.757  27.166  31.310  1.00  0.00     0.049 A 
ATOM     49  N   UNL A   1      44.900  30.048  31.103  1.00  0.00    -0.248 NA
ATOM     50  C   UNL A   1      45.307  29.940  28.805  1.00  0.00     0.031 C 
ATOM     51  C   UNL A   1      46.150  25.768  31.475  1.00  0.00     0.029 A 
ATOM     52  N   UNL A   1      45.418  27.573  32.577  1.00  0.00    -0.354 N 
ATOM     53  C   UNL A   1      44.614  31.278  30.523  1.00  0.00     0.074 A 
ATOM     54  C   UNL A   1      44.913  31.165  29.112  1.00  0.00     0.031 C 
ATOM     55  C   UNL A   1      46.043  25.437  32.775  1.00  0.00     0.029 A 
ATOM     56  C   UNL A   1      45.601  26.607  33.537  1.00  0.00     0.049 A 
ATOM     57  H   UNL A   1      45.076  28.474  32.780  1.00  0.00     0.167 HD
ATOM     58  C   UNL A   1      44.142  32.404  31.106  1.00  0.00     0.031 A 
ATOM     59  C   UNL A   1      45.448  26.664  34.876  1.00  0.00     0.031 A 
ATOM     60  C   UNL A   1      43.873  32.534  32.510  1.00  0.00     0.049 A 
ATOM     61  C   UNL A   1      44.985  27.948  35.518  1.00  0.00     0.074 A 
ATOM     62  C   UNL A   1      43.381  33.630  33.195  1.00  0.00     0.029 A 
ATOM     63  N   UNL A   1      44.090  31.536  33.449  1.00  0.00    -0.354 N 
ATOM     64  N   UNL A   1      44.680  29.091  34.951  1.00  0.00    -0.248 NA
ATOM     65  C   UNL A   1      44.839  27.945  36.982  1.00  0.00     0.031 C 
ATOM     66  C   UNL A   1      43.349  33.313  34.557  1.00  0.00     0.029 A 
ATOM     67  C   UNL A   1      43.768  32.000  34.712  1.00  0.00     0.049 A 
ATOM     68  H   UNL A   1      44.425  30.633  33.246  1.00  0.00     0.167 HD
ATOM     69  C   UNL A   1      44.285  29.936  35.985  1.00  0.00     0.074 A 
ATOM     70  C   UNL A   1      44.381  29.169  37.211  1.00  0.00     0.031 C 
ATOM     71  C   UNL A   1      43.873  31.227  35.924  1.00  0.00     0.031 A 
BRANCH  58  72
ATOM     72  C   UNL A   1      43.940  33.595  30.211  1.00  0.00    -0.014 A 
ATOM     73  C   UNL A   1      44.964  34.540  30.017  1.00  0.00     0.010 A 
ATOM     74  C   UNL A   1      42.699  33.786  29.579  1.00  0.00     0.010 A 
ATOM     75  C   UNL A   1      44.730  35.686  29.253  1.00  0.00     0.020 A 
ATOM     76  C   UNL A   1      42.470  34.917  28.792  1.00  0.00     0.020 A 
ATOM     77  C   UNL A   1      43.480  35.872  28.654  1.00  0.00     0.054 A 
BRANCH  77  78
ATOM     78  S   UNL A   1      43.193  37.374  27.681  1.00  0.00     0.124 S 
ATOM     79  O   UNL A   1      43.171  38.402  28.720  1.00  0.00    -0.237 OA
ATOM     80  O   UNL A   1      44.350  37.408  26.791  1.00  0.00    -0.237 OA
ATOM     81  O   UNL A   1      41.913  37.124  27.026  1.00  0.00    -0.744 OA
ENDBRANCH  77  78
ENDBRANCH  58  72
BRANCH  59  82
ATOM     82  C   UNL A   1      45.750  25.466  35.706  1.00  0.00    -0.014 A 
ATOM     83  C   UNL A   1      47.050  25.238  36.190  1.00  0.00     0.010 A 
ATOM     84  C   UNL A   1      44.729  24.556  36.035  1.00  0.00     0.010 A 
ATOM     85  C   UNL A   1      47.323  24.123  36.989  1.00  0.00     0.020 A 
ATOM     86  C   UNL A   1      44.993  23.452  36.852  1.00  0.00     0.020 A 
ATOM     87  C   UNL A   1      46.292  23.241  37.321  1.00  0.00     0.054 A 
BRANCH  87  88
ATOM     88  S   UNL A   1      46.651  21.851  38.431  1.00  0.00     0.124 S 
ATOM     89  O   UNL A   1      46.594  20.711  37.522  1.00  0.00    -0.237 OA
ATOM     90  O   UNL A   1      47.978  22.189  38.940  1.00  0.00    -0.237 OA
ATOM     91  O   UNL A   1      45.578  21.918  39.422  1.00  0.00    -0.744 OA
ENDBRANCH  87  88
ENDBRANCH  59  82
BRANCH  71  92
ATOM     92  C   UNL A   1      43.464  31.895  37.211  1.00  0.00    -0.014 A 
ATOM     93  C   UNL A   1      42.121  31.917  37.626  1.00  0.00     0.010 A 
ATOM     94  C   UNL A   1      44.451  32.439  38.052  1.00  0.00     0.010 A 
ATOM     95  C   UNL A   1      41.771  32.495  38.851  1.00  0.00     0.020 A 
ATOM     96  C   UNL A   1      44.108  32.996  39.287  1.00  0.00     0.020 A 
ATOM     97  C   UNL A   1      42.767  33.030  39.673  1.00  0.00     0.054 A 
BRANCH  97  98
ATOM     98  S   UNL A   1      42.297  33.727  41.282  1.00  0.00     0.124 S 
ATOM     99  O   UNL A   1      42.395  35.162  41.031  1.00  0.00    -0.237 OA
ATOM    100  O   UNL A   1      40.942  33.214  41.471  1.00  0.00    -0.237 OA
ATOM    101  O   UNL A   1      43.295  33.184  42.199  1.00  0.00    -0.744 OA
ENDBRANCH  97  98
ENDBRANCH  71  92
ENDBRANCH  45  46
ENDBRANCH  38  40
ENDBRANCH  37  38
ENDBRANCH  36  37
ENDBRANCH  35  36
ENDBRANCH  34  35
ENDBRANCH  33  34
ENDBRANCH   1  33
TORSDOF 25
ENDMDL
MODEL 3
REMARK VINA RESULT:      -7.0      5.037     12.155
REMARK SMILES COc1ccc(S(=O)(=O)N2CCC[C@H](C(=O)N3CCC[C@H](C(=O)OCCOCCOCCOC(=O)c4ccc(-c5c6nc(c(-c7ccc(S(=O)(=O)[O-])cc7)c7ccc([nH]7)c(-c7ccc(S(=O)(=O)[O-])cc7)c7nc(c(-c8ccc(S(=O)(=O)[O-])cc8)c8ccc5[nH]8)C=C7)C=C6)cc4)C3)C2)cc1
REMARK SMILES IDX 28 1 27 2 26 3 25 4 24 5 22 6 23 7 21 8 17 9 18 10 96 11
REMARK SMILES IDX 19 12 20 13 15 14 16 15 14 16 10 17 11 18 97 19 12 20 13 21
REMARK SMILES IDX 7 22 8 23 9 24 6 25 3 26 4 27 99 28 5 29 98 30 2 31 1 32
REMARK SMILES IDX 29 33 30 34 31 35 32 36 33 37 34 38 35 39 36 40 37 41 95 42
REMARK SMILES IDX 38 43 94 44 39 45 40 46 41 47 88 48 42 49 93 50 87 51 89 52
REMARK SMILES IDX 43 53 92 54 86 55 85 56 44 58 74 59 55 60 73 61 56 62 59 63
REMARK SMILES IDX 72 64 90 65 57 66 58 67 71 69 91 70 60 71 45 72 46 73 54 74
REMARK SMILES IDX 47 75 53 76 48 77 49 78 50 79 51 80 52 81 75 82 76 83 84 84
REMARK SMILES IDX 77 85 83 86 78 87 79 88 80 89 81 90 82 91 61 92 62 93 70 94
REMARK SMILES IDX 63 95 69 96 64 97 65 98 66 99 67 100 68 101
REMARK H PARENT 89 57 59 68
REMARK Flexibility Score: inf
ROOT
ATOM      1  C   UNL A   1      47.631  27.110  24.593  1.00  0.00     0.188 C 
ENDROOT
BRANCH   1   2
ATOM      2  O   UNL A   1      48.573  28.054  25.093  1.00  0.00    -0.376 OA
BRANCH   2   3
ATOM      3  C   UNL A   1      48.601  28.252  26.512  1.00  0.00     0.202 C 
BRANCH   3   4
ATOM      4  C   UNL A   1      47.583  29.243  27.093  1.00  0.00     0.261 C 
BRANCH   4   5
ATOM      5  O   UNL A   1      48.212  30.282  27.880  1.00  0.00    -0.463 OA
BRANCH   5   6
ATOM      6  C   UNL A   1      47.683  30.533  29.099  1.00  0.00     0.310 C 
ATOM      7  O   UNL A   1      48.068  31.425  29.851  1.00  0.00    -0.252 OA
BRANCH   6   8
ATOM      8  C   UNL A   1      46.580  29.576  29.522  1.00  0.00     0.119 C 
ATOM      9  N   UNL A   1      44.758  31.164  29.162  1.00  0.00    -0.342 N 
ATOM     10  C   UNL A   1      44.282  31.102  30.537  1.00  0.00     0.119 C 
ATOM     11  C   UNL A   1      45.358  29.925  28.681  1.00  0.00     0.134 C 
ATOM     12  C   UNL A   1      45.394  30.704  31.499  1.00  0.00     0.022 C 
ATOM     13  C   UNL A   1      46.180  29.491  31.000  1.00  0.00     0.019 C 
BRANCH   9  14
ATOM     14  C   UNL A   1      44.971  32.403  28.586  1.00  0.00     0.227 C 
ATOM     15  O   UNL A   1      44.681  33.444  29.187  1.00  0.00    -0.275 OA
BRANCH  14  16
ATOM     16  C   UNL A   1      45.333  32.493  27.100  1.00  0.00     0.094 C 
ATOM     17  N   UNL A   1      46.102  34.841  26.997  1.00  0.00    -0.197 NA
ATOM     18  C   UNL A   1      44.929  35.281  26.220  1.00  0.00     0.102 C 
ATOM     19  C   UNL A   1      46.520  33.429  26.948  1.00  0.00     0.116 C 
ATOM     20  C   UNL A   1      44.202  34.165  25.477  1.00  0.00     0.018 C 
ATOM     21  C   UNL A   1      44.257  32.749  26.057  1.00  0.00     0.016 C 
BRANCH  17  22
ATOM     22  S   UNL A   1      47.260  36.011  27.391  1.00  0.00     0.243 S 
ATOM     23  O   UNL A   1      48.505  35.666  26.735  1.00  0.00    -0.207 OA
ATOM     24  O   UNL A   1      47.193  36.229  28.819  1.00  0.00    -0.207 OA
BRANCH  22  25
ATOM     25  C   UNL A   1      46.686  37.511  26.625  1.00  0.00     0.082 A 
ATOM     26  C   UNL A   1      45.939  39.929  25.443  1.00  0.00     0.118 A 
ATOM     27  C   UNL A   1      47.004  39.190  24.920  1.00  0.00     0.048 A 
ATOM     28  C   UNL A   1      45.222  39.433  26.529  1.00  0.00     0.048 A 
ATOM     29  C   UNL A   1      47.388  37.984  25.513  1.00  0.00     0.025 A 
ATOM     30  C   UNL A   1      45.600  38.231  27.124  1.00  0.00     0.025 A 
BRANCH  26  31
ATOM     31  O   UNL A   1      45.669  41.115  24.815  1.00  0.00    -0.497 OA
ATOM     32  C   UNL A   1      46.814  41.811  24.327  1.00  0.00     0.278 C 
ENDBRANCH  26  31
ENDBRANCH  22  25
ENDBRANCH  17  22
ENDBRANCH  14  16
ENDBRANCH   9  14
ENDBRANCH   6   8
ENDBRANCH   5   6
ENDBRANCH   4   5
ENDBRANCH   3   4
ENDBRANCH   2   3
ENDBRANCH   1   2
BRANCH   1  33
ATOM     33  C   UNL A   1      46.165  27.361  24.967  1.00  0.00     0.188 C 
BRANCH  33  34
ATOM     34  O   UNL A   1      45.732  26.543  26.038  1.00  0.00    -0.376 OA
BRANCH  34  35
ATOM     35  C   UNL A   1      45.485  25.159  25.824  1.00  0.00     0.202 C 
BRANCH  35  36
ATOM     36  C   UNL A   1      44.709  24.419  26.928  1.00  0.00     0.261 C 
BRANCH  36  37
ATOM     37  O   UNL A   1      43.292  24.296  26.709  1.00  0.00    -0.460 OA
BRANCH  37  38
ATOM     38  C   UNL A   1      42.638  25.365  26.191  1.00  0.00     0.338 C 
ATOM     39  O   UNL A   1      42.261  25.500  25.041  1.00  0.00    -0.246 OA
BRANCH  38  40
ATOM     40  C   UNL A   1      42.208  26.220  27.327  1.00  0.00     0.060 A 
ATOM     41  C   UNL A   1      42.723  27.522  27.413  1.00  0.00     0.016 A 
ATOM     42  C   UNL A   1      41.234  25.791  28.236  1.00  0.00     0.016 A 
ATOM     43  C   UNL A   1      42.300  28.377  28.435  1.00  0.00     0.010 A 
ATOM     44  C   UNL A   1      40.814  26.644  29.257  1.00  0.00     0.010 A 
ATOM     45  C   UNL A   1      41.372  27.927  29.385  1.00  0.00    -0.014 A 
BRANCH  45  46
ATOM     46  C   UNL A   1      41.167  28.680  30.646  1.00  0.00     0.031 A 
ATOM     47  C   UNL A   1      40.047  29.685  30.680  1.00  0.00     0.074 A 
ATOM     48  C   UNL A   1      41.953  28.509  31.723  1.00  0.00     0.049 A 
ATOM     49  N   UNL A   1      39.697  30.506  31.635  1.00  0.00    -0.248 NA
ATOM     50  C   UNL A   1      39.218  29.777  29.467  1.00  0.00     0.031 C 
ATOM     51  C   UNL A   1      43.053  27.553  31.833  1.00  0.00     0.029 A 
ATOM     52  N   UNL A   1      41.945  29.156  32.934  1.00  0.00    -0.354 N 
ATOM     53  C   UNL A   1      38.614  31.218  31.134  1.00  0.00     0.074 A 
ATOM     54  C   UNL A   1      38.383  30.752  29.784  1.00  0.00     0.031 C 
ATOM     55  C   UNL A   1      43.625  27.687  33.043  1.00  0.00     0.029 A 
ATOM     56  C   UNL A   1      42.949  28.755  33.782  1.00  0.00     0.049 A 
ATOM     57  H   UNL A   1      41.281  29.843  33.174  1.00  0.00     0.167 HD
ATOM     58  C   UNL A   1      37.872  32.175  31.739  1.00  0.00     0.031 A 
ATOM     59  C   UNL A   1      43.295  29.210  35.004  1.00  0.00     0.031 A 
ATOM     60  C   UNL A   1      38.115  32.666  33.066  1.00  0.00     0.049 A 
ATOM     61  C   UNL A   1      42.500  30.324  35.637  1.00  0.00     0.074 A 
ATOM     62  C   UNL A   1      37.412  33.625  33.771  1.00  0.00     0.029 A 
ATOM     63  N   UNL A   1      39.155  32.246  33.882  1.00  0.00    -0.354 N 
ATOM     64  N   UNL A   1      41.452  30.960  35.168  1.00  0.00    -0.248 NA
ATOM     65  C   UNL A   1      42.929  30.775  36.971  1.00  0.00     0.031 C 
ATOM     66  C   UNL A   1      38.057  33.823  34.997  1.00  0.00     0.029 A 
ATOM     67  C   UNL A   1      39.129  32.946  35.075  1.00  0.00     0.049 A 
ATOM     68  H   UNL A   1      39.814  31.553  33.647  1.00  0.00     0.167 HD
ATOM     69  C   UNL A   1      41.085  31.870  36.156  1.00  0.00     0.074 A 
ATOM     70  C   UNL A   1      42.016  31.695  37.252  1.00  0.00     0.031 C 
ATOM     71  C   UNL A   1      40.065  32.765  36.156  1.00  0.00     0.031 A 
BRANCH  58  72
ATOM     72  C   UNL A   1      36.758  32.779  30.930  1.00  0.00    -0.014 A 
ATOM     73  C   UNL A   1      37.009  33.805  30.000  1.00  0.00     0.010 A 
ATOM     74  C   UNL A   1      35.439  32.334  31.124  1.00  0.00     0.010 A 
ATOM     75  C   UNL A   1      35.952  34.415  29.322  1.00  0.00     0.020 A 
ATOM     76  C   UNL A   1      34.382  32.923  30.427  1.00  0.00     0.020 A 
ATOM     77  C   UNL A   1      34.643  33.977  29.549  1.00  0.00     0.054 A 
BRANCH  77  78
ATOM     78  S   UNL A   1      33.284  34.795  28.670  1.00  0.00     0.124 S 
ATOM     79  O   UNL A   1      33.974  35.910  28.026  1.00  0.00    -0.237 OA
ATOM     80  O   UNL A   1      32.806  33.749  27.770  1.00  0.00    -0.237 OA
ATOM     81  O   UNL A   1      32.358  35.168  29.735  1.00  0.00    -0.744 OA
ENDBRANCH  77  78
ENDBRANCH  58  72
BRANCH  59  82
ATOM     82  C   UNL A   1      44.466  28.618  35.708  1.00  0.00    -0.014 A 
ATOM     83  C   UNL A   1      44.298  27.547  36.603  1.00  0.00     0.010 A 
ATOM     84  C   UNL A   1      45.762  29.112  35.470  1.00  0.00     0.010 A 
ATOM     85  C   UNL A   1      45.403  26.979  37.244  1.00  0.00     0.020 A 
ATOM     86  C   UNL A   1      46.872  28.533  36.091  1.00  0.00     0.020 A 
ATOM     87  C   UNL A   1      46.684  27.471  36.979  1.00  0.00     0.054 A 
BRANCH  87  88
ATOM     88  S   UNL A   1      48.111  26.661  37.754  1.00  0.00     0.124 S 
ATOM     89  O   UNL A   1      47.542  25.389  38.188  1.00  0.00    -0.237 OA
ATOM     90  O   UNL A   1      49.067  26.583  36.652  1.00  0.00    -0.237 OA
ATOM     91  O   UNL A   1      48.485  27.580  38.828  1.00  0.00    -0.744 OA
ENDBRANCH  87  88
ENDBRANCH  59  82
BRANCH  71  92
ATOM     92  C   UNL A   1      39.873  33.609  37.389  1.00  0.00    -0.014 A 
ATOM     93  C   UNL A   1      40.454  34.885  37.498  1.00  0.00     0.010 A 
ATOM     94  C   UNL A   1      39.033  33.147  38.420  1.00  0.00     0.010 A 
ATOM     95  C   UNL A   1      40.217  35.673  38.628  1.00  0.00     0.020 A 
ATOM     96  C   UNL A   1      38.775  33.943  39.539  1.00  0.00     0.020 A 
ATOM     97  C   UNL A   1      39.380  35.197  39.641  1.00  0.00     0.054 A 
BRANCH  97  98
ATOM     98  S   UNL A   1      39.044  36.259  41.075  1.00  0.00     0.124 S 
ATOM     99  O   UNL A   1      38.703  37.528  40.438  1.00  0.00    -0.237 OA
ATOM    100  O   UNL A   1      37.937  35.570  41.734  1.00  0.00    -0.237 OA
ATOM    101  O   UNL A   1      40.303  36.251  41.814  1.00  0.00    -0.744 OA
ENDBRANCH  97  98
ENDBRANCH  71  92
ENDBRANCH  45  46
ENDBRANCH  38  40
ENDBRANCH  37  38
ENDBRANCH  36  37
ENDBRANCH  35  36
ENDBRANCH  34  35
ENDBRANCH  33  34
ENDBRANCH   1  33
TORSDOF 25
ENDMDL
