MODEL 1
REMARK VINA RESULT:     -11.9      0.000      0.000
REMARK SMILES CC1(C)Cc2c(-c3ccccc3)c(-c3ccc(Cl)cc3)c(CC(=O)OCCOCCOCCOC(=O)c3ccc(-c4c5nc(c(-c6ccc(S(=O)(=O)[O-])cc6)c6ccc([nH]6)c(-c6ccc(S(=O)(=O)[O-])cc6)c6nc(c(-c7ccc(S(=O)(=O)[O-])cc7)c7ccc4[nH]7)C=C6)C=C5)cc3)n2C1
REMARK SMILES IDX 30 1 29 2 28 3 27 4 26 5 25 6 23 7 24 8 22 9 21 10 1 11 2 12
REMARK SMILES IDX 3 13 4 14 98 15 5 16 97 17 6 18 13 19 7 20 8 21 12 22 9 23
REMARK SMILES IDX 11 24 10 25 14 26 15 27 20 28 16 29 19 30 17 31 18 32 31 33
REMARK SMILES IDX 32 34 33 35 34 36 35 37 36 38 37 39 38 40 96 41 39 42 95 43
REMARK SMILES IDX 40 44 41 45 42 46 89 47 43 48 94 49 88 50 90 51 44 52 93 53
REMARK SMILES IDX 87 54 86 55 45 57 75 58 56 59 74 60 57 61 60 62 73 63 91 64
REMARK SMILES IDX 58 65 59 66 72 68 92 69 61 70 46 71 47 72 55 73 48 74 54 75
REMARK SMILES IDX 49 76 50 77 51 78 52 79 53 80 76 81 77 82 85 83 78 84 84 85
REMARK SMILES IDX 79 86 80 87 81 88 82 89 83 90 62 91 63 92 71 93 64 94 70 95
REMARK SMILES IDX 65 96 66 97 67 98 68 99 69 100
REMARK H PARENT 90 56 60 67
REMARK Flexibility Score: inf
ROOT
ATOM      1  C   UNL A   1      42.802  20.231  26.351  1.00  0.00     0.188 C 
ENDROOT
BRANCH   1   2
ATOM      2  C   UNL A   1      41.374  19.651  26.598  1.00  0.00     0.188 C 
BRANCH   2   3
ATOM      3  O   UNL A   1      40.375  20.560  26.982  1.00  0.00    -0.376 OA
BRANCH   3   4
ATOM      4  C   UNL A   1      39.933  21.331  25.884  1.00  0.00     0.202 C 
BRANCH   4   5
ATOM      5  C   UNL A   1      38.379  21.641  25.782  1.00  0.00     0.261 C 
BRANCH   5   6
ATOM      6  O   UNL A   1      37.705  21.674  24.437  1.00  0.00    -0.463 OA
BRANCH   6   7
ATOM      7  C   UNL A   1      37.075  22.781  23.927  1.00  0.00     0.311 C 
ATOM      8  O   UNL A   1      36.994  22.920  22.703  1.00  0.00    -0.252 OA
BRANCH   7   9
ATOM      9  C   UNL A   1      36.221  23.778  24.884  1.00  0.00     0.177 C 
BRANCH   9  10
ATOM     10  C   UNL A   1      34.657  24.000  24.955  1.00  0.00     0.037 A 
ATOM     11  C   UNL A   1      32.434  19.533  25.392  1.00  0.00     0.013 C 
ATOM     12  C   UNL A   1      32.743  20.791  24.573  1.00  0.00    -0.012 C 
ATOM     13  C   UNL A   1      32.650  20.450  23.076  1.00  0.00     0.013 C 
ATOM     14  C   UNL A   1      31.715  21.898  24.924  1.00  0.00     0.063 C 
ATOM     15  C   UNL A   1      34.140  21.414  24.912  1.00  0.00     0.129 C 
ATOM     16  C   UNL A   1      32.555  23.106  25.017  1.00  0.00     0.027 A 
ATOM     17  N   UNL A   1      33.881  22.854  24.983  1.00  0.00    -0.346 N 
ATOM     18  C   UNL A   1      32.347  24.446  25.064  1.00  0.00     0.011 A 
ATOM     19  C   UNL A   1      33.686  25.104  25.152  1.00  0.00     0.011 A 
BRANCH  18  20
ATOM     20  C   UNL A   1      30.979  24.928  24.869  1.00  0.00    -0.016 A 
ATOM     21  C   UNL A   1      30.210  25.397  25.936  1.00  0.00     0.009 A 
ATOM     22  C   UNL A   1      30.456  25.010  23.567  1.00  0.00     0.009 A 
ATOM     23  C   UNL A   1      29.023  26.097  25.680  1.00  0.00     0.001 A 
ATOM     24  C   UNL A   1      29.317  25.775  23.306  1.00  0.00     0.001 A 
ATOM     25  C   UNL A   1      28.612  26.336  24.365  1.00  0.00     0.000 A 
ENDBRANCH  18  20
BRANCH  19  26
ATOM     26  C   UNL A   1      33.805  26.713  25.122  1.00  0.00    -0.016 A 
ATOM     27  C   UNL A   1      33.342  27.534  26.693  1.00  0.00     0.010 A 
ATOM     28  C   UNL A   1      33.387  27.565  23.595  1.00  0.00     0.010 A 
ATOM     29  C   UNL A   1      32.300  29.041  26.719  1.00  0.00     0.021 A 
ATOM     30  C   UNL A   1      32.344  29.076  23.558  1.00  0.00     0.021 A 
ATOM     31  C   UNL A   1      31.774  29.814  25.162  1.00  0.00     0.041 A 
ATOM     32  Cl  UNL A   1      30.632  31.107  25.172  1.00  0.00    -0.084 Cl
ENDBRANCH  19  26
ENDBRANCH   9  10
ENDBRANCH   7   9
ENDBRANCH   6   7
ENDBRANCH   5   6
ENDBRANCH   4   5
ENDBRANCH   3   4
ENDBRANCH   2   3
ENDBRANCH   1   2
BRANCH   1  33
ATOM     33  O   UNL A   1      43.387  19.961  25.110  1.00  0.00    -0.376 OA
BRANCH  33  34
ATOM     34  C   UNL A   1      44.699  20.401  24.859  1.00  0.00     0.202 C 
BRANCH  34  35
ATOM     35  C   UNL A   1      45.021  21.857  24.538  1.00  0.00     0.261 C 
BRANCH  35  36
ATOM     36  O   UNL A   1      44.860  22.795  25.612  1.00  0.00    -0.460 OA
BRANCH  36  37
ATOM     37  C   UNL A   1      43.865  23.963  25.469  1.00  0.00     0.338 C 
ATOM     38  O   UNL A   1      44.554  24.672  24.693  1.00  0.00    -0.246 OA
BRANCH  37  39
ATOM     39  C   UNL A   1      42.043  24.226  26.562  1.00  0.00     0.060 A 
ATOM     40  C   UNL A   1      40.778  24.891  26.256  1.00  0.00     0.016 A 
ATOM     41  C   UNL A   1      41.767  24.143  27.980  1.00  0.00     0.016 A 
ATOM     42  C   UNL A   1      40.446  26.105  26.904  1.00  0.00     0.010 A 
ATOM     43  C   UNL A   1      41.767  25.358  28.624  1.00  0.00     0.010 A 
ATOM     44  C   UNL A   1      41.253  26.454  27.965  1.00  0.00    -0.014 A 
BRANCH  44  45
ATOM     45  C   UNL A   1      41.278  27.687  28.741  1.00  0.00     0.031 A 
ATOM     46  C   UNL A   1      42.559  28.363  28.356  1.00  0.00     0.074 A 
ATOM     47  C   UNL A   1      40.255  28.240  29.450  1.00  0.00     0.049 A 
ATOM     48  N   UNL A   1      43.717  28.003  28.826  1.00  0.00    -0.248 NA
ATOM     49  C   UNL A   1      42.675  29.051  27.036  1.00  0.00     0.031 C 
ATOM     50  C   UNL A   1      38.882  27.801  29.724  1.00  0.00     0.029 A 
ATOM     51  N   UNL A   1      40.264  29.442  30.104  1.00  0.00    -0.354 N 
ATOM     52  C   UNL A   1      44.618  28.727  28.066  1.00  0.00     0.074 A 
ATOM     53  C   UNL A   1      43.982  28.896  26.798  1.00  0.00     0.031 C 
ATOM     54  C   UNL A   1      38.141  28.808  30.264  1.00  0.00     0.029 A 
ATOM     55  C   UNL A   1      39.013  29.929  30.534  1.00  0.00     0.049 A 
ATOM     56  H   UNL A   1      41.098  29.938  30.267  1.00  0.00     0.167 HD
ATOM     57  C   UNL A   1      45.478  29.595  28.672  1.00  0.00     0.031 A 
ATOM     58  C   UNL A   1      38.774  31.150  31.110  1.00  0.00     0.031 A 
ATOM     59  C   UNL A   1      45.508  29.347  30.096  1.00  0.00     0.049 A 
ATOM     60  C   UNL A   1      40.097  31.615  31.619  1.00  0.00     0.074 A 
ATOM     61  C   UNL A   1      45.792  28.236  30.865  1.00  0.00     0.029 A 
ATOM     62  N   UNL A   1      44.703  30.162  30.863  1.00  0.00    -0.354 N 
ATOM     63  N   UNL A   1      40.734  30.986  32.572  1.00  0.00    -0.248 NA
ATOM     64  C   UNL A   1      40.932  32.352  30.680  1.00  0.00     0.031 C 
ATOM     65  C   UNL A   1      44.794  28.224  31.881  1.00  0.00     0.029 A 
ATOM     66  C   UNL A   1      44.046  29.401  31.798  1.00  0.00     0.049 A 
ATOM     67  H   UNL A   1      44.613  31.136  30.757  1.00  0.00     0.167 HD
ATOM     68  C   UNL A   1      42.037  30.866  32.104  1.00  0.00     0.074 A 
ATOM     69  C   UNL A   1      42.103  31.755  30.937  1.00  0.00     0.031 C 
ATOM     70  C   UNL A   1      42.824  29.808  32.468  1.00  0.00     0.031 A 
BRANCH  57  71
ATOM     71  C   UNL A   1      45.853  30.937  28.081  1.00  0.00    -0.014 A 
ATOM     72  C   UNL A   1      44.854  31.921  28.020  1.00  0.00     0.010 A 
ATOM     73  C   UNL A   1      47.052  31.206  27.380  1.00  0.00     0.010 A 
ATOM     74  C   UNL A   1      45.023  33.078  27.250  1.00  0.00     0.020 A 
ATOM     75  C   UNL A   1      47.244  32.368  26.635  1.00  0.00     0.020 A 
ATOM     76  C   UNL A   1      46.215  33.288  26.556  1.00  0.00     0.054 A 
BRANCH  76  77
ATOM     77  S   UNL A   1      46.393  34.761  25.528  1.00  0.00     0.124 S 
ATOM     78  O   UNL A   1      45.444  34.493  24.452  1.00  0.00    -0.237 OA
ATOM     79  O   UNL A   1      46.019  35.823  26.457  1.00  0.00    -0.237 OA
ATOM     80  O   UNL A   1      47.802  34.742  25.143  1.00  0.00    -0.744 OA
ENDBRANCH  76  77
ENDBRANCH  57  71
BRANCH  58  81
ATOM     81  C   UNL A   1      37.639  32.115  30.898  1.00  0.00    -0.014 A 
ATOM     82  C   UNL A   1      37.774  33.294  30.123  1.00  0.00     0.010 A 
ATOM     83  C   UNL A   1      36.326  31.703  31.193  1.00  0.00     0.010 A 
ATOM     84  C   UNL A   1      36.644  33.986  29.616  1.00  0.00     0.020 A 
ATOM     85  C   UNL A   1      35.201  32.381  30.688  1.00  0.00     0.020 A 
ATOM     86  C   UNL A   1      35.359  33.507  29.883  1.00  0.00     0.054 A 
BRANCH  86  87
ATOM     87  S   UNL A   1      33.905  34.270  29.083  1.00  0.00     0.124 S 
ATOM     88  O   UNL A   1      33.412  33.193  28.228  1.00  0.00    -0.237 OA
ATOM     89  O   UNL A   1      33.053  34.613  30.218  1.00  0.00    -0.237 OA
ATOM     90  O   UNL A   1      34.466  35.415  28.368  1.00  0.00    -0.744 OA
ENDBRANCH  86  87
ENDBRANCH  58  81
BRANCH  70  91
ATOM     91  C   UNL A   1      42.352  28.892  33.586  1.00  0.00    -0.014 A 
ATOM     92  C   UNL A   1      41.517  27.761  33.434  1.00  0.00     0.010 A 
ATOM     93  C   UNL A   1      42.962  29.100  34.834  1.00  0.00     0.010 A 
ATOM     94  C   UNL A   1      41.294  26.883  34.516  1.00  0.00     0.020 A 
ATOM     95  C   UNL A   1      42.762  28.224  35.900  1.00  0.00     0.020 A 
ATOM     96  C   UNL A   1      41.920  27.125  35.745  1.00  0.00     0.054 A 
BRANCH  96  97
ATOM     97  S   UNL A   1      41.665  25.991  37.142  1.00  0.00     0.124 S 
ATOM     98  O   UNL A   1      41.926  24.686  36.543  1.00  0.00    -0.237 OA
ATOM     99  O   UNL A   1      42.656  26.446  38.115  1.00  0.00    -0.237 OA
ATOM    100  O   UNL A   1      40.275  26.226  37.531  1.00  0.00    -0.744 OA
ENDBRANCH  96  97
ENDBRANCH  70  91
ENDBRANCH  44  45
ENDBRANCH  37  39
ENDBRANCH  36  37
ENDBRANCH  35  36
ENDBRANCH  34  35
ENDBRANCH  33  34
ENDBRANCH   1  33
TORSDOF 23
ENDMDL
MODEL 2
REMARK VINA RESULT:      -9.9      3.783      5.658
REMARK SMILES CC1(C)Cc2c(-c3ccccc3)c(-c3ccc(Cl)cc3)c(CC(=O)OCCOCCOCCOC(=O)c3ccc(-c4c5nc(c(-c6ccc(S(=O)(=O)[O-])cc6)c6ccc([nH]6)c(-c6ccc(S(=O)(=O)[O-])cc6)c6nc(c(-c7ccc(S(=O)(=O)[O-])cc7)c7ccc4[nH]7)C=C6)C=C5)cc3)n2C1
REMARK SMILES IDX 30 1 29 2 28 3 27 4 26 5 25 6 23 7 24 8 22 9 21 10 1 11 2 12
REMARK SMILES IDX 3 13 4 14 98 15 5 16 97 17 6 18 13 19 7 20 8 21 12 22 9 23
REMARK SMILES IDX 11 24 10 25 14 26 15 27 20 28 16 29 19 30 17 31 18 32 31 33
REMARK SMILES IDX 32 34 33 35 34 36 35 37 36 38 37 39 38 40 96 41 39 42 95 43
REMARK SMILES IDX 40 44 41 45 42 46 89 47 43 48 94 49 88 50 90 51 44 52 93 53
REMARK SMILES IDX 87 54 86 55 45 57 75 58 56 59 74 60 57 61 60 62 73 63 91 64
REMARK SMILES IDX 58 65 59 66 72 68 92 69 61 70 46 71 47 72 55 73 48 74 54 75
REMARK SMILES IDX 49 76 50 77 51 78 52 79 53 80 76 81 77 82 85 83 78 84 84 85
REMARK SMILES IDX 79 86 80 87 81 88 82 89 83 90 62 91 63 92 71 93 64 94 70 95
REMARK SMILES IDX 65 96 66 97 67 98 68 99 69 100
REMARK H PARENT 90 56 60 67
REMARK Flexibility Score: inf
ROOT
ATOM      1  C   UNL A   1      42.522  20.406  26.703  1.00  0.00     0.188 C 
ENDROOT
BRANCH   1   2
ATOM      2  C   UNL A   1      41.172  20.263  27.472  1.00  0.00     0.188 C 
BRANCH   2   3
ATOM      3  O   UNL A   1      40.162  21.189  27.165  1.00  0.00    -0.376 OA
BRANCH   3   4
ATOM      4  C   UNL A   1      39.590  20.924  25.901  1.00  0.00     0.202 C 
BRANCH   4   5
ATOM      5  C   UNL A   1      38.153  21.529  25.603  1.00  0.00     0.261 C 
BRANCH   5   6
ATOM      6  O   UNL A   1      37.666  21.650  24.184  1.00  0.00    -0.463 OA
BRANCH   6   7
ATOM      7  C   UNL A   1      36.963  22.727  23.708  1.00  0.00     0.311 C 
ATOM      8  O   UNL A   1      36.784  22.844  22.492  1.00  0.00    -0.252 OA
BRANCH   7   9
ATOM      9  C   UNL A   1      36.151  23.712  24.714  1.00  0.00     0.177 C 
BRANCH   9  10
ATOM     10  C   UNL A   1      34.591  23.928  24.859  1.00  0.00     0.037 A 
ATOM     11  C   UNL A   1      32.396  19.448  25.305  1.00  0.00     0.013 C 
ATOM     12  C   UNL A   1      32.666  20.724  24.498  1.00  0.00    -0.012 C 
ATOM     13  C   UNL A   1      32.508  20.412  23.000  1.00  0.00     0.013 C 
ATOM     14  C   UNL A   1      31.654  21.821  24.916  1.00  0.00     0.063 C 
ATOM     15  C   UNL A   1      34.077  21.342  24.788  1.00  0.00     0.129 C 
ATOM     16  C   UNL A   1      32.495  23.029  24.995  1.00  0.00     0.027 A 
ATOM     17  N   UNL A   1      33.819  22.780  24.898  1.00  0.00    -0.346 N 
ATOM     18  C   UNL A   1      32.288  24.367  25.078  1.00  0.00     0.011 A 
ATOM     19  C   UNL A   1      33.628  25.026  25.120  1.00  0.00     0.011 A 
BRANCH  18  20
ATOM     20  C   UNL A   1      30.912  24.849  24.954  1.00  0.00    -0.016 A 
ATOM     21  C   UNL A   1      30.096  25.032  26.073  1.00  0.00     0.009 A 
ATOM     22  C   UNL A   1      30.426  25.229  23.690  1.00  0.00     0.009 A 
ATOM     23  C   UNL A   1      28.897  25.745  25.946  1.00  0.00     0.001 A 
ATOM     24  C   UNL A   1      29.272  26.007  23.577  1.00  0.00     0.001 A 
ATOM     25  C   UNL A   1      28.518  26.282  24.712  1.00  0.00     0.000 A 
ENDBRANCH  18  20
BRANCH  19  26
ATOM     26  C   UNL A   1      33.744  26.636  25.117  1.00  0.00    -0.016 A 
ATOM     27  C   UNL A   1      33.192  27.436  26.670  1.00  0.00     0.010 A 
ATOM     28  C   UNL A   1      33.408  27.506  23.580  1.00  0.00     0.010 A 
ATOM     29  C   UNL A   1      32.145  28.940  26.657  1.00  0.00     0.021 A 
ATOM     30  C   UNL A   1      32.364  29.014  23.504  1.00  0.00     0.021 A 
ATOM     31  C   UNL A   1      31.703  29.731  25.082  1.00  0.00     0.041 A 
ATOM     32  Cl  UNL A   1      30.558  31.020  25.046  1.00  0.00    -0.084 Cl
ENDBRANCH  19  26
ENDBRANCH   9  10
ENDBRANCH   7   9
ENDBRANCH   6   7
ENDBRANCH   5   6
ENDBRANCH   4   5
ENDBRANCH   3   4
ENDBRANCH   2   3
ENDBRANCH   1   2
BRANCH   1  33
ATOM     33  O   UNL A   1      42.645  19.695  25.505  1.00  0.00    -0.376 OA
BRANCH  33  34
ATOM     34  C   UNL A   1      43.891  19.140  25.161  1.00  0.00     0.202 C 
BRANCH  34  35
ATOM     35  C   UNL A   1      44.929  19.910  24.352  1.00  0.00     0.261 C 
BRANCH  35  36
ATOM     36  O   UNL A   1      45.183  21.260  24.766  1.00  0.00    -0.460 OA
BRANCH  36  37
ATOM     37  C   UNL A   1      44.293  22.404  24.243  1.00  0.00     0.338 C 
ATOM     38  O   UNL A   1      44.517  22.241  23.018  1.00  0.00    -0.246 OA
BRANCH  37  39
ATOM     39  C   UNL A   1      43.285  23.878  25.426  1.00  0.00     0.060 A 
ATOM     40  C   UNL A   1      42.592  25.122  25.099  1.00  0.00     0.016 A 
ATOM     41  C   UNL A   1      43.377  24.186  26.836  1.00  0.00     0.016 A 
ATOM     42  C   UNL A   1      43.180  26.364  25.434  1.00  0.00     0.010 A 
ATOM     43  C   UNL A   1      44.226  25.227  27.129  1.00  0.00     0.010 A 
ATOM     44  C   UNL A   1      44.278  26.299  26.265  1.00  0.00    -0.014 A 
BRANCH  44  45
ATOM     45  C   UNL A   1      45.191  27.359  26.676  1.00  0.00     0.031 A 
ATOM     46  C   UNL A   1      46.529  26.947  26.143  1.00  0.00     0.074 A 
ATOM     47  C   UNL A   1      44.867  28.577  27.190  1.00  0.00     0.049 A 
ATOM     48  N   UNL A   1      47.269  26.041  26.714  1.00  0.00    -0.248 NA
ATOM     49  C   UNL A   1      46.832  27.088  24.688  1.00  0.00     0.031 C 
ATOM     50  C   UNL A   1      43.586  29.197  27.550  1.00  0.00     0.029 A 
ATOM     51  N   UNL A   1      45.727  29.597  27.493  1.00  0.00    -0.354 N 
ATOM     52  C   UNL A   1      48.286  25.828  25.800  1.00  0.00     0.074 A 
ATOM     53  C   UNL A   1      47.697  26.082  24.523  1.00  0.00     0.031 C 
ATOM     54  C   UNL A   1      43.733  30.531  27.783  1.00  0.00     0.029 A 
ATOM     55  C   UNL A   1      45.142  30.853  27.752  1.00  0.00     0.049 A 
ATOM     56  H   UNL A   1      46.701  29.461  27.528  1.00  0.00     0.167 HD
ATOM     57  C   UNL A   1      49.583  26.045  26.161  1.00  0.00     0.031 A 
ATOM     58  C   UNL A   1      45.812  32.029  27.970  1.00  0.00     0.031 A 
ATOM     59  C   UNL A   1      49.683  26.155  27.600  1.00  0.00     0.049 A 
ATOM     60  C   UNL A   1      47.197  31.631  28.355  1.00  0.00     0.074 A 
ATOM     61  C   UNL A   1      49.335  25.325  28.647  1.00  0.00     0.029 A 
ATOM     62  N   UNL A   1      49.698  27.439  28.103  1.00  0.00    -0.354 N 
ATOM     63  N   UNL A   1      47.449  30.969  29.455  1.00  0.00    -0.248 NA
ATOM     64  C   UNL A   1      48.142  31.430  27.266  1.00  0.00     0.031 C 
ATOM     65  C   UNL A   1      48.728  26.181  29.610  1.00  0.00     0.029 A 
ATOM     66  C   UNL A   1      48.874  27.508  29.197  1.00  0.00     0.049 A 
ATOM     67  H   UNL A   1      50.218  28.188  27.734  1.00  0.00     0.167 HD
ATOM     68  C   UNL A   1      48.296  29.941  29.059  1.00  0.00     0.074 A 
ATOM     69  C   UNL A   1      48.710  30.296  27.695  1.00  0.00     0.031 C 
ATOM     70  C   UNL A   1      48.299  28.738  29.711  1.00  0.00     0.031 A 
BRANCH  57  71
ATOM     71  C   UNL A   1      50.609  26.659  25.234  1.00  0.00    -0.014 A 
ATOM     72  C   UNL A   1      51.808  25.956  25.037  1.00  0.00     0.010 A 
ATOM     73  C   UNL A   1      50.560  27.981  24.735  1.00  0.00     0.010 A 
ATOM     74  C   UNL A   1      52.913  26.564  24.431  1.00  0.00     0.020 A 
ATOM     75  C   UNL A   1      51.644  28.588  24.103  1.00  0.00     0.020 A 
ATOM     76  C   UNL A   1      52.824  27.880  23.975  1.00  0.00     0.054 A 
BRANCH  76  77
ATOM     77  S   UNL A   1      54.277  28.663  23.244  1.00  0.00     0.124 S 
ATOM     78  O   UNL A   1      54.371  29.900  24.012  1.00  0.00    -0.237 OA
ATOM     79  O   UNL A   1      55.317  27.672  23.504  1.00  0.00    -0.237 OA
ATOM     80  O   UNL A   1      53.910  28.821  21.839  1.00  0.00    -0.744 OA
ENDBRANCH  76  77
ENDBRANCH  57  71
BRANCH  58  81
ATOM     81  C   UNL A   1      45.509  33.420  27.484  1.00  0.00    -0.014 A 
ATOM     82  C   UNL A   1      44.301  33.750  26.818  1.00  0.00     0.010 A 
ATOM     83  C   UNL A   1      46.273  34.497  27.968  1.00  0.00     0.010 A 
ATOM     84  C   UNL A   1      43.855  35.091  26.703  1.00  0.00     0.020 A 
ATOM     85  C   UNL A   1      45.834  35.831  27.864  1.00  0.00     0.020 A 
ATOM     86  C   UNL A   1      44.617  36.125  27.253  1.00  0.00     0.054 A 
BRANCH  86  87
ATOM     87  S   UNL A   1      43.969  37.833  27.286  1.00  0.00     0.124 S 
ATOM     88  O   UNL A   1      45.006  38.580  26.581  1.00  0.00    -0.237 OA
ATOM     89  O   UNL A   1      42.694  37.709  26.583  1.00  0.00    -0.237 OA
ATOM     90  O   UNL A   1      43.857  38.131  28.713  1.00  0.00    -0.744 OA
ENDBRANCH  86  87
ENDBRANCH  58  81
BRANCH  70  91
ATOM     91  C   UNL A   1      47.550  28.614  31.028  1.00  0.00    -0.014 A 
ATOM     92  C   UNL A   1      46.209  28.193  31.181  1.00  0.00     0.010 A 
ATOM     93  C   UNL A   1      48.335  28.756  32.184  1.00  0.00     0.010 A 
ATOM     94  C   UNL A   1      45.678  27.943  32.465  1.00  0.00     0.020 A 
ATOM     95  C   UNL A   1      47.821  28.489  33.453  1.00  0.00     0.020 A 
ATOM     96  C   UNL A   1      46.492  28.096  33.593  1.00  0.00     0.054 A 
BRANCH  96  97
ATOM     97  S   UNL A   1      45.833  27.754  35.252  1.00  0.00     0.124 S 
ATOM     98  O   UNL A   1      46.644  26.621  35.687  1.00  0.00    -0.237 OA
ATOM     99  O   UNL A   1      46.073  29.008  35.963  1.00  0.00    -0.237 OA
ATOM    100  O   UNL A   1      44.424  27.450  35.010  1.00  0.00    -0.744 OA
ENDBRANCH  96  97
ENDBRANCH  70  91
ENDBRANCH  44  45
ENDBRANCH  37  39
ENDBRANCH  36  37
ENDBRANCH  35  36
ENDBRANCH  34  35
ENDBRANCH  33  34
ENDBRANCH   1  33
TORSDOF 23
ENDMDL
MODEL 3
REMARK VINA RESULT:      -9.5      3.103      7.546
REMARK SMILES CC1(C)Cc2c(-c3ccccc3)c(-c3ccc(Cl)cc3)c(CC(=O)OCCOCCOCCOC(=O)c3ccc(-c4c5nc(c(-c6ccc(S(=O)(=O)[O-])cc6)c6ccc([nH]6)c(-c6ccc(S(=O)(=O)[O-])cc6)c6nc(c(-c7ccc(S(=O)(=O)[O-])cc7)c7ccc4[nH]7)C=C6)C=C5)cc3)n2C1
REMARK SMILES IDX 30 1 29 2 28 3 27 4 26 5 25 6 23 7 24 8 22 9 21 10 1 11 2 12
REMARK SMILES IDX 3 13 4 14 98 15 5 16 97 17 6 18 13 19 7 20 8 21 12 22 9 23
REMARK SMILES IDX 11 24 10 25 14 26 15 27 20 28 16 29 19 30 17 31 18 32 31 33
REMARK SMILES IDX 32 34 33 35 34 36 35 37 36 38 37 39 38 40 96 41 39 42 95 43
REMARK SMILES IDX 40 44 41 45 42 46 89 47 43 48 94 49 88 50 90 51 44 52 93 53
REMARK SMILES IDX 87 54 86 55 45 57 75 58 56 59 74 60 57 61 60 62 73 63 91 64
REMARK SMILES IDX 58 65 59 66 72 68 92 69 61 70 46 71 47 72 55 73 48 74 54 75
REMARK SMILES IDX 49 76 50 77 51 78 52 79 53 80 76 81 77 82 85 83 78 84 84 85
REMARK SMILES IDX 79 86 80 87 81 88 82 89 83 90 62 91 63 92 71 93 64 94 70 95
REMARK SMILES IDX 65 96 66 97 67 98 68 99 69 100
REMARK H PARENT 90 56 60 67
REMARK Flexibility Score: inf
ROOT
ATOM      1  C   UNL A   1      42.615  20.977  26.387  1.00  0.00     0.188 C 
ENDROOT
BRANCH   1   2
ATOM      2  C   UNL A   1      41.358  20.082  26.623  1.00  0.00     0.188 C 
BRANCH   2   3
ATOM      3  O   UNL A   1      40.189  20.726  27.058  1.00  0.00    -0.376 OA
BRANCH   3   4
ATOM      4  C   UNL A   1      39.770  21.708  26.134  1.00  0.00     0.202 C 
BRANCH   4   5
ATOM      5  C   UNL A   1      38.214  22.008  26.036  1.00  0.00     0.261 C 
BRANCH   5   6
ATOM      6  O   UNL A   1      37.540  22.057  24.691  1.00  0.00    -0.463 OA
BRANCH   6   7
ATOM      7  C   UNL A   1      36.807  23.126  24.244  1.00  0.00     0.311 C 
ATOM      8  O   UNL A   1      36.863  23.442  23.051  1.00  0.00    -0.252 OA
BRANCH   7   9
ATOM      9  C   UNL A   1      35.683  23.827  25.184  1.00  0.00     0.177 C 
BRANCH   9  10
ATOM     10  C   UNL A   1      34.249  24.370  24.794  1.00  0.00     0.037 A 
ATOM     11  C   UNL A   1      31.859  20.824  22.188  1.00  0.00     0.013 C 
ATOM     12  C   UNL A   1      32.543  22.194  22.253  1.00  0.00    -0.012 C 
ATOM     13  C   UNL A   1      33.083  22.551  20.859  1.00  0.00     0.013 C 
ATOM     14  C   UNL A   1      31.513  23.261  22.707  1.00  0.00     0.063 C 
ATOM     15  C   UNL A   1      33.687  22.255  23.322  1.00  0.00     0.129 C 
ATOM     16  C   UNL A   1      32.286  24.073  23.665  1.00  0.00     0.027 A 
ATOM     17  N   UNL A   1      33.487  23.546  23.986  1.00  0.00    -0.346 N 
ATOM     18  C   UNL A   1      32.137  25.274  24.279  1.00  0.00     0.011 A 
ATOM     19  C   UNL A   1      33.337  25.486  25.144  1.00  0.00     0.011 A 
BRANCH  18  20
ATOM     20  C   UNL A   1      31.006  26.109  23.873  1.00  0.00    -0.016 A 
ATOM     21  C   UNL A   1      29.690  25.767  24.195  1.00  0.00     0.009 A 
ATOM     22  C   UNL A   1      31.250  27.332  23.224  1.00  0.00     0.009 A 
ATOM     23  C   UNL A   1      28.669  26.712  24.033  1.00  0.00     0.001 A 
ATOM     24  C   UNL A   1      30.249  28.302  23.137  1.00  0.00     0.001 A 
ATOM     25  C   UNL A   1      28.961  27.996  23.561  1.00  0.00     0.000 A 
ENDBRANCH  18  20
BRANCH  19  26
ATOM     26  C   UNL A   1      33.529  26.875  25.942  1.00  0.00    -0.016 A 
ATOM     27  C   UNL A   1      32.266  27.184  27.235  1.00  0.00     0.010 A 
ATOM     28  C   UNL A   1      34.136  28.301  25.030  1.00  0.00     0.010 A 
ATOM     29  C   UNL A   1      31.485  28.828  27.442  1.00  0.00     0.021 A 
ATOM     30  C   UNL A   1      33.391  29.971  25.193  1.00  0.00     0.021 A 
ATOM     31  C   UNL A   1      32.019  30.229  26.416  1.00  0.00     0.041 A 
ATOM     32  Cl  UNL A   1      31.156  31.721  26.460  1.00  0.00    -0.084 Cl
ENDBRANCH  19  26
ENDBRANCH   9  10
ENDBRANCH   7   9
ENDBRANCH   6   7
ENDBRANCH   5   6
ENDBRANCH   4   5
ENDBRANCH   3   4
ENDBRANCH   2   3
ENDBRANCH   1   2
BRANCH   1  33
ATOM     33  O   UNL A   1      43.239  20.873  25.140  1.00  0.00    -0.376 OA
BRANCH  33  34
ATOM     34  C   UNL A   1      44.522  20.304  25.060  1.00  0.00     0.202 C 
BRANCH  34  35
ATOM     35  C   UNL A   1      45.791  21.148  25.111  1.00  0.00     0.261 C 
BRANCH  35  36
ATOM     36  O   UNL A   1      45.659  22.460  25.677  1.00  0.00    -0.460 OA
BRANCH  36  37
ATOM     37  C   UNL A   1      44.919  23.563  24.895  1.00  0.00     0.338 C 
ATOM     38  O   UNL A   1      45.700  23.619  23.911  1.00  0.00    -0.246 OA
BRANCH  37  39
ATOM     39  C   UNL A   1      43.245  24.709  25.581  1.00  0.00     0.060 A 
ATOM     40  C   UNL A   1      42.891  26.123  25.481  1.00  0.00     0.016 A 
ATOM     41  C   UNL A   1      42.271  24.438  26.615  1.00  0.00     0.016 A 
ATOM     42  C   UNL A   1      42.950  26.946  26.631  1.00  0.00     0.010 A 
ATOM     43  C   UNL A   1      42.558  25.026  27.824  1.00  0.00     0.010 A 
ATOM     44  C   UNL A   1      43.120  26.284  27.828  1.00  0.00    -0.014 A 
BRANCH  44  45
ATOM     45  C   UNL A   1      43.364  26.829  29.159  1.00  0.00     0.031 A 
ATOM     46  C   UNL A   1      42.318  27.887  29.342  1.00  0.00     0.074 A 
ATOM     47  C   UNL A   1      44.175  26.320  30.126  1.00  0.00     0.049 A 
ATOM     48  N   UNL A   1      42.407  29.069  28.804  1.00  0.00    -0.248 NA
ATOM     49  C   UNL A   1      40.904  27.502  29.629  1.00  0.00     0.031 C 
ATOM     50  C   UNL A   1      45.080  25.165  30.160  1.00  0.00     0.029 A 
ATOM     51  N   UNL A   1      44.331  26.792  31.401  1.00  0.00    -0.354 N 
ATOM     52  C   UNL A   1      41.166  29.631  29.046  1.00  0.00     0.074 A 
ATOM     53  C   UNL A   1      40.257  28.529  29.068  1.00  0.00     0.031 C 
ATOM     54  C   UNL A   1      45.486  24.896  31.432  1.00  0.00     0.029 A 
ATOM     55  C   UNL A   1      45.010  25.948  32.302  1.00  0.00     0.049 A 
ATOM     56  H   UNL A   1      43.988  27.673  31.674  1.00  0.00     0.167 HD
ATOM     57  C   UNL A   1      41.069  30.785  29.765  1.00  0.00     0.031 A 
ATOM     58  C   UNL A   1      45.186  26.169  33.644  1.00  0.00     0.031 A 
ATOM     59  C   UNL A   1      42.369  31.410  29.872  1.00  0.00     0.049 A 
ATOM     60  C   UNL A   1      44.966  27.632  33.837  1.00  0.00     0.074 A 
ATOM     61  C   UNL A   1      43.299  31.844  28.948  1.00  0.00     0.029 A 
ATOM     62  N   UNL A   1      43.061  31.158  31.038  1.00  0.00    -0.354 N 
ATOM     63  N   UNL A   1      45.759  28.528  33.310  1.00  0.00    -0.248 NA
ATOM     64  C   UNL A   1      43.592  28.058  34.065  1.00  0.00     0.031 C 
ATOM     65  C   UNL A   1      44.556  31.411  29.458  1.00  0.00     0.029 A 
ATOM     66  C   UNL A   1      44.371  30.883  30.738  1.00  0.00     0.049 A 
ATOM     67  H   UNL A   1      42.674  31.171  31.943  1.00  0.00     0.167 HD
ATOM     68  C   UNL A   1      44.902  29.455  32.727  1.00  0.00     0.074 A 
ATOM     69  C   UNL A   1      43.572  29.121  33.252  1.00  0.00     0.031 C 
ATOM     70  C   UNL A   1      45.275  30.159  31.615  1.00  0.00     0.031 A 
BRANCH  57  71
ATOM     71  C   UNL A   1      39.966  31.048  30.766  1.00  0.00    -0.014 A 
ATOM     72  C   UNL A   1      39.036  32.054  30.459  1.00  0.00     0.010 A 
ATOM     73  C   UNL A   1      39.926  30.529  32.081  1.00  0.00     0.010 A 
ATOM     74  C   UNL A   1      38.161  32.553  31.429  1.00  0.00     0.020 A 
ATOM     75  C   UNL A   1      39.039  30.997  33.049  1.00  0.00     0.020 A 
ATOM     76  C   UNL A   1      38.175  32.025  32.721  1.00  0.00     0.054 A 
BRANCH  76  77
ATOM     77  S   UNL A   1      37.074  32.719  33.972  1.00  0.00     0.124 S 
ATOM     78  O   UNL A   1      37.222  34.152  33.742  1.00  0.00    -0.237 OA
ATOM     79  O   UNL A   1      35.787  32.143  33.594  1.00  0.00    -0.237 OA
ATOM     80  O   UNL A   1      37.629  32.223  35.229  1.00  0.00    -0.744 OA
ENDBRANCH  76  77
ENDBRANCH  57  71
BRANCH  58  81
ATOM     81  C   UNL A   1      45.107  25.211  34.800  1.00  0.00    -0.014 A 
ATOM     82  C   UNL A   1      44.577  23.902  34.673  1.00  0.00     0.010 A 
ATOM     83  C   UNL A   1      45.859  25.473  35.960  1.00  0.00     0.010 A 
ATOM     84  C   UNL A   1      44.843  22.892  35.633  1.00  0.00     0.020 A 
ATOM     85  C   UNL A   1      46.134  24.475  36.914  1.00  0.00     0.020 A 
ATOM     86  C   UNL A   1      45.646  23.182  36.740  1.00  0.00     0.054 A 
BRANCH  86  87
ATOM     87  S   UNL A   1      46.159  21.851  37.881  1.00  0.00     0.124 S 
ATOM     88  O   UNL A   1      45.649  20.652  37.221  1.00  0.00    -0.237 OA
ATOM     89  O   UNL A   1      47.613  21.987  37.905  1.00  0.00    -0.237 OA
ATOM     90  O   UNL A   1      45.490  22.196  39.135  1.00  0.00    -0.744 OA
ENDBRANCH  86  87
ENDBRANCH  58  81
BRANCH  70  91
ATOM     91  C   UNL A   1      46.726  30.108  31.165  1.00  0.00    -0.014 A 
ATOM     92  C   UNL A   1      47.749  31.000  31.562  1.00  0.00     0.010 A 
ATOM     93  C   UNL A   1      47.093  28.960  30.444  1.00  0.00     0.010 A 
ATOM     94  C   UNL A   1      49.095  30.745  31.222  1.00  0.00     0.020 A 
ATOM     95  C   UNL A   1      48.424  28.693  30.124  1.00  0.00     0.020 A 
ATOM     96  C   UNL A   1      49.420  29.590  30.501  1.00  0.00     0.054 A 
BRANCH  96  97
ATOM     97  S   UNL A   1      51.151  29.232  30.077  1.00  0.00     0.124 S 
ATOM     98  O   UNL A   1      51.439  28.053  30.888  1.00  0.00    -0.237 OA
ATOM     99  O   UNL A   1      51.092  29.004  28.635  1.00  0.00    -0.237 OA
ATOM    100  O   UNL A   1      51.865  30.445  30.474  1.00  0.00    -0.744 OA
ENDBRANCH  96  97
ENDBRANCH  70  91
ENDBRANCH  44  45
ENDBRANCH  37  39
ENDBRANCH  36  37
ENDBRANCH  35  36
ENDBRANCH  34  35
ENDBRANCH  33  34
ENDBRANCH   1  33
TORSDOF 23
ENDMDL
