MODEL 1
REMARK VINA RESULT:     -11.0      0.000      0.000
REMARK SMILES COC(=O)c1ccc(C)c(NC(=O)[C@H]2CC=CC[C@H]2C(=O)OCCOCCOCCOC(=O)c2ccc(-c3c4nc(c(-c5ccc(S(=O)(=O)[O-])cc5)c5ccc([nH]5)c(-c5ccc(S(=O)(=O)[O-])cc5)c5nc(c(-c6ccc(S(=O)(=O)[O-])cc6)c6ccc3[nH]6)C=C5)C=C4)cc2)c1
REMARK SMILES IDX 26 1 25 2 24 3 23 4 22 5 20 6 21 7 19 8 14 9 15 10 16 11
REMARK SMILES IDX 18 12 17 13 12 14 11 15 13 17 10 18 5 19 6 20 94 21 7 22
REMARK SMILES IDX 8 23 9 24 3 25 4 26 2 27 1 28 27 29 28 30 29 31 30 32 31 33
REMARK SMILES IDX 32 34 33 35 34 36 35 37 93 38 36 39 92 40 37 41 38 42 39 43
REMARK SMILES IDX 86 44 40 45 91 46 85 47 87 48 41 49 90 50 84 51 83 52 42 54
REMARK SMILES IDX 72 55 53 56 71 57 54 58 57 59 70 60 88 61 55 62 56 63 69 65
REMARK SMILES IDX 89 66 58 67 43 68 44 69 52 70 45 71 51 72 46 73 47 74 48 75
REMARK SMILES IDX 49 76 50 77 73 78 74 79 82 80 75 81 81 82 76 83 77 84 78 85
REMARK SMILES IDX 79 86 80 87 59 88 60 89 68 90 61 91 67 92 62 93 63 94 64 95
REMARK SMILES IDX 65 96 66 97
REMARK H PARENT 11 16 87 53 57 64
REMARK Flexibility Score: inf
ROOT
ATOM      1  C   UNL A   1      38.844  22.285  26.211  1.00  0.00     0.188 C 
ENDROOT
BRANCH   1   2
ATOM      2  O   UNL A   1      38.009  21.759  25.194  1.00  0.00    -0.376 OA
BRANCH   2   3
ATOM      3  C   UNL A   1      36.602  21.937  25.413  1.00  0.00     0.202 C 
BRANCH   3   4
ATOM      4  C   UNL A   1      35.665  22.316  24.206  1.00  0.00     0.261 C 
BRANCH   4   5
ATOM      5  O   UNL A   1      34.287  22.761  24.522  1.00  0.00    -0.463 OA
BRANCH   5   6
ATOM      6  C   UNL A   1      34.027  23.982  25.167  1.00  0.00     0.310 C 
ATOM      7  O   UNL A   1      34.733  24.957  24.936  1.00  0.00    -0.252 OA
BRANCH   6   8
ATOM      8  C   UNL A   1      32.556  24.066  26.021  1.00  0.00     0.116 C 
ATOM      9  C   UNL A   1      31.590  25.086  25.430  1.00  0.00     0.097 C 
ATOM     10  C   UNL A   1      30.175  25.149  26.042  1.00  0.00     0.041 C 
ATOM     11  C   UNL A   1      29.605  23.891  26.603  1.00  0.00    -0.030 C 
ATOM     12  C   UNL A   1      31.796  22.769  26.462  1.00  0.00     0.043 C 
ATOM     13  C   UNL A   1      30.347  22.808  26.791  1.00  0.00    -0.030 C 
BRANCH   9  14
ATOM     14  C   UNL A   1      31.546  24.866  23.940  1.00  0.00     0.228 C 
ATOM     15  N   UNL A   1      31.470  25.963  23.123  1.00  0.00    -0.326 N 
ATOM     16  H   UNL A   1      31.675  25.776  22.179  1.00  0.00     0.169 HD
ATOM     17  O   UNL A   1      31.786  23.764  23.444  1.00  0.00    -0.274 OA
BRANCH  15  18
ATOM     18  C   UNL A   1      31.151  27.309  23.389  1.00  0.00     0.044 A 
ATOM     19  C   UNL A   1      29.429  29.026  23.102  1.00  0.00     0.062 A 
ATOM     20  C   UNL A   1      30.200  29.919  23.842  1.00  0.00     0.016 A 
ATOM     21  C   UNL A   1      29.911  27.731  22.884  1.00  0.00     0.042 A 
ATOM     22  C   UNL A   1      31.435  29.512  24.348  1.00  0.00     0.006 A 
ATOM     23  C   UNL A   1      31.924  28.207  24.143  1.00  0.00    -0.027 A 
ATOM     24  C   UNL A   1      33.242  27.882  24.794  1.00  0.00     0.046 C 
BRANCH  19  25
ATOM     25  C   UNL A   1      28.098  29.468  22.602  1.00  0.00     0.337 C 
ATOM     26  O   UNL A   1      27.078  29.470  23.269  1.00  0.00    -0.246 OA
BRANCH  25  27
ATOM     27  O   UNL A   1      28.166  29.840  21.302  1.00  0.00    -0.465 OA
ATOM     28  C   UNL A   1      28.020  31.250  21.127  1.00  0.00     0.282 C 
ENDBRANCH  25  27
ENDBRANCH  19  25
ENDBRANCH  15  18
ENDBRANCH   9  14
ENDBRANCH   6   8
ENDBRANCH   5   6
ENDBRANCH   4   5
ENDBRANCH   3   4
ENDBRANCH   2   3
ENDBRANCH   1   2
BRANCH   1  29
ATOM     29  C   UNL A   1      40.012  21.326  26.409  1.00  0.00     0.188 C 
BRANCH  29  30
ATOM     30  O   UNL A   1      41.253  21.690  25.809  1.00  0.00    -0.376 OA
BRANCH  30  31
ATOM     31  C   UNL A   1      42.119  22.521  26.583  1.00  0.00     0.202 C 
BRANCH  31  32
ATOM     32  C   UNL A   1      42.372  23.946  26.043  1.00  0.00     0.261 C 
BRANCH  32  33
ATOM     33  O   UNL A   1      42.993  24.772  27.050  1.00  0.00    -0.460 OA
BRANCH  33  34
ATOM     34  C   UNL A   1      42.287  25.105  28.177  1.00  0.00     0.338 C 
ATOM     35  O   UNL A   1      42.624  24.801  29.307  1.00  0.00    -0.246 OA
BRANCH  34  36
ATOM     36  C   UNL A   1      41.125  25.929  27.672  1.00  0.00     0.060 A 
ATOM     37  C   UNL A   1      41.217  27.056  26.874  1.00  0.00     0.016 A 
ATOM     38  C   UNL A   1      39.985  25.840  28.409  1.00  0.00     0.016 A 
ATOM     39  C   UNL A   1      40.427  28.225  27.113  1.00  0.00     0.010 A 
ATOM     40  C   UNL A   1      39.385  27.040  28.801  1.00  0.00     0.010 A 
ATOM     41  C   UNL A   1      39.665  28.332  28.285  1.00  0.00    -0.014 A 
BRANCH  41  42
ATOM     42  C   UNL A   1      39.702  29.669  29.146  1.00  0.00     0.031 A 
ATOM     43  C   UNL A   1      38.903  31.066  29.189  1.00  0.00     0.074 A 
ATOM     44  C   UNL A   1      40.671  29.545  30.097  1.00  0.00     0.049 A 
ATOM     45  N   UNL A   1      39.387  32.215  29.616  1.00  0.00    -0.248 NA
ATOM     46  C   UNL A   1      37.527  31.401  28.795  1.00  0.00     0.031 C 
ATOM     47  C   UNL A   1      41.010  30.405  31.220  1.00  0.00     0.029 A 
ATOM     48  N   UNL A   1      41.707  28.596  30.112  1.00  0.00    -0.354 N 
ATOM     49  C   UNL A   1      38.318  33.138  29.681  1.00  0.00     0.074 A 
ATOM     50  C   UNL A   1      37.366  32.712  28.764  1.00  0.00     0.031 C 
ATOM     51  C   UNL A   1      42.266  30.121  31.617  1.00  0.00     0.029 A 
ATOM     52  C   UNL A   1      42.841  29.199  30.642  1.00  0.00     0.049 A 
ATOM     53  H   UNL A   1      41.640  27.664  29.801  1.00  0.00     0.167 HD
ATOM     54  C   UNL A   1      38.085  34.007  30.704  1.00  0.00     0.031 A 
ATOM     55  C   UNL A   1      43.869  29.498  29.784  1.00  0.00     0.031 A 
ATOM     56  C   UNL A   1      39.343  34.262  31.340  1.00  0.00     0.049 A 
ATOM     57  C   UNL A   1      43.990  31.020  29.604  1.00  0.00     0.074 A 
ATOM     58  C   UNL A   1      39.930  33.881  32.524  1.00  0.00     0.029 A 
ATOM     59  N   UNL A   1      40.371  34.617  30.480  1.00  0.00    -0.354 N 
ATOM     60  N   UNL A   1      43.061  31.881  29.951  1.00  0.00    -0.248 NA
ATOM     61  C   UNL A   1      45.176  31.700  29.093  1.00  0.00     0.031 C 
ATOM     62  C   UNL A   1      41.337  33.761  32.254  1.00  0.00     0.029 A 
ATOM     63  C   UNL A   1      41.583  34.144  30.942  1.00  0.00     0.049 A 
ATOM     64  H   UNL A   1      40.253  35.138  29.652  1.00  0.00     0.167 HD
ATOM     65  C   UNL A   1      43.485  33.163  29.754  1.00  0.00     0.074 A 
ATOM     66  C   UNL A   1      44.818  32.995  29.202  1.00  0.00     0.031 C 
ATOM     67  C   UNL A   1      42.737  34.273  30.049  1.00  0.00     0.031 A 
BRANCH  54  68
ATOM     68  C   UNL A   1      36.672  34.479  31.123  1.00  0.00    -0.014 A 
ATOM     69  C   UNL A   1      36.392  34.890  32.438  1.00  0.00     0.010 A 
ATOM     70  C   UNL A   1      35.535  34.458  30.260  1.00  0.00     0.010 A 
ATOM     71  C   UNL A   1      35.091  35.298  32.844  1.00  0.00     0.020 A 
ATOM     72  C   UNL A   1      34.251  34.909  30.632  1.00  0.00     0.020 A 
ATOM     73  C   UNL A   1      34.029  35.318  31.936  1.00  0.00     0.054 A 
BRANCH  73  74
ATOM     74  S   UNL A   1      32.367  35.855  32.458  1.00  0.00     0.124 S 
ATOM     75  O   UNL A   1      31.766  34.605  32.917  1.00  0.00    -0.237 OA
ATOM     76  O   UNL A   1      32.654  36.835  33.501  1.00  0.00    -0.237 OA
ATOM     77  O   UNL A   1      31.778  36.410  31.240  1.00  0.00    -0.744 OA
ENDBRANCH  73  74
ENDBRANCH  54  68
BRANCH  55  78
ATOM     78  C   UNL A   1      44.294  28.384  28.829  1.00  0.00    -0.014 A 
ATOM     79  C   UNL A   1      44.126  28.597  27.428  1.00  0.00     0.010 A 
ATOM     80  C   UNL A   1      45.014  27.229  29.189  1.00  0.00     0.010 A 
ATOM     81  C   UNL A   1      44.725  27.777  26.445  1.00  0.00     0.020 A 
ATOM     82  C   UNL A   1      45.620  26.395  28.207  1.00  0.00     0.020 A 
ATOM     83  C   UNL A   1      45.499  26.686  26.841  1.00  0.00     0.054 A 
BRANCH  83  84
ATOM     84  S   UNL A   1      46.642  25.912  25.615  1.00  0.00     0.124 S 
ATOM     85  O   UNL A   1      46.316  26.621  24.384  1.00  0.00    -0.237 OA
ATOM     86  O   UNL A   1      47.957  26.198  26.177  1.00  0.00    -0.237 OA
ATOM     87  O   UNL A   1      46.272  24.500  25.652  1.00  0.00    -0.744 OA
ENDBRANCH  83  84
ENDBRANCH  55  78
BRANCH  67  88
ATOM     88  C   UNL A   1      42.984  35.640  29.437  1.00  0.00    -0.014 A 
ATOM     89  C   UNL A   1      43.618  36.688  30.123  1.00  0.00     0.010 A 
ATOM     90  C   UNL A   1      42.782  35.819  28.044  1.00  0.00     0.010 A 
ATOM     91  C   UNL A   1      43.974  37.874  29.467  1.00  0.00     0.020 A 
ATOM     92  C   UNL A   1      43.215  36.957  27.366  1.00  0.00     0.020 A 
ATOM     93  C   UNL A   1      43.775  37.998  28.093  1.00  0.00     0.054 A 
BRANCH  93  94
ATOM     94  S   UNL A   1      44.279  39.506  27.233  1.00  0.00     0.124 S 
ATOM     95  O   UNL A   1      43.008  39.965  26.678  1.00  0.00    -0.237 OA
ATOM     96  O   UNL A   1      44.829  40.334  28.304  1.00  0.00    -0.237 OA
ATOM     97  O   UNL A   1      45.256  39.027  26.259  1.00  0.00    -0.744 OA
ENDBRANCH  93  94
ENDBRANCH  67  88
ENDBRANCH  41  42
ENDBRANCH  34  36
ENDBRANCH  33  34
ENDBRANCH  32  33
ENDBRANCH  31  32
ENDBRANCH  30  31
ENDBRANCH  29  30
ENDBRANCH   1  29
TORSDOF 24
ENDMDL
MODEL 2
REMARK VINA RESULT:      -9.5      5.627      7.242
REMARK SMILES COC(=O)c1ccc(C)c(NC(=O)[C@H]2CC=CC[C@H]2C(=O)OCCOCCOCCOC(=O)c2ccc(-c3c4nc(c(-c5ccc(S(=O)(=O)[O-])cc5)c5ccc([nH]5)c(-c5ccc(S(=O)(=O)[O-])cc5)c5nc(c(-c6ccc(S(=O)(=O)[O-])cc6)c6ccc3[nH]6)C=C5)C=C4)cc2)c1
REMARK SMILES IDX 26 1 25 2 24 3 23 4 22 5 20 6 21 7 19 8 14 9 15 10 16 11
REMARK SMILES IDX 18 12 17 13 12 14 11 15 13 17 10 18 5 19 6 20 94 21 7 22
REMARK SMILES IDX 8 23 9 24 3 25 4 26 2 27 1 28 27 29 28 30 29 31 30 32 31 33
REMARK SMILES IDX 32 34 33 35 34 36 35 37 93 38 36 39 92 40 37 41 38 42 39 43
REMARK SMILES IDX 86 44 40 45 91 46 85 47 87 48 41 49 90 50 84 51 83 52 42 54
REMARK SMILES IDX 72 55 53 56 71 57 54 58 57 59 70 60 88 61 55 62 56 63 69 65
REMARK SMILES IDX 89 66 58 67 43 68 44 69 52 70 45 71 51 72 46 73 47 74 48 75
REMARK SMILES IDX 49 76 50 77 73 78 74 79 82 80 75 81 81 82 76 83 77 84 78 85
REMARK SMILES IDX 79 86 80 87 59 88 60 89 68 90 61 91 67 92 62 93 63 94 64 95
REMARK SMILES IDX 65 96 66 97
REMARK H PARENT 11 16 87 53 57 64
REMARK Flexibility Score: inf
ROOT
ATOM      1  C   UNL A   1      40.368  21.818  26.538  1.00  0.00     0.188 C 
ENDROOT
BRANCH   1   2
ATOM      2  O   UNL A   1      39.256  21.389  25.771  1.00  0.00    -0.376 OA
BRANCH   2   3
ATOM      3  C   UNL A   1      38.144  22.297  25.757  1.00  0.00     0.202 C 
BRANCH   3   4
ATOM      4  C   UNL A   1      36.808  21.884  25.034  1.00  0.00     0.261 C 
BRANCH   4   5
ATOM      5  O   UNL A   1      36.037  22.954  24.358  1.00  0.00    -0.463 OA
BRANCH   5   6
ATOM      6  C   UNL A   1      35.088  23.735  25.039  1.00  0.00     0.310 C 
ATOM      7  O   UNL A   1      35.454  24.701  25.700  1.00  0.00    -0.252 OA
BRANCH   6   8
ATOM      8  C   UNL A   1      33.460  23.420  24.654  1.00  0.00     0.116 C 
ATOM      9  C   UNL A   1      32.720  24.662  24.169  1.00  0.00     0.097 C 
ATOM     10  C   UNL A   1      31.275  24.465  23.663  1.00  0.00     0.041 C 
ATOM     11  C   UNL A   1      30.931  23.158  23.035  1.00  0.00    -0.030 C 
ATOM     12  C   UNL A   1      33.050  22.164  23.813  1.00  0.00     0.043 C 
ATOM     13  C   UNL A   1      31.745  22.111  23.104  1.00  0.00    -0.030 C 
BRANCH   9  14
ATOM     14  C   UNL A   1      33.585  25.338  23.138  1.00  0.00     0.228 C 
ATOM     15  N   UNL A   1      33.661  26.706  23.150  1.00  0.00    -0.326 N 
ATOM     16  H   UNL A   1      34.404  27.072  22.618  1.00  0.00     0.169 HD
ATOM     17  O   UNL A   1      34.375  24.700  22.441  1.00  0.00    -0.274 OA
BRANCH  15  18
ATOM     18  C   UNL A   1      32.868  27.683  23.782  1.00  0.00     0.044 A 
ATOM     19  C   UNL A   1      30.936  29.157  23.484  1.00  0.00     0.062 A 
ATOM     20  C   UNL A   1      31.062  29.585  24.803  1.00  0.00     0.016 A 
ATOM     21  C   UNL A   1      31.838  28.211  22.987  1.00  0.00     0.042 A 
ATOM     22  C   UNL A   1      32.082  29.069  25.603  1.00  0.00     0.006 A 
ATOM     23  C   UNL A   1      32.989  28.107  25.116  1.00  0.00    -0.027 A 
ATOM     24  C   UNL A   1      34.003  27.592  26.102  1.00  0.00     0.046 C 
BRANCH  19  25
ATOM     25  C   UNL A   1      29.818  29.693  22.658  1.00  0.00     0.337 C 
ATOM     26  O   UNL A   1      29.634  29.413  21.486  1.00  0.00    -0.246 OA
BRANCH  25  27
ATOM     27  O   UNL A   1      29.053  30.550  23.373  1.00  0.00    -0.465 OA
ATOM     28  C   UNL A   1      28.725  31.733  22.642  1.00  0.00     0.282 C 
ENDBRANCH  25  27
ENDBRANCH  19  25
ENDBRANCH  15  18
ENDBRANCH   9  14
ENDBRANCH   6   8
ENDBRANCH   5   6
ENDBRANCH   4   5
ENDBRANCH   3   4
ENDBRANCH   2   3
ENDBRANCH   1   2
BRANCH   1  29
ATOM     29  C   UNL A   1      41.569  20.963  26.150  1.00  0.00     0.188 C 
BRANCH  29  30
ATOM     30  O   UNL A   1      42.642  21.624  25.485  1.00  0.00    -0.376 OA
BRANCH  30  31
ATOM     31  C   UNL A   1      42.674  23.049  25.581  1.00  0.00     0.202 C 
BRANCH  31  32
ATOM     32  C   UNL A   1      43.934  23.749  25.026  1.00  0.00     0.261 C 
BRANCH  32  33
ATOM     33  O   UNL A   1      44.934  23.894  26.056  1.00  0.00    -0.460 OA
BRANCH  33  34
ATOM     34  C   UNL A   1      44.813  24.907  26.973  1.00  0.00     0.338 C 
ATOM     35  O   UNL A   1      44.378  26.013  26.713  1.00  0.00    -0.246 OA
BRANCH  34  36
ATOM     36  C   UNL A   1      45.266  24.295  28.279  1.00  0.00     0.060 A 
ATOM     37  C   UNL A   1      44.512  23.467  29.091  1.00  0.00     0.016 A 
ATOM     38  C   UNL A   1      46.274  24.956  28.911  1.00  0.00     0.016 A 
ATOM     39  C   UNL A   1      44.489  23.611  30.515  1.00  0.00     0.010 A 
ATOM     40  C   UNL A   1      46.084  25.265  30.261  1.00  0.00     0.010 A 
ATOM     41  C   UNL A   1      45.091  24.725  31.119  1.00  0.00    -0.014 A 
BRANCH  41  42
ATOM     42  C   UNL A   1      44.319  25.540  32.246  1.00  0.00     0.031 A 
ATOM     43  C   UNL A   1      43.651  26.996  32.400  1.00  0.00     0.074 A 
ATOM     44  C   UNL A   1      44.204  24.748  33.350  1.00  0.00     0.049 A 
ATOM     45  N   UNL A   1      43.515  27.664  33.529  1.00  0.00    -0.248 NA
ATOM     46  C   UNL A   1      43.062  27.896  31.398  1.00  0.00     0.031 C 
ATOM     47  C   UNL A   1      43.466  24.951  34.587  1.00  0.00     0.029 A 
ATOM     48  N   UNL A   1      44.932  23.577  33.615  1.00  0.00    -0.354 N 
ATOM     49  C   UNL A   1      42.706  28.794  33.268  1.00  0.00     0.074 A 
ATOM     50  C   UNL A   1      42.859  29.093  31.920  1.00  0.00     0.031 C 
ATOM     51  C   UNL A   1      43.973  24.135  35.532  1.00  0.00     0.029 A 
ATOM     52  C   UNL A   1      45.175  23.516  34.982  1.00  0.00     0.049 A 
ATOM     53  H   UNL A   1      45.220  22.913  32.947  1.00  0.00     0.167 HD
ATOM     54  C   UNL A   1      41.685  29.234  34.055  1.00  0.00     0.031 A 
ATOM     55  C   UNL A   1      46.454  23.754  35.417  1.00  0.00     0.031 A 
ATOM     56  C   UNL A   1      41.957  28.792  35.391  1.00  0.00     0.049 A 
ATOM     57  C   UNL A   1      46.524  25.094  36.166  1.00  0.00     0.074 A 
ATOM     58  C   UNL A   1      41.446  27.818  36.216  1.00  0.00     0.029 A 
ATOM     59  N   UNL A   1      43.233  29.079  35.853  1.00  0.00    -0.354 N 
ATOM     60  N   UNL A   1      45.590  26.017  36.117  1.00  0.00    -0.248 NA
ATOM     61  C   UNL A   1      47.597  25.477  37.078  1.00  0.00     0.031 C 
ATOM     62  C   UNL A   1      42.549  27.345  37.010  1.00  0.00     0.029 A 
ATOM     63  C   UNL A   1      43.681  28.090  36.705  1.00  0.00     0.049 A 
ATOM     64  H   UNL A   1      43.749  29.881  35.607  1.00  0.00     0.167 HD
ATOM     65  C   UNL A   1      45.885  27.056  36.952  1.00  0.00     0.074 A 
ATOM     66  C   UNL A   1      47.164  26.673  37.526  1.00  0.00     0.031 C 
ATOM     67  C   UNL A   1      45.083  28.152  37.127  1.00  0.00     0.031 A 
BRANCH  54  68
ATOM     68  C   UNL A   1      40.431  29.956  33.509  1.00  0.00    -0.014 A 
ATOM     69  C   UNL A   1      39.326  29.241  33.013  1.00  0.00     0.010 A 
ATOM     70  C   UNL A   1      40.317  31.374  33.383  1.00  0.00     0.010 A 
ATOM     71  C   UNL A   1      38.179  29.893  32.480  1.00  0.00     0.020 A 
ATOM     72  C   UNL A   1      39.166  32.036  32.907  1.00  0.00     0.020 A 
ATOM     73  C   UNL A   1      38.098  31.288  32.441  1.00  0.00     0.054 A 
BRANCH  73  74
ATOM     74  S   UNL A   1      36.620  32.117  31.770  1.00  0.00     0.124 S 
ATOM     75  O   UNL A   1      35.673  32.009  32.878  1.00  0.00    -0.237 OA
ATOM     76  O   UNL A   1      37.104  33.465  31.485  1.00  0.00    -0.237 OA
ATOM     77  O   UNL A   1      36.279  31.325  30.589  1.00  0.00    -0.744 OA
ENDBRANCH  73  74
ENDBRANCH  54  68
BRANCH  55  78
ATOM     78  C   UNL A   1      47.566  23.012  34.678  1.00  0.00    -0.014 A 
ATOM     79  C   UNL A   1      48.642  23.777  34.135  1.00  0.00     0.010 A 
ATOM     80  C   UNL A   1      47.730  21.615  34.637  1.00  0.00     0.010 A 
ATOM     81  C   UNL A   1      49.849  23.199  33.682  1.00  0.00     0.020 A 
ATOM     82  C   UNL A   1      48.941  21.021  34.179  1.00  0.00     0.020 A 
ATOM     83  C   UNL A   1      50.007  21.814  33.731  1.00  0.00     0.054 A 
BRANCH  83  84
ATOM     84  S   UNL A   1      51.705  21.105  33.590  1.00  0.00     0.124 S 
ATOM     85  O   UNL A   1      51.545  19.776  34.167  1.00  0.00    -0.237 OA
ATOM     86  O   UNL A   1      51.951  21.141  32.153  1.00  0.00    -0.237 OA
ATOM     87  O   UNL A   1      52.526  22.037  34.359  1.00  0.00    -0.744 OA
ENDBRANCH  83  84
ENDBRANCH  55  78
BRANCH  67  88
ATOM     88  C   UNL A   1      45.580  29.481  37.669  1.00  0.00    -0.014 A 
ATOM     89  C   UNL A   1      45.748  29.740  39.038  1.00  0.00     0.010 A 
ATOM     90  C   UNL A   1      46.117  30.435  36.767  1.00  0.00     0.010 A 
ATOM     91  C   UNL A   1      46.365  30.916  39.483  1.00  0.00     0.020 A 
ATOM     92  C   UNL A   1      46.812  31.563  37.199  1.00  0.00     0.020 A 
ATOM     93  C   UNL A   1      46.897  31.817  38.561  1.00  0.00     0.054 A 
BRANCH  93  94
ATOM     94  S   UNL A   1      47.739  33.311  39.131  1.00  0.00     0.124 S 
ATOM     95  O   UNL A   1      48.581  32.783  40.201  1.00  0.00    -0.237 OA
ATOM     96  O   UNL A   1      48.452  33.769  37.941  1.00  0.00    -0.237 OA
ATOM     97  O   UNL A   1      46.640  34.173  39.560  1.00  0.00    -0.744 OA
ENDBRANCH  93  94
ENDBRANCH  67  88
ENDBRANCH  41  42
ENDBRANCH  34  36
ENDBRANCH  33  34
ENDBRANCH  32  33
ENDBRANCH  31  32
ENDBRANCH  30  31
ENDBRANCH  29  30
ENDBRANCH   1  29
TORSDOF 24
ENDMDL
MODEL 3
REMARK VINA RESULT:      -9.1      5.058     11.139
REMARK SMILES COC(=O)c1ccc(C)c(NC(=O)[C@H]2CC=CC[C@H]2C(=O)OCCOCCOCCOC(=O)c2ccc(-c3c4nc(c(-c5ccc(S(=O)(=O)[O-])cc5)c5ccc([nH]5)c(-c5ccc(S(=O)(=O)[O-])cc5)c5nc(c(-c6ccc(S(=O)(=O)[O-])cc6)c6ccc3[nH]6)C=C5)C=C4)cc2)c1
REMARK SMILES IDX 26 1 25 2 24 3 23 4 22 5 20 6 21 7 19 8 14 9 15 10 16 11
REMARK SMILES IDX 18 12 17 13 12 14 11 15 13 17 10 18 5 19 6 20 94 21 7 22
REMARK SMILES IDX 8 23 9 24 3 25 4 26 2 27 1 28 27 29 28 30 29 31 30 32 31 33
REMARK SMILES IDX 32 34 33 35 34 36 35 37 93 38 36 39 92 40 37 41 38 42 39 43
REMARK SMILES IDX 86 44 40 45 91 46 85 47 87 48 41 49 90 50 84 51 83 52 42 54
REMARK SMILES IDX 72 55 53 56 71 57 54 58 57 59 70 60 88 61 55 62 56 63 69 65
REMARK SMILES IDX 89 66 58 67 43 68 44 69 52 70 45 71 51 72 46 73 47 74 48 75
REMARK SMILES IDX 49 76 50 77 73 78 74 79 82 80 75 81 81 82 76 83 77 84 78 85
REMARK SMILES IDX 79 86 80 87 59 88 60 89 68 90 61 91 67 92 62 93 63 94 64 95
REMARK SMILES IDX 65 96 66 97
REMARK H PARENT 11 16 87 53 57 64
REMARK Flexibility Score: inf
ROOT
ATOM      1  C   UNL A   1      41.324  30.452  36.536  1.00  0.00     0.188 C 
ENDROOT
BRANCH   1   2
ATOM      2  O   UNL A   1      40.054  30.037  36.061  1.00  0.00    -0.376 OA
BRANCH   2   3
ATOM      3  C   UNL A   1      39.561  30.771  34.931  1.00  0.00     0.202 C 
BRANCH   3   4
ATOM      4  C   UNL A   1      38.187  30.368  34.276  1.00  0.00     0.261 C 
BRANCH   4   5
ATOM      5  O   UNL A   1      38.186  30.046  32.830  1.00  0.00    -0.463 OA
BRANCH   5   6
ATOM      6  C   UNL A   1      38.943  28.987  32.301  1.00  0.00     0.310 C 
ATOM      7  O   UNL A   1      39.695  28.350  33.030  1.00  0.00    -0.252 OA
BRANCH   6   8
ATOM      8  C   UNL A   1      38.533  28.505  30.720  1.00  0.00     0.116 C 
ATOM      9  C   UNL A   1      38.414  29.682  29.758  1.00  0.00     0.097 C 
ATOM     10  C   UNL A   1      38.180  29.351  28.269  1.00  0.00     0.041 C 
ATOM     11  C   UNL A   1      38.745  28.076  27.744  1.00  0.00    -0.030 C 
ATOM     12  C   UNL A   1      39.242  27.291  30.029  1.00  0.00     0.043 C 
ATOM     13  C   UNL A   1      39.231  27.140  28.550  1.00  0.00    -0.030 C 
BRANCH   9  14
ATOM     14  C   UNL A   1      39.625  30.557  29.952  1.00  0.00     0.228 C 
ATOM     15  N   UNL A   1      39.433  31.851  30.361  1.00  0.00    -0.326 N 
ATOM     16  H   UNL A   1      40.248  32.294  30.690  1.00  0.00     0.169 HD
ATOM     17  O   UNL A   1      40.764  30.088  29.961  1.00  0.00    -0.274 OA
BRANCH  15  18
ATOM     18  C   UNL A   1      38.282  32.661  30.396  1.00  0.00     0.044 A 
ATOM     19  C   UNL A   1      36.302  33.338  29.124  1.00  0.00     0.062 A 
ATOM     20  C   UNL A   1      35.873  34.104  30.204  1.00  0.00     0.016 A 
ATOM     21  C   UNL A   1      37.500  32.624  29.230  1.00  0.00     0.042 A 
ATOM     22  C   UNL A   1      36.641  34.150  31.368  1.00  0.00     0.006 A 
ATOM     23  C   UNL A   1      37.844  33.427  31.489  1.00  0.00    -0.027 A 
ATOM     24  C   UNL A   1      38.543  33.519  32.819  1.00  0.00     0.046 C 
BRANCH  19  25
ATOM     25  C   UNL A   1      35.449  33.272  27.905  1.00  0.00     0.337 C 
ATOM     26  O   UNL A   1      34.988  34.246  27.335  1.00  0.00    -0.246 OA
BRANCH  25  27
ATOM     27  O   UNL A   1      35.232  31.989  27.531  1.00  0.00    -0.465 OA
ATOM     28  C   UNL A   1      33.879  31.581  27.732  1.00  0.00     0.282 C 
ENDBRANCH  25  27
ENDBRANCH  19  25
ENDBRANCH  15  18
ENDBRANCH   9  14
ENDBRANCH   6   8
ENDBRANCH   5   6
ENDBRANCH   4   5
ENDBRANCH   3   4
ENDBRANCH   2   3
ENDBRANCH   1   2
BRANCH   1  29
ATOM     29  C   UNL A   1      41.291  31.966  36.710  1.00  0.00     0.188 C 
BRANCH  29  30
ATOM     30  O   UNL A   1      42.543  32.647  36.658  1.00  0.00    -0.376 OA
BRANCH  30  31
ATOM     31  C   UNL A   1      43.616  31.967  36.005  1.00  0.00     0.202 C 
BRANCH  31  32
ATOM     32  C   UNL A   1      44.893  32.792  35.738  1.00  0.00     0.261 C 
BRANCH  32  33
ATOM     33  O   UNL A   1      44.643  33.822  34.759  1.00  0.00    -0.460 OA
BRANCH  33  34
ATOM     34  C   UNL A   1      44.456  35.115  35.175  1.00  0.00     0.338 C 
ATOM     35  O   UNL A   1      45.054  35.625  36.105  1.00  0.00    -0.246 OA
BRANCH  34  36
ATOM     36  C   UNL A   1      43.448  35.686  34.205  1.00  0.00     0.060 A 
ATOM     37  C   UNL A   1      42.382  35.002  33.647  1.00  0.00     0.016 A 
ATOM     38  C   UNL A   1      43.873  36.766  33.494  1.00  0.00     0.016 A 
ATOM     39  C   UNL A   1      42.037  35.128  32.264  1.00  0.00     0.010 A 
ATOM     40  C   UNL A   1      43.705  36.719  32.107  1.00  0.00     0.010 A 
ATOM     41  C   UNL A   1      42.892  35.808  31.385  1.00  0.00    -0.014 A 
BRANCH  41  42
ATOM     42  C   UNL A   1      43.266  35.171  29.976  1.00  0.00     0.031 A 
ATOM     43  C   UNL A   1      43.877  33.784  29.434  1.00  0.00     0.074 A 
ATOM     44  C   UNL A   1      42.954  36.069  28.998  1.00  0.00     0.049 A 
ATOM     45  N   UNL A   1      44.571  33.632  28.323  1.00  0.00    -0.248 NA
ATOM     46  C   UNL A   1      43.827  32.426  29.993  1.00  0.00     0.031 C 
ATOM     47  C   UNL A   1      42.957  35.930  27.551  1.00  0.00     0.029 A 
ATOM     48  N   UNL A   1      42.699  37.439  29.176  1.00  0.00    -0.354 N 
ATOM     49  C   UNL A   1      44.744  32.246  28.108  1.00  0.00     0.074 A 
ATOM     50  C   UNL A   1      44.671  31.636  29.354  1.00  0.00     0.031 C 
ATOM     51  C   UNL A   1      42.994  37.159  26.999  1.00  0.00     0.029 A 
ATOM     52  C   UNL A   1      43.206  38.121  28.076  1.00  0.00     0.049 A 
ATOM     53  H   UNL A   1      42.239  37.845  29.946  1.00  0.00     0.167 HD
ATOM     54  C   UNL A   1      44.597  31.606  26.915  1.00  0.00     0.031 A 
ATOM     55  C   UNL A   1      44.341  38.870  28.254  1.00  0.00     0.031 A 
ATOM     56  C   UNL A   1      44.850  32.567  25.883  1.00  0.00     0.049 A 
ATOM     57  C   UNL A   1      45.529  38.221  27.526  1.00  0.00     0.074 A 
ATOM     58  C   UNL A   1      44.070  33.259  24.986  1.00  0.00     0.029 A 
ATOM     59  N   UNL A   1      46.025  33.289  26.032  1.00  0.00    -0.354 N 
ATOM     60  N   UNL A   1      45.537  36.985  27.081  1.00  0.00    -0.248 NA
ATOM     61  C   UNL A   1      46.764  38.915  27.176  1.00  0.00     0.031 C 
ATOM     62  C   UNL A   1      44.698  34.542  24.815  1.00  0.00     0.029 A 
ATOM     63  C   UNL A   1      45.877  34.573  25.547  1.00  0.00     0.049 A 
ATOM     64  H   UNL A   1      46.853  32.933  26.428  1.00  0.00     0.167 HD
ATOM     65  C   UNL A   1      46.690  36.718  26.401  1.00  0.00     0.074 A 
ATOM     66  C   UNL A   1      47.434  37.962  26.499  1.00  0.00     0.031 C 
ATOM     67  C   UNL A   1      46.968  35.516  25.805  1.00  0.00     0.031 A 
BRANCH  54  68
ATOM     68  C   UNL A   1      44.112  30.143  26.780  1.00  0.00    -0.014 A 
ATOM     69  C   UNL A   1      45.015  29.081  26.586  1.00  0.00     0.010 A 
ATOM     70  C   UNL A   1      42.738  29.756  26.753  1.00  0.00     0.010 A 
ATOM     71  C   UNL A   1      44.580  27.736  26.430  1.00  0.00     0.020 A 
ATOM     72  C   UNL A   1      42.294  28.421  26.652  1.00  0.00     0.020 A 
ATOM     73  C   UNL A   1      43.222  27.410  26.477  1.00  0.00     0.054 A 
BRANCH  73  74
ATOM     74  S   UNL A   1      42.672  25.682  26.291  1.00  0.00     0.124 S 
ATOM     75  O   UNL A   1      43.407  25.248  25.105  1.00  0.00    -0.237 OA
ATOM     76  O   UNL A   1      43.089  25.070  27.549  1.00  0.00    -0.237 OA
ATOM     77  O   UNL A   1      41.225  25.792  26.112  1.00  0.00    -0.744 OA
ENDBRANCH  73  74
ENDBRANCH  54  68
BRANCH  55  78
ATOM     78  C   UNL A   1      44.353  39.798  29.467  1.00  0.00    -0.014 A 
ATOM     79  C   UNL A   1      43.393  40.852  29.520  1.00  0.00     0.010 A 
ATOM     80  C   UNL A   1      45.108  39.601  30.639  1.00  0.00     0.010 A 
ATOM     81  C   UNL A   1      43.121  41.592  30.693  1.00  0.00     0.020 A 
ATOM     82  C   UNL A   1      44.845  40.343  31.826  1.00  0.00     0.020 A 
ATOM     83  C   UNL A   1      43.835  41.314  31.859  1.00  0.00     0.054 A 
BRANCH  83  84
ATOM     84  S   UNL A   1      43.180  41.928  33.472  1.00  0.00     0.124 S 
ATOM     85  O   UNL A   1      43.502  43.349  33.428  1.00  0.00    -0.237 OA
ATOM     86  O   UNL A   1      41.761  41.602  33.388  1.00  0.00    -0.237 OA
ATOM     87  O   UNL A   1      43.915  41.140  34.457  1.00  0.00    -0.744 OA
ENDBRANCH  83  84
ENDBRANCH  55  78
BRANCH  67  88
ATOM     88  C   UNL A   1      48.373  35.056  25.456  1.00  0.00    -0.014 A 
ATOM     89  C   UNL A   1      49.290  35.849  24.749  1.00  0.00     0.010 A 
ATOM     90  C   UNL A   1      48.878  33.873  26.053  1.00  0.00     0.010 A 
ATOM     91  C   UNL A   1      50.625  35.452  24.596  1.00  0.00     0.020 A 
ATOM     92  C   UNL A   1      50.223  33.515  25.983  1.00  0.00     0.020 A 
ATOM     93  C   UNL A   1      51.083  34.290  25.217  1.00  0.00     0.054 A 
BRANCH  93  94
ATOM     94  S   UNL A   1      52.816  33.800  25.065  1.00  0.00     0.124 S 
ATOM     95  O   UNL A   1      52.826  33.166  23.749  1.00  0.00    -0.237 OA
ATOM     96  O   UNL A   1      53.533  35.070  25.152  1.00  0.00    -0.237 OA
ATOM     97  O   UNL A   1      53.012  32.902  26.199  1.00  0.00    -0.744 OA
ENDBRANCH  93  94
ENDBRANCH  67  88
ENDBRANCH  41  42
ENDBRANCH  34  36
ENDBRANCH  33  34
ENDBRANCH  32  33
ENDBRANCH  31  32
ENDBRANCH  30  31
ENDBRANCH  29  30
ENDBRANCH   1  29
TORSDOF 24
ENDMDL
