MODEL 1
REMARK VINA RESULT:      -9.0      0.000      0.000
REMARK SMILES C[C@H]([NH2+]C1C(C)(C)C1(C)C)[C@H](C)C(=O)OCCOCCOCCOC(=O)c1ccc(-c2c3nc(c(-c4ccc(S(=O)(=O)[O-])cc4)c4ccc([nH]4)c(-c4ccc(S(=O)(=O)[O-])cc4)c4nc(c(-c5ccc(S(=O)(=O)[O-])cc5)c5ccc2[nH]5)C=C4)C=C3)cc1
REMARK SMILES IDX 19 1 18 2 17 3 16 4 15 5 13 6 14 7 11 8 12 9 2 10 1 11 3 12
REMARK SMILES IDX 4 15 5 16 8 17 6 18 7 19 9 20 10 21 20 22 21 23 22 24 23 25
REMARK SMILES IDX 24 26 25 27 26 28 27 29 28 30 86 31 29 32 85 33 30 34 31 35
REMARK SMILES IDX 32 36 79 37 33 38 84 39 78 40 80 41 34 42 83 43 77 44 76 45
REMARK SMILES IDX 35 47 65 48 46 49 64 50 47 51 50 52 63 53 81 54 48 55 49 56
REMARK SMILES IDX 62 58 82 59 51 60 36 61 37 62 45 63 38 64 44 65 39 66 40 67
REMARK SMILES IDX 41 68 42 69 43 70 66 71 67 72 75 73 68 74 74 75 69 76 70 77
REMARK SMILES IDX 71 78 72 79 73 80 52 81 53 82 61 83 54 84 60 85 55 86 56 87
REMARK SMILES IDX 57 88 58 89 59 90
REMARK H PARENT 3 13 3 14 80 46 50 57
REMARK Flexibility Score: inf
ROOT
ATOM      1  C   UNL A   1      31.236  26.618  26.053  1.00  0.00     0.188 C 
ENDROOT
BRANCH   1   2
ATOM      2  O   UNL A   1      32.410  25.856  25.823  1.00  0.00    -0.376 OA
BRANCH   2   3
ATOM      3  C   UNL A   1      32.719  25.507  24.479  1.00  0.00     0.202 C 
BRANCH   3   4
ATOM      4  C   UNL A   1      33.557  24.244  24.283  1.00  0.00     0.261 C 
BRANCH   4   5
ATOM      5  O   UNL A   1      34.932  24.525  23.935  1.00  0.00    -0.463 OA
BRANCH   5   6
ATOM      6  C   UNL A   1      35.736  23.435  23.843  1.00  0.00     0.314 C 
ATOM      7  O   UNL A   1      36.127  22.954  22.784  1.00  0.00    -0.252 OA
BRANCH   6   8
ATOM      8  C   UNL A   1      36.073  22.792  25.180  1.00  0.00     0.154 C 
ATOM      9  C   UNL A   1      36.868  23.695  26.111  1.00  0.00     0.026 C 
BRANCH   8  10
ATOM     10  C   UNL A   1      34.931  21.925  25.789  1.00  0.00     0.193 C 
ATOM     11  C   UNL A   1      34.680  22.231  27.273  1.00  0.00     0.076 C 
BRANCH  10  12
ATOM     12  N   UNL A   1      34.772  20.475  25.562  1.00  0.00    -0.340 N 
ATOM     13  H   UNL A   1      34.258  20.109  26.364  1.00  0.00     0.346 HD
ATOM     14  H   UNL A   1      35.732  20.158  25.426  1.00  0.00     0.346 HD
BRANCH  12  15
ATOM     15  C   UNL A   1      34.091  19.980  24.368  1.00  0.00     0.195 C 
ATOM     16  C   UNL A   1      33.049  18.885  24.370  1.00  0.00     0.028 C 
ATOM     17  C   UNL A   1      32.626  20.344  24.137  1.00  0.00     0.028 C 
ATOM     18  C   UNL A   1      33.056  17.931  23.196  1.00  0.00     0.018 C 
ATOM     19  C   UNL A   1      32.646  18.201  25.654  1.00  0.00     0.018 C 
ATOM     20  C   UNL A   1      31.829  21.069  25.199  1.00  0.00     0.018 C 
ATOM     21  C   UNL A   1      32.235  20.787  22.739  1.00  0.00     0.018 C 
ENDBRANCH  12  15
ENDBRANCH  10  12
ENDBRANCH   8  10
ENDBRANCH   6   8
ENDBRANCH   5   6
ENDBRANCH   4   5
ENDBRANCH   3   4
ENDBRANCH   2   3
ENDBRANCH   1   2
BRANCH   1  22
ATOM     22  C   UNL A   1      30.727  27.525  24.925  1.00  0.00     0.188 C 
BRANCH  22  23
ATOM     23  O   UNL A   1      31.030  28.912  24.927  1.00  0.00    -0.376 OA
BRANCH  23  24
ATOM     24  C   UNL A   1      32.398  29.282  25.047  1.00  0.00     0.202 C 
BRANCH  24  25
ATOM     25  C   UNL A   1      32.713  30.150  26.267  1.00  0.00     0.261 C 
BRANCH  25  26
ATOM     26  O   UNL A   1      33.970  29.772  26.846  1.00  0.00    -0.460 OA
BRANCH  26  27
ATOM     27  C   UNL A   1      34.546  30.711  27.643  1.00  0.00     0.338 C 
ATOM     28  O   UNL A   1      34.038  31.722  28.078  1.00  0.00    -0.246 OA
BRANCH  27  29
ATOM     29  C   UNL A   1      35.853  30.184  28.102  1.00  0.00     0.060 A 
ATOM     30  C   UNL A   1      35.905  29.595  29.375  1.00  0.00     0.016 A 
ATOM     31  C   UNL A   1      36.985  30.202  27.283  1.00  0.00     0.016 A 
ATOM     32  C   UNL A   1      37.098  29.047  29.843  1.00  0.00     0.010 A 
ATOM     33  C   UNL A   1      38.183  29.671  27.760  1.00  0.00     0.010 A 
ATOM     34  C   UNL A   1      38.251  29.118  29.052  1.00  0.00    -0.014 A 
BRANCH  34  35
ATOM     35  C   UNL A   1      39.575  28.832  29.648  1.00  0.00     0.031 A 
ATOM     36  C   UNL A   1      40.041  29.718  30.770  1.00  0.00     0.074 A 
ATOM     37  C   UNL A   1      40.352  27.830  29.201  1.00  0.00     0.049 A 
ATOM     38  N   UNL A   1      41.187  29.729  31.397  1.00  0.00    -0.248 NA
ATOM     39  C   UNL A   1      39.082  30.733  31.243  1.00  0.00     0.031 C 
ATOM     40  C   UNL A   1      39.994  26.876  28.153  1.00  0.00     0.029 A 
ATOM     41  N   UNL A   1      41.620  27.460  29.576  1.00  0.00    -0.354 N 
ATOM     42  C   UNL A   1      41.091  30.754  32.329  1.00  0.00     0.074 A 
ATOM     43  C   UNL A   1      39.786  31.356  32.173  1.00  0.00     0.031 C 
ATOM     44  C   UNL A   1      41.028  26.040  27.955  1.00  0.00     0.029 A 
ATOM     45  C   UNL A   1      42.131  26.420  28.838  1.00  0.00     0.049 A 
ATOM     46  H   UNL A   1      42.116  27.900  30.303  1.00  0.00     0.167 HD
ATOM     47  C   UNL A   1      42.009  31.162  33.236  1.00  0.00     0.031 A 
ATOM     48  C   UNL A   1      43.357  25.860  28.857  1.00  0.00     0.031 A 
ATOM     49  C   UNL A   1      43.316  30.582  33.372  1.00  0.00     0.049 A 
ATOM     50  C   UNL A   1      44.394  26.384  29.820  1.00  0.00     0.074 A 
ATOM     51  C   UNL A   1      44.319  30.922  34.262  1.00  0.00     0.029 A 
ATOM     52  N   UNL A   1      43.806  29.549  32.588  1.00  0.00    -0.354 N 
ATOM     53  N   UNL A   1      44.284  27.341  30.712  1.00  0.00    -0.248 NA
ATOM     54  C   UNL A   1      45.719  25.749  29.779  1.00  0.00     0.031 C 
ATOM     55  C   UNL A   1      45.435  30.127  33.981  1.00  0.00     0.029 A 
ATOM     56  C   UNL A   1      45.106  29.254  32.955  1.00  0.00     0.049 A 
ATOM     57  H   UNL A   1      43.302  29.093  31.876  1.00  0.00     0.167 HD
ATOM     58  C   UNL A   1      45.518  27.406  31.353  1.00  0.00     0.074 A 
ATOM     59  C   UNL A   1      46.354  26.384  30.756  1.00  0.00     0.031 C 
ATOM     60  C   UNL A   1      45.923  28.234  32.348  1.00  0.00     0.031 A 
BRANCH  47  61
ATOM     61  C   UNL A   1      41.634  32.320  34.116  1.00  0.00    -0.014 A 
ATOM     62  C   UNL A   1      41.046  32.115  35.377  1.00  0.00     0.010 A 
ATOM     63  C   UNL A   1      41.878  33.634  33.676  1.00  0.00     0.010 A 
ATOM     64  C   UNL A   1      40.672  33.205  36.166  1.00  0.00     0.020 A 
ATOM     65  C   UNL A   1      41.528  34.726  34.473  1.00  0.00     0.020 A 
ATOM     66  C   UNL A   1      40.911  34.504  35.706  1.00  0.00     0.054 A 
BRANCH  66  67
ATOM     67  S   UNL A   1      40.426  35.902  36.756  1.00  0.00     0.124 S 
ATOM     68  O   UNL A   1      39.574  35.252  37.748  1.00  0.00    -0.237 OA
ATOM     69  O   UNL A   1      41.710  36.389  37.255  1.00  0.00    -0.237 OA
ATOM     70  O   UNL A   1      39.737  36.802  35.836  1.00  0.00    -0.744 OA
ENDBRANCH  66  67
ENDBRANCH  47  61
BRANCH  48  71
ATOM     71  C   UNL A   1      43.690  24.755  27.916  1.00  0.00    -0.014 A 
ATOM     72  C   UNL A   1      43.245  23.445  28.162  1.00  0.00     0.010 A 
ATOM     73  C   UNL A   1      44.469  25.007  26.772  1.00  0.00     0.010 A 
ATOM     74  C   UNL A   1      43.585  22.405  27.291  1.00  0.00     0.020 A 
ATOM     75  C   UNL A   1      44.789  23.976  25.885  1.00  0.00     0.020 A 
ATOM     76  C   UNL A   1      44.355  22.677  26.156  1.00  0.00     0.054 A 
BRANCH  76  77
ATOM     77  S   UNL A   1      44.745  21.321  25.015  1.00  0.00     0.124 S 
ATOM     78  O   UNL A   1      44.411  21.909  23.721  1.00  0.00    -0.237 OA
ATOM     79  O   UNL A   1      46.166  21.099  25.263  1.00  0.00    -0.237 OA
ATOM     80  O   UNL A   1      43.866  20.240  25.457  1.00  0.00    -0.744 OA
ENDBRANCH  76  77
ENDBRANCH  48  71
BRANCH  60  81
ATOM     81  C   UNL A   1      47.319  28.053  32.883  1.00  0.00    -0.014 A 
ATOM     82  C   UNL A   1      48.404  28.765  32.343  1.00  0.00     0.010 A 
ATOM     83  C   UNL A   1      47.533  27.210  33.989  1.00  0.00     0.010 A 
ATOM     84  C   UNL A   1      49.684  28.616  32.884  1.00  0.00     0.020 A 
ATOM     85  C   UNL A   1      48.805  27.077  34.548  1.00  0.00     0.020 A 
ATOM     86  C   UNL A   1      49.877  27.772  33.983  1.00  0.00     0.054 A 
BRANCH  86  87
ATOM     87  S   UNL A   1      51.538  27.633  34.699  1.00  0.00     0.124 S 
ATOM     88  O   UNL A   1      51.327  26.664  35.770  1.00  0.00    -0.237 OA
ATOM     89  O   UNL A   1      52.337  27.160  33.570  1.00  0.00    -0.237 OA
ATOM     90  O   UNL A   1      51.839  28.993  35.140  1.00  0.00    -0.744 OA
ENDBRANCH  86  87
ENDBRANCH  60  81
ENDBRANCH  34  35
ENDBRANCH  27  29
ENDBRANCH  26  27
ENDBRANCH  25  26
ENDBRANCH  24  25
ENDBRANCH  23  24
ENDBRANCH  22  23
ENDBRANCH   1  22
TORSDOF 23
ENDMDL
MODEL 2
REMARK VINA RESULT:      -8.9      3.255      9.816
REMARK SMILES C[C@H]([NH2+]C1C(C)(C)C1(C)C)[C@H](C)C(=O)OCCOCCOCCOC(=O)c1ccc(-c2c3nc(c(-c4ccc(S(=O)(=O)[O-])cc4)c4ccc([nH]4)c(-c4ccc(S(=O)(=O)[O-])cc4)c4nc(c(-c5ccc(S(=O)(=O)[O-])cc5)c5ccc2[nH]5)C=C4)C=C3)cc1
REMARK SMILES IDX 19 1 18 2 17 3 16 4 15 5 13 6 14 7 11 8 12 9 2 10 1 11 3 12
REMARK SMILES IDX 4 15 5 16 8 17 6 18 7 19 9 20 10 21 20 22 21 23 22 24 23 25
REMARK SMILES IDX 24 26 25 27 26 28 27 29 28 30 86 31 29 32 85 33 30 34 31 35
REMARK SMILES IDX 32 36 79 37 33 38 84 39 78 40 80 41 34 42 83 43 77 44 76 45
REMARK SMILES IDX 35 47 65 48 46 49 64 50 47 51 50 52 63 53 81 54 48 55 49 56
REMARK SMILES IDX 62 58 82 59 51 60 36 61 37 62 45 63 38 64 44 65 39 66 40 67
REMARK SMILES IDX 41 68 42 69 43 70 66 71 67 72 75 73 68 74 74 75 69 76 70 77
REMARK SMILES IDX 71 78 72 79 73 80 52 81 53 82 61 83 54 84 60 85 55 86 56 87
REMARK SMILES IDX 57 88 58 89 59 90
REMARK H PARENT 3 13 3 14 80 46 50 57
REMARK Flexibility Score: inf
ROOT
ATOM      1  C   UNL A   1      37.666  22.798  25.340  1.00  0.00     0.188 C 
ENDROOT
BRANCH   1   2
ATOM      2  O   UNL A   1      36.721  22.042  24.601  1.00  0.00    -0.376 OA
BRANCH   2   3
ATOM      3  C   UNL A   1      35.759  21.290  25.332  1.00  0.00     0.202 C 
BRANCH   3   4
ATOM      4  C   UNL A   1      34.991  22.044  26.416  1.00  0.00     0.261 C 
BRANCH   4   5
ATOM      5  O   UNL A   1      33.586  22.197  26.113  1.00  0.00    -0.463 OA
BRANCH   5   6
ATOM      6  C   UNL A   1      33.273  23.290  25.371  1.00  0.00     0.314 C 
ATOM      7  O   UNL A   1      34.076  24.166  25.063  1.00  0.00    -0.252 OA
BRANCH   6   8
ATOM      8  C   UNL A   1      31.803  23.392  24.994  1.00  0.00     0.154 C 
ATOM      9  C   UNL A   1      30.897  22.482  25.809  1.00  0.00     0.026 C 
BRANCH   8  10
ATOM     10  C   UNL A   1      31.312  24.836  24.680  1.00  0.00     0.193 C 
ATOM     11  C   UNL A   1      31.616  25.267  23.238  1.00  0.00     0.076 C 
BRANCH  10  12
ATOM     12  N   UNL A   1      31.493  25.993  25.578  1.00  0.00    -0.340 N 
ATOM     13  H   UNL A   1      31.657  25.616  26.512  1.00  0.00     0.346 HD
ATOM     14  H   UNL A   1      30.641  26.535  25.427  1.00  0.00     0.346 HD
BRANCH  12  15
ATOM     15  C   UNL A   1      32.551  26.969  25.330  1.00  0.00     0.195 C 
ATOM     16  C   UNL A   1      32.316  28.381  24.847  1.00  0.00     0.028 C 
ATOM     17  C   UNL A   1      32.740  28.130  26.302  1.00  0.00     0.028 C 
ATOM     18  C   UNL A   1      33.329  28.952  23.878  1.00  0.00     0.018 C 
ATOM     19  C   UNL A   1      30.919  28.882  24.566  1.00  0.00     0.018 C 
ATOM     20  C   UNL A   1      31.752  28.376  27.421  1.00  0.00     0.018 C 
ATOM     21  C   UNL A   1      34.162  28.456  26.725  1.00  0.00     0.018 C 
ENDBRANCH  12  15
ENDBRANCH  10  12
ENDBRANCH   8  10
ENDBRANCH   6   8
ENDBRANCH   5   6
ENDBRANCH   4   5
ENDBRANCH   3   4
ENDBRANCH   2   3
ENDBRANCH   1   2
BRANCH   1  22
ATOM     22  C   UNL A   1      38.747  22.043  26.125  1.00  0.00     0.188 C 
BRANCH  22  23
ATOM     23  O   UNL A   1      39.619  22.742  27.000  1.00  0.00    -0.376 OA
BRANCH  23  24
ATOM     24  C   UNL A   1      40.975  22.315  27.051  1.00  0.00     0.202 C 
BRANCH  24  25
ATOM     25  C   UNL A   1      41.911  23.069  26.107  1.00  0.00     0.261 C 
BRANCH  25  26
ATOM     26  O   UNL A   1      42.483  24.209  26.764  1.00  0.00    -0.460 OA
BRANCH  26  27
ATOM     27  C   UNL A   1      42.070  25.417  26.295  1.00  0.00     0.338 C 
ATOM     28  O   UNL A   1      41.622  25.668  25.198  1.00  0.00    -0.246 OA
BRANCH  27  29
ATOM     29  C   UNL A   1      42.030  26.362  27.436  1.00  0.00     0.060 A 
ATOM     30  C   UNL A   1      41.143  26.078  28.485  1.00  0.00     0.016 A 
ATOM     31  C   UNL A   1      42.887  27.463  27.512  1.00  0.00     0.016 A 
ATOM     32  C   UNL A   1      41.090  26.911  29.602  1.00  0.00     0.010 A 
ATOM     33  C   UNL A   1      42.821  28.307  28.621  1.00  0.00     0.010 A 
ATOM     34  C   UNL A   1      41.903  28.050  29.655  1.00  0.00    -0.014 A 
BRANCH  34  35
ATOM     35  C   UNL A   1      41.640  29.098  30.666  1.00  0.00     0.031 A 
ATOM     36  C   UNL A   1      42.531  29.141  31.876  1.00  0.00     0.074 A 
ATOM     37  C   UNL A   1      40.632  29.978  30.528  1.00  0.00     0.049 A 
ATOM     38  N   UNL A   1      42.456  29.901  32.935  1.00  0.00    -0.248 NA
ATOM     39  C   UNL A   1      43.657  28.190  31.891  1.00  0.00     0.031 C 
ATOM     40  C   UNL A   1      39.729  30.067  29.382  1.00  0.00     0.029 A 
ATOM     41  N   UNL A   1      40.195  30.962  31.380  1.00  0.00    -0.354 N 
ATOM     42  C   UNL A   1      43.515  29.516  33.746  1.00  0.00     0.074 A 
ATOM     43  C   UNL A   1      44.206  28.441  33.068  1.00  0.00     0.031 C 
ATOM     44  C   UNL A   1      38.832  31.043  29.611  1.00  0.00     0.029 A 
ATOM     45  C   UNL A   1      39.077  31.622  30.932  1.00  0.00     0.049 A 
ATOM     46  H   UNL A   1      40.640  31.173  32.232  1.00  0.00     0.167 HD
ATOM     47  C   UNL A   1      43.882  30.010  34.951  1.00  0.00     0.031 A 
ATOM     48  C   UNL A   1      38.325  32.566  31.534  1.00  0.00     0.031 A 
ATOM     49  C   UNL A   1      43.180  31.058  35.637  1.00  0.00     0.049 A 
ATOM     50  C   UNL A   1      38.704  33.046  32.913  1.00  0.00     0.074 A 
ATOM     51  C   UNL A   1      43.472  31.631  36.861  1.00  0.00     0.029 A 
ATOM     52  N   UNL A   1      42.036  31.682  35.163  1.00  0.00    -0.354 N 
ATOM     53  N   UNL A   1      39.721  32.687  33.661  1.00  0.00    -0.248 NA
ATOM     54  C   UNL A   1      37.834  34.059  33.526  1.00  0.00     0.031 C 
ATOM     55  C   UNL A   1      42.475  32.568  37.151  1.00  0.00     0.029 A 
ATOM     56  C   UNL A   1      41.594  32.617  36.081  1.00  0.00     0.049 A 
ATOM     57  H   UNL A   1      41.603  31.488  34.301  1.00  0.00     0.167 HD
ATOM     58  C   UNL A   1      39.625  33.448  34.822  1.00  0.00     0.074 A 
ATOM     59  C   UNL A   1      38.459  34.294  34.672  1.00  0.00     0.031 C 
ATOM     60  C   UNL A   1      40.430  33.450  35.914  1.00  0.00     0.031 A 
BRANCH  47  61
ATOM     61  C   UNL A   1      45.075  29.381  35.614  1.00  0.00    -0.014 A 
ATOM     62  C   UNL A   1      44.938  28.245  36.432  1.00  0.00     0.010 A 
ATOM     63  C   UNL A   1      46.353  29.934  35.412  1.00  0.00     0.010 A 
ATOM     64  C   UNL A   1      46.054  27.697  37.068  1.00  0.00     0.020 A 
ATOM     65  C   UNL A   1      47.474  29.373  36.027  1.00  0.00     0.020 A 
ATOM     66  C   UNL A   1      47.314  28.267  36.864  1.00  0.00     0.054 A 
BRANCH  66  67
ATOM     67  S   UNL A   1      48.749  27.528  37.693  1.00  0.00     0.124 S 
ATOM     68  O   UNL A   1      49.673  28.657  37.757  1.00  0.00    -0.237 OA
ATOM     69  O   UNL A   1      48.193  27.098  38.974  1.00  0.00    -0.237 OA
ATOM     70  O   UNL A   1      49.147  26.446  36.797  1.00  0.00    -0.744 OA
ENDBRANCH  66  67
ENDBRANCH  47  61
BRANCH  48  71
ATOM     71  C   UNL A   1      37.117  33.106  30.851  1.00  0.00    -0.014 A 
ATOM     72  C   UNL A   1      37.240  33.973  29.752  1.00  0.00     0.010 A 
ATOM     73  C   UNL A   1      35.830  32.765  31.310  1.00  0.00     0.010 A 
ATOM     74  C   UNL A   1      36.103  34.501  29.133  1.00  0.00     0.020 A 
ATOM     75  C   UNL A   1      34.690  33.270  30.679  1.00  0.00     0.020 A 
ATOM     76  C   UNL A   1      34.834  34.146  29.600  1.00  0.00     0.054 A 
BRANCH  76  77
ATOM     77  S   UNL A   1      33.371  34.806  28.753  1.00  0.00     0.124 S 
ATOM     78  O   UNL A   1      33.040  33.723  27.832  1.00  0.00    -0.237 OA
ATOM     79  O   UNL A   1      32.434  35.010  29.854  1.00  0.00    -0.237 OA
ATOM     80  O   UNL A   1      33.863  36.032  28.128  1.00  0.00    -0.744 OA
ENDBRANCH  76  77
ENDBRANCH  48  71
BRANCH  60  81
ATOM     81  C   UNL A   1      40.104  34.417  37.021  1.00  0.00    -0.014 A 
ATOM     82  C   UNL A   1      39.200  34.077  38.042  1.00  0.00     0.010 A 
ATOM     83  C   UNL A   1      40.768  35.656  37.076  1.00  0.00     0.010 A 
ATOM     84  C   UNL A   1      38.945  34.972  39.085  1.00  0.00     0.020 A 
ATOM     85  C   UNL A   1      40.535  36.543  38.130  1.00  0.00     0.020 A 
ATOM     86  C   UNL A   1      39.615  36.200  39.123  1.00  0.00     0.054 A 
BRANCH  86  87
ATOM     87  S   UNL A   1      39.305  37.324  40.512  1.00  0.00     0.124 S 
ATOM     88  O   UNL A   1      38.226  38.159  39.993  1.00  0.00    -0.237 OA
ATOM     89  O   UNL A   1      38.931  36.410  41.589  1.00  0.00    -0.237 OA
ATOM     90  O   UNL A   1      40.585  38.005  40.698  1.00  0.00    -0.744 OA
ENDBRANCH  86  87
ENDBRANCH  60  81
ENDBRANCH  34  35
ENDBRANCH  27  29
ENDBRANCH  26  27
ENDBRANCH  25  26
ENDBRANCH  24  25
ENDBRANCH  23  24
ENDBRANCH  22  23
ENDBRANCH   1  22
TORSDOF 23
ENDMDL
MODEL 3
REMARK VINA RESULT:      -8.7      3.249      9.138
REMARK SMILES C[C@H]([NH2+]C1C(C)(C)C1(C)C)[C@H](C)C(=O)OCCOCCOCCOC(=O)c1ccc(-c2c3nc(c(-c4ccc(S(=O)(=O)[O-])cc4)c4ccc([nH]4)c(-c4ccc(S(=O)(=O)[O-])cc4)c4nc(c(-c5ccc(S(=O)(=O)[O-])cc5)c5ccc2[nH]5)C=C4)C=C3)cc1
REMARK SMILES IDX 19 1 18 2 17 3 16 4 15 5 13 6 14 7 11 8 12 9 2 10 1 11 3 12
REMARK SMILES IDX 4 15 5 16 8 17 6 18 7 19 9 20 10 21 20 22 21 23 22 24 23 25
REMARK SMILES IDX 24 26 25 27 26 28 27 29 28 30 86 31 29 32 85 33 30 34 31 35
REMARK SMILES IDX 32 36 79 37 33 38 84 39 78 40 80 41 34 42 83 43 77 44 76 45
REMARK SMILES IDX 35 47 65 48 46 49 64 50 47 51 50 52 63 53 81 54 48 55 49 56
REMARK SMILES IDX 62 58 82 59 51 60 36 61 37 62 45 63 38 64 44 65 39 66 40 67
REMARK SMILES IDX 41 68 42 69 43 70 66 71 67 72 75 73 68 74 74 75 69 76 70 77
REMARK SMILES IDX 71 78 72 79 73 80 52 81 53 82 61 83 54 84 60 85 55 86 56 87
REMARK SMILES IDX 57 88 58 89 59 90
REMARK H PARENT 3 13 3 14 80 46 50 57
REMARK Flexibility Score: inf
ROOT
ATOM      1  C   UNL A   1      37.602  21.705  25.321  1.00  0.00     0.188 C 
ENDROOT
BRANCH   1   2
ATOM      2  O   UNL A   1      36.969  20.808  24.424  1.00  0.00    -0.376 OA
BRANCH   2   3
ATOM      3  C   UNL A   1      35.992  19.921  24.956  1.00  0.00     0.202 C 
BRANCH   3   4
ATOM      4  C   UNL A   1      34.619  20.523  25.251  1.00  0.00     0.261 C 
BRANCH   4   5
ATOM      5  O   UNL A   1      34.241  21.559  24.315  1.00  0.00    -0.463 OA
BRANCH   5   6
ATOM      6  C   UNL A   1      33.519  22.578  24.847  1.00  0.00     0.314 C 
ATOM      7  O   UNL A   1      33.005  22.550  25.961  1.00  0.00    -0.252 OA
BRANCH   6   8
ATOM      8  C   UNL A   1      33.329  23.764  23.913  1.00  0.00     0.154 C 
ATOM      9  C   UNL A   1      33.456  23.410  22.439  1.00  0.00     0.026 C 
BRANCH   8  10
ATOM     10  C   UNL A   1      32.204  24.753  24.341  1.00  0.00     0.193 C 
ATOM     11  C   UNL A   1      30.799  24.146  24.215  1.00  0.00     0.076 C 
BRANCH  10  12
ATOM     12  N   UNL A   1      32.152  26.176  23.953  1.00  0.00    -0.340 N 
ATOM     13  H   UNL A   1      31.580  26.228  23.110  1.00  0.00     0.346 HD
ATOM     14  H   UNL A   1      33.137  26.428  23.875  1.00  0.00     0.346 HD
BRANCH  12  15
ATOM     15  C   UNL A   1      31.628  27.180  24.876  1.00  0.00     0.195 C 
ATOM     16  C   UNL A   1      32.399  27.755  26.041  1.00  0.00     0.028 C 
ATOM     17  C   UNL A   1      32.144  28.614  24.793  1.00  0.00     0.028 C 
ATOM     18  C   UNL A   1      31.616  28.049  27.303  1.00  0.00     0.018 C 
ATOM     19  C   UNL A   1      33.806  27.297  26.342  1.00  0.00     0.018 C 
ATOM     20  C   UNL A   1      33.300  28.972  23.885  1.00  0.00     0.018 C 
ATOM     21  C   UNL A   1      31.113  29.726  24.858  1.00  0.00     0.018 C 
ENDBRANCH  12  15
ENDBRANCH  10  12
ENDBRANCH   8  10
ENDBRANCH   6   8
ENDBRANCH   5   6
ENDBRANCH   4   5
ENDBRANCH   3   4
ENDBRANCH   2   3
ENDBRANCH   1   2
BRANCH   1  22
ATOM     22  C   UNL A   1      39.030  21.384  25.783  1.00  0.00     0.188 C 
BRANCH  22  23
ATOM     23  O   UNL A   1      39.724  22.276  26.641  1.00  0.00    -0.376 OA
BRANCH  23  24
ATOM     24  C   UNL A   1      41.142  22.174  26.681  1.00  0.00     0.202 C 
BRANCH  24  25
ATOM     25  C   UNL A   1      41.875  23.233  25.856  1.00  0.00     0.261 C 
BRANCH  25  26
ATOM     26  O   UNL A   1      42.867  23.897  26.651  1.00  0.00    -0.460 OA
BRANCH  26  27
ATOM     27  C   UNL A   1      43.083  25.203  26.337  1.00  0.00     0.338 C 
ATOM     28  O   UNL A   1      43.423  25.657  25.266  1.00  0.00    -0.246 OA
BRANCH  27  29
ATOM     29  C   UNL A   1      42.604  26.032  27.468  1.00  0.00     0.060 A 
ATOM     30  C   UNL A   1      43.111  27.335  27.578  1.00  0.00     0.016 A 
ATOM     31  C   UNL A   1      41.632  25.572  28.360  1.00  0.00     0.016 A 
ATOM     32  C   UNL A   1      42.667  28.174  28.600  1.00  0.00     0.010 A 
ATOM     33  C   UNL A   1      41.202  26.404  29.393  1.00  0.00     0.010 A 
ATOM     34  C   UNL A   1      41.739  27.697  29.533  1.00  0.00    -0.014 A 
BRANCH  34  35
ATOM     35  C   UNL A   1      41.498  28.448  30.786  1.00  0.00     0.031 A 
ATOM     36  C   UNL A   1      40.365  29.437  30.799  1.00  0.00     0.074 A 
ATOM     37  C   UNL A   1      42.268  28.275  31.875  1.00  0.00     0.049 A 
ATOM     38  N   UNL A   1      40.005  30.272  31.737  1.00  0.00    -0.248 NA
ATOM     39  C   UNL A   1      39.530  29.490  29.586  1.00  0.00     0.031 C 
ATOM     40  C   UNL A   1      43.364  27.318  32.000  1.00  0.00     0.029 A 
ATOM     41  N   UNL A   1      42.243  28.922  33.086  1.00  0.00    -0.354 N 
ATOM     42  C   UNL A   1      38.910  30.956  31.225  1.00  0.00     0.074 A 
ATOM     43  C   UNL A   1      38.677  30.455  29.888  1.00  0.00     0.031 C 
ATOM     44  C   UNL A   1      43.921  27.452  33.217  1.00  0.00     0.029 A 
ATOM     45  C   UNL A   1      43.242  28.526  33.941  1.00  0.00     0.049 A 
ATOM     46  H   UNL A   1      41.573  29.604  33.318  1.00  0.00     0.167 HD
ATOM     47  C   UNL A   1      38.164  31.920  31.812  1.00  0.00     0.031 A 
ATOM     48  C   UNL A   1      43.583  28.998  35.158  1.00  0.00     0.031 A 
ATOM     49  C   UNL A   1      38.413  32.438  33.128  1.00  0.00     0.049 A 
ATOM     50  C   UNL A   1      42.787  30.129  35.762  1.00  0.00     0.074 A 
ATOM     51  C   UNL A   1      37.713  33.413  33.815  1.00  0.00     0.029 A 
ATOM     52  N   UNL A   1      39.451  32.031  33.952  1.00  0.00    -0.354 N 
ATOM     53  N   UNL A   1      41.740  30.754  35.275  1.00  0.00    -0.248 NA
ATOM     54  C   UNL A   1      43.220  30.615  37.080  1.00  0.00     0.031 C 
ATOM     55  C   UNL A   1      38.359  33.632  35.036  1.00  0.00     0.029 A 
ATOM     56  C   UNL A   1      39.427  32.752  35.132  1.00  0.00     0.049 A 
ATOM     57  H   UNL A   1      40.107  31.332  33.731  1.00  0.00     0.167 HD
ATOM     58  C   UNL A   1      41.376  31.690  36.239  1.00  0.00     0.074 A 
ATOM     59  C   UNL A   1      42.306  31.542  37.339  1.00  0.00     0.031 C 
ATOM     60  C   UNL A   1      40.362  32.591  36.216  1.00  0.00     0.031 A 
BRANCH  47  61
ATOM     61  C   UNL A   1      37.036  32.500  31.006  1.00  0.00    -0.014 A 
ATOM     62  C   UNL A   1      35.725  32.006  31.130  1.00  0.00     0.010 A 
ATOM     63  C   UNL A   1      37.293  33.556  30.113  1.00  0.00     0.010 A 
ATOM     64  C   UNL A   1      34.697  32.534  30.346  1.00  0.00     0.020 A 
ATOM     65  C   UNL A   1      36.262  34.103  29.346  1.00  0.00     0.020 A 
ATOM     66  C   UNL A   1      34.973  33.576  29.456  1.00  0.00     0.054 A 
BRANCH  66  67
ATOM     67  S   UNL A   1      33.617  34.252  28.458  1.00  0.00     0.124 S 
ATOM     68  O   UNL A   1      34.304  35.271  27.668  1.00  0.00    -0.237 OA
ATOM     69  O   UNL A   1      33.157  33.084  27.710  1.00  0.00    -0.237 OA
ATOM     70  O   UNL A   1      32.677  34.762  29.451  1.00  0.00    -0.744 OA
ENDBRANCH  66  67
ENDBRANCH  47  61
BRANCH  48  71
ATOM     71  C   UNL A   1      44.750  28.424  35.882  1.00  0.00    -0.014 A 
ATOM     72  C   UNL A   1      44.578  27.387  36.815  1.00  0.00     0.010 A 
ATOM     73  C   UNL A   1      46.045  28.926  35.652  1.00  0.00     0.010 A 
ATOM     74  C   UNL A   1      45.673  26.872  37.514  1.00  0.00     0.020 A 
ATOM     75  C   UNL A   1      47.147  28.397  36.330  1.00  0.00     0.020 A 
ATOM     76  C   UNL A   1      46.952  27.380  37.267  1.00  0.00     0.054 A 
BRANCH  76  77
ATOM     77  S   UNL A   1      48.366  26.664  38.151  1.00  0.00     0.124 S 
ATOM     78  O   UNL A   1      47.708  25.822  39.145  1.00  0.00    -0.237 OA
ATOM     79  O   UNL A   1      49.077  25.956  37.090  1.00  0.00    -0.237 OA
ATOM     80  O   UNL A   1      49.063  27.834  38.683  1.00  0.00    -0.744 OA
ENDBRANCH  76  77
ENDBRANCH  48  71
BRANCH  60  81
ATOM     81  C   UNL A   1      40.178  33.465  37.428  1.00  0.00    -0.014 A 
ATOM     82  C   UNL A   1      40.765  34.740  37.503  1.00  0.00     0.010 A 
ATOM     83  C   UNL A   1      39.346  33.030  38.476  1.00  0.00     0.010 A 
ATOM     84  C   UNL A   1      40.544  35.553  38.618  1.00  0.00     0.020 A 
ATOM     85  C   UNL A   1      39.102  33.850  39.580  1.00  0.00     0.020 A 
ATOM     86  C   UNL A   1      39.713  35.103  39.650  1.00  0.00     0.054 A 
BRANCH  86  87
ATOM     87  S   UNL A   1      39.402  36.197  41.064  1.00  0.00     0.124 S 
ATOM     88  O   UNL A   1      39.790  37.500  40.531  1.00  0.00    -0.237 OA
ATOM     89  O   UNL A   1      37.972  36.015  41.303  1.00  0.00    -0.237 OA
ATOM     90  O   UNL A   1      40.274  35.666  42.109  1.00  0.00    -0.744 OA
ENDBRANCH  86  87
ENDBRANCH  60  81
ENDBRANCH  34  35
ENDBRANCH  27  29
ENDBRANCH  26  27
ENDBRANCH  25  26
ENDBRANCH  24  25
ENDBRANCH  23  24
ENDBRANCH  22  23
ENDBRANCH   1  22
TORSDOF 23
ENDMDL
