MODEL 1
REMARK VINA RESULT:     -10.1      0.000      0.000
REMARK SMILES Cc1ccc(N2C(=O)C[C@H](Sc3ccccc3C(=O)OCCOCCOCCOC(=O)c3ccc(-c4c5nc(c(-c6ccc(S(=O)(=O)[O-])cc6)c6ccc([nH]6)c(-c6ccc(S(=O)(=O)[O-])cc6)c6nc(c(-c7ccc(S(=O)(=O)[O-])cc7)c7ccc4[nH]7)C=C6)C=C5)cc3)C2=O)cc1
REMARK SMILES IDX 24 1 23 2 22 3 21 4 20 5 18 6 19 7 17 8 12 9 13 10 14 11
REMARK SMILES IDX 16 12 15 13 11 14 10 15 6 16 7 17 92 18 8 19 9 20 93 21 5 22
REMARK SMILES IDX 1 23 2 24 3 25 95 26 4 27 94 28 25 29 26 30 27 31 28 32
REMARK SMILES IDX 29 33 30 34 31 35 32 36 33 37 91 38 34 39 90 40 35 41 36 42
REMARK SMILES IDX 37 43 84 44 38 45 89 46 83 47 85 48 39 49 88 50 82 51 81 52
REMARK SMILES IDX 40 54 70 55 51 56 69 57 52 58 55 59 68 60 86 61 53 62 54 63
REMARK SMILES IDX 67 65 87 66 56 67 41 68 42 69 50 70 43 71 49 72 44 73 45 74
REMARK SMILES IDX 46 75 47 76 48 77 71 78 72 79 80 80 73 81 79 82 74 83 75 84
REMARK SMILES IDX 76 85 77 86 78 87 57 88 58 89 66 90 59 91 65 92 60 93 61 94
REMARK SMILES IDX 62 95 63 96 64 97
REMARK H PARENT 85 53 55 64
REMARK Flexibility Score: inf
ROOT
ATOM      1  C   UNL A   1      44.562  18.572  25.247  1.00  0.00     0.188 C 
ENDROOT
BRANCH   1   2
ATOM      2  O   UNL A   1      45.848  19.210  25.401  1.00  0.00    -0.376 OA
BRANCH   2   3
ATOM      3  C   UNL A   1      46.407  20.341  24.709  1.00  0.00     0.202 C 
BRANCH   3   4
ATOM      4  C   UNL A   1      45.834  22.040  24.598  1.00  0.00     0.261 C 
BRANCH   4   5
ATOM      5  O   UNL A   1      45.940  23.408  25.778  1.00  0.00    -0.460 OA
BRANCH   5   6
ATOM      6  C   UNL A   1      45.074  24.433  26.427  1.00  0.00     0.339 C 
ATOM      7  O   UNL A   1      44.504  24.333  27.516  1.00  0.00    -0.246 OA
BRANCH   6   8
ATOM      8  C   UNL A   1      44.584  25.749  25.929  1.00  0.00     0.073 A 
ATOM      9  C   UNL A   1      44.776  26.990  26.702  1.00  0.00     0.023 A 
ATOM     10  C   UNL A   1      43.809  28.005  26.611  1.00  0.00     0.016 A 
ATOM     11  C   UNL A   1      42.672  27.838  25.827  1.00  0.00     0.001 A 
ATOM     12  C   UNL A   1      43.422  25.621  25.156  1.00  0.00     0.017 A 
ATOM     13  C   UNL A   1      42.475  26.652  25.120  1.00  0.00     0.001 A 
BRANCH   9  14
ATOM     14  S   UNL A   1      45.855  27.196  28.184  1.00  0.00    -0.111 SA
BRANCH  14  15
ATOM     15  C   UNL A   1      46.924  28.714  28.074  1.00  0.00     0.151 C 
ATOM     16  N   UNL A   1      46.099  30.884  27.707  1.00  0.00    -0.250 N 
ATOM     17  C   UNL A   1      46.440  30.408  26.457  1.00  0.00     0.235 C 
ATOM     18  C   UNL A   1      46.378  29.967  28.693  1.00  0.00     0.247 C 
ATOM     19  O   UNL A   1      46.033  30.810  25.375  1.00  0.00    -0.274 OA
ATOM     20  C   UNL A   1      47.201  29.131  26.629  1.00  0.00     0.126 C 
ATOM     21  O   UNL A   1      46.294  30.134  29.906  1.00  0.00    -0.273 OA
BRANCH  16  22
ATOM     22  C   UNL A   1      45.363  32.087  27.907  1.00  0.00     0.052 A 
ATOM     23  C   UNL A   1      43.387  35.757  29.072  1.00  0.00     0.044 C 
ATOM     24  C   UNL A   1      44.038  34.489  28.610  1.00  0.00    -0.051 A 
ATOM     25  C   UNL A   1      43.398  33.257  28.760  1.00  0.00     0.005 A 
ATOM     26  C   UNL A   1      45.311  34.520  28.038  1.00  0.00     0.005 A 
ATOM     27  C   UNL A   1      44.060  32.068  28.427  1.00  0.00     0.027 A 
ATOM     28  C   UNL A   1      45.964  33.334  27.688  1.00  0.00     0.027 A 
ENDBRANCH  16  22
ENDBRANCH  14  15
ENDBRANCH   9  14
ENDBRANCH   6   8
ENDBRANCH   5   6
ENDBRANCH   4   5
ENDBRANCH   3   4
ENDBRANCH   2   3
ENDBRANCH   1   2
BRANCH   1  29
ATOM     29  C   UNL A   1      43.224  18.979  25.902  1.00  0.00     0.188 C 
BRANCH  29  30
ATOM     30  O   UNL A   1      42.596  20.116  25.336  1.00  0.00    -0.376 OA
BRANCH  30  31
ATOM     31  C   UNL A   1      41.852  20.914  26.258  1.00  0.00     0.202 C 
BRANCH  31  32
ATOM     32  C   UNL A   1      41.864  22.447  26.046  1.00  0.00     0.261 C 
BRANCH  32  33
ATOM     33  O   UNL A   1      41.398  23.213  27.183  1.00  0.00    -0.460 OA
BRANCH  33  34
ATOM     34  C   UNL A   1      40.294  24.036  27.052  1.00  0.00     0.338 C 
ATOM     35  O   UNL A   1      39.268  23.678  26.567  1.00  0.00    -0.246 OA
BRANCH  34  36
ATOM     36  C   UNL A   1      40.402  25.230  27.927  1.00  0.00     0.060 A 
ATOM     37  C   UNL A   1      41.523  25.879  28.428  1.00  0.00     0.016 A 
ATOM     38  C   UNL A   1      39.229  25.706  28.341  1.00  0.00     0.016 A 
ATOM     39  C   UNL A   1      41.482  26.942  29.442  1.00  0.00     0.010 A 
ATOM     40  C   UNL A   1      39.260  26.653  29.354  1.00  0.00     0.010 A 
ATOM     41  C   UNL A   1      40.303  27.462  29.953  1.00  0.00    -0.014 A 
BRANCH  41  42
ATOM     42  C   UNL A   1      40.127  28.768  31.108  1.00  0.00     0.031 A 
ATOM     43  C   UNL A   1      39.269  30.361  31.073  1.00  0.00     0.074 A 
ATOM     44  C   UNL A   1      40.740  28.648  32.312  1.00  0.00     0.049 A 
ATOM     45  N   UNL A   1      39.511  31.399  31.866  1.00  0.00    -0.248 NA
ATOM     46  C   UNL A   1      38.242  30.900  30.048  1.00  0.00     0.031 C 
ATOM     47  C   UNL A   1      40.237  29.297  33.525  1.00  0.00     0.029 A 
ATOM     48  N   UNL A   1      41.855  27.937  32.761  1.00  0.00    -0.354 N 
ATOM     49  C   UNL A   1      38.612  32.442  31.531  1.00  0.00     0.074 A 
ATOM     50  C   UNL A   1      38.164  32.195  30.231  1.00  0.00     0.031 C 
ATOM     51  C   UNL A   1      41.122  29.138  34.509  1.00  0.00     0.029 A 
ATOM     52  C   UNL A   1      42.306  28.529  33.944  1.00  0.00     0.049 A 
ATOM     53  H   UNL A   1      42.255  27.153  32.320  1.00  0.00     0.167 HD
ATOM     54  C   UNL A   1      38.027  33.303  32.412  1.00  0.00     0.031 A 
ATOM     55  C   UNL A   1      43.585  28.869  34.254  1.00  0.00     0.031 A 
ATOM     56  C   UNL A   1      38.773  33.294  33.640  1.00  0.00     0.049 A 
ATOM     57  C   UNL A   1      43.700  30.349  34.612  1.00  0.00     0.074 A 
ATOM     58  C   UNL A   1      38.617  32.650  34.850  1.00  0.00     0.029 A 
ATOM     59  N   UNL A   1      40.089  33.714  33.568  1.00  0.00    -0.354 N 
ATOM     60  N   UNL A   1      42.675  31.160  34.667  1.00  0.00    -0.248 NA
ATOM     61  C   UNL A   1      44.952  31.063  34.867  1.00  0.00     0.031 C 
ATOM     62  C   UNL A   1      39.905  32.574  35.452  1.00  0.00     0.029 A 
ATOM     63  C   UNL A   1      40.815  33.225  34.635  1.00  0.00     0.049 A 
ATOM     64  H   UNL A   1      40.457  34.283  32.854  1.00  0.00     0.167 HD
ATOM     65  C   UNL A   1      43.094  32.453  34.799  1.00  0.00     0.074 A 
ATOM     66  C   UNL A   1      44.528  32.337  34.981  1.00  0.00     0.031 C 
ATOM     67  C   UNL A   1      42.242  33.514  34.684  1.00  0.00     0.031 A 
BRANCH  54  68
ATOM     68  C   UNL A   1      36.591  33.857  32.208  1.00  0.00    -0.014 A 
ATOM     69  C   UNL A   1      35.888  33.547  31.027  1.00  0.00     0.010 A 
ATOM     70  C   UNL A   1      35.918  34.774  33.057  1.00  0.00     0.010 A 
ATOM     71  C   UNL A   1      34.678  34.191  30.669  1.00  0.00     0.020 A 
ATOM     72  C   UNL A   1      34.747  35.469  32.692  1.00  0.00     0.020 A 
ATOM     73  C   UNL A   1      34.131  35.177  31.489  1.00  0.00     0.054 A 
BRANCH  73  74
ATOM     74  S   UNL A   1      32.641  36.082  30.979  1.00  0.00     0.124 S 
ATOM     75  O   UNL A   1      33.056  37.478  31.089  1.00  0.00    -0.237 OA
ATOM     76  O   UNL A   1      32.428  35.592  29.620  1.00  0.00    -0.237 OA
ATOM     77  O   UNL A   1      31.630  35.668  31.952  1.00  0.00    -0.744 OA
ENDBRANCH  73  74
ENDBRANCH  54  68
BRANCH  55  78
ATOM     78  C   UNL A   1      44.636  27.933  33.764  1.00  0.00    -0.014 A 
ATOM     79  C   UNL A   1      44.963  28.024  32.387  1.00  0.00     0.010 A 
ATOM     80  C   UNL A   1      45.439  27.119  34.570  1.00  0.00     0.010 A 
ATOM     81  C   UNL A   1      46.115  27.436  31.855  1.00  0.00     0.020 A 
ATOM     82  C   UNL A   1      46.581  26.488  34.030  1.00  0.00     0.020 A 
ATOM     83  C   UNL A   1      46.937  26.689  32.689  1.00  0.00     0.054 A 
BRANCH  83  84
ATOM     84  S   UNL A   1      48.559  26.131  32.065  1.00  0.00     0.124 S 
ATOM     85  O   UNL A   1      49.325  27.373  32.054  1.00  0.00    -0.237 OA
ATOM     86  O   UNL A   1      48.978  25.149  33.061  1.00  0.00    -0.237 OA
ATOM     87  O   UNL A   1      48.233  25.592  30.744  1.00  0.00    -0.744 OA
ENDBRANCH  83  84
ENDBRANCH  55  78
BRANCH  67  88
ATOM     88  C   UNL A   1      42.663  34.961  34.584  1.00  0.00    -0.014 A 
ATOM     89  C   UNL A   1      43.091  35.727  35.677  1.00  0.00     0.010 A 
ATOM     90  C   UNL A   1      42.781  35.545  33.299  1.00  0.00     0.010 A 
ATOM     91  C   UNL A   1      43.523  37.051  35.507  1.00  0.00     0.020 A 
ATOM     92  C   UNL A   1      43.261  36.842  33.112  1.00  0.00     0.020 A 
ATOM     93  C   UNL A   1      43.587  37.605  34.227  1.00  0.00     0.054 A 
BRANCH  93  94
ATOM     94  S   UNL A   1      44.115  39.320  33.999  1.00  0.00     0.124 S 
ATOM     95  O   UNL A   1      45.096  39.188  32.925  1.00  0.00    -0.237 OA
ATOM     96  O   UNL A   1      42.878  40.007  33.633  1.00  0.00    -0.237 OA
ATOM     97  O   UNL A   1      44.658  39.684  35.304  1.00  0.00    -0.744 OA
ENDBRANCH  93  94
ENDBRANCH  67  88
ENDBRANCH  41  42
ENDBRANCH  34  36
ENDBRANCH  33  34
ENDBRANCH  32  33
ENDBRANCH  31  32
ENDBRANCH  30  31
ENDBRANCH  29  30
ENDBRANCH   1  29
TORSDOF 23
ENDMDL
MODEL 2
REMARK VINA RESULT:      -9.5      2.920      4.022
REMARK SMILES Cc1ccc(N2C(=O)C[C@H](Sc3ccccc3C(=O)OCCOCCOCCOC(=O)c3ccc(-c4c5nc(c(-c6ccc(S(=O)(=O)[O-])cc6)c6ccc([nH]6)c(-c6ccc(S(=O)(=O)[O-])cc6)c6nc(c(-c7ccc(S(=O)(=O)[O-])cc7)c7ccc4[nH]7)C=C6)C=C5)cc3)C2=O)cc1
REMARK SMILES IDX 24 1 23 2 22 3 21 4 20 5 18 6 19 7 17 8 12 9 13 10 14 11
REMARK SMILES IDX 16 12 15 13 11 14 10 15 6 16 7 17 92 18 8 19 9 20 93 21 5 22
REMARK SMILES IDX 1 23 2 24 3 25 95 26 4 27 94 28 25 29 26 30 27 31 28 32
REMARK SMILES IDX 29 33 30 34 31 35 32 36 33 37 91 38 34 39 90 40 35 41 36 42
REMARK SMILES IDX 37 43 84 44 38 45 89 46 83 47 85 48 39 49 88 50 82 51 81 52
REMARK SMILES IDX 40 54 70 55 51 56 69 57 52 58 55 59 68 60 86 61 53 62 54 63
REMARK SMILES IDX 67 65 87 66 56 67 41 68 42 69 50 70 43 71 49 72 44 73 45 74
REMARK SMILES IDX 46 75 47 76 48 77 71 78 72 79 80 80 73 81 79 82 74 83 75 84
REMARK SMILES IDX 76 85 77 86 78 87 57 88 58 89 66 90 59 91 65 92 60 93 61 94
REMARK SMILES IDX 62 95 63 96 64 97
REMARK H PARENT 85 53 55 64
REMARK Flexibility Score: inf
ROOT
ATOM      1  C   UNL A   1      44.053  18.877  25.468  1.00  0.00     0.188 C 
ENDROOT
BRANCH   1   2
ATOM      2  O   UNL A   1      44.869  19.903  24.862  1.00  0.00    -0.376 OA
BRANCH   2   3
ATOM      3  C   UNL A   1      44.968  21.305  25.170  1.00  0.00     0.202 C 
BRANCH   3   4
ATOM      4  C   UNL A   1      45.966  22.596  24.418  1.00  0.00     0.261 C 
BRANCH   4   5
ATOM      5  O   UNL A   1      47.198  23.712  25.132  1.00  0.00    -0.460 OA
BRANCH   5   6
ATOM      6  C   UNL A   1      47.345  24.701  26.238  1.00  0.00     0.339 C 
ATOM      7  O   UNL A   1      47.822  24.490  27.357  1.00  0.00    -0.246 OA
BRANCH   6   8
ATOM      8  C   UNL A   1      46.886  26.114  26.348  1.00  0.00     0.073 A 
ATOM      9  C   UNL A   1      47.819  27.246  26.199  1.00  0.00     0.023 A 
ATOM     10  C   UNL A   1      47.581  28.425  26.925  1.00  0.00     0.016 A 
ATOM     11  C   UNL A   1      46.499  28.520  27.795  1.00  0.00     0.001 A 
ATOM     12  C   UNL A   1      45.812  26.251  27.238  1.00  0.00     0.017 A 
ATOM     13  C   UNL A   1      45.634  27.439  27.959  1.00  0.00     0.001 A 
BRANCH   9  14
ATOM     14  S   UNL A   1      49.555  27.153  25.583  1.00  0.00    -0.111 SA
BRANCH  14  15
ATOM     15  C   UNL A   1      49.666  26.373  23.898  1.00  0.00     0.151 C 
ATOM     16  N   UNL A   1      49.950  27.581  21.901  1.00  0.00    -0.250 N 
ATOM     17  C   UNL A   1      48.588  27.399  22.027  1.00  0.00     0.235 C 
ATOM     18  C   UNL A   1      50.639  26.989  22.934  1.00  0.00     0.247 C 
ATOM     19  O   UNL A   1      47.701  28.051  21.491  1.00  0.00    -0.274 OA
ATOM     20  C   UNL A   1      48.340  26.429  23.138  1.00  0.00     0.126 C 
ATOM     21  O   UNL A   1      51.855  26.879  23.047  1.00  0.00    -0.273 OA
BRANCH  16  22
ATOM     22  C   UNL A   1      50.533  28.449  20.934  1.00  0.00     0.052 A 
ATOM     23  C   UNL A   1      52.835  30.989  18.293  1.00  0.00     0.044 C 
ATOM     24  C   UNL A   1      51.984  30.126  19.172  1.00  0.00    -0.051 A 
ATOM     25  C   UNL A   1      51.283  30.669  20.252  1.00  0.00     0.005 A 
ATOM     26  C   UNL A   1      51.893  28.753  18.935  1.00  0.00     0.005 A 
ATOM     27  C   UNL A   1      50.580  29.837  21.132  1.00  0.00     0.027 A 
ATOM     28  C   UNL A   1      51.175  27.925  19.803  1.00  0.00     0.027 A 
ENDBRANCH  16  22
ENDBRANCH  14  15
ENDBRANCH   9  14
ENDBRANCH   6   8
ENDBRANCH   5   6
ENDBRANCH   4   5
ENDBRANCH   3   4
ENDBRANCH   2   3
ENDBRANCH   1   2
BRANCH   1  29
ATOM     29  C   UNL A   1      42.690  19.052  26.173  1.00  0.00     0.188 C 
BRANCH  29  30
ATOM     30  O   UNL A   1      41.887  20.111  25.682  1.00  0.00    -0.376 OA
BRANCH  30  31
ATOM     31  C   UNL A   1      41.005  20.694  26.643  1.00  0.00     0.202 C 
BRANCH  31  32
ATOM     32  C   UNL A   1      40.569  22.161  26.411  1.00  0.00     0.261 C 
BRANCH  32  33
ATOM     33  O   UNL A   1      41.082  23.099  27.388  1.00  0.00    -0.460 OA
BRANCH  33  34
ATOM     34  C   UNL A   1      41.450  24.372  26.992  1.00  0.00     0.338 C 
ATOM     35  O   UNL A   1      41.746  24.646  25.872  1.00  0.00    -0.246 OA
BRANCH  34  36
ATOM     36  C   UNL A   1      41.047  25.389  27.995  1.00  0.00     0.060 A 
ATOM     37  C   UNL A   1      39.785  25.799  28.402  1.00  0.00     0.016 A 
ATOM     38  C   UNL A   1      42.069  26.049  28.537  1.00  0.00     0.016 A 
ATOM     39  C   UNL A   1      39.529  26.955  29.271  1.00  0.00     0.010 A 
ATOM     40  C   UNL A   1      41.760  27.175  29.285  1.00  0.00     0.010 A 
ATOM     41  C   UNL A   1      40.537  27.717  29.841  1.00  0.00    -0.014 A 
BRANCH  41  42
ATOM     42  C   UNL A   1      40.357  29.069  30.942  1.00  0.00     0.031 A 
ATOM     43  C   UNL A   1      39.407  30.609  30.887  1.00  0.00     0.074 A 
ATOM     44  C   UNL A   1      41.048  29.044  32.108  1.00  0.00     0.049 A 
ATOM     45  N   UNL A   1      39.637  31.698  31.613  1.00  0.00    -0.248 NA
ATOM     46  C   UNL A   1      38.290  31.038  29.906  1.00  0.00     0.031 C 
ATOM     47  C   UNL A   1      40.583  29.725  33.319  1.00  0.00     0.029 A 
ATOM     48  N   UNL A   1      42.228  28.419  32.518  1.00  0.00    -0.354 N 
ATOM     49  C   UNL A   1      38.661  32.671  31.287  1.00  0.00     0.074 A 
ATOM     50  C   UNL A   1      38.148  32.334  30.032  1.00  0.00     0.031 C 
ATOM     51  C   UNL A   1      41.535  29.666  34.251  1.00  0.00     0.029 A 
ATOM     52  C   UNL A   1      42.716  29.095  33.641  1.00  0.00     0.049 A 
ATOM     53  H   UNL A   1      42.645  27.637  32.090  1.00  0.00     0.167 HD
ATOM     54  C   UNL A   1      38.082  33.543  32.162  1.00  0.00     0.031 A 
ATOM     55  C   UNL A   1      43.990  29.519  33.852  1.00  0.00     0.031 A 
ATOM     56  C   UNL A   1      38.900  33.637  33.339  1.00  0.00     0.049 A 
ATOM     57  C   UNL A   1      44.040  31.020  34.132  1.00  0.00     0.074 A 
ATOM     58  C   UNL A   1      38.856  33.047  34.585  1.00  0.00     0.029 A 
ATOM     59  N   UNL A   1      40.183  34.124  33.164  1.00  0.00    -0.354 N 
ATOM     60  N   UNL A   1      42.975  31.775  34.214  1.00  0.00    -0.248 NA
ATOM     61  C   UNL A   1      45.262  31.813  34.272  1.00  0.00     0.031 C 
ATOM     62  C   UNL A   1      40.182  33.072  35.107  1.00  0.00     0.029 A 
ATOM     63  C   UNL A   1      41.000  33.730  34.203  1.00  0.00     0.049 A 
ATOM     64  H   UNL A   1      40.473  34.675  32.402  1.00  0.00     0.167 HD
ATOM     65  C   UNL A   1      43.326  33.094  34.258  1.00  0.00     0.074 A 
ATOM     66  C   UNL A   1      44.773  33.066  34.353  1.00  0.00     0.031 C 
ATOM     67  C   UNL A   1      42.408  34.100  34.148  1.00  0.00     0.031 A 
BRANCH  54  68
ATOM     68  C   UNL A   1      36.606  34.005  32.025  1.00  0.00    -0.014 A 
ATOM     69  C   UNL A   1      35.954  33.890  30.782  1.00  0.00     0.010 A 
ATOM     70  C   UNL A   1      35.839  34.668  33.019  1.00  0.00     0.010 A 
ATOM     71  C   UNL A   1      34.698  34.491  30.520  1.00  0.00     0.020 A 
ATOM     72  C   UNL A   1      34.618  35.325  32.762  1.00  0.00     0.020 A 
ATOM     73  C   UNL A   1      34.052  35.237  31.504  1.00  0.00     0.054 A 
BRANCH  73  74
ATOM     74  S   UNL A   1      32.497  36.102  31.137  1.00  0.00     0.124 S 
ATOM     75  O   UNL A   1      32.256  35.756  29.739  1.00  0.00    -0.237 OA
ATOM     76  O   UNL A   1      31.575  35.510  32.101  1.00  0.00    -0.237 OA
ATOM     77  O   UNL A   1      32.817  37.511  31.370  1.00  0.00    -0.744 OA
ENDBRANCH  73  74
ENDBRANCH  54  68
BRANCH  55  78
ATOM     78  C   UNL A   1      45.060  28.619  33.341  1.00  0.00    -0.014 A 
ATOM     79  C   UNL A   1      45.507  28.866  32.017  1.00  0.00     0.010 A 
ATOM     80  C   UNL A   1      45.775  27.690  34.105  1.00  0.00     0.010 A 
ATOM     81  C   UNL A   1      46.689  28.313  31.516  1.00  0.00     0.020 A 
ATOM     82  C   UNL A   1      46.948  27.096  33.589  1.00  0.00     0.020 A 
ATOM     83  C   UNL A   1      47.422  27.446  32.317  1.00  0.00     0.054 A 
BRANCH  83  84
ATOM     84  S   UNL A   1      49.081  26.920  31.767  1.00  0.00     0.124 S 
ATOM     85  O   UNL A   1      49.940  27.487  32.801  1.00  0.00    -0.237 OA
ATOM     86  O   UNL A   1      48.984  25.463  31.768  1.00  0.00    -0.237 OA
ATOM     87  O   UNL A   1      49.202  27.545  30.450  1.00  0.00    -0.744 OA
ENDBRANCH  83  84
ENDBRANCH  55  78
BRANCH  67  88
ATOM     88  C   UNL A   1      42.738  35.560  33.953  1.00  0.00    -0.014 A 
ATOM     89  C   UNL A   1      42.644  36.524  34.967  1.00  0.00     0.010 A 
ATOM     90  C   UNL A   1      43.318  35.966  32.726  1.00  0.00     0.010 A 
ATOM     91  C   UNL A   1      43.019  37.856  34.734  1.00  0.00     0.020 A 
ATOM     92  C   UNL A   1      43.746  37.276  32.502  1.00  0.00     0.020 A 
ATOM     93  C   UNL A   1      43.551  38.226  33.497  1.00  0.00     0.054 A 
BRANCH  93  94
ATOM     94  S   UNL A   1      44.011  39.945  33.178  1.00  0.00     0.124 S 
ATOM     95  O   UNL A   1      45.181  39.785  32.319  1.00  0.00    -0.237 OA
ATOM     96  O   UNL A   1      42.826  40.495  32.522  1.00  0.00    -0.237 OA
ATOM     97  O   UNL A   1      44.279  40.478  34.511  1.00  0.00    -0.744 OA
ENDBRANCH  93  94
ENDBRANCH  67  88
ENDBRANCH  41  42
ENDBRANCH  34  36
ENDBRANCH  33  34
ENDBRANCH  32  33
ENDBRANCH  31  32
ENDBRANCH  30  31
ENDBRANCH  29  30
ENDBRANCH   1  29
TORSDOF 23
ENDMDL
MODEL 3
REMARK VINA RESULT:      -9.2      5.105      8.776
REMARK SMILES Cc1ccc(N2C(=O)C[C@H](Sc3ccccc3C(=O)OCCOCCOCCOC(=O)c3ccc(-c4c5nc(c(-c6ccc(S(=O)(=O)[O-])cc6)c6ccc([nH]6)c(-c6ccc(S(=O)(=O)[O-])cc6)c6nc(c(-c7ccc(S(=O)(=O)[O-])cc7)c7ccc4[nH]7)C=C6)C=C5)cc3)C2=O)cc1
REMARK SMILES IDX 24 1 23 2 22 3 21 4 20 5 18 6 19 7 17 8 12 9 13 10 14 11
REMARK SMILES IDX 16 12 15 13 11 14 10 15 6 16 7 17 92 18 8 19 9 20 93 21 5 22
REMARK SMILES IDX 1 23 2 24 3 25 95 26 4 27 94 28 25 29 26 30 27 31 28 32
REMARK SMILES IDX 29 33 30 34 31 35 32 36 33 37 91 38 34 39 90 40 35 41 36 42
REMARK SMILES IDX 37 43 84 44 38 45 89 46 83 47 85 48 39 49 88 50 82 51 81 52
REMARK SMILES IDX 40 54 70 55 51 56 69 57 52 58 55 59 68 60 86 61 53 62 54 63
REMARK SMILES IDX 67 65 87 66 56 67 41 68 42 69 50 70 43 71 49 72 44 73 45 74
REMARK SMILES IDX 46 75 47 76 48 77 71 78 72 79 80 80 73 81 79 82 74 83 75 84
REMARK SMILES IDX 76 85 77 86 78 87 57 88 58 89 66 90 59 91 65 92 60 93 61 94
REMARK SMILES IDX 62 95 63 96 64 97
REMARK H PARENT 85 53 55 64
REMARK Flexibility Score: inf
ROOT
ATOM      1  C   UNL A   1      49.441  27.228  23.992  1.00  0.00     0.188 C 
ENDROOT
BRANCH   1   2
ATOM      2  O   UNL A   1      48.187  26.592  24.318  1.00  0.00    -0.376 OA
BRANCH   2   3
ATOM      3  C   UNL A   1      47.636  25.345  23.857  1.00  0.00     0.202 C 
BRANCH   3   4
ATOM      4  C   UNL A   1      46.805  24.033  24.760  1.00  0.00     0.261 C 
BRANCH   4   5
ATOM      5  O   UNL A   1      46.377  22.344  24.273  1.00  0.00    -0.460 OA
BRANCH   5   6
ATOM      6  C   UNL A   1      45.844  21.081  24.859  1.00  0.00     0.339 C 
ATOM      7  O   UNL A   1      46.504  20.166  25.359  1.00  0.00    -0.246 OA
BRANCH   6   8
ATOM      8  C   UNL A   1      44.458  20.539  24.907  1.00  0.00     0.073 A 
ATOM      9  C   UNL A   1      43.338  21.322  25.461  1.00  0.00     0.023 A 
ATOM     10  C   UNL A   1      42.287  20.647  26.104  1.00  0.00     0.016 A 
ATOM     11  C   UNL A   1      42.309  19.263  26.243  1.00  0.00     0.001 A 
ATOM     12  C   UNL A   1      44.441  19.147  25.074  1.00  0.00     0.017 A 
ATOM     13  C   UNL A   1      43.382  18.524  25.746  1.00  0.00     0.001 A 
BRANCH   9  14
ATOM     14  S   UNL A   1      43.370  23.116  25.889  1.00  0.00    -0.111 SA
BRANCH  14  15
ATOM     15  C   UNL A   1      42.656  23.453  27.574  1.00  0.00     0.151 C 
ATOM     16  N   UNL A   1      41.747  25.518  28.232  1.00  0.00    -0.250 N 
ATOM     17  C   UNL A   1      43.061  25.548  28.652  1.00  0.00     0.235 C 
ATOM     18  C   UNL A   1      41.435  24.324  27.625  1.00  0.00     0.247 C 
ATOM     19  O   UNL A   1      43.732  26.538  28.914  1.00  0.00    -0.274 OA
ATOM     20  C   UNL A   1      43.641  24.178  28.493  1.00  0.00     0.126 C 
ATOM     21  O   UNL A   1      40.329  23.951  27.249  1.00  0.00    -0.273 OA
BRANCH  16  22
ATOM     22  C   UNL A   1      40.898  26.662  28.249  1.00  0.00     0.052 A 
ATOM     23  C   UNL A   1      37.918  29.789  27.991  1.00  0.00     0.044 C 
ATOM     24  C   UNL A   1      38.990  28.750  28.111  1.00  0.00    -0.051 A 
ATOM     25  C   UNL A   1      40.024  28.672  27.175  1.00  0.00     0.005 A 
ATOM     26  C   UNL A   1      38.959  27.826  29.157  1.00  0.00     0.005 A 
ATOM     27  C   UNL A   1      40.958  27.630  27.235  1.00  0.00     0.027 A 
ATOM     28  C   UNL A   1      39.903  26.796  29.226  1.00  0.00     0.027 A 
ENDBRANCH  16  22
ENDBRANCH  14  15
ENDBRANCH   9  14
ENDBRANCH   6   8
ENDBRANCH   5   6
ENDBRANCH   4   5
ENDBRANCH   3   4
ENDBRANCH   2   3
ENDBRANCH   1   2
BRANCH   1  29
ATOM     29  C   UNL A   1      50.425  27.923  24.959  1.00  0.00     0.188 C 
BRANCH  29  30
ATOM     30  O   UNL A   1      51.670  27.269  25.127  1.00  0.00    -0.376 OA
BRANCH  30  31
ATOM     31  C   UNL A   1      51.595  25.845  25.216  1.00  0.00     0.202 C 
BRANCH  31  32
ATOM     32  C   UNL A   1      50.637  25.245  26.273  1.00  0.00     0.261 C 
BRANCH  32  33
ATOM     33  O   UNL A   1      51.250  24.989  27.560  1.00  0.00    -0.460 OA
BRANCH  33  34
ATOM     34  C   UNL A   1      51.292  25.990  28.514  1.00  0.00     0.338 C 
ATOM     35  O   UNL A   1      51.948  26.977  28.394  1.00  0.00    -0.246 OA
BRANCH  34  36
ATOM     36  C   UNL A   1      50.155  25.883  29.461  1.00  0.00     0.060 A 
ATOM     37  C   UNL A   1      48.787  25.929  29.232  1.00  0.00     0.016 A 
ATOM     38  C   UNL A   1      50.522  25.791  30.738  1.00  0.00     0.016 A 
ATOM     39  C   UNL A   1      47.771  26.001  30.291  1.00  0.00     0.010 A 
ATOM     40  C   UNL A   1      49.523  25.942  31.689  1.00  0.00     0.010 A 
ATOM     41  C   UNL A   1      48.075  25.953  31.643  1.00  0.00    -0.014 A 
BRANCH  41  42
ATOM     42  C   UNL A   1      46.952  25.961  32.988  1.00  0.00     0.031 A 
ATOM     43  C   UNL A   1      45.903  27.234  33.734  1.00  0.00     0.074 A 
ATOM     44  C   UNL A   1      46.773  24.810  33.683  1.00  0.00     0.049 A 
ATOM     45  N   UNL A   1      45.381  27.202  34.955  1.00  0.00    -0.248 NA
ATOM     46  C   UNL A   1      45.552  28.646  33.209  1.00  0.00     0.031 C 
ATOM     47  C   UNL A   1      45.525  24.491  34.380  1.00  0.00     0.029 A 
ATOM     48  N   UNL A   1      47.566  23.681  33.901  1.00  0.00    -0.354 N 
ATOM     49  C   UNL A   1      44.609  28.375  35.146  1.00  0.00     0.074 A 
ATOM     50  C   UNL A   1      45.063  29.319  34.221  1.00  0.00     0.031 C 
ATOM     51  C   UNL A   1      45.695  23.385  35.104  1.00  0.00     0.029 A 
ATOM     52  C   UNL A   1      47.095  23.028  35.044  1.00  0.00     0.049 A 
ATOM     53  H   UNL A   1      48.327  23.394  33.346  1.00  0.00     0.167 HD
ATOM     54  C   UNL A   1      43.434  28.452  35.833  1.00  0.00     0.031 A 
ATOM     55  C   UNL A   1      47.834  22.576  36.092  1.00  0.00     0.031 A 
ATOM     56  C   UNL A   1      43.317  27.306  36.691  1.00  0.00     0.049 A 
ATOM     57  C   UNL A   1      47.349  23.169  37.414  1.00  0.00     0.074 A 
ATOM     58  C   UNL A   1      42.665  26.095  36.587  1.00  0.00     0.029 A 
ATOM     59  N   UNL A   1      44.283  27.166  37.672  1.00  0.00    -0.354 N 
ATOM     60  N   UNL A   1      46.314  23.962  37.514  1.00  0.00    -0.248 NA
ATOM     61  C   UNL A   1      48.004  22.991  38.711  1.00  0.00     0.031 C 
ATOM     62  C   UNL A   1      43.347  25.178  37.437  1.00  0.00     0.029 A 
ATOM     63  C   UNL A   1      44.363  25.854  38.093  1.00  0.00     0.049 A 
ATOM     64  H   UNL A   1      44.836  27.901  38.021  1.00  0.00     0.167 HD
ATOM     65  C   UNL A   1      46.244  24.503  38.766  1.00  0.00     0.074 A 
ATOM     66  C   UNL A   1      47.290  23.817  39.500  1.00  0.00     0.031 C 
ATOM     67  C   UNL A   1      45.378  25.511  39.080  1.00  0.00     0.031 A 
BRANCH  54  68
ATOM     68  C   UNL A   1      42.288  29.417  35.421  1.00  0.00    -0.014 A 
ATOM     69  C   UNL A   1      41.417  29.055  34.375  1.00  0.00     0.010 A 
ATOM     70  C   UNL A   1      42.079  30.730  35.919  1.00  0.00     0.010 A 
ATOM     71  C   UNL A   1      40.501  29.967  33.796  1.00  0.00     0.020 A 
ATOM     72  C   UNL A   1      41.218  31.670  35.318  1.00  0.00     0.020 A 
ATOM     73  C   UNL A   1      40.432  31.284  34.249  1.00  0.00     0.054 A 
BRANCH  73  74
ATOM     74  S   UNL A   1      39.338  32.485  33.434  1.00  0.00     0.124 S 
ATOM     75  O   UNL A   1      40.226  33.619  33.190  1.00  0.00    -0.237 OA
ATOM     76  O   UNL A   1      38.905  31.757  32.245  1.00  0.00    -0.237 OA
ATOM     77  O   UNL A   1      38.291  32.732  34.425  1.00  0.00    -0.744 OA
ENDBRANCH  73  74
ENDBRANCH  54  68
BRANCH  55  78
ATOM     78  C   UNL A   1      49.168  22.014  35.744  1.00  0.00    -0.014 A 
ATOM     79  C   UNL A   1      49.164  20.846  34.938  1.00  0.00     0.010 A 
ATOM     80  C   UNL A   1      50.400  22.633  35.984  1.00  0.00     0.010 A 
ATOM     81  C   UNL A   1      50.315  20.385  34.291  1.00  0.00     0.020 A 
ATOM     82  C   UNL A   1      51.572  22.147  35.367  1.00  0.00     0.020 A 
ATOM     83  C   UNL A   1      51.515  21.057  34.488  1.00  0.00     0.054 A 
BRANCH  83  84
ATOM     84  S   UNL A   1      52.956  20.614  33.460  1.00  0.00     0.124 S 
ATOM     85  O   UNL A   1      52.495  20.966  32.121  1.00  0.00    -0.237 OA
ATOM     86  O   UNL A   1      54.018  21.462  33.996  1.00  0.00    -0.237 OA
ATOM     87  O   UNL A   1      53.107  19.181  33.706  1.00  0.00    -0.744 OA
ENDBRANCH  83  84
ENDBRANCH  55  78
BRANCH  67  88
ATOM     88  C   UNL A   1      45.404  26.312  40.360  1.00  0.00    -0.014 A 
ATOM     89  C   UNL A   1      46.485  27.110  40.760  1.00  0.00     0.010 A 
ATOM     90  C   UNL A   1      44.220  26.390  41.134  1.00  0.00     0.010 A 
ATOM     91  C   UNL A   1      46.423  27.874  41.935  1.00  0.00     0.020 A 
ATOM     92  C   UNL A   1      44.128  27.191  42.274  1.00  0.00     0.020 A 
ATOM     93  C   UNL A   1      45.250  27.895  42.694  1.00  0.00     0.054 A 
BRANCH  93  94
ATOM     94  S   UNL A   1      45.169  28.854  44.225  1.00  0.00     0.124 S 
ATOM     95  O   UNL A   1      43.949  29.631  44.023  1.00  0.00    -0.237 OA
ATOM     96  O   UNL A   1      45.092  27.827  45.262  1.00  0.00    -0.237 OA
ATOM     97  O   UNL A   1      46.411  29.621  44.210  1.00  0.00    -0.744 OA
ENDBRANCH  93  94
ENDBRANCH  67  88
ENDBRANCH  41  42
ENDBRANCH  34  36
ENDBRANCH  33  34
ENDBRANCH  32  33
ENDBRANCH  31  32
ENDBRANCH  30  31
ENDBRANCH  29  30
ENDBRANCH   1  29
TORSDOF 23
ENDMDL
