MODEL 1
REMARK VINA RESULT:     -11.0      0.000      0.000
REMARK SMILES O=C(Cn1cnnn1)Nc1cccc(F)c1C(=O)OCCOCCOCCOC(=O)c1ccc(-c2c3nc(c(-c4ccc(S(=O)(=O)[O-])cc4)c4ccc([nH]4)c(-c4ccc(S(=O)(=O)[O-])cc4)c4nc(c(-c5ccc(S(=O)(=O)[O-])cc5)c5ccc2[nH]5)C=C4)C=C3)cc1
REMARK SMILES IDX 23 1 22 2 21 3 20 4 19 5 17 6 18 7 16 8 10 9 11 10 12 11
REMARK SMILES IDX 14 12 13 13 15 14 9 15 1 16 2 17 3 19 4 20 5 21 8 22 6 23
REMARK SMILES IDX 7 24 24 25 25 26 26 27 27 28 28 29 29 30 30 31 31 32 32 33
REMARK SMILES IDX 90 34 33 35 89 36 34 37 35 38 36 39 83 40 37 41 88 42 82 43
REMARK SMILES IDX 84 44 38 45 87 46 81 47 80 48 39 50 69 51 50 52 68 53 51 54
REMARK SMILES IDX 54 55 67 56 85 57 52 58 53 59 66 61 86 62 55 63 40 64 41 65
REMARK SMILES IDX 49 66 42 67 48 68 43 69 44 70 45 71 46 72 47 73 70 74 71 75
REMARK SMILES IDX 79 76 72 77 78 78 73 79 74 80 75 81 76 82 77 83 56 84 57 85
REMARK SMILES IDX 65 86 58 87 64 88 59 89 60 90 61 91 62 92 63 93
REMARK H PARENT 9 18 84 49 54 60
REMARK Flexibility Score: inf
ROOT
ATOM      1  C   UNL A   1      40.465  21.495  26.304  1.00  0.00     0.188 C 
ENDROOT
BRANCH   1   2
ATOM      2  O   UNL A   1      39.245  22.183  26.474  1.00  0.00    -0.376 OA
BRANCH   2   3
ATOM      3  C   UNL A   1      38.174  21.865  25.601  1.00  0.00     0.202 C 
BRANCH   3   4
ATOM      4  C   UNL A   1      37.190  22.945  25.098  1.00  0.00     0.261 C 
BRANCH   4   5
ATOM      5  O   UNL A   1      36.360  23.595  26.072  1.00  0.00    -0.460 OA
BRANCH   5   6
ATOM      6  C   UNL A   1      35.072  23.194  26.164  1.00  0.00     0.343 C 
ATOM      7  O   UNL A   1      34.557  22.649  27.123  1.00  0.00    -0.246 OA
BRANCH   6   8
ATOM      8  C   UNL A   1      34.277  23.739  25.041  1.00  0.00     0.119 A 
ATOM      9  C   UNL A   1      33.725  22.865  24.077  1.00  0.00     0.058 A 
ATOM     10  C   UNL A   1      33.026  23.413  22.993  1.00  0.00     0.027 A 
ATOM     11  C   UNL A   1      32.846  24.796  22.886  1.00  0.00     0.005 A 
ATOM     12  C   UNL A   1      34.094  25.117  24.921  1.00  0.00     0.139 A 
ATOM     13  C   UNL A   1      33.372  25.648  23.856  1.00  0.00     0.040 A 
ATOM     14  F   UNL A   1      34.618  25.963  25.820  1.00  0.00    -0.206 F 
BRANCH   9  15
ATOM     15  N   UNL A   1      33.793  21.460  24.275  1.00  0.00    -0.324 N 
ATOM     16  O   UNL A   1      31.739  21.050  25.243  1.00  0.00    -0.273 OA
ATOM     17  C   UNL A   1      32.856  20.662  24.904  1.00  0.00     0.246 C 
ATOM     18  H   UNL A   1      34.595  21.006  23.928  1.00  0.00     0.170 HD
BRANCH  17  19
ATOM     19  C   UNL A   1      33.302  19.255  25.245  1.00  0.00     0.248 C 
BRANCH  19  20
ATOM     20  N   UNL A   1      33.422  18.319  24.150  1.00  0.00    -0.223 N 
ATOM     21  C   UNL A   1      34.331  17.342  23.892  1.00  0.00     0.246 A 
ATOM     22  N   UNL A   1      32.517  18.355  23.158  1.00  0.00    -0.045 NA
ATOM     23  N   UNL A   1      33.986  16.733  22.782  1.00  0.00    -0.117 NA
ATOM     24  N   UNL A   1      32.865  17.381  22.330  1.00  0.00    -0.024 NA
ENDBRANCH  19  20
ENDBRANCH  17  19
ENDBRANCH   9  15
ENDBRANCH   6   8
ENDBRANCH   5   6
ENDBRANCH   4   5
ENDBRANCH   3   4
ENDBRANCH   2   3
ENDBRANCH   1   2
BRANCH   1  25
ATOM     25  C   UNL A   1      40.346  19.969  26.493  1.00  0.00     0.188 C 
BRANCH  25  26
ATOM     26  O   UNL A   1      41.089  19.062  25.688  1.00  0.00    -0.376 OA
BRANCH  26  27
ATOM     27  C   UNL A   1      42.341  18.542  26.116  1.00  0.00     0.202 C 
BRANCH  27  28
ATOM     28  C   UNL A   1      43.652  19.253  25.788  1.00  0.00     0.261 C 
BRANCH  28  29
ATOM     29  O   UNL A   1      43.698  19.879  24.520  1.00  0.00    -0.460 OA
BRANCH  29  30
ATOM     30  C   UNL A   1      44.936  20.190  24.112  1.00  0.00     0.338 C 
ATOM     31  O   UNL A   1      45.797  19.413  23.683  1.00  0.00    -0.246 OA
BRANCH  30  32
ATOM     32  C   UNL A   1      45.183  21.603  24.360  1.00  0.00     0.060 A 
ATOM     33  C   UNL A   1      46.167  21.913  25.299  1.00  0.00     0.016 A 
ATOM     34  C   UNL A   1      44.211  22.530  23.953  1.00  0.00     0.016 A 
ATOM     35  C   UNL A   1      46.017  23.068  26.026  1.00  0.00     0.010 A 
ATOM     36  C   UNL A   1      44.046  23.667  24.700  1.00  0.00     0.010 A 
ATOM     37  C   UNL A   1      44.895  23.868  25.785  1.00  0.00    -0.014 A 
BRANCH  37  38
ATOM     38  C   UNL A   1      44.684  25.016  26.635  1.00  0.00     0.031 A 
ATOM     39  C   UNL A   1      45.739  26.027  26.449  1.00  0.00     0.074 A 
ATOM     40  C   UNL A   1      43.603  25.157  27.423  1.00  0.00     0.049 A 
ATOM     41  N   UNL A   1      46.729  26.268  27.241  1.00  0.00    -0.248 NA
ATOM     42  C   UNL A   1      45.851  26.669  25.127  1.00  0.00     0.031 C 
ATOM     43  C   UNL A   1      42.397  24.325  27.466  1.00  0.00     0.029 A 
ATOM     44  N   UNL A   1      43.308  26.161  28.289  1.00  0.00    -0.354 N 
ATOM     45  C   UNL A   1      47.432  27.295  26.631  1.00  0.00     0.074 A 
ATOM     46  C   UNL A   1      47.010  27.313  25.255  1.00  0.00     0.031 C 
ATOM     47  C   UNL A   1      41.420  24.996  28.121  1.00  0.00     0.029 A 
ATOM     48  C   UNL A   1      41.968  26.234  28.650  1.00  0.00     0.049 A 
ATOM     49  H   UNL A   1      43.987  26.786  28.633  1.00  0.00     0.167 HD
ATOM     50  C   UNL A   1      48.038  28.257  27.378  1.00  0.00     0.031 A 
ATOM     51  C   UNL A   1      41.354  27.278  29.271  1.00  0.00     0.031 A 
ATOM     52  C   UNL A   1      48.153  27.860  28.759  1.00  0.00     0.049 A 
ATOM     53  C   UNL A   1      42.420  28.087  29.915  1.00  0.00     0.074 A 
ATOM     54  C   UNL A   1      48.749  26.809  29.425  1.00  0.00     0.029 A 
ATOM     55  N   UNL A   1      47.236  28.403  29.629  1.00  0.00    -0.354 N 
ATOM     56  N   UNL A   1      43.130  27.663  30.924  1.00  0.00    -0.248 NA
ATOM     57  C   UNL A   1      43.014  29.175  29.153  1.00  0.00     0.031 C 
ATOM     58  C   UNL A   1      47.865  26.499  30.498  1.00  0.00     0.029 A 
ATOM     59  C   UNL A   1      46.814  27.418  30.481  1.00  0.00     0.049 A 
ATOM     60  H   UNL A   1      46.935  29.340  29.638  1.00  0.00     0.167 HD
ATOM     61  C   UNL A   1      44.420  28.096  30.654  1.00  0.00     0.074 A 
ATOM     62  C   UNL A   1      44.269  29.107  29.609  1.00  0.00     0.031 C 
ATOM     63  C   UNL A   1      45.503  27.389  31.096  1.00  0.00     0.031 A 
BRANCH  50  64
ATOM     64  C   UNL A   1      48.073  29.708  26.962  1.00  0.00    -0.014 A 
ATOM     65  C   UNL A   1      49.273  30.423  27.135  1.00  0.00     0.010 A 
ATOM     66  C   UNL A   1      46.912  30.462  26.684  1.00  0.00     0.010 A 
ATOM     67  C   UNL A   1      49.292  31.822  27.108  1.00  0.00     0.020 A 
ATOM     68  C   UNL A   1      46.930  31.854  26.608  1.00  0.00     0.020 A 
ATOM     69  C   UNL A   1      48.116  32.527  26.854  1.00  0.00     0.054 A 
BRANCH  69  70
ATOM     70  S   UNL A   1      48.136  34.333  26.901  1.00  0.00     0.124 S 
ATOM     71  O   UNL A   1      49.255  34.595  27.800  1.00  0.00    -0.237 OA
ATOM     72  O   UNL A   1      48.354  34.671  25.497  1.00  0.00    -0.237 OA
ATOM     73  O   UNL A   1      46.815  34.675  27.423  1.00  0.00    -0.744 OA
ENDBRANCH  69  70
ENDBRANCH  50  64
BRANCH  51  74
ATOM     74  C   UNL A   1      39.976  27.798  29.074  1.00  0.00    -0.014 A 
ATOM     75  C   UNL A   1      39.069  27.871  30.151  1.00  0.00     0.010 A 
ATOM     76  C   UNL A   1      39.643  28.499  27.897  1.00  0.00     0.010 A 
ATOM     77  C   UNL A   1      37.915  28.674  30.080  1.00  0.00     0.020 A 
ATOM     78  C   UNL A   1      38.492  29.295  27.815  1.00  0.00     0.020 A 
ATOM     79  C   UNL A   1      37.647  29.402  28.917  1.00  0.00     0.054 A 
BRANCH  79  80
ATOM     80  S   UNL A   1      36.270  30.589  28.897  1.00  0.00     0.124 S 
ATOM     81  O   UNL A   1      35.930  30.698  30.313  1.00  0.00    -0.237 OA
ATOM     82  O   UNL A   1      36.879  31.775  28.301  1.00  0.00    -0.237 OA
ATOM     83  O   UNL A   1      35.262  29.932  28.067  1.00  0.00    -0.744 OA
ENDBRANCH  79  80
ENDBRANCH  51  74
BRANCH  63  84
ATOM     84  C   UNL A   1      45.294  26.352  32.175  1.00  0.00    -0.014 A 
ATOM     85  C   UNL A   1      45.632  26.529  33.531  1.00  0.00     0.010 A 
ATOM     86  C   UNL A   1      44.596  25.190  31.804  1.00  0.00     0.010 A 
ATOM     87  C   UNL A   1      45.305  25.548  34.482  1.00  0.00     0.020 A 
ATOM     88  C   UNL A   1      44.250  24.222  32.746  1.00  0.00     0.020 A 
ATOM     89  C   UNL A   1      44.617  24.398  34.080  1.00  0.00     0.054 A 
BRANCH  89  90
ATOM     90  S   UNL A   1      44.172  23.140  35.310  1.00  0.00     0.124 S 
ATOM     91  O   UNL A   1      42.718  23.255  35.369  1.00  0.00    -0.237 OA
ATOM     92  O   UNL A   1      44.685  21.908  34.715  1.00  0.00    -0.237 OA
ATOM     93  O   UNL A   1      44.875  23.572  36.519  1.00  0.00    -0.744 OA
ENDBRANCH  89  90
ENDBRANCH  63  84
ENDBRANCH  37  38
ENDBRANCH  30  32
ENDBRANCH  29  30
ENDBRANCH  28  29
ENDBRANCH  27  28
ENDBRANCH  26  27
ENDBRANCH  25  26
ENDBRANCH   1  25
TORSDOF 23
ENDMDL
MODEL 2
REMARK VINA RESULT:     -10.4      2.601      9.188
REMARK SMILES O=C(Cn1cnnn1)Nc1cccc(F)c1C(=O)OCCOCCOCCOC(=O)c1ccc(-c2c3nc(c(-c4ccc(S(=O)(=O)[O-])cc4)c4ccc([nH]4)c(-c4ccc(S(=O)(=O)[O-])cc4)c4nc(c(-c5ccc(S(=O)(=O)[O-])cc5)c5ccc2[nH]5)C=C4)C=C3)cc1
REMARK SMILES IDX 23 1 22 2 21 3 20 4 19 5 17 6 18 7 16 8 10 9 11 10 12 11
REMARK SMILES IDX 14 12 13 13 15 14 9 15 1 16 2 17 3 19 4 20 5 21 8 22 6 23
REMARK SMILES IDX 7 24 24 25 25 26 26 27 27 28 28 29 29 30 30 31 31 32 32 33
REMARK SMILES IDX 90 34 33 35 89 36 34 37 35 38 36 39 83 40 37 41 88 42 82 43
REMARK SMILES IDX 84 44 38 45 87 46 81 47 80 48 39 50 69 51 50 52 68 53 51 54
REMARK SMILES IDX 54 55 67 56 85 57 52 58 53 59 66 61 86 62 55 63 40 64 41 65
REMARK SMILES IDX 49 66 42 67 48 68 43 69 44 70 45 71 46 72 47 73 70 74 71 75
REMARK SMILES IDX 79 76 72 77 78 78 73 79 74 80 75 81 76 82 77 83 56 84 57 85
REMARK SMILES IDX 65 86 58 87 64 88 59 89 60 90 61 91 62 92 63 93
REMARK H PARENT 9 18 84 49 54 60
REMARK Flexibility Score: inf
ROOT
ATOM      1  C   UNL A   1      32.417  27.785  24.334  1.00  0.00     0.188 C 
ENDROOT
BRANCH   1   2
ATOM      2  O   UNL A   1      32.069  26.618  23.622  1.00  0.00    -0.376 OA
BRANCH   2   3
ATOM      3  C   UNL A   1      33.117  25.788  23.151  1.00  0.00     0.202 C 
BRANCH   3   4
ATOM      4  C   UNL A   1      32.830  24.459  22.415  1.00  0.00     0.261 C 
BRANCH   4   5
ATOM      5  O   UNL A   1      33.050  23.239  23.138  1.00  0.00    -0.460 OA
BRANCH   5   6
ATOM      6  C   UNL A   1      33.336  23.334  24.456  1.00  0.00     0.343 C 
ATOM      7  O   UNL A   1      32.538  23.550  25.349  1.00  0.00    -0.246 OA
BRANCH   6   8
ATOM      8  C   UNL A   1      34.718  22.878  24.722  1.00  0.00     0.119 A 
ATOM      9  C   UNL A   1      35.025  21.498  24.699  1.00  0.00     0.058 A 
ATOM     10  C   UNL A   1      36.329  21.093  25.011  1.00  0.00     0.027 A 
ATOM     11  C   UNL A   1      37.318  22.036  25.306  1.00  0.00     0.005 A 
ATOM     12  C   UNL A   1      35.713  23.809  25.021  1.00  0.00     0.139 A 
ATOM     13  C   UNL A   1      37.013  23.396  25.301  1.00  0.00     0.040 A 
ATOM     14  F   UNL A   1      35.440  25.122  25.059  1.00  0.00    -0.206 F 
BRANCH   9  15
ATOM     15  N   UNL A   1      34.048  20.564  24.260  1.00  0.00    -0.324 N 
ATOM     16  O   UNL A   1      32.876  20.201  26.215  1.00  0.00    -0.273 OA
ATOM     17  C   UNL A   1      33.103  19.922  25.038  1.00  0.00     0.246 C 
ATOM     18  H   UNL A   1      34.045  20.351  23.299  1.00  0.00     0.170 HD
BRANCH  17  19
ATOM     19  C   UNL A   1      32.382  18.760  24.385  1.00  0.00     0.248 C 
BRANCH  19  20
ATOM     20  N   UNL A   1      33.159  17.571  24.118  1.00  0.00    -0.223 N 
ATOM     21  C   UNL A   1      33.531  16.537  24.918  1.00  0.00     0.246 A 
ATOM     22  N   UNL A   1      33.647  17.373  22.882  1.00  0.00    -0.045 NA
ATOM     23  N   UNL A   1      34.203  15.671  24.196  1.00  0.00    -0.117 NA
ATOM     24  N   UNL A   1      34.279  16.210  22.936  1.00  0.00    -0.024 NA
ENDBRANCH  19  20
ENDBRANCH  17  19
ENDBRANCH   9  15
ENDBRANCH   6   8
ENDBRANCH   5   6
ENDBRANCH   4   5
ENDBRANCH   3   4
ENDBRANCH   2   3
ENDBRANCH   1   2
BRANCH   1  25
ATOM     25  C   UNL A   1      33.015  27.504  25.728  1.00  0.00     0.188 C 
BRANCH  25  26
ATOM     26  O   UNL A   1      32.519  28.151  26.893  1.00  0.00    -0.376 OA
BRANCH  26  27
ATOM     27  C   UNL A   1      32.039  29.490  26.852  1.00  0.00     0.202 C 
BRANCH  27  28
ATOM     28  C   UNL A   1      32.993  30.679  26.930  1.00  0.00     0.261 C 
BRANCH  28  29
ATOM     29  O   UNL A   1      34.318  30.366  27.315  1.00  0.00    -0.460 OA
BRANCH  29  30
ATOM     30  C   UNL A   1      35.000  31.406  27.813  1.00  0.00     0.338 C 
ATOM     31  O   UNL A   1      34.864  32.599  27.515  1.00  0.00    -0.246 OA
BRANCH  30  32
ATOM     32  C   UNL A   1      36.046  30.915  28.699  1.00  0.00     0.060 A 
ATOM     33  C   UNL A   1      37.065  31.811  29.024  1.00  0.00     0.016 A 
ATOM     34  C   UNL A   1      36.180  29.528  28.865  1.00  0.00     0.016 A 
ATOM     35  C   UNL A   1      38.315  31.298  29.268  1.00  0.00     0.010 A 
ATOM     36  C   UNL A   1      37.434  29.019  29.080  1.00  0.00     0.010 A 
ATOM     37  C   UNL A   1      38.497  29.912  29.183  1.00  0.00    -0.014 A 
BRANCH  37  38
ATOM     38  C   UNL A   1      39.837  29.394  29.323  1.00  0.00     0.031 A 
ATOM     39  C   UNL A   1      40.232  29.296  30.739  1.00  0.00     0.074 A 
ATOM     40  C   UNL A   1      40.575  28.976  28.280  1.00  0.00     0.049 A 
ATOM     41  N   UNL A   1      41.025  30.089  31.377  1.00  0.00    -0.248 NA
ATOM     42  C   UNL A   1      39.476  28.371  31.602  1.00  0.00     0.031 C 
ATOM     43  C   UNL A   1      40.158  28.801  26.885  1.00  0.00     0.029 A 
ATOM     44  N   UNL A   1      41.850  28.507  28.275  1.00  0.00    -0.354 N 
ATOM     45  C   UNL A   1      41.075  29.581  32.667  1.00  0.00     0.074 A 
ATOM     46  C   UNL A   1      39.934  28.715  32.805  1.00  0.00     0.031 C 
ATOM     47  C   UNL A   1      41.075  28.040  26.242  1.00  0.00     0.029 A 
ATOM     48  C   UNL A   1      42.195  27.789  27.135  1.00  0.00     0.049 A 
ATOM     49  H   UNL A   1      42.478  28.662  29.017  1.00  0.00     0.167 HD
ATOM     50  C   UNL A   1      42.226  29.643  33.390  1.00  0.00     0.031 A 
ATOM     51  C   UNL A   1      43.286  26.992  26.982  1.00  0.00     0.031 A 
ATOM     52  C   UNL A   1      43.164  30.572  32.813  1.00  0.00     0.049 A 
ATOM     53  C   UNL A   1      44.267  27.393  28.023  1.00  0.00     0.074 A 
ATOM     54  C   UNL A   1      43.146  31.919  32.516  1.00  0.00     0.029 A 
ATOM     55  N   UNL A   1      44.191  30.025  32.077  1.00  0.00    -0.354 N 
ATOM     56  N   UNL A   1      44.878  28.545  28.025  1.00  0.00    -0.248 NA
ATOM     57  C   UNL A   1      44.222  26.713  29.308  1.00  0.00     0.031 C 
ATOM     58  C   UNL A   1      43.876  32.043  31.299  1.00  0.00     0.029 A 
ATOM     59  C   UNL A   1      44.366  30.783  30.950  1.00  0.00     0.049 A 
ATOM     60  H   UNL A   1      44.712  29.226  32.321  1.00  0.00     0.167 HD
ATOM     61  C   UNL A   1      44.887  28.937  29.356  1.00  0.00     0.074 A 
ATOM     62  C   UNL A   1      44.565  27.727  30.109  1.00  0.00     0.031 C 
ATOM     63  C   UNL A   1      44.868  30.261  29.696  1.00  0.00     0.031 A 
BRANCH  50  64
ATOM     64  C   UNL A   1      42.671  28.527  34.306  1.00  0.00    -0.014 A 
ATOM     65  C   UNL A   1      43.311  28.871  35.512  1.00  0.00     0.010 A 
ATOM     66  C   UNL A   1      42.747  27.177  33.902  1.00  0.00     0.010 A 
ATOM     67  C   UNL A   1      44.052  27.927  36.231  1.00  0.00     0.020 A 
ATOM     68  C   UNL A   1      43.442  26.218  34.637  1.00  0.00     0.020 A 
ATOM     69  C   UNL A   1      44.119  26.609  35.782  1.00  0.00     0.054 A 
BRANCH  69  70
ATOM     70  S   UNL A   1      45.142  25.417  36.675  1.00  0.00     0.124 S 
ATOM     71  O   UNL A   1      44.358  25.198  37.885  1.00  0.00    -0.237 OA
ATOM     72  O   UNL A   1      45.194  24.299  35.738  1.00  0.00    -0.237 OA
ATOM     73  O   UNL A   1      46.405  26.128  36.863  1.00  0.00    -0.744 OA
ENDBRANCH  69  70
ENDBRANCH  50  64
BRANCH  51  74
ATOM     74  C   UNL A   1      43.409  25.716  26.230  1.00  0.00    -0.014 A 
ATOM     75  C   UNL A   1      44.470  25.507  25.326  1.00  0.00     0.010 A 
ATOM     76  C   UNL A   1      42.655  24.589  26.616  1.00  0.00     0.010 A 
ATOM     77  C   UNL A   1      44.811  24.214  24.888  1.00  0.00     0.020 A 
ATOM     78  C   UNL A   1      42.983  23.299  26.178  1.00  0.00     0.020 A 
ATOM     79  C   UNL A   1      44.077  23.113  25.338  1.00  0.00     0.054 A 
BRANCH  79  80
ATOM     80  S   UNL A   1      44.639  21.432  24.932  1.00  0.00     0.124 S 
ATOM     81  O   UNL A   1      44.536  21.410  23.475  1.00  0.00    -0.237 OA
ATOM     82  O   UNL A   1      45.996  21.409  25.469  1.00  0.00    -0.237 OA
ATOM     83  O   UNL A   1      43.686  20.573  25.632  1.00  0.00    -0.744 OA
ENDBRANCH  79  80
ENDBRANCH  51  74
BRANCH  63  84
ATOM     84  C   UNL A   1      45.204  31.282  28.635  1.00  0.00    -0.014 A 
ATOM     85  C   UNL A   1      44.283  31.798  27.701  1.00  0.00     0.010 A 
ATOM     86  C   UNL A   1      46.494  31.839  28.683  1.00  0.00     0.010 A 
ATOM     87  C   UNL A   1      44.662  32.823  26.818  1.00  0.00     0.020 A 
ATOM     88  C   UNL A   1      46.869  32.870  27.824  1.00  0.00     0.020 A 
ATOM     89  C   UNL A   1      45.956  33.350  26.885  1.00  0.00     0.054 A 
BRANCH  89  90
ATOM     90  S   UNL A   1      46.441  34.690  25.761  1.00  0.00     0.124 S 
ATOM     91  O   UNL A   1      46.245  35.881  26.585  1.00  0.00    -0.237 OA
ATOM     92  O   UNL A   1      47.829  34.363  25.444  1.00  0.00    -0.237 OA
ATOM     93  O   UNL A   1      45.511  34.558  24.639  1.00  0.00    -0.744 OA
ENDBRANCH  89  90
ENDBRANCH  63  84
ENDBRANCH  37  38
ENDBRANCH  30  32
ENDBRANCH  29  30
ENDBRANCH  28  29
ENDBRANCH  27  28
ENDBRANCH  26  27
ENDBRANCH  25  26
ENDBRANCH   1  25
TORSDOF 23
ENDMDL
MODEL 3
REMARK VINA RESULT:     -10.1      3.132      4.475
REMARK SMILES O=C(Cn1cnnn1)Nc1cccc(F)c1C(=O)OCCOCCOCCOC(=O)c1ccc(-c2c3nc(c(-c4ccc(S(=O)(=O)[O-])cc4)c4ccc([nH]4)c(-c4ccc(S(=O)(=O)[O-])cc4)c4nc(c(-c5ccc(S(=O)(=O)[O-])cc5)c5ccc2[nH]5)C=C4)C=C3)cc1
REMARK SMILES IDX 23 1 22 2 21 3 20 4 19 5 17 6 18 7 16 8 10 9 11 10 12 11
REMARK SMILES IDX 14 12 13 13 15 14 9 15 1 16 2 17 3 19 4 20 5 21 8 22 6 23
REMARK SMILES IDX 7 24 24 25 25 26 26 27 27 28 28 29 29 30 30 31 31 32 32 33
REMARK SMILES IDX 90 34 33 35 89 36 34 37 35 38 36 39 83 40 37 41 88 42 82 43
REMARK SMILES IDX 84 44 38 45 87 46 81 47 80 48 39 50 69 51 50 52 68 53 51 54
REMARK SMILES IDX 54 55 67 56 85 57 52 58 53 59 66 61 86 62 55 63 40 64 41 65
REMARK SMILES IDX 49 66 42 67 48 68 43 69 44 70 45 71 46 72 47 73 70 74 71 75
REMARK SMILES IDX 79 76 72 77 78 78 73 79 74 80 75 81 76 82 77 83 56 84 57 85
REMARK SMILES IDX 65 86 58 87 64 88 59 89 60 90 61 91 62 92 63 93
REMARK H PARENT 9 18 84 49 54 60
REMARK Flexibility Score: inf
ROOT
ATOM      1  C   UNL A   1      39.136  21.277  25.728  1.00  0.00     0.188 C 
ENDROOT
BRANCH   1   2
ATOM      2  O   UNL A   1      38.138  22.261  25.579  1.00  0.00    -0.376 OA
BRANCH   2   3
ATOM      3  C   UNL A   1      37.182  22.091  24.545  1.00  0.00     0.202 C 
BRANCH   3   4
ATOM      4  C   UNL A   1      36.591  23.296  23.780  1.00  0.00     0.261 C 
BRANCH   4   5
ATOM      5  O   UNL A   1      35.334  23.820  24.234  1.00  0.00    -0.460 OA
BRANCH   5   6
ATOM      6  C   UNL A   1      34.272  23.705  23.406  1.00  0.00     0.343 C 
ATOM      7  O   UNL A   1      34.313  23.652  22.190  1.00  0.00    -0.246 OA
BRANCH   6   8
ATOM      8  C   UNL A   1      33.048  23.382  24.172  1.00  0.00     0.119 A 
ATOM      9  C   UNL A   1      32.089  24.388  24.428  1.00  0.00     0.058 A 
ATOM     10  C   UNL A   1      30.967  24.068  25.205  1.00  0.00     0.027 A 
ATOM     11  C   UNL A   1      30.782  22.769  25.689  1.00  0.00     0.005 A 
ATOM     12  C   UNL A   1      32.853  22.091  24.662  1.00  0.00     0.139 A 
ATOM     13  C   UNL A   1      31.720  21.777  25.409  1.00  0.00     0.040 A 
ATOM     14  F   UNL A   1      33.756  21.125  24.439  1.00  0.00    -0.206 F 
BRANCH   9  15
ATOM     15  N   UNL A   1      32.219  25.663  23.813  1.00  0.00    -0.324 N 
ATOM     16  O   UNL A   1      32.586  27.006  25.655  1.00  0.00    -0.273 OA
ATOM     17  C   UNL A   1      32.375  26.880  24.449  1.00  0.00     0.246 C 
ATOM     18  H   UNL A   1      32.194  25.680  22.829  1.00  0.00     0.170 HD
BRANCH  17  19
ATOM     19  C   UNL A   1      32.191  28.110  23.583  1.00  0.00     0.248 C 
BRANCH  19  20
ATOM     20  N   UNL A   1      30.854  28.389  23.112  1.00  0.00    -0.223 N 
ATOM     21  C   UNL A   1      29.633  28.057  23.610  1.00  0.00     0.246 A 
ATOM     22  N   UNL A   1      30.693  29.095  21.980  1.00  0.00    -0.045 NA
ATOM     23  N   UNL A   1      28.710  28.581  22.837  1.00  0.00    -0.117 NA
ATOM     24  N   UNL A   1      29.383  29.212  21.822  1.00  0.00    -0.024 NA
ENDBRANCH  19  20
ENDBRANCH  17  19
ENDBRANCH   9  15
ENDBRANCH   6   8
ENDBRANCH   5   6
ENDBRANCH   4   5
ENDBRANCH   3   4
ENDBRANCH   2   3
ENDBRANCH   1   2
BRANCH   1  25
ATOM     25  C   UNL A   1      40.060  21.510  26.941  1.00  0.00     0.188 C 
BRANCH  25  26
ATOM     26  O   UNL A   1      41.014  20.537  27.345  1.00  0.00    -0.376 OA
BRANCH  26  27
ATOM     27  C   UNL A   1      41.757  19.783  26.394  1.00  0.00     0.202 C 
BRANCH  27  28
ATOM     28  C   UNL A   1      43.119  20.257  25.892  1.00  0.00     0.261 C 
BRANCH  28  29
ATOM     29  O   UNL A   1      43.096  21.433  25.106  1.00  0.00    -0.460 OA
BRANCH  29  30
ATOM     30  C   UNL A   1      43.862  22.422  25.585  1.00  0.00     0.338 C 
ATOM     31  O   UNL A   1      45.082  22.559  25.440  1.00  0.00    -0.246 OA
BRANCH  30  32
ATOM     32  C   UNL A   1      43.054  23.287  26.434  1.00  0.00     0.060 A 
ATOM     33  C   UNL A   1      42.330  24.295  25.795  1.00  0.00     0.016 A 
ATOM     34  C   UNL A   1      43.325  23.311  27.810  1.00  0.00     0.016 A 
ATOM     35  C   UNL A   1      42.105  25.458  26.487  1.00  0.00     0.010 A 
ATOM     36  C   UNL A   1      43.126  24.484  28.491  1.00  0.00     0.010 A 
ATOM     37  C   UNL A   1      42.606  25.569  27.790  1.00  0.00    -0.014 A 
BRANCH  37  38
ATOM     38  C   UNL A   1      42.468  26.837  28.465  1.00  0.00     0.031 A 
ATOM     39  C   UNL A   1      43.621  27.716  28.203  1.00  0.00     0.074 A 
ATOM     40  C   UNL A   1      41.371  27.182  29.163  1.00  0.00     0.049 A 
ATOM     41  N   UNL A   1      44.593  27.977  29.011  1.00  0.00    -0.248 NA
ATOM     42  C   UNL A   1      43.852  28.155  26.816  1.00  0.00     0.031 C 
ATOM     43  C   UNL A   1      40.091  26.473  29.249  1.00  0.00     0.029 A 
ATOM     44  N   UNL A   1      41.135  28.319  29.868  1.00  0.00    -0.354 N 
ATOM     45  C   UNL A   1      45.417  28.844  28.309  1.00  0.00     0.074 A 
ATOM     46  C   UNL A   1      45.060  28.707  26.922  1.00  0.00     0.031 C 
ATOM     47  C   UNL A   1      39.154  27.311  29.751  1.00  0.00     0.029 A 
ATOM     48  C   UNL A   1      39.793  28.559  30.139  1.00  0.00     0.049 A 
ATOM     49  H   UNL A   1      41.854  28.923  30.162  1.00  0.00     0.167 HD
ATOM     50  C   UNL A   1      46.078  29.844  28.952  1.00  0.00     0.031 A 
ATOM     51  C   UNL A   1      39.254  29.728  30.577  1.00  0.00     0.031 A 
ATOM     52  C   UNL A   1      46.094  29.635  30.379  1.00  0.00     0.049 A 
ATOM     53  C   UNL A   1      40.362  30.523  31.166  1.00  0.00     0.074 A 
ATOM     54  C   UNL A   1      46.557  28.639  31.214  1.00  0.00     0.029 A 
ATOM     55  N   UNL A   1      45.194  30.372  31.114  1.00  0.00    -0.354 N 
ATOM     56  N   UNL A   1      40.983  30.183  32.261  1.00  0.00    -0.248 NA
ATOM     57  C   UNL A   1      41.090  31.437  30.299  1.00  0.00     0.031 C 
ATOM     58  C   UNL A   1      45.601  28.560  32.266  1.00  0.00     0.029 A 
ATOM     59  C   UNL A   1      44.643  29.556  32.066  1.00  0.00     0.049 A 
ATOM     60  H   UNL A   1      44.983  31.324  30.980  1.00  0.00     0.167 HD
ATOM     61  C   UNL A   1      42.319  30.460  32.010  1.00  0.00     0.074 A 
ATOM     62  C   UNL A   1      42.311  31.324  30.831  1.00  0.00     0.031 C 
ATOM     63  C   UNL A   1      43.309  29.729  32.604  1.00  0.00     0.031 A 
BRANCH  50  64
ATOM     64  C   UNL A   1      46.268  31.214  28.347  1.00  0.00    -0.014 A 
ATOM     65  C   UNL A   1      45.121  31.958  28.009  1.00  0.00     0.010 A 
ATOM     66  C   UNL A   1      47.502  31.672  27.837  1.00  0.00     0.010 A 
ATOM     67  C   UNL A   1      45.200  33.055  27.144  1.00  0.00     0.020 A 
ATOM     68  C   UNL A   1      47.597  32.792  27.013  1.00  0.00     0.020 A 
ATOM     69  C   UNL A   1      46.439  33.457  26.645  1.00  0.00     0.054 A 
BRANCH  69  70
ATOM     70  S   UNL A   1      46.519  34.824  25.467  1.00  0.00     0.124 S 
ATOM     71  O   UNL A   1      47.892  34.721  24.984  1.00  0.00    -0.237 OA
ATOM     72  O   UNL A   1      45.478  34.462  24.509  1.00  0.00    -0.237 OA
ATOM     73  O   UNL A   1      46.226  35.998  26.286  1.00  0.00    -0.744 OA
ENDBRANCH  69  70
ENDBRANCH  50  64
BRANCH  51  74
ATOM     74  C   UNL A   1      37.941  30.335  30.234  1.00  0.00    -0.014 A 
ATOM     75  C   UNL A   1      37.118  30.893  31.233  1.00  0.00     0.010 A 
ATOM     76  C   UNL A   1      37.626  30.633  28.893  1.00  0.00     0.010 A 
ATOM     77  C   UNL A   1      36.071  31.774  30.907  1.00  0.00     0.020 A 
ATOM     78  C   UNL A   1      36.579  31.504  28.559  1.00  0.00     0.020 A 
ATOM     79  C   UNL A   1      35.824  32.093  29.569  1.00  0.00     0.054 A 
BRANCH  79  80
ATOM     80  S   UNL A   1      34.606  33.381  29.162  1.00  0.00     0.124 S 
ATOM     81  O   UNL A   1      35.449  34.464  28.664  1.00  0.00    -0.237 OA
ATOM     82  O   UNL A   1      33.767  32.724  28.164  1.00  0.00    -0.237 OA
ATOM     83  O   UNL A   1      33.947  33.646  30.440  1.00  0.00    -0.744 OA
ENDBRANCH  79  80
ENDBRANCH  51  74
BRANCH  63  84
ATOM     84  C   UNL A   1      42.956  28.874  33.799  1.00  0.00    -0.014 A 
ATOM     85  C   UNL A   1      42.805  29.360  35.113  1.00  0.00     0.010 A 
ATOM     86  C   UNL A   1      42.633  27.531  33.539  1.00  0.00     0.010 A 
ATOM     87  C   UNL A   1      42.373  28.508  36.143  1.00  0.00     0.020 A 
ATOM     88  C   UNL A   1      42.183  26.686  34.552  1.00  0.00     0.020 A 
ATOM     89  C   UNL A   1      42.067  27.174  35.854  1.00  0.00     0.054 A 
BRANCH  89  90
ATOM     90  S   UNL A   1      41.485  26.078  37.178  1.00  0.00     0.124 S 
ATOM     91  O   UNL A   1      41.250  24.822  36.470  1.00  0.00    -0.237 OA
ATOM     92  O   UNL A   1      42.607  26.075  38.114  1.00  0.00    -0.237 OA
ATOM     93  O   UNL A   1      40.278  26.741  37.674  1.00  0.00    -0.744 OA
ENDBRANCH  89  90
ENDBRANCH  63  84
ENDBRANCH  37  38
ENDBRANCH  30  32
ENDBRANCH  29  30
ENDBRANCH  28  29
ENDBRANCH  27  28
ENDBRANCH  26  27
ENDBRANCH  25  26
ENDBRANCH   1  25
TORSDOF 23
ENDMDL
