MODEL 1
REMARK VINA RESULT:      -9.2      0.000      0.000
REMARK SMILES C[C@@H](CCO)Sc1cc(C(=O)OCCOCCOCCOC(=O)c2ccc(-c3c4nc(c(-c5ccc(S(=O)(=O)[O-])cc5)c5ccc([nH]5)c(-c5ccc(S(=O)(=O)[O-])cc5)c5nc(c(-c6ccc(S(=O)(=O)[O-])cc6)c6ccc3[nH]6)C=C5)C=C4)cc2)c2ccccc2n1
REMARK SMILES IDX 16 1 15 2 14 3 13 4 12 5 10 6 11 7 9 8 7 9 8 10 90 11 89 12
REMARK SMILES IDX 84 13 88 14 85 15 87 16 86 17 6 18 2 19 1 20 3 21 4 22 5 23
REMARK SMILES IDX 17 25 18 26 19 27 20 28 21 29 22 30 23 31 24 32 25 33 83 34
REMARK SMILES IDX 26 35 82 36 27 37 28 38 29 39 76 40 30 41 81 42 75 43 77 44
REMARK SMILES IDX 31 45 80 46 74 47 73 48 32 50 62 51 43 52 61 53 44 54 47 55
REMARK SMILES IDX 60 56 78 57 45 58 46 59 59 61 79 62 48 63 33 64 34 65 42 66
REMARK SMILES IDX 35 67 41 68 36 69 37 70 38 71 39 72 40 73 63 74 64 75 72 76
REMARK SMILES IDX 65 77 71 78 66 79 67 80 68 81 69 82 70 83 49 84 50 85 58 86
REMARK SMILES IDX 51 87 57 88 52 89 53 90 54 91 55 92 56 93
REMARK H PARENT 5 24 77 49 47 60
REMARK Flexibility Score: inf
ROOT
ATOM      1  C   UNL A   1      35.801  23.041  22.797  1.00  0.00     0.188 C 
ENDROOT
BRANCH   1   2
ATOM      2  O   UNL A   1      34.544  23.674  22.954  1.00  0.00    -0.376 OA
BRANCH   2   3
ATOM      3  C   UNL A   1      33.687  23.849  21.834  1.00  0.00     0.202 C 
BRANCH   3   4
ATOM      4  C   UNL A   1      32.428  24.724  21.900  1.00  0.00     0.261 C 
BRANCH   4   5
ATOM      5  O   UNL A   1      32.668  26.118  22.150  1.00  0.00    -0.460 OA
BRANCH   5   6
ATOM      6  C   UNL A   1      31.641  26.768  22.747  1.00  0.00     0.338 C 
ATOM      7  O   UNL A   1      30.698  27.285  22.167  1.00  0.00    -0.246 OA
BRANCH   6   8
ATOM      8  C   UNL A   1      31.648  26.592  24.221  1.00  0.00     0.072 A 
ATOM      9  C   UNL A   1      31.214  25.020  25.955  1.00  0.00     0.098 A 
ATOM     10  C   UNL A   1      31.477  25.268  24.631  1.00  0.00     0.052 A 
ATOM     11  N   UNL A   1      31.240  25.984  26.893  1.00  0.00    -0.241 NA
ATOM     12  C   UNL A   1      31.497  27.246  26.515  1.00  0.00     0.072 A 
ATOM     13  C   UNL A   1      31.727  27.629  25.175  1.00  0.00     0.015 A 
ATOM     14  C   UNL A   1      31.517  28.216  27.507  1.00  0.00     0.029 A 
ATOM     15  C   UNL A   1      32.011  28.991  24.898  1.00  0.00     0.011 A 
ATOM     16  C   UNL A   1      31.792  29.555  27.225  1.00  0.00     0.002 A 
ATOM     17  C   UNL A   1      32.054  29.940  25.919  1.00  0.00     0.001 A 
BRANCH   9  18
ATOM     18  S   UNL A   1      30.853  23.362  26.466  1.00  0.00    -0.103 SA
BRANCH  18  19
ATOM     19  C   UNL A   1      32.438  22.482  26.119  1.00  0.00     0.052 C 
ATOM     20  C   UNL A   1      33.472  22.653  27.227  1.00  0.00     0.020 C 
BRANCH  19  21
ATOM     21  C   UNL A   1      32.311  21.041  25.571  1.00  0.00     0.043 C 
BRANCH  21  22
ATOM     22  C   UNL A   1      32.982  20.705  24.243  1.00  0.00     0.157 C 
BRANCH  22  23
ATOM     23  O   UNL A   1      32.150  20.972  23.137  1.00  0.00    -0.396 OA
ATOM     24  H   UNL A   1      31.819  21.883  23.195  1.00  0.00     0.210 HD
ENDBRANCH  22  23
ENDBRANCH  21  22
ENDBRANCH  19  21
ENDBRANCH  18  19
ENDBRANCH   9  18
ENDBRANCH   6   8
ENDBRANCH   5   6
ENDBRANCH   4   5
ENDBRANCH   3   4
ENDBRANCH   2   3
ENDBRANCH   1   2
BRANCH   1  25
ATOM     25  C   UNL A   1      36.761  22.934  24.001  1.00  0.00     0.188 C 
BRANCH  25  26
ATOM     26  O   UNL A   1      36.327  23.473  25.225  1.00  0.00    -0.376 OA
BRANCH  26  27
ATOM     27  C   UNL A   1      37.263  24.031  26.131  1.00  0.00     0.202 C 
BRANCH  27  28
ATOM     28  C   UNL A   1      38.785  23.771  26.154  1.00  0.00     0.261 C 
BRANCH  28  29
ATOM     29  O   UNL A   1      39.572  24.365  27.188  1.00  0.00    -0.460 OA
BRANCH  29  30
ATOM     30  C   UNL A   1      40.140  25.555  26.878  1.00  0.00     0.338 C 
ATOM     31  O   UNL A   1      40.675  25.859  25.818  1.00  0.00    -0.246 OA
BRANCH  30  32
ATOM     32  C   UNL A   1      39.848  26.531  27.945  1.00  0.00     0.060 A 
ATOM     33  C   UNL A   1      40.438  27.800  27.871  1.00  0.00     0.016 A 
ATOM     34  C   UNL A   1      39.049  26.184  29.036  1.00  0.00     0.016 A 
ATOM     35  C   UNL A   1      40.272  28.710  28.914  1.00  0.00     0.010 A 
ATOM     36  C   UNL A   1      38.901  27.090  30.091  1.00  0.00     0.010 A 
ATOM     37  C   UNL A   1      39.549  28.339  30.055  1.00  0.00    -0.014 A 
BRANCH  37  38
ATOM     38  C   UNL A   1      39.657  29.170  31.282  1.00  0.00     0.031 A 
ATOM     39  C   UNL A   1      40.808  28.915  32.220  1.00  0.00     0.074 A 
ATOM     40  C   UNL A   1      38.787  30.163  31.539  1.00  0.00     0.049 A 
ATOM     41  N   UNL A   1      41.116  29.516  33.341  1.00  0.00    -0.248 NA
ATOM     42  C   UNL A   1      41.736  27.835  31.845  1.00  0.00     0.031 C 
ATOM     43  C   UNL A   1      37.659  30.542  30.690  1.00  0.00     0.029 A 
ATOM     44  N   UNL A   1      38.724  31.037  32.595  1.00  0.00    -0.354 N 
ATOM     45  C   UNL A   1      42.265  28.885  33.805  1.00  0.00     0.074 A 
ATOM     46  C   UNL A   1      42.579  27.831  32.866  1.00  0.00     0.031 C 
ATOM     47  C   UNL A   1      37.012  31.573  31.262  1.00  0.00     0.029 A 
ATOM     48  C   UNL A   1      37.663  31.908  32.529  1.00  0.00     0.049 A 
ATOM     49  H   UNL A   1      39.377  31.039  33.332  1.00  0.00     0.167 HD
ATOM     50  C   UNL A   1      43.000  29.162  34.910  1.00  0.00     0.031 A 
ATOM     51  C   UNL A   1      37.255  32.856  33.397  1.00  0.00     0.031 A 
ATOM     52  C   UNL A   1      42.681  30.200  35.853  1.00  0.00     0.049 A 
ATOM     53  C   UNL A   1      38.052  33.102  34.654  1.00  0.00     0.074 A 
ATOM     54  C   UNL A   1      43.372  30.567  36.995  1.00  0.00     0.029 A 
ATOM     55  N   UNL A   1      41.576  31.033  35.770  1.00  0.00    -0.354 N 
ATOM     56  N   UNL A   1      39.150  32.515  35.067  1.00  0.00    -0.248 NA
ATOM     57  C   UNL A   1      37.558  34.153  35.556  1.00  0.00     0.031 C 
ATOM     58  C   UNL A   1      42.650  31.579  37.637  1.00  0.00     0.029 A 
ATOM     59  C   UNL A   1      41.549  31.894  36.855  1.00  0.00     0.049 A 
ATOM     60  H   UNL A   1      40.909  31.017  35.047  1.00  0.00     0.167 HD
ATOM     61  C   UNL A   1      39.497  33.147  36.258  1.00  0.00     0.074 A 
ATOM     62  C   UNL A   1      38.501  34.173  36.489  1.00  0.00     0.031 C 
ATOM     63  C   UNL A   1      40.547  32.906  37.082  1.00  0.00     0.031 A 
BRANCH  50  64
ATOM     64  C   UNL A   1      44.205  28.295  35.176  1.00  0.00    -0.014 A 
ATOM     65  C   UNL A   1      45.472  28.619  34.655  1.00  0.00     0.010 A 
ATOM     66  C   UNL A   1      44.072  27.154  35.988  1.00  0.00     0.010 A 
ATOM     67  C   UNL A   1      46.572  27.795  34.907  1.00  0.00     0.020 A 
ATOM     68  C   UNL A   1      45.177  26.344  36.267  1.00  0.00     0.020 A 
ATOM     69  C   UNL A   1      46.417  26.661  35.711  1.00  0.00     0.054 A 
BRANCH  69  70
ATOM     70  S   UNL A   1      47.867  25.622  36.039  1.00  0.00     0.124 S 
ATOM     71  O   UNL A   1      47.250  24.383  36.507  1.00  0.00    -0.237 OA
ATOM     72  O   UNL A   1      48.511  25.548  34.731  1.00  0.00    -0.237 OA
ATOM     73  O   UNL A   1      48.607  26.369  37.053  1.00  0.00    -0.744 OA
ENDBRANCH  69  70
ENDBRANCH  50  64
BRANCH  51  74
ATOM     74  C   UNL A   1      36.024  33.647  33.112  1.00  0.00    -0.014 A 
ATOM     75  C   UNL A   1      36.105  34.923  32.527  1.00  0.00     0.010 A 
ATOM     76  C   UNL A   1      34.759  33.125  33.438  1.00  0.00     0.010 A 
ATOM     77  C   UNL A   1      34.946  35.668  32.287  1.00  0.00     0.020 A 
ATOM     78  C   UNL A   1      33.595  33.854  33.171  1.00  0.00     0.020 A 
ATOM     79  C   UNL A   1      33.698  35.125  32.606  1.00  0.00     0.054 A 
BRANCH  79  80
ATOM     80  S   UNL A   1      32.205  36.086  32.231  1.00  0.00     0.124 S 
ATOM     81  O   UNL A   1      31.144  35.123  32.502  1.00  0.00    -0.237 OA
ATOM     82  O   UNL A   1      32.306  37.200  33.172  1.00  0.00    -0.237 OA
ATOM     83  O   UNL A   1      32.378  36.451  30.826  1.00  0.00    -0.744 OA
ENDBRANCH  79  80
ENDBRANCH  51  74
BRANCH  63  84
ATOM     84  C   UNL A   1      40.700  33.794  38.292  1.00  0.00    -0.014 A 
ATOM     85  C   UNL A   1      40.214  33.410  39.555  1.00  0.00     0.010 A 
ATOM     86  C   UNL A   1      41.368  35.027  38.166  1.00  0.00     0.010 A 
ATOM     87  C   UNL A   1      40.344  34.266  40.653  1.00  0.00     0.020 A 
ATOM     88  C   UNL A   1      41.530  35.869  39.268  1.00  0.00     0.020 A 
ATOM     89  C   UNL A   1      40.996  35.493  40.502  1.00  0.00     0.054 A 
BRANCH  89  90
ATOM     90  S   UNL A   1      41.157  36.582  41.943  1.00  0.00     0.124 S 
ATOM     91  O   UNL A   1      40.038  36.151  42.776  1.00  0.00    -0.237 OA
ATOM     92  O   UNL A   1      42.485  36.248  42.452  1.00  0.00    -0.237 OA
ATOM     93  O   UNL A   1      41.032  37.925  41.379  1.00  0.00    -0.744 OA
ENDBRANCH  89  90
ENDBRANCH  63  84
ENDBRANCH  37  38
ENDBRANCH  30  32
ENDBRANCH  29  30
ENDBRANCH  28  29
ENDBRANCH  27  28
ENDBRANCH  26  27
ENDBRANCH  25  26
ENDBRANCH   1  25
TORSDOF 25
ENDMDL
MODEL 2
REMARK VINA RESULT:      -9.0      1.919      3.611
REMARK SMILES C[C@@H](CCO)Sc1cc(C(=O)OCCOCCOCCOC(=O)c2ccc(-c3c4nc(c(-c5ccc(S(=O)(=O)[O-])cc5)c5ccc([nH]5)c(-c5ccc(S(=O)(=O)[O-])cc5)c5nc(c(-c6ccc(S(=O)(=O)[O-])cc6)c6ccc3[nH]6)C=C5)C=C4)cc2)c2ccccc2n1
REMARK SMILES IDX 16 1 15 2 14 3 13 4 12 5 10 6 11 7 9 8 7 9 8 10 90 11 89 12
REMARK SMILES IDX 84 13 88 14 85 15 87 16 86 17 6 18 2 19 1 20 3 21 4 22 5 23
REMARK SMILES IDX 17 25 18 26 19 27 20 28 21 29 22 30 23 31 24 32 25 33 83 34
REMARK SMILES IDX 26 35 82 36 27 37 28 38 29 39 76 40 30 41 81 42 75 43 77 44
REMARK SMILES IDX 31 45 80 46 74 47 73 48 32 50 62 51 43 52 61 53 44 54 47 55
REMARK SMILES IDX 60 56 78 57 45 58 46 59 59 61 79 62 48 63 33 64 34 65 42 66
REMARK SMILES IDX 35 67 41 68 36 69 37 70 38 71 39 72 40 73 63 74 64 75 72 76
REMARK SMILES IDX 65 77 71 78 66 79 67 80 68 81 69 82 70 83 49 84 50 85 58 86
REMARK SMILES IDX 51 87 57 88 52 89 53 90 54 91 55 92 56 93
REMARK H PARENT 5 24 77 49 47 60
REMARK Flexibility Score: inf
ROOT
ATOM      1  C   UNL A   1      35.927  23.017  25.634  1.00  0.00     0.188 C 
ENDROOT
BRANCH   1   2
ATOM      2  O   UNL A   1      35.453  22.424  26.830  1.00  0.00    -0.376 OA
BRANCH   2   3
ATOM      3  C   UNL A   1      34.245  21.677  26.828  1.00  0.00     0.202 C 
BRANCH   3   4
ATOM      4  C   UNL A   1      33.177  21.851  27.915  1.00  0.00     0.261 C 
BRANCH   4   5
ATOM      5  O   UNL A   1      32.417  23.067  27.833  1.00  0.00    -0.460 OA
BRANCH   5   6
ATOM      6  C   UNL A   1      31.747  23.235  26.667  1.00  0.00     0.338 C 
ATOM      7  O   UNL A   1      30.592  22.895  26.461  1.00  0.00    -0.246 OA
BRANCH   6   8
ATOM      8  C   UNL A   1      32.489  24.097  25.714  1.00  0.00     0.072 A 
ATOM      9  C   UNL A   1      33.439  26.263  25.445  1.00  0.00     0.098 A 
ATOM     10  C   UNL A   1      32.967  25.281  26.280  1.00  0.00     0.052 A 
ATOM     11  N   UNL A   1      33.580  26.082  24.119  1.00  0.00    -0.241 NA
ATOM     12  C   UNL A   1      33.208  24.909  23.584  1.00  0.00     0.072 A 
ATOM     13  C   UNL A   1      32.657  23.847  24.335  1.00  0.00     0.015 A 
ATOM     14  C   UNL A   1      33.366  24.755  22.214  1.00  0.00     0.029 A 
ATOM     15  C   UNL A   1      32.321  22.644  23.663  1.00  0.00     0.011 A 
ATOM     16  C   UNL A   1      33.029  23.570  21.560  1.00  0.00     0.002 A 
ATOM     17  C   UNL A   1      32.518  22.507  22.289  1.00  0.00     0.001 A 
BRANCH   9  18
ATOM     18  S   UNL A   1      33.915  27.824  26.134  1.00  0.00    -0.103 SA
BRANCH  18  19
ATOM     19  C   UNL A   1      32.309  28.730  26.223  1.00  0.00     0.052 C 
ATOM     20  C   UNL A   1      31.563  28.497  27.532  1.00  0.00     0.020 C 
BRANCH  19  21
ATOM     21  C   UNL A   1      32.328  30.200  25.743  1.00  0.00     0.043 C 
BRANCH  21  22
ATOM     22  C   UNL A   1      31.009  30.965  25.685  1.00  0.00     0.157 C 
BRANCH  22  23
ATOM     23  O   UNL A   1      30.339  30.788  24.458  1.00  0.00    -0.396 OA
ATOM     24  H   UNL A   1      30.870  30.219  23.879  1.00  0.00     0.210 HD
ENDBRANCH  22  23
ENDBRANCH  21  22
ENDBRANCH  19  21
ENDBRANCH  18  19
ENDBRANCH   9  18
ENDBRANCH   6   8
ENDBRANCH   5   6
ENDBRANCH   4   5
ENDBRANCH   3   4
ENDBRANCH   2   3
ENDBRANCH   1   2
BRANCH   1  25
ATOM     25  C   UNL A   1      37.379  23.533  25.558  1.00  0.00     0.188 C 
BRANCH  25  26
ATOM     26  O   UNL A   1      38.287  23.057  26.520  1.00  0.00    -0.376 OA
BRANCH  26  27
ATOM     27  C   UNL A   1      39.249  22.077  26.171  1.00  0.00     0.202 C 
BRANCH  27  28
ATOM     28  C   UNL A   1      40.774  22.167  26.396  1.00  0.00     0.261 C 
BRANCH  28  29
ATOM     29  O   UNL A   1      41.277  23.108  27.347  1.00  0.00    -0.460 OA
BRANCH  29  30
ATOM     30  C   UNL A   1      41.806  24.240  26.823  1.00  0.00     0.338 C 
ATOM     31  O   UNL A   1      42.408  24.346  25.761  1.00  0.00    -0.246 OA
BRANCH  30  32
ATOM     32  C   UNL A   1      41.381  25.399  27.629  1.00  0.00     0.060 A 
ATOM     33  C   UNL A   1      42.240  26.502  27.721  1.00  0.00     0.016 A 
ATOM     34  C   UNL A   1      40.175  25.380  28.334  1.00  0.00     0.016 A 
ATOM     35  C   UNL A   1      41.920  27.569  28.559  1.00  0.00     0.010 A 
ATOM     36  C   UNL A   1      39.866  26.442  29.190  1.00  0.00     0.010 A 
ATOM     37  C   UNL A   1      40.759  27.520  29.341  1.00  0.00    -0.014 A 
BRANCH  37  38
ATOM     38  C   UNL A   1      40.598  28.483  30.460  1.00  0.00     0.031 A 
ATOM     39  C   UNL A   1      41.521  28.364  31.645  1.00  0.00     0.074 A 
ATOM     40  C   UNL A   1      39.690  29.474  30.411  1.00  0.00     0.049 A 
ATOM     41  N   UNL A   1      41.578  29.093  32.730  1.00  0.00    -0.248 NA
ATOM     42  C   UNL A   1      42.511  27.275  31.602  1.00  0.00     0.031 C 
ATOM     43  C   UNL A   1      38.770  29.727  29.303  1.00  0.00     0.029 A 
ATOM     44  N   UNL A   1      39.398  30.457  31.323  1.00  0.00    -0.354 N 
ATOM     45  C   UNL A   1      42.603  28.549  33.498  1.00  0.00     0.074 A 
ATOM     46  C   UNL A   1      43.114  27.407  32.773  1.00  0.00     0.031 C 
ATOM     47  C   UNL A   1      38.012  30.796  29.604  1.00  0.00     0.029 A 
ATOM     48  C   UNL A   1      38.374  31.286  30.934  1.00  0.00     0.049 A 
ATOM     49  H   UNL A   1      39.878  30.558  32.177  1.00  0.00     0.167 HD
ATOM     50  C   UNL A   1      43.082  28.965  34.695  1.00  0.00     0.031 A 
ATOM     51  C   UNL A   1      37.786  32.313  31.581  1.00  0.00     0.031 A 
ATOM     52  C   UNL A   1      42.564  30.092  35.425  1.00  0.00     0.049 A 
ATOM     53  C   UNL A   1      38.293  32.717  32.944  1.00  0.00     0.074 A 
ATOM     54  C   UNL A   1      42.992  30.601  36.638  1.00  0.00     0.029 A 
ATOM     55  N   UNL A   1      41.500  30.881  35.013  1.00  0.00    -0.354 N 
ATOM     56  N   UNL A   1      39.278  32.209  33.645  1.00  0.00    -0.248 NA
ATOM     57  C   UNL A   1      37.613  33.847  33.594  1.00  0.00     0.031 C 
ATOM     58  C   UNL A   1      42.146  31.657  36.992  1.00  0.00     0.029 A 
ATOM     59  C   UNL A   1      41.237  31.854  35.963  1.00  0.00     0.049 A 
ATOM     60  H   UNL A   1      41.004  30.766  34.171  1.00  0.00     0.167 HD
ATOM     61  C   UNL A   1      39.359  32.978  34.803  1.00  0.00     0.074 A 
ATOM     62  C   UNL A   1      38.333  33.995  34.698  1.00  0.00     0.031 C 
ATOM     63  C   UNL A   1      40.207  32.858  35.855  1.00  0.00     0.031 A 
BRANCH  50  64
ATOM     64  C   UNL A   1      44.203  28.166  35.309  1.00  0.00    -0.014 A 
ATOM     65  C   UNL A   1      45.552  28.486  35.064  1.00  0.00     0.010 A 
ATOM     66  C   UNL A   1      43.902  27.096  36.170  1.00  0.00     0.010 A 
ATOM     67  C   UNL A   1      46.575  27.726  35.637  1.00  0.00     0.020 A 
ATOM     68  C   UNL A   1      44.922  26.352  36.769  1.00  0.00     0.020 A 
ATOM     69  C   UNL A   1      46.253  26.661  36.485  1.00  0.00     0.054 A 
BRANCH  69  70
ATOM     70  S   UNL A   1      47.601  25.704  37.231  1.00  0.00     0.124 S 
ATOM     71  O   UNL A   1      48.771  26.506  36.878  1.00  0.00    -0.237 OA
ATOM     72  O   UNL A   1      47.246  25.702  38.647  1.00  0.00    -0.237 OA
ATOM     73  O   UNL A   1      47.514  24.406  36.568  1.00  0.00    -0.744 OA
ENDBRANCH  69  70
ENDBRANCH  50  64
BRANCH  51  74
ATOM     74  C   UNL A   1      36.643  33.033  30.953  1.00  0.00    -0.014 A 
ATOM     75  C   UNL A   1      36.800  33.709  29.729  1.00  0.00     0.010 A 
ATOM     76  C   UNL A   1      35.387  33.054  31.586  1.00  0.00     0.010 A 
ATOM     77  C   UNL A   1      35.729  34.404  29.160  1.00  0.00     0.020 A 
ATOM     78  C   UNL A   1      34.304  33.721  31.004  1.00  0.00     0.020 A 
ATOM     79  C   UNL A   1      34.486  34.400  29.799  1.00  0.00     0.054 A 
BRANCH  79  80
ATOM     80  S   UNL A   1      33.095  35.259  29.011  1.00  0.00     0.124 S 
ATOM     81  O   UNL A   1      32.639  34.273  28.037  1.00  0.00    -0.237 OA
ATOM     82  O   UNL A   1      32.197  35.500  30.138  1.00  0.00    -0.237 OA
ATOM     83  O   UNL A   1      33.709  36.459  28.447  1.00  0.00    -0.744 OA
ENDBRANCH  79  80
ENDBRANCH  51  74
BRANCH  63  84
ATOM     84  C   UNL A   1      40.093  33.877  36.960  1.00  0.00    -0.014 A 
ATOM     85  C   UNL A   1      39.442  33.582  38.172  1.00  0.00     0.010 A 
ATOM     86  C   UNL A   1      40.675  35.149  36.792  1.00  0.00     0.010 A 
ATOM     87  C   UNL A   1      39.326  34.556  39.169  1.00  0.00     0.020 A 
ATOM     88  C   UNL A   1      40.591  36.113  37.800  1.00  0.00     0.020 A 
ATOM     89  C   UNL A   1      39.897  35.818  38.974  1.00  0.00     0.054 A 
BRANCH  89  90
ATOM     90  S   UNL A   1      39.737  37.061  40.284  1.00  0.00     0.124 S 
ATOM     91  O   UNL A   1      38.564  36.587  41.013  1.00  0.00    -0.237 OA
ATOM     92  O   UNL A   1      41.008  36.943  40.995  1.00  0.00    -0.237 OA
ATOM     93  O   UNL A   1      39.552  38.314  39.554  1.00  0.00    -0.744 OA
ENDBRANCH  89  90
ENDBRANCH  63  84
ENDBRANCH  37  38
ENDBRANCH  30  32
ENDBRANCH  29  30
ENDBRANCH  28  29
ENDBRANCH  27  28
ENDBRANCH  26  27
ENDBRANCH  25  26
ENDBRANCH   1  25
TORSDOF 25
ENDMDL
MODEL 3
REMARK VINA RESULT:      -8.5      5.161     12.396
REMARK SMILES C[C@@H](CCO)Sc1cc(C(=O)OCCOCCOCCOC(=O)c2ccc(-c3c4nc(c(-c5ccc(S(=O)(=O)[O-])cc5)c5ccc([nH]5)c(-c5ccc(S(=O)(=O)[O-])cc5)c5nc(c(-c6ccc(S(=O)(=O)[O-])cc6)c6ccc3[nH]6)C=C5)C=C4)cc2)c2ccccc2n1
REMARK SMILES IDX 16 1 15 2 14 3 13 4 12 5 10 6 11 7 9 8 7 9 8 10 90 11 89 12
REMARK SMILES IDX 84 13 88 14 85 15 87 16 86 17 6 18 2 19 1 20 3 21 4 22 5 23
REMARK SMILES IDX 17 25 18 26 19 27 20 28 21 29 22 30 23 31 24 32 25 33 83 34
REMARK SMILES IDX 26 35 82 36 27 37 28 38 29 39 76 40 30 41 81 42 75 43 77 44
REMARK SMILES IDX 31 45 80 46 74 47 73 48 32 50 62 51 43 52 61 53 44 54 47 55
REMARK SMILES IDX 60 56 78 57 45 58 46 59 59 61 79 62 48 63 33 64 34 65 42 66
REMARK SMILES IDX 35 67 41 68 36 69 37 70 38 71 39 72 40 73 63 74 64 75 72 76
REMARK SMILES IDX 65 77 71 78 66 79 67 80 68 81 69 82 70 83 49 84 50 85 58 86
REMARK SMILES IDX 51 87 57 88 52 89 53 90 54 91 55 92 56 93
REMARK H PARENT 5 24 77 49 47 60
REMARK Flexibility Score: inf
ROOT
ATOM      1  C   UNL A   1      33.552  36.408  32.530  1.00  0.00     0.188 C 
ENDROOT
BRANCH   1   2
ATOM      2  O   UNL A   1      33.971  35.098  32.867  1.00  0.00    -0.376 OA
BRANCH   2   3
ATOM      3  C   UNL A   1      35.318  34.701  32.655  1.00  0.00     0.202 C 
BRANCH   3   4
ATOM      4  C   UNL A   1      35.744  33.227  32.657  1.00  0.00     0.261 C 
BRANCH   4   5
ATOM      5  O   UNL A   1      37.150  33.000  32.835  1.00  0.00    -0.460 OA
BRANCH   5   6
ATOM      6  C   UNL A   1      37.492  32.505  34.050  1.00  0.00     0.338 C 
ATOM      7  O   UNL A   1      36.832  32.623  35.072  1.00  0.00    -0.246 OA
BRANCH   6   8
ATOM      8  C   UNL A   1      38.655  31.588  33.974  1.00  0.00     0.072 A 
ATOM      9  C   UNL A   1      41.018  31.478  34.247  1.00  0.00     0.098 A 
ATOM     10  C   UNL A   1      39.834  32.128  34.493  1.00  0.00     0.052 A 
ATOM     11  N   UNL A   1      41.074  30.280  33.638  1.00  0.00    -0.241 NA
ATOM     12  C   UNL A   1      39.932  29.713  33.220  1.00  0.00     0.072 A 
ATOM     13  C   UNL A   1      38.662  30.314  33.367  1.00  0.00     0.015 A 
ATOM     14  C   UNL A   1      40.026  28.477  32.595  1.00  0.00     0.029 A 
ATOM     15  C   UNL A   1      37.522  29.608  32.904  1.00  0.00     0.011 A 
ATOM     16  C   UNL A   1      38.900  27.793  32.138  1.00  0.00     0.002 A 
ATOM     17  C   UNL A   1      37.642  28.354  32.307  1.00  0.00     0.001 A 
BRANCH   9  18
ATOM     18  S   UNL A   1      42.536  32.223  34.776  1.00  0.00    -0.103 SA
BRANCH  18  19
ATOM     19  C   UNL A   1      43.477  30.784  35.447  1.00  0.00     0.052 C 
ATOM     20  C   UNL A   1      42.664  29.940  36.423  1.00  0.00     0.020 C 
BRANCH  19  21
ATOM     21  C   UNL A   1      44.300  29.970  34.421  1.00  0.00     0.043 C 
BRANCH  21  22
ATOM     22  C   UNL A   1      45.308  28.950  34.940  1.00  0.00     0.157 C 
BRANCH  22  23
ATOM     23  O   UNL A   1      45.381  27.803  34.126  1.00  0.00    -0.396 OA
ATOM     24  H   UNL A   1      45.885  27.112  34.585  1.00  0.00     0.210 HD
ENDBRANCH  22  23
ENDBRANCH  21  22
ENDBRANCH  19  21
ENDBRANCH  18  19
ENDBRANCH   9  18
ENDBRANCH   6   8
ENDBRANCH   5   6
ENDBRANCH   4   5
ENDBRANCH   3   4
ENDBRANCH   2   3
ENDBRANCH   1   2
BRANCH   1  25
ATOM     25  C   UNL A   1      32.877  36.671  31.168  1.00  0.00     0.188 C 
BRANCH  25  26
ATOM     26  O   UNL A   1      33.594  36.319  30.011  1.00  0.00    -0.376 OA
BRANCH  26  27
ATOM     27  C   UNL A   1      33.213  35.186  29.251  1.00  0.00     0.202 C 
BRANCH  27  28
ATOM     28  C   UNL A   1      33.858  33.784  29.309  1.00  0.00     0.261 C 
BRANCH  28  29
ATOM     29  O   UNL A   1      34.587  33.311  28.175  1.00  0.00    -0.460 OA
BRANCH  29  30
ATOM     30  C   UNL A   1      34.500  31.981  27.938  1.00  0.00     0.338 C 
ATOM     31  O   UNL A   1      33.621  31.403  27.308  1.00  0.00    -0.246 OA
BRANCH  30  32
ATOM     32  C   UNL A   1      35.741  31.320  28.385  1.00  0.00     0.060 A 
ATOM     33  C   UNL A   1      36.489  31.921  29.406  1.00  0.00     0.016 A 
ATOM     34  C   UNL A   1      36.194  30.152  27.768  1.00  0.00     0.016 A 
ATOM     35  C   UNL A   1      37.719  31.384  29.780  1.00  0.00     0.010 A 
ATOM     36  C   UNL A   1      37.439  29.627  28.130  1.00  0.00     0.010 A 
ATOM     37  C   UNL A   1      38.227  30.267  29.105  1.00  0.00    -0.014 A 
BRANCH  37  38
ATOM     38  C   UNL A   1      39.659  29.909  29.273  1.00  0.00     0.031 A 
ATOM     39  C   UNL A   1      40.600  30.955  29.815  1.00  0.00     0.074 A 
ATOM     40  C   UNL A   1      40.113  28.673  29.000  1.00  0.00     0.049 A 
ATOM     41  N   UNL A   1      41.883  30.873  30.057  1.00  0.00    -0.248 NA
ATOM     42  C   UNL A   1      40.013  32.270  30.124  1.00  0.00     0.031 C 
ATOM     43  C   UNL A   1      39.300  27.559  28.515  1.00  0.00     0.029 A 
ATOM     44  N   UNL A   1      41.378  28.149  29.098  1.00  0.00    -0.354 N 
ATOM     45  C   UNL A   1      42.257  32.122  30.540  1.00  0.00     0.074 A 
ATOM     46  C   UNL A   1      41.074  32.955  30.520  1.00  0.00     0.031 C 
ATOM     47  C   UNL A   1      40.089  26.482  28.354  1.00  0.00     0.029 A 
ATOM     48  C   UNL A   1      41.466  26.838  28.698  1.00  0.00     0.049 A 
ATOM     49  H   UNL A   1      42.151  28.666  29.424  1.00  0.00     0.167 HD
ATOM     50  C   UNL A   1      43.473  32.540  30.968  1.00  0.00     0.031 A 
ATOM     51  C   UNL A   1      42.536  26.021  28.608  1.00  0.00     0.031 A 
ATOM     52  C   UNL A   1      44.653  31.717  30.974  1.00  0.00     0.049 A 
ATOM     53  C   UNL A   1      43.893  26.529  29.028  1.00  0.00     0.074 A 
ATOM     54  C   UNL A   1      45.927  32.045  31.402  1.00  0.00     0.029 A 
ATOM     55  N   UNL A   1      44.707  30.407  30.524  1.00  0.00    -0.354 N 
ATOM     56  N   UNL A   1      44.226  27.704  29.505  1.00  0.00    -0.248 NA
ATOM     57  C   UNL A   1      45.017  25.589  28.909  1.00  0.00     0.031 C 
ATOM     58  C   UNL A   1      46.767  30.954  31.152  1.00  0.00     0.029 A 
ATOM     59  C   UNL A   1      45.999  29.920  30.637  1.00  0.00     0.049 A 
ATOM     60  H   UNL A   1      43.941  29.896  30.176  1.00  0.00     0.167 HD
ATOM     61  C   UNL A   1      45.590  27.634  29.776  1.00  0.00     0.074 A 
ATOM     62  C   UNL A   1      46.014  26.295  29.424  1.00  0.00     0.031 C 
ATOM     63  C   UNL A   1      46.415  28.588  30.275  1.00  0.00     0.031 A 
BRANCH  50  64
ATOM     64  C   UNL A   1      43.592  33.970  31.431  1.00  0.00    -0.014 A 
ATOM     65  C   UNL A   1      43.445  34.318  32.787  1.00  0.00     0.010 A 
ATOM     66  C   UNL A   1      43.886  34.979  30.496  1.00  0.00     0.010 A 
ATOM     67  C   UNL A   1      43.550  35.651  33.191  1.00  0.00     0.020 A 
ATOM     68  C   UNL A   1      44.023  36.310  30.900  1.00  0.00     0.020 A 
ATOM     69  C   UNL A   1      43.837  36.640  32.244  1.00  0.00     0.054 A 
BRANCH  69  70
ATOM     70  S   UNL A   1      43.989  38.360  32.800  1.00  0.00     0.124 S 
ATOM     71  O   UNL A   1      42.860  38.481  33.719  1.00  0.00    -0.237 OA
ATOM     72  O   UNL A   1      45.310  38.379  33.422  1.00  0.00    -0.237 OA
ATOM     73  O   UNL A   1      43.873  39.134  31.567  1.00  0.00    -0.744 OA
ENDBRANCH  69  70
ENDBRANCH  50  64
BRANCH  51  74
ATOM     74  C   UNL A   1      42.372  24.634  28.090  1.00  0.00    -0.014 A 
ATOM     75  C   UNL A   1      42.428  23.528  28.957  1.00  0.00     0.010 A 
ATOM     76  C   UNL A   1      42.168  24.411  26.716  1.00  0.00     0.010 A 
ATOM     77  C   UNL A   1      42.299  22.228  28.459  1.00  0.00     0.020 A 
ATOM     78  C   UNL A   1      42.006  23.115  26.217  1.00  0.00     0.020 A 
ATOM     79  C   UNL A   1      42.083  22.031  27.092  1.00  0.00     0.054 A 
BRANCH  79  80
ATOM     80  S   UNL A   1      41.859  20.338  26.478  1.00  0.00     0.124 S 
ATOM     81  O   UNL A   1      40.502  20.383  25.943  1.00  0.00    -0.237 OA
ATOM     82  O   UNL A   1      42.927  20.221  25.487  1.00  0.00    -0.237 OA
ATOM     83  O   UNL A   1      42.035  19.515  27.672  1.00  0.00    -0.744 OA
ENDBRANCH  79  80
ENDBRANCH  51  74
BRANCH  63  84
ATOM     84  C   UNL A   1      47.855  28.207  30.513  1.00  0.00    -0.014 A 
ATOM     85  C   UNL A   1      48.843  28.408  29.532  1.00  0.00     0.010 A 
ATOM     86  C   UNL A   1      48.231  27.660  31.755  1.00  0.00     0.010 A 
ATOM     87  C   UNL A   1      50.166  28.019  29.769  1.00  0.00     0.020 A 
ATOM     88  C   UNL A   1      49.557  27.303  32.008  1.00  0.00     0.020 A 
ATOM     89  C   UNL A   1      50.513  27.463  31.004  1.00  0.00     0.054 A 
BRANCH  89  90
ATOM     90  S   UNL A   1      52.235  26.972  31.288  1.00  0.00     0.124 S 
ATOM     91  O   UNL A   1      52.697  28.004  32.212  1.00  0.00    -0.237 OA
ATOM     92  O   UNL A   1      52.098  25.634  31.859  1.00  0.00    -0.237 OA
ATOM     93  O   UNL A   1      52.834  27.016  29.956  1.00  0.00    -0.744 OA
ENDBRANCH  89  90
ENDBRANCH  63  84
ENDBRANCH  37  38
ENDBRANCH  30  32
ENDBRANCH  29  30
ENDBRANCH  28  29
ENDBRANCH  27  28
ENDBRANCH  26  27
ENDBRANCH  25  26
ENDBRANCH   1  25
TORSDOF 25
ENDMDL
