MODEL 1
REMARK VINA RESULT:     -10.5      0.000      0.000
REMARK SMILES Cc1nc2ccc(Cl)cc2cc1C(=O)N1CCC(C(=O)OCCOCCOCCOC(=O)c2ccc(-c3c4nc(c(-c5ccc(S(=O)(=O)[O-])cc5)c5ccc([nH]5)c(-c5ccc(S(=O)(=O)[O-])cc5)c5nc(c(-c6ccc(S(=O)(=O)[O-])cc6)c6ccc3[nH]6)C=C5)C=C4)cc2)CC1
REMARK SMILES IDX 26 1 25 2 24 3 23 4 22 5 21 6 19 7 20 8 18 9 13 10 14 11
REMARK SMILES IDX 15 12 16 13 94 14 17 15 93 16 12 17 1 18 2 19 3 20 4 21
REMARK SMILES IDX 11 22 5 23 10 24 6 25 9 26 7 27 8 28 27 29 28 30 29 31 30 32
REMARK SMILES IDX 31 33 32 34 33 35 34 36 92 37 35 38 91 39 36 40 37 41 38 42
REMARK SMILES IDX 85 43 39 44 90 45 84 46 86 47 40 48 89 49 83 50 82 51 41 53
REMARK SMILES IDX 71 54 52 55 70 56 53 57 56 58 69 59 87 60 54 61 55 62 68 64
REMARK SMILES IDX 88 65 57 66 42 67 43 68 51 69 44 70 50 71 45 72 46 73 47 74
REMARK SMILES IDX 48 75 49 76 72 77 73 78 81 79 74 80 80 81 75 82 76 83 77 84
REMARK SMILES IDX 78 85 79 86 58 87 59 88 67 89 60 90 66 91 61 92 62 93 63 94
REMARK SMILES IDX 64 95 65 96
REMARK H PARENT 86 52 56 63
REMARK Flexibility Score: inf
ROOT
ATOM      1  C   UNL A   1      34.695  34.202  28.553  1.00  0.00     0.188 C 
ENDROOT
BRANCH   1   2
ATOM      2  C   UNL A   1      34.219  32.939  27.833  1.00  0.00     0.188 C 
BRANCH   2   3
ATOM      3  O   UNL A   1      35.202  31.929  27.626  1.00  0.00    -0.376 OA
BRANCH   3   4
ATOM      4  C   UNL A   1      34.789  30.577  27.806  1.00  0.00     0.202 C 
BRANCH   4   5
ATOM      5  C   UNL A   1      33.797  30.025  26.775  1.00  0.00     0.261 C 
BRANCH   5   6
ATOM      6  O   UNL A   1      33.571  28.606  26.888  1.00  0.00    -0.463 OA
BRANCH   6   7
ATOM      7  C   UNL A   1      32.279  28.235  27.095  1.00  0.00     0.309 C 
ATOM      8  O   UNL A   1      31.392  28.986  27.483  1.00  0.00    -0.252 OA
BRANCH   7   9
ATOM      9  C   UNL A   1      31.995  26.785  26.731  1.00  0.00     0.103 C 
ATOM     10  C   UNL A   1      31.977  23.374  24.115  1.00  0.00     0.255 C 
ATOM     11  O   UNL A   1      31.200  23.347  23.164  1.00  0.00    -0.269 OA
ATOM     12  N   UNL A   1      31.995  24.407  25.060  1.00  0.00    -0.339 N 
ATOM     13  C   UNL A   1      30.730  25.066  25.374  1.00  0.00     0.120 C 
ATOM     14  C   UNL A   1      33.127  24.681  25.945  1.00  0.00     0.120 C 
ATOM     15  C   UNL A   1      30.873  26.549  25.718  1.00  0.00     0.037 C 
ATOM     16  C   UNL A   1      33.295  26.169  26.202  1.00  0.00     0.037 C 
BRANCH  10  17
ATOM     17  C   UNL A   1      32.838  22.186  24.348  1.00  0.00     0.061 A 
ATOM     18  C   UNL A   1      34.977  23.379  23.660  1.00  0.00     0.067 C 
ATOM     19  C   UNL A   1      34.211  22.170  24.111  1.00  0.00     0.051 A 
ATOM     20  N   UNL A   1      34.953  21.027  24.221  1.00  0.00    -0.252 NA
ATOM     21  C   UNL A   1      34.345  19.876  24.565  1.00  0.00     0.071 A 
ATOM     22  C   UNL A   1      32.217  20.980  24.689  1.00  0.00     0.026 A 
ATOM     23  C   UNL A   1      35.077  18.698  24.655  1.00  0.00     0.030 A 
ATOM     24  C   UNL A   1      32.964  19.811  24.828  1.00  0.00     0.002 A 
ATOM     25  C   UNL A   1      34.480  17.484  25.018  1.00  0.00     0.023 A 
ATOM     26  C   UNL A   1      32.355  18.602  25.204  1.00  0.00     0.030 A 
ATOM     27  C   UNL A   1      33.120  17.445  25.302  1.00  0.00     0.041 A 
ATOM     28  Cl  UNL A   1      32.381  15.967  25.772  1.00  0.00    -0.084 Cl
ENDBRANCH  10  17
ENDBRANCH   7   9
ENDBRANCH   6   7
ENDBRANCH   5   6
ENDBRANCH   4   5
ENDBRANCH   3   4
ENDBRANCH   2   3
ENDBRANCH   1   2
BRANCH   1  29
ATOM     29  O   UNL A   1      35.831  34.024  29.393  1.00  0.00    -0.376 OA
BRANCH  29  30
ATOM     30  C   UNL A   1      35.547  33.900  30.792  1.00  0.00     0.202 C 
BRANCH  30  31
ATOM     31  C   UNL A   1      35.979  32.573  31.450  1.00  0.00     0.261 C 
BRANCH  31  32
ATOM     32  O   UNL A   1      36.605  31.633  30.551  1.00  0.00    -0.460 OA
BRANCH  32  33
ATOM     33  C   UNL A   1      36.890  30.406  31.045  1.00  0.00     0.338 C 
ATOM     34  O   UNL A   1      36.140  29.697  31.697  1.00  0.00    -0.246 OA
BRANCH  33  35
ATOM     35  C   UNL A   1      38.163  29.938  30.437  1.00  0.00     0.060 A 
ATOM     36  C   UNL A   1      39.134  29.387  31.285  1.00  0.00     0.016 A 
ATOM     37  C   UNL A   1      38.383  29.976  29.057  1.00  0.00     0.016 A 
ATOM     38  C   UNL A   1      40.341  28.917  30.763  1.00  0.00     0.010 A 
ATOM     39  C   UNL A   1      39.598  29.517  28.536  1.00  0.00     0.010 A 
ATOM     40  C   UNL A   1      40.598  29.018  29.388  1.00  0.00    -0.014 A 
BRANCH  40  41
ATOM     41  C   UNL A   1      41.977  28.818  28.876  1.00  0.00     0.031 A 
ATOM     42  C   UNL A   1      42.358  27.443  28.393  1.00  0.00     0.074 A 
ATOM     43  C   UNL A   1      42.875  29.818  28.819  1.00  0.00     0.049 A 
ATOM     44  N   UNL A   1      43.505  27.012  27.937  1.00  0.00    -0.248 NA
ATOM     45  C   UNL A   1      41.300  26.419  28.431  1.00  0.00     0.031 C 
ATOM     46  C   UNL A   1      42.633  31.206  29.209  1.00  0.00     0.029 A 
ATOM     47  N   UNL A   1      44.187  29.808  28.410  1.00  0.00    -0.354 N 
ATOM     48  C   UNL A   1      43.309  25.669  27.639  1.00  0.00     0.074 A 
ATOM     49  C   UNL A   1      41.943  25.350  27.990  1.00  0.00     0.031 C 
ATOM     50  C   UNL A   1      43.764  31.912  29.028  1.00  0.00     0.029 A 
ATOM     51  C   UNL A   1      44.818  31.023  28.539  1.00  0.00     0.049 A 
ATOM     52  H   UNL A   1      44.634  29.006  28.055  1.00  0.00     0.167 HD
ATOM     53  C   UNL A   1      44.182  24.776  27.115  1.00  0.00     0.031 A 
ATOM     54  C   UNL A   1      46.101  31.372  28.311  1.00  0.00     0.031 A 
ATOM     55  C   UNL A   1      45.548  25.075  26.784  1.00  0.00     0.049 A 
ATOM     56  C   UNL A   1      47.082  30.340  27.809  1.00  0.00     0.074 A 
ATOM     57  C   UNL A   1      46.504  24.233  26.245  1.00  0.00     0.029 A 
ATOM     58  N   UNL A   1      46.156  26.305  26.969  1.00  0.00    -0.354 N 
ATOM     59  N   UNL A   1      46.873  29.079  27.509  1.00  0.00    -0.248 NA
ATOM     60  C   UNL A   1      48.471  30.782  27.610  1.00  0.00     0.031 C 
ATOM     61  C   UNL A   1      47.706  24.941  26.151  1.00  0.00     0.029 A 
ATOM     62  C   UNL A   1      47.483  26.239  26.580  1.00  0.00     0.049 A 
ATOM     63  H   UNL A   1      45.710  27.108  27.326  1.00  0.00     0.167 HD
ATOM     64  C   UNL A   1      48.097  28.588  27.062  1.00  0.00     0.074 A 
ATOM     65  C   UNL A   1      49.037  29.687  27.121  1.00  0.00     0.031 C 
ATOM     66  C   UNL A   1      48.412  27.338  26.637  1.00  0.00     0.031 A 
BRANCH  53  67
ATOM     67  C   UNL A   1      43.685  23.374  26.907  1.00  0.00    -0.014 A 
ATOM     68  C   UNL A   1      43.160  22.623  27.974  1.00  0.00     0.010 A 
ATOM     69  C   UNL A   1      43.728  22.804  25.621  1.00  0.00     0.010 A 
ATOM     70  C   UNL A   1      42.723  21.313  27.767  1.00  0.00     0.020 A 
ATOM     71  C   UNL A   1      43.267  21.504  25.405  1.00  0.00     0.020 A 
ATOM     72  C   UNL A   1      42.784  20.760  26.483  1.00  0.00     0.054 A 
BRANCH  72  73
ATOM     73  S   UNL A   1      42.199  19.062  26.238  1.00  0.00     0.124 S 
ATOM     74  O   UNL A   1      43.064  18.601  25.156  1.00  0.00    -0.237 OA
ATOM     75  O   UNL A   1      42.443  18.447  27.541  1.00  0.00    -0.237 OA
ATOM     76  O   UNL A   1      40.792  19.228  25.883  1.00  0.00    -0.744 OA
ENDBRANCH  72  73
ENDBRANCH  53  67
BRANCH  54  77
ATOM     77  C   UNL A   1      46.555  32.766  28.576  1.00  0.00    -0.014 A 
ATOM     78  C   UNL A   1      47.036  33.136  29.845  1.00  0.00     0.010 A 
ATOM     79  C   UNL A   1      46.485  33.738  27.561  1.00  0.00     0.010 A 
ATOM     80  C   UNL A   1      47.422  34.457  30.098  1.00  0.00     0.020 A 
ATOM     81  C   UNL A   1      46.893  35.053  27.804  1.00  0.00     0.020 A 
ATOM     82  C   UNL A   1      47.349  35.406  29.075  1.00  0.00     0.054 A 
BRANCH  82  83
ATOM     83  S   UNL A   1      47.901  37.102  29.411  1.00  0.00     0.124 S 
ATOM     84  O   UNL A   1      46.793  37.891  28.886  1.00  0.00    -0.237 OA
ATOM     85  O   UNL A   1      48.047  37.103  30.865  1.00  0.00    -0.237 OA
ATOM     86  O   UNL A   1      49.154  37.206  28.667  1.00  0.00    -0.744 OA
ENDBRANCH  82  83
ENDBRANCH  54  77
BRANCH  66  87
ATOM     87  C   UNL A   1      49.820  27.090  26.162  1.00  0.00    -0.014 A 
ATOM     88  C   UNL A   1      50.814  26.617  27.036  1.00  0.00     0.010 A 
ATOM     89  C   UNL A   1      50.132  27.267  24.801  1.00  0.00     0.010 A 
ATOM     90  C   UNL A   1      52.103  26.350  26.562  1.00  0.00     0.020 A 
ATOM     91  C   UNL A   1      51.412  26.976  24.319  1.00  0.00     0.020 A 
ATOM     92  C   UNL A   1      52.393  26.532  25.206  1.00  0.00     0.054 A 
BRANCH  92  93
ATOM     93  S   UNL A   1      54.058  26.132  24.605  1.00  0.00     0.124 S 
ATOM     94  O   UNL A   1      54.010  24.675  24.521  1.00  0.00    -0.237 OA
ATOM     95  O   UNL A   1      54.115  26.833  23.325  1.00  0.00    -0.237 OA
ATOM     96  O   UNL A   1      54.939  26.668  25.640  1.00  0.00    -0.744 OA
ENDBRANCH  92  93
ENDBRANCH  66  87
ENDBRANCH  40  41
ENDBRANCH  33  35
ENDBRANCH  32  33
ENDBRANCH  31  32
ENDBRANCH  30  31
ENDBRANCH  29  30
ENDBRANCH   1  29
TORSDOF 21
ENDMDL
MODEL 2
REMARK VINA RESULT:     -10.5      5.337     11.384
REMARK SMILES Cc1nc2ccc(Cl)cc2cc1C(=O)N1CCC(C(=O)OCCOCCOCCOC(=O)c2ccc(-c3c4nc(c(-c5ccc(S(=O)(=O)[O-])cc5)c5ccc([nH]5)c(-c5ccc(S(=O)(=O)[O-])cc5)c5nc(c(-c6ccc(S(=O)(=O)[O-])cc6)c6ccc3[nH]6)C=C5)C=C4)cc2)CC1
REMARK SMILES IDX 26 1 25 2 24 3 23 4 22 5 21 6 19 7 20 8 18 9 13 10 14 11
REMARK SMILES IDX 15 12 16 13 94 14 17 15 93 16 12 17 1 18 2 19 3 20 4 21
REMARK SMILES IDX 11 22 5 23 10 24 6 25 9 26 7 27 8 28 27 29 28 30 29 31 30 32
REMARK SMILES IDX 31 33 32 34 33 35 34 36 92 37 35 38 91 39 36 40 37 41 38 42
REMARK SMILES IDX 85 43 39 44 90 45 84 46 86 47 40 48 89 49 83 50 82 51 41 53
REMARK SMILES IDX 71 54 52 55 70 56 53 57 56 58 69 59 87 60 54 61 55 62 68 64
REMARK SMILES IDX 88 65 57 66 42 67 43 68 51 69 44 70 50 71 45 72 46 73 47 74
REMARK SMILES IDX 48 75 49 76 72 77 73 78 81 79 74 80 80 81 75 82 76 83 77 84
REMARK SMILES IDX 78 85 79 86 58 87 59 88 67 89 60 90 66 91 61 92 62 93 63 94
REMARK SMILES IDX 64 95 65 96
REMARK H PARENT 86 52 56 63
REMARK Flexibility Score: inf
ROOT
ATOM      1  C   UNL A   1      35.094  33.600  32.190  1.00  0.00     0.188 C 
ENDROOT
BRANCH   1   2
ATOM      2  C   UNL A   1      35.603  33.918  33.596  1.00  0.00     0.188 C 
BRANCH   2   3
ATOM      3  O   UNL A   1      36.869  34.567  33.671  1.00  0.00    -0.376 OA
BRANCH   3   4
ATOM      4  C   UNL A   1      37.939  33.832  34.261  1.00  0.00     0.202 C 
BRANCH   4   5
ATOM      5  C   UNL A   1      38.679  32.852  33.342  1.00  0.00     0.261 C 
BRANCH   5   6
ATOM      6  O   UNL A   1      39.647  32.032  34.027  1.00  0.00    -0.463 OA
BRANCH   6   7
ATOM      7  C   UNL A   1      39.583  30.701  33.754  1.00  0.00     0.309 C 
ATOM      8  O   UNL A   1      38.656  30.155  33.166  1.00  0.00    -0.252 OA
BRANCH   7   9
ATOM      9  C   UNL A   1      40.819  29.929  34.187  1.00  0.00     0.103 C 
ATOM     10  C   UNL A   1      42.953  27.014  36.517  1.00  0.00     0.255 C 
ATOM     11  O   UNL A   1      43.157  27.227  37.710  1.00  0.00    -0.269 OA
ATOM     12  N   UNL A   1      42.337  27.942  35.669  1.00  0.00    -0.339 N 
ATOM     13  C   UNL A   1      42.555  29.361  35.936  1.00  0.00     0.120 C 
ATOM     14  C   UNL A   1      41.727  27.592  34.386  1.00  0.00     0.120 C 
ATOM     15  C   UNL A   1      41.362  30.249  35.582  1.00  0.00     0.037 C 
ATOM     16  C   UNL A   1      40.496  28.434  34.099  1.00  0.00     0.037 C 
BRANCH  10  17
ATOM     17  C   UNL A   1      43.513  25.773  35.923  1.00  0.00     0.061 A 
ATOM     18  C   UNL A   1      41.291  24.533  35.976  1.00  0.00     0.067 C 
ATOM     19  C   UNL A   1      42.764  24.619  35.701  1.00  0.00     0.051 A 
ATOM     20  N   UNL A   1      43.336  23.456  35.264  1.00  0.00    -0.252 NA
ATOM     21  C   UNL A   1      44.664  23.415  35.044  1.00  0.00     0.071 A 
ATOM     22  C   UNL A   1      44.893  25.712  35.705  1.00  0.00     0.026 A 
ATOM     23  C   UNL A   1      45.267  22.235  34.627  1.00  0.00     0.030 A 
ATOM     24  C   UNL A   1      45.487  24.540  35.238  1.00  0.00     0.002 A 
ATOM     25  C   UNL A   1      46.644  22.158  34.380  1.00  0.00     0.023 A 
ATOM     26  C   UNL A   1      46.868  24.479  34.983  1.00  0.00     0.030 A 
ATOM     27  C   UNL A   1      47.437  23.287  34.550  1.00  0.00     0.041 A 
ATOM     28  Cl  UNL A   1      49.123  23.211  34.226  1.00  0.00    -0.084 Cl
ENDBRANCH  10  17
ENDBRANCH   7   9
ENDBRANCH   6   7
ENDBRANCH   5   6
ENDBRANCH   4   5
ENDBRANCH   3   4
ENDBRANCH   2   3
ENDBRANCH   1   2
BRANCH   1  29
ATOM     29  O   UNL A   1      35.923  34.067  31.130  1.00  0.00    -0.376 OA
BRANCH  29  30
ATOM     30  C   UNL A   1      35.259  34.274  29.877  1.00  0.00     0.202 C 
BRANCH  30  31
ATOM     31  C   UNL A   1      35.402  33.135  28.846  1.00  0.00     0.261 C 
BRANCH  31  32
ATOM     32  O   UNL A   1      34.434  32.073  28.986  1.00  0.00    -0.460 OA
BRANCH  32  33
ATOM     33  C   UNL A   1      34.534  31.033  28.127  1.00  0.00     0.338 C 
ATOM     34  O   UNL A   1      33.781  30.787  27.198  1.00  0.00    -0.246 OA
BRANCH  33  35
ATOM     35  C   UNL A   1      35.861  30.392  28.318  1.00  0.00     0.060 A 
ATOM     36  C   UNL A   1      36.118  29.762  29.544  1.00  0.00     0.016 A 
ATOM     37  C   UNL A   1      36.818  30.348  27.299  1.00  0.00     0.016 A 
ATOM     38  C   UNL A   1      37.343  29.130  29.770  1.00  0.00     0.010 A 
ATOM     39  C   UNL A   1      38.050  29.726  27.530  1.00  0.00     0.010 A 
ATOM     40  C   UNL A   1      38.333  29.145  28.779  1.00  0.00    -0.014 A 
BRANCH  40  41
ATOM     41  C   UNL A   1      39.727  28.761  29.118  1.00  0.00     0.031 A 
ATOM     42  C   UNL A   1      40.583  29.773  29.834  1.00  0.00     0.074 A 
ATOM     43  C   UNL A   1      40.231  27.550  28.821  1.00  0.00     0.049 A 
ATOM     44  N   UNL A   1      41.834  29.688  30.205  1.00  0.00    -0.248 NA
ATOM     45  C   UNL A   1      39.937  31.051  30.178  1.00  0.00     0.031 C 
ATOM     46  C   UNL A   1      39.507  26.459  28.171  1.00  0.00     0.029 A 
ATOM     47  N   UNL A   1      41.491  27.041  29.028  1.00  0.00    -0.354 N 
ATOM     48  C   UNL A   1      42.127  30.899  30.819  1.00  0.00     0.074 A 
ATOM     49  C   UNL A   1      40.932  31.711  30.749  1.00  0.00     0.031 C 
ATOM     50  C   UNL A   1      40.339  25.412  28.025  1.00  0.00     0.029 A 
ATOM     51  C   UNL A   1      41.661  25.766  28.542  1.00  0.00     0.049 A 
ATOM     52  H   UNL A   1      42.207  27.541  29.484  1.00  0.00     0.167 HD
ATOM     53  C   UNL A   1      43.282  31.304  31.396  1.00  0.00     0.031 A 
ATOM     54  C   UNL A   1      42.760  24.984  28.499  1.00  0.00     0.031 A 
ATOM     55  C   UNL A   1      44.482  30.516  31.452  1.00  0.00     0.049 A 
ATOM     56  C   UNL A   1      44.063  25.488  29.071  1.00  0.00     0.074 A 
ATOM     57  C   UNL A   1      45.699  30.845  32.021  1.00  0.00     0.029 A 
ATOM     58  N   UNL A   1      44.622  29.249  30.912  1.00  0.00    -0.354 N 
ATOM     59  N   UNL A   1      44.315  26.628  29.670  1.00  0.00    -0.248 NA
ATOM     60  C   UNL A   1      45.228  24.596  28.963  1.00  0.00     0.031 C 
ATOM     61  C   UNL A   1      46.592  29.796  31.780  1.00  0.00     0.029 A 
ATOM     62  C   UNL A   1      45.913  28.790  31.110  1.00  0.00     0.049 A 
ATOM     63  H   UNL A   1      43.908  28.747  30.454  1.00  0.00     0.167 HD
ATOM     64  C   UNL A   1      45.659  26.576  30.034  1.00  0.00     0.074 A 
ATOM     65  C   UNL A   1      46.162  25.291  29.597  1.00  0.00     0.031 C 
ATOM     66  C   UNL A   1      46.406  27.509  30.676  1.00  0.00     0.031 A 
BRANCH  53  67
ATOM     67  C   UNL A   1      43.307  32.688  31.981  1.00  0.00    -0.014 A 
ATOM     68  C   UNL A   1      43.650  33.803  31.195  1.00  0.00     0.010 A 
ATOM     69  C   UNL A   1      42.965  32.878  33.332  1.00  0.00     0.010 A 
ATOM     70  C   UNL A   1      43.688  35.079  31.760  1.00  0.00     0.020 A 
ATOM     71  C   UNL A   1      42.978  34.157  33.894  1.00  0.00     0.020 A 
ATOM     72  C   UNL A   1      43.357  35.247  33.109  1.00  0.00     0.054 A 
BRANCH  72  73
ATOM     73  S   UNL A   1      43.404  36.916  33.816  1.00  0.00     0.124 S 
ATOM     74  O   UNL A   1      44.610  36.858  34.637  1.00  0.00    -0.237 OA
ATOM     75  O   UNL A   1      43.491  37.764  32.631  1.00  0.00    -0.237 OA
ATOM     76  O   UNL A   1      42.149  37.013  34.558  1.00  0.00    -0.744 OA
ENDBRANCH  72  73
ENDBRANCH  53  67
BRANCH  54  77
ATOM     77  C   UNL A   1      42.694  23.636  27.868  1.00  0.00    -0.014 A 
ATOM     78  C   UNL A   1      43.015  23.462  26.509  1.00  0.00     0.010 A 
ATOM     79  C   UNL A   1      42.284  22.521  28.622  1.00  0.00     0.010 A 
ATOM     80  C   UNL A   1      42.912  22.201  25.914  1.00  0.00     0.020 A 
ATOM     81  C   UNL A   1      42.204  21.255  28.035  1.00  0.00     0.020 A 
ATOM     82  C   UNL A   1      42.508  21.105  26.681  1.00  0.00     0.054 A 
BRANCH  82  83
ATOM     83  S   UNL A   1      42.428  19.469  25.899  1.00  0.00     0.124 S 
ATOM     84  O   UNL A   1      43.436  19.584  24.851  1.00  0.00    -0.237 OA
ATOM     85  O   UNL A   1      42.762  18.575  27.005  1.00  0.00    -0.237 OA
ATOM     86  O   UNL A   1      41.047  19.381  25.434  1.00  0.00    -0.744 OA
ENDBRANCH  82  83
ENDBRANCH  54  77
BRANCH  66  87
ATOM     87  C   UNL A   1      47.841  27.170  30.986  1.00  0.00    -0.014 A 
ATOM     88  C   UNL A   1      48.874  27.461  30.079  1.00  0.00     0.010 A 
ATOM     89  C   UNL A   1      48.166  26.614  32.238  1.00  0.00     0.010 A 
ATOM     90  C   UNL A   1      50.204  27.179  30.407  1.00  0.00     0.020 A 
ATOM     91  C   UNL A   1      49.496  26.354  32.580  1.00  0.00     0.020 A 
ATOM     92  C   UNL A   1      50.506  26.627  31.656  1.00  0.00     0.054 A 
BRANCH  92  93
ATOM     93  S   UNL A   1      52.243  26.315  32.080  1.00  0.00     0.124 S 
ATOM     94  O   UNL A   1      52.936  27.333  31.294  1.00  0.00    -0.237 OA
ATOM     95  O   UNL A   1      52.263  26.517  33.526  1.00  0.00    -0.237 OA
ATOM     96  O   UNL A   1      52.464  24.937  31.647  1.00  0.00    -0.744 OA
ENDBRANCH  92  93
ENDBRANCH  66  87
ENDBRANCH  40  41
ENDBRANCH  33  35
ENDBRANCH  32  33
ENDBRANCH  31  32
ENDBRANCH  30  31
ENDBRANCH  29  30
ENDBRANCH   1  29
TORSDOF 21
ENDMDL
MODEL 3
REMARK VINA RESULT:     -10.4      5.286     12.964
REMARK SMILES Cc1nc2ccc(Cl)cc2cc1C(=O)N1CCC(C(=O)OCCOCCOCCOC(=O)c2ccc(-c3c4nc(c(-c5ccc(S(=O)(=O)[O-])cc5)c5ccc([nH]5)c(-c5ccc(S(=O)(=O)[O-])cc5)c5nc(c(-c6ccc(S(=O)(=O)[O-])cc6)c6ccc3[nH]6)C=C5)C=C4)cc2)CC1
REMARK SMILES IDX 26 1 25 2 24 3 23 4 22 5 21 6 19 7 20 8 18 9 13 10 14 11
REMARK SMILES IDX 15 12 16 13 94 14 17 15 93 16 12 17 1 18 2 19 3 20 4 21
REMARK SMILES IDX 11 22 5 23 10 24 6 25 9 26 7 27 8 28 27 29 28 30 29 31 30 32
REMARK SMILES IDX 31 33 32 34 33 35 34 36 92 37 35 38 91 39 36 40 37 41 38 42
REMARK SMILES IDX 85 43 39 44 90 45 84 46 86 47 40 48 89 49 83 50 82 51 41 53
REMARK SMILES IDX 71 54 52 55 70 56 53 57 56 58 69 59 87 60 54 61 55 62 68 64
REMARK SMILES IDX 88 65 57 66 42 67 43 68 51 69 44 70 50 71 45 72 46 73 47 74
REMARK SMILES IDX 48 75 49 76 72 77 73 78 81 79 74 80 80 81 75 82 76 83 77 84
REMARK SMILES IDX 78 85 79 86 58 87 59 88 67 89 60 90 66 91 61 92 62 93 63 94
REMARK SMILES IDX 64 95 65 96
REMARK H PARENT 86 52 56 63
REMARK Flexibility Score: inf
ROOT
ATOM      1  C   UNL A   1      42.790  19.545  27.130  1.00  0.00     0.188 C 
ENDROOT
BRANCH   1   2
ATOM      2  C   UNL A   1      42.632  18.287  26.275  1.00  0.00     0.188 C 
BRANCH   2   3
ATOM      3  O   UNL A   1      43.638  18.069  25.291  1.00  0.00    -0.376 OA
BRANCH   3   4
ATOM      4  C   UNL A   1      44.160  19.221  24.632  1.00  0.00     0.202 C 
BRANCH   4   5
ATOM      5  C   UNL A   1      45.639  19.537  24.885  1.00  0.00     0.261 C 
BRANCH   5   6
ATOM      6  O   UNL A   1      45.872  20.872  25.377  1.00  0.00    -0.463 OA
BRANCH   6   7
ATOM      7  C   UNL A   1      45.039  21.830  24.888  1.00  0.00     0.309 C 
ATOM      8  O   UNL A   1      44.323  21.692  23.903  1.00  0.00    -0.252 OA
BRANCH   7   9
ATOM      9  C   UNL A   1      45.014  23.101  25.722  1.00  0.00     0.103 C 
ATOM     10  C   UNL A   1      46.718  26.674  27.400  1.00  0.00     0.255 C 
ATOM     11  O   UNL A   1      47.557  26.581  28.292  1.00  0.00    -0.269 OA
ATOM     12  N   UNL A   1      46.056  25.568  26.854  1.00  0.00    -0.339 N 
ATOM     13  C   UNL A   1      45.792  24.429  27.729  1.00  0.00     0.120 C 
ATOM     14  C   UNL A   1      45.373  25.585  25.560  1.00  0.00     0.120 C 
ATOM     15  C   UNL A   1      45.831  23.077  27.016  1.00  0.00     0.037 C 
ATOM     16  C   UNL A   1      45.498  24.255  24.838  1.00  0.00     0.037 C 
BRANCH  10  17
ATOM     17  C   UNL A   1      46.287  28.034  26.985  1.00  0.00     0.061 A 
ATOM     18  C   UNL A   1      47.623  27.990  24.820  1.00  0.00     0.067 C 
ATOM     19  C   UNL A   1      46.723  28.658  25.818  1.00  0.00     0.051 A 
ATOM     20  N   UNL A   1      46.402  29.955  25.525  1.00  0.00    -0.252 NA
ATOM     21  C   UNL A   1      45.646  30.658  26.389  1.00  0.00     0.071 A 
ATOM     22  C   UNL A   1      45.514  28.781  27.880  1.00  0.00     0.026 A 
ATOM     23  C   UNL A   1      45.332  31.986  26.123  1.00  0.00     0.030 A 
ATOM     24  C   UNL A   1      45.160  30.097  27.585  1.00  0.00     0.002 A 
ATOM     25  C   UNL A   1      44.540  32.745  26.994  1.00  0.00     0.023 A 
ATOM     26  C   UNL A   1      44.356  30.845  28.461  1.00  0.00     0.030 A 
ATOM     27  C   UNL A   1      44.046  32.166  28.156  1.00  0.00     0.041 A 
ATOM     28  Cl  UNL A   1      43.054  33.080  29.220  1.00  0.00    -0.084 Cl
ENDBRANCH  10  17
ENDBRANCH   7   9
ENDBRANCH   6   7
ENDBRANCH   5   6
ENDBRANCH   4   5
ENDBRANCH   3   4
ENDBRANCH   2   3
ENDBRANCH   1   2
BRANCH   1  29
ATOM     29  O   UNL A   1      41.640  20.383  27.186  1.00  0.00    -0.376 OA
BRANCH  29  30
ATOM     30  C   UNL A   1      40.523  19.946  26.402  1.00  0.00     0.202 C 
BRANCH  30  31
ATOM     31  C   UNL A   1      39.439  21.010  26.127  1.00  0.00     0.261 C 
BRANCH  31  32
ATOM     32  O   UNL A   1      39.796  22.349  26.531  1.00  0.00    -0.460 OA
BRANCH  32  33
ATOM     33  C   UNL A   1      38.982  23.351  26.124  1.00  0.00     0.338 C 
ATOM     34  O   UNL A   1      38.017  23.244  25.386  1.00  0.00    -0.246 OA
BRANCH  33  35
ATOM     35  C   UNL A   1      39.281  24.558  26.938  1.00  0.00     0.060 A 
ATOM     36  C   UNL A   1      40.066  25.566  26.358  1.00  0.00     0.016 A 
ATOM     37  C   UNL A   1      38.755  24.737  28.221  1.00  0.00     0.016 A 
ATOM     38  C   UNL A   1      40.363  26.728  27.073  1.00  0.00     0.010 A 
ATOM     39  C   UNL A   1      39.064  25.896  28.941  1.00  0.00     0.010 A 
ATOM     40  C   UNL A   1      39.898  26.882  28.386  1.00  0.00    -0.014 A 
BRANCH  40  41
ATOM     41  C   UNL A   1      40.462  27.949  29.250  1.00  0.00     0.031 A 
ATOM     42  C   UNL A   1      39.630  29.184  29.481  1.00  0.00     0.074 A 
ATOM     43  C   UNL A   1      41.669  27.838  29.835  1.00  0.00     0.049 A 
ATOM     44  N   UNL A   1      39.917  30.262  30.163  1.00  0.00    -0.248 NA
ATOM     45  C   UNL A   1      38.297  29.200  28.856  1.00  0.00     0.031 C 
ATOM     46  C   UNL A   1      42.562  26.685  29.737  1.00  0.00     0.029 A 
ATOM     47  N   UNL A   1      42.353  28.727  30.630  1.00  0.00    -0.354 N 
ATOM     48  C   UNL A   1      38.804  31.086  30.046  1.00  0.00     0.074 A 
ATOM     49  C   UNL A   1      37.850  30.396  29.207  1.00  0.00     0.031 C 
ATOM     50  C   UNL A   1      43.682  26.942  30.439  1.00  0.00     0.029 A 
ATOM     51  C   UNL A   1      43.599  28.287  31.010  1.00  0.00     0.049 A 
ATOM     52  H   UNL A   1      41.985  29.599  30.903  1.00  0.00     0.167 HD
ATOM     53  C   UNL A   1      38.588  32.307  30.590  1.00  0.00     0.031 A 
ATOM     54  C   UNL A   1      44.568  28.904  31.717  1.00  0.00     0.031 A 
ATOM     55  C   UNL A   1      39.537  33.013  31.406  1.00  0.00     0.049 A 
ATOM     56  C   UNL A   1      44.340  30.301  32.241  1.00  0.00     0.074 A 
ATOM     57  C   UNL A   1      39.401  34.253  32.002  1.00  0.00     0.029 A 
ATOM     58  N   UNL A   1      40.800  32.548  31.731  1.00  0.00    -0.354 N 
ATOM     59  N   UNL A   1      43.272  31.057  32.142  1.00  0.00    -0.248 NA
ATOM     60  C   UNL A   1      45.450  30.926  32.978  1.00  0.00     0.031 C 
ATOM     61  C   UNL A   1      40.603  34.562  32.647  1.00  0.00     0.029 A 
ATOM     62  C   UNL A   1      41.466  33.488  32.499  1.00  0.00     0.049 A 
ATOM     63  H   UNL A   1      41.170  31.677  31.456  1.00  0.00     0.167 HD
ATOM     64  C   UNL A   1      43.573  32.232  32.826  1.00  0.00     0.074 A 
ATOM     65  C   UNL A   1      44.917  32.084  33.342  1.00  0.00     0.031 C 
ATOM     66  C   UNL A   1      42.802  33.332  33.013  1.00  0.00     0.031 A 
BRANCH  53  67
ATOM     67  C   UNL A   1      37.277  32.972  30.279  1.00  0.00    -0.014 A 
ATOM     68  C   UNL A   1      37.086  33.677  29.077  1.00  0.00     0.010 A 
ATOM     69  C   UNL A   1      36.214  32.875  31.196  1.00  0.00     0.010 A 
ATOM     70  C   UNL A   1      35.868  34.307  28.815  1.00  0.00     0.020 A 
ATOM     71  C   UNL A   1      34.985  33.482  30.925  1.00  0.00     0.020 A 
ATOM     72  C   UNL A   1      34.826  34.209  29.744  1.00  0.00     0.054 A 
BRANCH  72  73
ATOM     73  S   UNL A   1      33.251  35.026  29.375  1.00  0.00     0.124 S 
ATOM     74  O   UNL A   1      32.687  34.142  28.358  1.00  0.00    -0.237 OA
ATOM     75  O   UNL A   1      32.570  35.012  30.667  1.00  0.00    -0.237 OA
ATOM     76  O   UNL A   1      33.650  36.348  28.898  1.00  0.00    -0.744 OA
ENDBRANCH  72  73
ENDBRANCH  53  67
BRANCH  54  77
ATOM     77  C   UNL A   1      45.868  28.219  31.960  1.00  0.00    -0.014 A 
ATOM     78  C   UNL A   1      45.997  27.264  32.985  1.00  0.00     0.010 A 
ATOM     79  C   UNL A   1      46.994  28.537  31.177  1.00  0.00     0.010 A 
ATOM     80  C   UNL A   1      47.231  26.655  33.234  1.00  0.00     0.020 A 
ATOM     81  C   UNL A   1      48.222  27.911  31.407  1.00  0.00     0.020 A 
ATOM     82  C   UNL A   1      48.335  26.981  32.442  1.00  0.00     0.054 A 
BRANCH  82  83
ATOM     83  S   UNL A   1      49.915  26.141  32.751  1.00  0.00     0.124 S 
ATOM     84  O   UNL A   1      49.501  24.746  32.855  1.00  0.00    -0.237 OA
ATOM     85  O   UNL A   1      50.691  26.485  31.562  1.00  0.00    -0.237 OA
ATOM     86  O   UNL A   1      50.387  26.750  33.991  1.00  0.00    -0.744 OA
ENDBRANCH  82  83
ENDBRANCH  54  77
BRANCH  66  87
ATOM     87  C   UNL A   1      43.369  34.457  33.841  1.00  0.00    -0.014 A 
ATOM     88  C   UNL A   1      44.120  35.490  33.255  1.00  0.00     0.010 A 
ATOM     89  C   UNL A   1      43.083  34.514  35.218  1.00  0.00     0.010 A 
ATOM     90  C   UNL A   1      44.598  36.548  34.036  1.00  0.00     0.020 A 
ATOM     91  C   UNL A   1      43.536  35.582  35.997  1.00  0.00     0.020 A 
ATOM     92  C   UNL A   1      44.302  36.587  35.402  1.00  0.00     0.054 A 
BRANCH  92  93
ATOM     93  S   UNL A   1      44.890  37.993  36.387  1.00  0.00     0.124 S 
ATOM     94  O   UNL A   1      44.156  39.108  35.793  1.00  0.00    -0.237 OA
ATOM     95  O   UNL A   1      44.488  37.628  37.743  1.00  0.00    -0.237 OA
ATOM     96  O   UNL A   1      46.332  38.002  36.153  1.00  0.00    -0.744 OA
ENDBRANCH  92  93
ENDBRANCH  66  87
ENDBRANCH  40  41
ENDBRANCH  33  35
ENDBRANCH  32  33
ENDBRANCH  31  32
ENDBRANCH  30  31
ENDBRANCH  29  30
ENDBRANCH   1  29
TORSDOF 21
ENDMDL
