MODEL 1
REMARK VINA RESULT:     -10.0      0.000      0.000
REMARK SMILES N#C/C(=C\c1ccc(-c2cc(C(=O)OCCOCCOCCOC(=O)c3ccc(-c4c5nc(c(-c6ccc(S(=O)(=O)[O-])cc6)c6ccc([nH]6)c(-c6ccc(S(=O)(=O)[O-])cc6)c6nc(c(-c7ccc(S(=O)(=O)[O-])cc7)c7ccc4[nH]7)C=C6)C=C5)cc3)ccc2Cl)o1)C(=O)N1CCOCC1
REMARK SMILES IDX 18 1 17 2 16 3 15 4 14 5 12 6 13 7 11 8 9 9 10 10 88 11
REMARK SMILES IDX 87 12 89 13 86 14 8 15 5 16 6 17 90 18 7 19 4 20 3 21 2 22
REMARK SMILES IDX 1 23 91 24 92 25 93 26 94 27 98 28 95 29 97 30 96 31 19 32
REMARK SMILES IDX 20 33 21 34 22 35 23 36 24 37 25 38 26 39 27 40 85 41 28 42
REMARK SMILES IDX 84 43 29 44 30 45 31 46 78 47 32 48 83 49 77 50 79 51 33 52
REMARK SMILES IDX 82 53 76 54 75 55 34 57 64 58 45 59 63 60 46 61 49 62 62 63
REMARK SMILES IDX 80 64 47 65 48 66 61 68 81 69 50 70 35 71 36 72 44 73 37 74
REMARK SMILES IDX 43 75 38 76 39 77 40 78 41 79 42 80 65 81 66 82 74 83 67 84
REMARK SMILES IDX 73 85 68 86 69 87 70 88 71 89 72 90 51 91 52 92 60 93 53 94
REMARK SMILES IDX 59 95 54 96 55 97 56 98 57 99 58 100
REMARK H PARENT 79 56 49 67
REMARK Flexibility Score: inf
ROOT
ATOM      1  C   UNL A   1      41.410  20.348  27.584  1.00  0.00     0.188 C 
ENDROOT
BRANCH   1   2
ATOM      2  O   UNL A   1      42.159  21.498  27.254  1.00  0.00    -0.376 OA
BRANCH   2   3
ATOM      3  C   UNL A   1      41.543  22.614  26.635  1.00  0.00     0.202 C 
BRANCH   3   4
ATOM      4  C   UNL A   1      40.125  23.112  26.960  1.00  0.00     0.261 C 
BRANCH   4   5
ATOM      5  O   UNL A   1      39.074  22.633  26.113  1.00  0.00    -0.460 OA
BRANCH   5   6
ATOM      6  C   UNL A   1      37.934  23.374  26.112  1.00  0.00     0.338 C 
ATOM      7  O   UNL A   1      37.837  24.569  26.326  1.00  0.00    -0.246 OA
BRANCH   6   8
ATOM      8  C   UNL A   1      36.803  22.537  25.641  1.00  0.00     0.060 A 
ATOM      9  C   UNL A   1      34.479  22.398  24.899  1.00  0.00     0.037 A 
ATOM     10  C   UNL A   1      35.569  23.155  25.358  1.00  0.00     0.029 A 
ATOM     11  C   UNL A   1      34.657  21.010  24.727  1.00  0.00     0.052 A 
ATOM     12  C   UNL A   1      35.890  20.400  24.999  1.00  0.00     0.022 A 
ATOM     13  Cl  UNL A   1      33.370  19.972  24.209  1.00  0.00    -0.084 Cl
ATOM     14  C   UNL A   1      36.964  21.160  25.459  1.00  0.00     0.017 A 
BRANCH   9  15
ATOM     15  C   UNL A   1      33.157  23.011  24.799  1.00  0.00     0.136 A 
ATOM     16  C   UNL A   1      31.676  24.696  24.768  1.00  0.00     0.129 A 
ATOM     17  C   UNL A   1      31.014  23.501  24.483  1.00  0.00     0.051 A 
ATOM     18  O   UNL A   1      33.026  24.371  24.926  1.00  0.00    -0.457 OA
ATOM     19  C   UNL A   1      31.933  22.440  24.552  1.00  0.00     0.051 A 
BRANCH  16  20
ATOM     20  C   UNL A   1      31.126  26.033  24.848  1.00  0.00     0.072 C 
ATOM     21  C   UNL A   1      31.361  26.997  23.912  1.00  0.00     0.121 C 
BRANCH  21  22
ATOM     22  C   UNL A   1      31.823  26.424  22.582  1.00  0.00     0.105 C 
ATOM     23  N   UNL A   1      32.206  25.949  21.479  1.00  0.00    -0.192 NA
ENDBRANCH  21  22
BRANCH  21  24
ATOM     24  C   UNL A   1      30.849  28.377  24.001  1.00  0.00     0.264 C 
ATOM     25  O   UNL A   1      29.708  28.613  23.614  1.00  0.00    -0.268 OA
ATOM     26  N   UNL A   1      31.682  29.345  24.532  1.00  0.00    -0.333 N 
ATOM     27  C   UNL A   1      33.148  29.333  24.649  1.00  0.00     0.148 C 
ATOM     28  C   UNL A   1      31.076  30.525  25.148  1.00  0.00     0.148 C 
ATOM     29  C   UNL A   1      33.577  29.478  26.116  1.00  0.00     0.181 C 
ATOM     30  C   UNL A   1      31.545  30.584  26.603  1.00  0.00     0.181 C 
ATOM     31  O   UNL A   1      32.981  30.637  26.705  1.00  0.00    -0.378 OA
ENDBRANCH  21  24
ENDBRANCH  16  20
ENDBRANCH   9  15
ENDBRANCH   6   8
ENDBRANCH   5   6
ENDBRANCH   4   5
ENDBRANCH   3   4
ENDBRANCH   2   3
ENDBRANCH   1   2
BRANCH   1  32
ATOM     32  C   UNL A   1      40.708  19.550  26.468  1.00  0.00     0.188 C 
BRANCH  32  33
ATOM     33  O   UNL A   1      41.421  18.566  25.753  1.00  0.00    -0.376 OA
BRANCH  33  34
ATOM     34  C   UNL A   1      42.713  18.169  26.177  1.00  0.00     0.202 C 
BRANCH  34  35
ATOM     35  C   UNL A   1      44.004  18.294  25.345  1.00  0.00     0.261 C 
BRANCH  35  36
ATOM     36  O   UNL A   1      44.072  19.330  24.362  1.00  0.00    -0.460 OA
BRANCH  36  37
ATOM     37  C   UNL A   1      45.275  19.942  24.244  1.00  0.00     0.338 C 
ATOM     38  O   UNL A   1      46.269  19.512  23.671  1.00  0.00    -0.246 OA
BRANCH  37  39
ATOM     39  C   UNL A   1      45.169  21.315  24.762  1.00  0.00     0.060 A 
ATOM     40  C   UNL A   1      44.845  22.353  23.876  1.00  0.00     0.016 A 
ATOM     41  C   UNL A   1      45.422  21.584  26.107  1.00  0.00     0.016 A 
ATOM     42  C   UNL A   1      44.788  23.669  24.334  1.00  0.00     0.010 A 
ATOM     43  C   UNL A   1      45.388  22.906  26.558  1.00  0.00     0.010 A 
ATOM     44  C   UNL A   1      45.097  23.959  25.670  1.00  0.00    -0.014 A 
BRANCH  44  45
ATOM     45  C   UNL A   1      45.275  25.365  26.107  1.00  0.00     0.031 A 
ATOM     46  C   UNL A   1      46.668  25.940  26.127  1.00  0.00     0.074 A 
ATOM     47  C   UNL A   1      44.221  26.128  26.455  1.00  0.00     0.049 A 
ATOM     48  N   UNL A   1      47.090  27.076  26.618  1.00  0.00    -0.248 NA
ATOM     49  C   UNL A   1      47.724  25.126  25.500  1.00  0.00     0.031 C 
ATOM     50  C   UNL A   1      42.823  25.694  26.457  1.00  0.00     0.029 A 
ATOM     51  N   UNL A   1      44.170  27.427  26.900  1.00  0.00    -0.354 N 
ATOM     52  C   UNL A   1      48.452  27.126  26.341  1.00  0.00     0.074 A 
ATOM     53  C   UNL A   1      48.801  25.873  25.707  1.00  0.00     0.031 C 
ATOM     54  C   UNL A   1      42.056  26.692  26.931  1.00  0.00     0.029 A 
ATOM     55  C   UNL A   1      42.909  27.823  27.288  1.00  0.00     0.049 A 
ATOM     56  H   UNL A   1      44.956  28.018  26.938  1.00  0.00     0.167 HD
ATOM     57  C   UNL A   1      49.315  28.153  26.523  1.00  0.00     0.031 A 
ATOM     58  C   UNL A   1      42.498  28.951  27.904  1.00  0.00     0.031 A 
ATOM     59  C   UNL A   1      48.941  29.445  27.038  1.00  0.00     0.049 A 
ATOM     60  C   UNL A   1      43.504  30.041  28.188  1.00  0.00     0.074 A 
ATOM     61  C   UNL A   1      49.714  30.592  27.102  1.00  0.00     0.029 A 
ATOM     62  N   UNL A   1      47.687  29.782  27.523  1.00  0.00    -0.354 N 
ATOM     63  N   UNL A   1      44.801  30.045  27.978  1.00  0.00    -0.248 NA
ATOM     64  C   UNL A   1      42.989  31.281  28.785  1.00  0.00     0.031 C 
ATOM     65  C   UNL A   1      48.927  31.623  27.622  1.00  0.00     0.029 A 
ATOM     66  C   UNL A   1      47.651  31.131  27.835  1.00  0.00     0.049 A 
ATOM     67  H   UNL A   1      46.934  29.156  27.627  1.00  0.00     0.167 HD
ATOM     68  C   UNL A   1      45.239  31.310  28.363  1.00  0.00     0.074 A 
ATOM     69  C   UNL A   1      44.078  32.034  28.834  1.00  0.00     0.031 C 
ATOM     70  C   UNL A   1      46.488  31.834  28.315  1.00  0.00     0.031 A 
BRANCH  57  71
ATOM     71  C   UNL A   1      50.741  27.972  26.076  1.00  0.00    -0.014 A 
ATOM     72  C   UNL A   1      51.698  27.365  26.912  1.00  0.00     0.010 A 
ATOM     73  C   UNL A   1      51.095  28.306  24.757  1.00  0.00     0.010 A 
ATOM     74  C   UNL A   1      52.992  27.123  26.444  1.00  0.00     0.020 A 
ATOM     75  C   UNL A   1      52.380  28.039  24.277  1.00  0.00     0.020 A 
ATOM     76  C   UNL A   1      53.323  27.458  25.127  1.00  0.00     0.054 A 
BRANCH  76  77
ATOM     77  S   UNL A   1      54.992  27.081  24.525  1.00  0.00     0.124 S 
ATOM     78  O   UNL A   1      55.453  26.102  25.507  1.00  0.00    -0.237 OA
ATOM     79  O   UNL A   1      54.738  26.556  23.186  1.00  0.00    -0.237 OA
ATOM     80  O   UNL A   1      55.676  28.371  24.567  1.00  0.00    -0.744 OA
ENDBRANCH  76  77
ENDBRANCH  57  71
BRANCH  58  81
ATOM     81  C   UNL A   1      41.083  29.093  28.352  1.00  0.00    -0.014 A 
ATOM     82  C   UNL A   1      40.040  29.322  27.438  1.00  0.00     0.010 A 
ATOM     83  C   UNL A   1      40.782  29.053  29.727  1.00  0.00     0.010 A 
ATOM     84  C   UNL A   1      38.736  29.563  27.892  1.00  0.00     0.020 A 
ATOM     85  C   UNL A   1      39.478  29.259  30.183  1.00  0.00     0.020 A 
ATOM     86  C   UNL A   1      38.465  29.538  29.263  1.00  0.00     0.054 A 
BRANCH  86  87
ATOM     87  S   UNL A   1      36.776  29.869  29.840  1.00  0.00     0.124 S 
ATOM     88  O   UNL A   1      36.714  29.086  31.070  1.00  0.00    -0.237 OA
ATOM     89  O   UNL A   1      36.771  31.318  30.012  1.00  0.00    -0.237 OA
ATOM     90  O   UNL A   1      35.939  29.377  28.747  1.00  0.00    -0.744 OA
ENDBRANCH  86  87
ENDBRANCH  58  81
BRANCH  70  91
ATOM     91  C   UNL A   1      46.659  33.270  28.735  1.00  0.00    -0.014 A 
ATOM     92  C   UNL A   1      46.995  33.606  30.058  1.00  0.00     0.010 A 
ATOM     93  C   UNL A   1      46.532  34.298  27.782  1.00  0.00     0.010 A 
ATOM     94  C   UNL A   1      47.182  34.942  30.423  1.00  0.00     0.020 A 
ATOM     95  C   UNL A   1      46.750  35.633  28.135  1.00  0.00     0.020 A 
ATOM     96  C   UNL A   1      47.064  35.947  29.458  1.00  0.00     0.054 A 
BRANCH  96  97
ATOM     97  S   UNL A   1      47.373  37.666  29.947  1.00  0.00     0.124 S 
ATOM     98  O   UNL A   1      47.972  37.505  31.270  1.00  0.00    -0.237 OA
ATOM     99  O   UNL A   1      48.278  38.137  28.901  1.00  0.00    -0.237 OA
ATOM    100  O   UNL A   1      46.046  38.276  29.934  1.00  0.00    -0.744 OA
ENDBRANCH  96  97
ENDBRANCH  70  91
ENDBRANCH  44  45
ENDBRANCH  37  39
ENDBRANCH  36  37
ENDBRANCH  35  36
ENDBRANCH  34  35
ENDBRANCH  33  34
ENDBRANCH  32  33
ENDBRANCH   1  32
TORSDOF 24
ENDMDL
MODEL 2
REMARK VINA RESULT:      -8.9      1.201      7.769
REMARK SMILES N#C/C(=C\c1ccc(-c2cc(C(=O)OCCOCCOCCOC(=O)c3ccc(-c4c5nc(c(-c6ccc(S(=O)(=O)[O-])cc6)c6ccc([nH]6)c(-c6ccc(S(=O)(=O)[O-])cc6)c6nc(c(-c7ccc(S(=O)(=O)[O-])cc7)c7ccc4[nH]7)C=C6)C=C5)cc3)ccc2Cl)o1)C(=O)N1CCOCC1
REMARK SMILES IDX 18 1 17 2 16 3 15 4 14 5 12 6 13 7 11 8 9 9 10 10 88 11
REMARK SMILES IDX 87 12 89 13 86 14 8 15 5 16 6 17 90 18 7 19 4 20 3 21 2 22
REMARK SMILES IDX 1 23 91 24 92 25 93 26 94 27 98 28 95 29 97 30 96 31 19 32
REMARK SMILES IDX 20 33 21 34 22 35 23 36 24 37 25 38 26 39 27 40 85 41 28 42
REMARK SMILES IDX 84 43 29 44 30 45 31 46 78 47 32 48 83 49 77 50 79 51 33 52
REMARK SMILES IDX 82 53 76 54 75 55 34 57 64 58 45 59 63 60 46 61 49 62 62 63
REMARK SMILES IDX 80 64 47 65 48 66 61 68 81 69 50 70 35 71 36 72 44 73 37 74
REMARK SMILES IDX 43 75 38 76 39 77 40 78 41 79 42 80 65 81 66 82 74 83 67 84
REMARK SMILES IDX 73 85 68 86 69 87 70 88 71 89 72 90 51 91 52 92 60 93 53 94
REMARK SMILES IDX 59 95 54 96 55 97 56 98 57 99 58 100
REMARK H PARENT 79 56 49 67
REMARK Flexibility Score: inf
ROOT
ATOM      1  C   UNL A   1      41.484  20.184  27.725  1.00  0.00     0.188 C 
ENDROOT
BRANCH   1   2
ATOM      2  O   UNL A   1      42.296  21.337  27.674  1.00  0.00    -0.376 OA
BRANCH   2   3
ATOM      3  C   UNL A   1      41.855  22.508  27.008  1.00  0.00     0.202 C 
BRANCH   3   4
ATOM      4  C   UNL A   1      40.449  23.113  27.157  1.00  0.00     0.261 C 
BRANCH   4   5
ATOM      5  O   UNL A   1      39.536  22.872  26.081  1.00  0.00    -0.460 OA
BRANCH   5   6
ATOM      6  C   UNL A   1      38.314  23.455  26.203  1.00  0.00     0.338 C 
ATOM      7  O   UNL A   1      38.083  24.614  26.496  1.00  0.00    -0.246 OA
BRANCH   6   8
ATOM      8  C   UNL A   1      37.267  22.503  25.756  1.00  0.00     0.060 A 
ATOM      9  C   UNL A   1      34.925  22.092  25.194  1.00  0.00     0.037 A 
ATOM     10  C   UNL A   1      35.942  22.960  25.624  1.00  0.00     0.029 A 
ATOM     11  C   UNL A   1      35.270  20.758  24.896  1.00  0.00     0.052 A 
ATOM     12  C   UNL A   1      36.593  20.310  25.016  1.00  0.00     0.022 A 
ATOM     13  Cl  UNL A   1      34.092  19.589  24.399  1.00  0.00    -0.084 Cl
ATOM     14  C   UNL A   1      37.593  21.179  25.450  1.00  0.00     0.017 A 
BRANCH   9  15
ATOM     15  C   UNL A   1      33.530  22.520  25.251  1.00  0.00     0.136 A 
ATOM     16  C   UNL A   1      31.819  23.960  25.079  1.00  0.00     0.129 A 
ATOM     17  C   UNL A   1      31.317  22.688  25.358  1.00  0.00     0.051 A 
ATOM     18  O   UNL A   1      33.206  23.825  24.977  1.00  0.00    -0.457 OA
ATOM     19  C   UNL A   1      32.393  21.797  25.515  1.00  0.00     0.051 A 
BRANCH  16  20
ATOM     20  C   UNL A   1      31.084  25.193  24.877  1.00  0.00     0.072 C 
ATOM     21  C   UNL A   1      31.318  26.042  23.836  1.00  0.00     0.121 C 
BRANCH  21  22
ATOM     22  C   UNL A   1      32.041  25.370  22.680  1.00  0.00     0.105 C 
ATOM     23  N   UNL A   1      32.641  24.812  21.721  1.00  0.00    -0.192 NA
ENDBRANCH  21  22
BRANCH  21  24
ATOM     24  C   UNL A   1      30.614  27.324  23.642  1.00  0.00     0.264 C 
ATOM     25  O   UNL A   1      29.423  27.307  23.345  1.00  0.00    -0.268 OA
ATOM     26  N   UNL A   1      31.334  28.492  23.816  1.00  0.00    -0.333 N 
ATOM     27  C   UNL A   1      32.790  28.692  23.759  1.00  0.00     0.148 C 
ATOM     28  C   UNL A   1      30.611  29.707  24.189  1.00  0.00     0.148 C 
ATOM     29  C   UNL A   1      33.312  29.266  25.084  1.00  0.00     0.181 C 
ATOM     30  C   UNL A   1      31.184  30.200  25.518  1.00  0.00     0.181 C 
ATOM     31  O   UNL A   1      32.599  30.456  25.435  1.00  0.00    -0.378 OA
ENDBRANCH  21  24
ENDBRANCH  16  20
ENDBRANCH   9  15
ENDBRANCH   6   8
ENDBRANCH   5   6
ENDBRANCH   4   5
ENDBRANCH   3   4
ENDBRANCH   2   3
ENDBRANCH   1   2
BRANCH   1  32
ATOM     32  C   UNL A   1      40.944  19.574  26.416  1.00  0.00     0.188 C 
BRANCH  32  33
ATOM     33  O   UNL A   1      41.787  18.783  25.610  1.00  0.00    -0.376 OA
BRANCH  33  34
ATOM     34  C   UNL A   1      43.016  18.298  26.119  1.00  0.00     0.202 C 
BRANCH  34  35
ATOM     35  C   UNL A   1      44.401  18.535  25.487  1.00  0.00     0.261 C 
BRANCH  35  36
ATOM     36  O   UNL A   1      44.675  19.824  24.933  1.00  0.00    -0.460 OA
BRANCH  36  37
ATOM     37  C   UNL A   1      45.963  20.233  25.021  1.00  0.00     0.338 C 
ATOM     38  O   UNL A   1      46.967  19.571  24.783  1.00  0.00    -0.246 OA
BRANCH  37  39
ATOM     39  C   UNL A   1      45.992  21.682  25.280  1.00  0.00     0.060 A 
ATOM     40  C   UNL A   1      46.377  22.549  24.248  1.00  0.00     0.016 A 
ATOM     41  C   UNL A   1      45.674  22.179  26.544  1.00  0.00     0.016 A 
ATOM     42  C   UNL A   1      46.460  23.921  24.485  1.00  0.00     0.010 A 
ATOM     43  C   UNL A   1      45.781  23.551  26.785  1.00  0.00     0.010 A 
ATOM     44  C   UNL A   1      46.199  24.427  25.765  1.00  0.00    -0.014 A 
BRANCH  44  45
ATOM     45  C   UNL A   1      46.515  25.840  26.089  1.00  0.00     0.031 A 
ATOM     46  C   UNL A   1      45.383  26.765  26.452  1.00  0.00     0.074 A 
ATOM     47  C   UNL A   1      47.785  26.290  26.087  1.00  0.00     0.049 A 
ATOM     48  N   UNL A   1      45.391  28.063  26.612  1.00  0.00    -0.248 NA
ATOM     49  C   UNL A   1      44.067  26.139  26.671  1.00  0.00     0.031 C 
ATOM     50  C   UNL A   1      48.969  25.488  25.774  1.00  0.00     0.029 A 
ATOM     51  N   UNL A   1      48.286  27.545  26.335  1.00  0.00    -0.354 N 
ATOM     52  C   UNL A   1      44.092  28.407  26.974  1.00  0.00     0.074 A 
ATOM     53  C   UNL A   1      43.306  27.193  26.934  1.00  0.00     0.031 C 
ATOM     54  C   UNL A   1      50.054  26.282  25.797  1.00  0.00     0.029 A 
ATOM     55  C   UNL A   1      49.640  27.650  26.102  1.00  0.00     0.049 A 
ATOM     56  H   UNL A   1      47.733  28.297  26.646  1.00  0.00     0.167 HD
ATOM     57  C   UNL A   1      43.618  29.608  27.381  1.00  0.00     0.031 A 
ATOM     58  C   UNL A   1      50.444  28.733  26.092  1.00  0.00     0.031 A 
ATOM     59  C   UNL A   1      44.428  30.788  27.541  1.00  0.00     0.049 A 
ATOM     60  C   UNL A   1      49.864  30.080  26.451  1.00  0.00     0.074 A 
ATOM     61  C   UNL A   1      44.064  32.000  28.104  1.00  0.00     0.029 A 
ATOM     62  N   UNL A   1      45.767  30.893  27.197  1.00  0.00    -0.354 N 
ATOM     63  N   UNL A   1      48.620  30.400  26.727  1.00  0.00    -0.248 NA
ATOM     64  C   UNL A   1      50.800  31.213  26.505  1.00  0.00     0.031 C 
ATOM     65  C   UNL A   1      45.183  32.837  28.101  1.00  0.00     0.029 A 
ATOM     66  C   UNL A   1      46.255  32.130  27.585  1.00  0.00     0.049 A 
ATOM     67  H   UNL A   1      46.292  30.193  26.746  1.00  0.00     0.167 HD
ATOM     68  C   UNL A   1      48.642  31.756  27.044  1.00  0.00     0.074 A 
ATOM     69  C   UNL A   1      50.012  32.199  26.909  1.00  0.00     0.031 C 
ATOM     70  C   UNL A   1      47.622  32.560  27.432  1.00  0.00     0.031 A 
BRANCH  57  71
ATOM     71  C   UNL A   1      42.170  29.703  27.781  1.00  0.00    -0.014 A 
ATOM     72  C   UNL A   1      41.141  29.320  26.899  1.00  0.00     0.010 A 
ATOM     73  C   UNL A   1      41.844  30.067  29.099  1.00  0.00     0.010 A 
ATOM     74  C   UNL A   1      39.810  29.328  27.322  1.00  0.00     0.020 A 
ATOM     75  C   UNL A   1      40.516  30.049  29.533  1.00  0.00     0.020 A 
ATOM     76  C   UNL A   1      39.506  29.689  28.638  1.00  0.00     0.054 A 
BRANCH  76  77
ATOM     77  S   UNL A   1      37.776  29.636  29.180  1.00  0.00     0.124 S 
ATOM     78  O   UNL A   1      37.808  30.475  30.376  1.00  0.00    -0.237 OA
ATOM     79  O   UNL A   1      37.065  30.201  28.036  1.00  0.00    -0.237 OA
ATOM     80  O   UNL A   1      37.531  28.217  29.424  1.00  0.00    -0.744 OA
ENDBRANCH  76  77
ENDBRANCH  57  71
BRANCH  58  81
ATOM     81  C   UNL A   1      51.869  28.610  25.672  1.00  0.00    -0.014 A 
ATOM     82  C   UNL A   1      52.899  28.417  26.609  1.00  0.00     0.010 A 
ATOM     83  C   UNL A   1      52.208  28.747  24.312  1.00  0.00     0.010 A 
ATOM     84  C   UNL A   1      54.240  28.416  26.203  1.00  0.00     0.020 A 
ATOM     85  C   UNL A   1      53.541  28.713  23.898  1.00  0.00     0.020 A 
ATOM     86  C   UNL A   1      54.553  28.574  24.849  1.00  0.00     0.054 A 
BRANCH  86  87
ATOM     87  S   UNL A   1      56.294  28.589  24.337  1.00  0.00     0.124 S 
ATOM     88  O   UNL A   1      56.206  29.078  22.965  1.00  0.00    -0.237 OA
ATOM     89  O   UNL A   1      56.905  29.503  25.297  1.00  0.00    -0.237 OA
ATOM     90  O   UNL A   1      56.704  27.192  24.474  1.00  0.00    -0.744 OA
ENDBRANCH  86  87
ENDBRANCH  58  81
BRANCH  70  91
ATOM     91  C   UNL A   1      47.954  33.987  27.783  1.00  0.00    -0.014 A 
ATOM     92  C   UNL A   1      48.385  34.336  29.075  1.00  0.00     0.010 A 
ATOM     93  C   UNL A   1      47.882  34.986  26.794  1.00  0.00     0.010 A 
ATOM     94  C   UNL A   1      48.720  35.660  29.375  1.00  0.00     0.020 A 
ATOM     95  C   UNL A   1      48.247  36.304  27.081  1.00  0.00     0.020 A 
ATOM     96  C   UNL A   1      48.654  36.635  28.375  1.00  0.00     0.054 A 
BRANCH  96  97
ATOM     97  S   UNL A   1      49.154  38.331  28.776  1.00  0.00     0.124 S 
ATOM     98  O   UNL A   1      47.927  38.886  29.344  1.00  0.00    -0.237 OA
ATOM     99  O   UNL A   1      50.247  38.126  29.723  1.00  0.00    -0.237 OA
ATOM    100  O   UNL A   1      49.552  38.892  27.487  1.00  0.00    -0.744 OA
ENDBRANCH  96  97
ENDBRANCH  70  91
ENDBRANCH  44  45
ENDBRANCH  37  39
ENDBRANCH  36  37
ENDBRANCH  35  36
ENDBRANCH  34  35
ENDBRANCH  33  34
ENDBRANCH  32  33
ENDBRANCH   1  32
TORSDOF 24
ENDMDL
MODEL 3
REMARK VINA RESULT:      -8.4      6.069     10.373
REMARK SMILES N#C/C(=C\c1ccc(-c2cc(C(=O)OCCOCCOCCOC(=O)c3ccc(-c4c5nc(c(-c6ccc(S(=O)(=O)[O-])cc6)c6ccc([nH]6)c(-c6ccc(S(=O)(=O)[O-])cc6)c6nc(c(-c7ccc(S(=O)(=O)[O-])cc7)c7ccc4[nH]7)C=C6)C=C5)cc3)ccc2Cl)o1)C(=O)N1CCOCC1
REMARK SMILES IDX 18 1 17 2 16 3 15 4 14 5 12 6 13 7 11 8 9 9 10 10 88 11
REMARK SMILES IDX 87 12 89 13 86 14 8 15 5 16 6 17 90 18 7 19 4 20 3 21 2 22
REMARK SMILES IDX 1 23 91 24 92 25 93 26 94 27 98 28 95 29 97 30 96 31 19 32
REMARK SMILES IDX 20 33 21 34 22 35 23 36 24 37 25 38 26 39 27 40 85 41 28 42
REMARK SMILES IDX 84 43 29 44 30 45 31 46 78 47 32 48 83 49 77 50 79 51 33 52
REMARK SMILES IDX 82 53 76 54 75 55 34 57 64 58 45 59 63 60 46 61 49 62 62 63
REMARK SMILES IDX 80 64 47 65 48 66 61 68 81 69 50 70 35 71 36 72 44 73 37 74
REMARK SMILES IDX 43 75 38 76 39 77 40 78 41 79 42 80 65 81 66 82 74 83 67 84
REMARK SMILES IDX 73 85 68 86 69 87 70 88 71 89 72 90 51 91 52 92 60 93 53 94
REMARK SMILES IDX 59 95 54 96 55 97 56 98 57 99 58 100
REMARK H PARENT 79 56 49 67
REMARK Flexibility Score: inf
ROOT
ATOM      1  C   UNL A   1      36.875  33.133  31.676  1.00  0.00     0.188 C 
ENDROOT
BRANCH   1   2
ATOM      2  O   UNL A   1      36.290  34.417  31.643  1.00  0.00    -0.376 OA
BRANCH   2   3
ATOM      3  C   UNL A   1      34.890  34.583  31.792  1.00  0.00     0.202 C 
BRANCH   3   4
ATOM      4  C   UNL A   1      33.912  34.774  30.621  1.00  0.00     0.261 C 
BRANCH   4   5
ATOM      5  O   UNL A   1      34.471  34.697  29.305  1.00  0.00    -0.460 OA
BRANCH   5   6
ATOM      6  C   UNL A   1      33.797  33.912  28.423  1.00  0.00     0.338 C 
ATOM      7  O   UNL A   1      32.805  34.213  27.786  1.00  0.00    -0.246 OA
BRANCH   6   8
ATOM      8  C   UNL A   1      34.552  32.652  28.210  1.00  0.00     0.060 A 
ATOM      9  C   UNL A   1      34.558  30.328  27.455  1.00  0.00     0.037 A 
ATOM     10  C   UNL A   1      33.876  31.535  27.681  1.00  0.00     0.029 A 
ATOM     11  C   UNL A   1      35.932  30.270  27.765  1.00  0.00     0.052 A 
ATOM     12  C   UNL A   1      36.604  31.389  28.279  1.00  0.00     0.022 A 
ATOM     13  Cl  UNL A   1      36.863  28.823  27.568  1.00  0.00    -0.084 Cl
ATOM     14  C   UNL A   1      35.916  32.580  28.506  1.00  0.00     0.017 A 
BRANCH   9  15
ATOM     15  C   UNL A   1      33.811  29.125  27.097  1.00  0.00     0.136 A 
ATOM     16  C   UNL A   1      33.502  27.102  26.179  1.00  0.00     0.129 A 
ATOM     17  C   UNL A   1      32.350  27.467  26.877  1.00  0.00     0.051 A 
ATOM     18  O   UNL A   1      34.420  28.139  26.362  1.00  0.00    -0.457 OA
ATOM     19  C   UNL A   1      32.526  28.755  27.409  1.00  0.00     0.051 A 
BRANCH  16  20
ATOM     20  C   UNL A   1      33.758  25.882  25.441  1.00  0.00     0.072 C 
ATOM     21  C   UNL A   1      33.262  25.643  24.193  1.00  0.00     0.121 C 
BRANCH  21  22
ATOM     22  C   UNL A   1      32.849  26.916  23.472  1.00  0.00     0.105 C 
ATOM     23  N   UNL A   1      32.506  27.972  22.874  1.00  0.00    -0.192 NA
ENDBRANCH  21  22
BRANCH  21  24
ATOM     24  C   UNL A   1      33.472  24.388  23.447  1.00  0.00     0.264 C 
ATOM     25  O   UNL A   1      34.394  24.326  22.639  1.00  0.00    -0.268 OA
ATOM     26  N   UNL A   1      32.619  23.330  23.705  1.00  0.00    -0.333 N 
ATOM     27  C   UNL A   1      31.273  23.357  24.295  1.00  0.00     0.148 C 
ATOM     28  C   UNL A   1      33.098  21.972  23.452  1.00  0.00     0.148 C 
ATOM     29  C   UNL A   1      31.221  22.502  25.569  1.00  0.00     0.181 C 
ATOM     30  C   UNL A   1      33.024  21.199  24.769  1.00  0.00     0.181 C 
ATOM     31  O   UNL A   1      31.688  21.176  25.307  1.00  0.00    -0.378 OA
ENDBRANCH  21  24
ENDBRANCH  16  20
ENDBRANCH   9  15
ENDBRANCH   6   8
ENDBRANCH   5   6
ENDBRANCH   4   5
ENDBRANCH   3   4
ENDBRANCH   2   3
ENDBRANCH   1   2
BRANCH   1  32
ATOM     32  C   UNL A   1      38.380  32.973  31.385  1.00  0.00     0.188 C 
BRANCH  32  33
ATOM     33  O   UNL A   1      39.055  31.807  31.797  1.00  0.00    -0.376 OA
BRANCH  33  34
ATOM     34  C   UNL A   1      38.468  30.533  31.601  1.00  0.00     0.202 C 
BRANCH  34  35
ATOM     35  C   UNL A   1      39.240  29.220  31.363  1.00  0.00     0.261 C 
BRANCH  35  36
ATOM     36  O   UNL A   1      40.259  29.213  30.360  1.00  0.00    -0.460 OA
BRANCH  36  37
ATOM     37  C   UNL A   1      40.585  27.993  29.871  1.00  0.00     0.338 C 
ATOM     38  O   UNL A   1      39.862  27.237  29.232  1.00  0.00    -0.246 OA
BRANCH  37  39
ATOM     39  C   UNL A   1      42.026  27.766  30.063  1.00  0.00     0.060 A 
ATOM     40  C   UNL A   1      42.616  26.626  29.498  1.00  0.00     0.016 A 
ATOM     41  C   UNL A   1      42.785  28.654  30.825  1.00  0.00     0.016 A 
ATOM     42  C   UNL A   1      43.970  26.364  29.708  1.00  0.00     0.010 A 
ATOM     43  C   UNL A   1      44.135  28.376  31.054  1.00  0.00     0.010 A 
ATOM     44  C   UNL A   1      44.729  27.218  30.520  1.00  0.00    -0.014 A 
BRANCH  44  45
ATOM     45  C   UNL A   1      46.095  26.824  30.945  1.00  0.00     0.031 A 
ATOM     46  C   UNL A   1      47.271  27.361  30.172  1.00  0.00     0.074 A 
ATOM     47  C   UNL A   1      46.291  26.027  32.014  1.00  0.00     0.049 A 
ATOM     48  N   UNL A   1      48.535  27.033  30.251  1.00  0.00    -0.248 NA
ATOM     49  C   UNL A   1      46.983  28.414  29.184  1.00  0.00     0.031 C 
ATOM     50  C   UNL A   1      45.236  25.461  32.855  1.00  0.00     0.029 A 
ATOM     51  N   UNL A   1      47.454  25.535  32.556  1.00  0.00    -0.354 N 
ATOM     52  C   UNL A   1      49.196  27.854  29.342  1.00  0.00     0.074 A 
ATOM     53  C   UNL A   1      48.185  28.640  28.669  1.00  0.00     0.031 C 
ATOM     54  C   UNL A   1      45.796  24.658  33.777  1.00  0.00     0.029 A 
ATOM     55  C   UNL A   1      47.243  24.633  33.576  1.00  0.00     0.049 A 
ATOM     56  H   UNL A   1      48.349  25.799  32.247  1.00  0.00     0.167 HD
ATOM     57  C   UNL A   1      50.528  27.998  29.147  1.00  0.00     0.031 A 
ATOM     58  C   UNL A   1      48.113  23.844  34.239  1.00  0.00     0.031 A 
ATOM     59  C   UNL A   1      51.539  27.307  29.905  1.00  0.00     0.049 A 
ATOM     60  C   UNL A   1      49.586  23.952  33.927  1.00  0.00     0.074 A 
ATOM     61  C   UNL A   1      52.908  27.514  29.885  1.00  0.00     0.029 A 
ATOM     62  N   UNL A   1      51.297  26.324  30.852  1.00  0.00    -0.354 N 
ATOM     63  N   UNL A   1      50.189  24.686  33.019  1.00  0.00    -0.248 NA
ATOM     64  C   UNL A   1      50.499  23.130  34.735  1.00  0.00     0.031 C 
ATOM     65  C   UNL A   1      53.494  26.658  30.821  1.00  0.00     0.029 A 
ATOM     66  C   UNL A   1      52.486  25.955  31.459  1.00  0.00     0.049 A 
ATOM     67  H   UNL A   1      50.413  25.946  31.063  1.00  0.00     0.167 HD
ATOM     68  C   UNL A   1      51.551  24.455  33.192  1.00  0.00     0.074 A 
ATOM     69  C   UNL A   1      51.684  23.504  34.275  1.00  0.00     0.031 C 
ATOM     70  C   UNL A   1      52.602  24.996  32.528  1.00  0.00     0.031 A 
BRANCH  57  71
ATOM     71  C   UNL A   1      50.992  29.011  28.135  1.00  0.00    -0.014 A 
ATOM     72  C   UNL A   1      51.065  28.695  26.764  1.00  0.00     0.010 A 
ATOM     73  C   UNL A   1      51.245  30.330  28.550  1.00  0.00     0.010 A 
ATOM     74  C   UNL A   1      51.410  29.676  25.832  1.00  0.00     0.020 A 
ATOM     75  C   UNL A   1      51.563  31.320  27.616  1.00  0.00     0.020 A 
ATOM     76  C   UNL A   1      51.652  30.984  26.263  1.00  0.00     0.054 A 
BRANCH  76  77
ATOM     77  S   UNL A   1      52.042  32.253  25.027  1.00  0.00     0.124 S 
ATOM     78  O   UNL A   1      52.491  31.444  23.896  1.00  0.00    -0.237 OA
ATOM     79  O   UNL A   1      50.760  32.928  24.846  1.00  0.00    -0.237 OA
ATOM     80  O   UNL A   1      53.081  33.055  25.668  1.00  0.00    -0.744 OA
ENDBRANCH  76  77
ENDBRANCH  57  71
BRANCH  58  81
ATOM     81  C   UNL A   1      47.620  22.836  35.221  1.00  0.00    -0.014 A 
ATOM     82  C   UNL A   1      47.428  23.161  36.575  1.00  0.00     0.010 A 
ATOM     83  C   UNL A   1      47.393  21.511  34.803  1.00  0.00     0.010 A 
ATOM     84  C   UNL A   1      47.072  22.170  37.501  1.00  0.00     0.020 A 
ATOM     85  C   UNL A   1      47.005  20.527  35.716  1.00  0.00     0.020 A 
ATOM     86  C   UNL A   1      46.871  20.857  37.065  1.00  0.00     0.054 A 
BRANCH  86  87
ATOM     87  S   UNL A   1      46.426  19.579  38.276  1.00  0.00     0.124 S 
ATOM     88  O   UNL A   1      47.712  18.935  38.527  1.00  0.00    -0.237 OA
ATOM     89  O   UNL A   1      45.883  20.359  39.384  1.00  0.00    -0.237 OA
ATOM     90  O   UNL A   1      45.448  18.758  37.565  1.00  0.00    -0.744 OA
ENDBRANCH  86  87
ENDBRANCH  58  81
BRANCH  70  91
ATOM     91  C   UNL A   1      53.986  24.612  32.982  1.00  0.00    -0.014 A 
ATOM     92  C   UNL A   1      54.732  23.637  32.297  1.00  0.00     0.010 A 
ATOM     93  C   UNL A   1      54.571  25.273  34.079  1.00  0.00     0.010 A 
ATOM     94  C   UNL A   1      56.028  23.316  32.712  1.00  0.00     0.020 A 
ATOM     95  C   UNL A   1      55.878  24.979  34.477  1.00  0.00     0.020 A 
ATOM     96  C   UNL A   1      56.595  23.993  33.796  1.00  0.00     0.054 A 
BRANCH  96  97
ATOM     97  S   UNL A   1      58.300  23.601  34.273  1.00  0.00     0.124 S 
ATOM     98  O   UNL A   1      58.533  22.343  33.568  1.00  0.00    -0.237 OA
ATOM     99  O   UNL A   1      59.046  24.751  33.768  1.00  0.00    -0.237 OA
ATOM    100  O   UNL A   1      58.239  23.496  35.729  1.00  0.00    -0.744 OA
ENDBRANCH  96  97
ENDBRANCH  70  91
ENDBRANCH  44  45
ENDBRANCH  37  39
ENDBRANCH  36  37
ENDBRANCH  35  36
ENDBRANCH  34  35
ENDBRANCH  33  34
ENDBRANCH  32  33
ENDBRANCH   1  32
TORSDOF 24
ENDMDL
