MODEL 1
REMARK VINA RESULT:      -8.5      0.000      0.000
REMARK SMILES O=C(CCCC[C@@H]1CCSS1)OCCOCCOCCOC(=O)c1ccc(-c2c3nc(c(-c4ccc(S(=O)(=O)[O-])cc4)c4ccc([nH]4)c(-c4ccc(S(=O)(=O)[O-])cc4)c4nc(c(-c5ccc(S(=O)(=O)[O-])cc5)c5ccc2[nH]5)C=C4)C=C3)cc1
REMARK SMILES IDX 16 1 15 2 14 3 13 4 12 5 2 6 1 7 3 8 4 9 5 10 6 11 7 12 8 13
REMARK SMILES IDX 11 14 9 15 10 16 17 17 18 18 19 19 20 20 21 21 22 22 23 23
REMARK SMILES IDX 24 24 25 25 83 26 26 27 82 28 27 29 28 30 29 31 76 32 30 33
REMARK SMILES IDX 81 34 75 35 77 36 31 37 80 38 74 39 73 40 32 42 62 43 43 44
REMARK SMILES IDX 61 45 44 46 47 47 60 48 78 49 45 50 46 51 59 53 79 54 48 55
REMARK SMILES IDX 33 56 34 57 42 58 35 59 41 60 36 61 37 62 38 63 39 64 40 65
REMARK SMILES IDX 63 66 64 67 72 68 65 69 71 70 66 71 67 72 68 73 69 74 70 75
REMARK SMILES IDX 49 76 50 77 58 78 51 79 57 80 52 81 53 82 54 83 55 84 56 85
REMARK H PARENT 77 41 47 52
REMARK Flexibility Score: inf
ROOT
ATOM      1  C   UNL A   1      39.600  20.819  26.101  1.00  0.00     0.188 C 
ENDROOT
BRANCH   1   2
ATOM      2  O   UNL A   1      39.039  22.111  25.877  1.00  0.00    -0.376 OA
BRANCH   2   3
ATOM      3  C   UNL A   1      37.850  22.143  25.098  1.00  0.00     0.202 C 
BRANCH   3   4
ATOM      4  C   UNL A   1      36.929  23.269  25.537  1.00  0.00     0.261 C 
BRANCH   4   5
ATOM      5  O   UNL A   1      35.648  22.779  25.959  1.00  0.00    -0.463 OA
BRANCH   5   6
ATOM      6  C   UNL A   1      34.518  23.457  25.629  1.00  0.00     0.305 C 
ATOM      7  O   UNL A   1      34.592  24.516  25.015  1.00  0.00    -0.252 OA
BRANCH   6   8
ATOM      8  C   UNL A   1      33.210  22.958  26.212  1.00  0.00     0.123 C 
BRANCH   8   9
ATOM      9  C   UNL A   1      32.746  21.583  25.727  1.00  0.00     0.012 C 
BRANCH   9  10
ATOM     10  C   UNL A   1      32.757  21.337  24.210  1.00  0.00     0.002 C 
BRANCH  10  11
ATOM     11  C   UNL A   1      32.452  19.899  23.751  1.00  0.00     0.015 C 
BRANCH  11  12
ATOM     12  C   UNL A   1      33.364  18.735  24.196  1.00  0.00     0.059 C 
ATOM     13  C   UNL A   1      33.447  17.664  23.087  1.00  0.00     0.027 C 
ATOM     14  S   UNL A   1      32.937  17.903  25.758  1.00  0.00    -0.091 SA
ATOM     15  C   UNL A   1      33.974  16.338  23.619  1.00  0.00     0.083 C 
ATOM     16  S   UNL A   1      32.951  15.983  25.055  1.00  0.00    -0.094 SA
ENDBRANCH  11  12
ENDBRANCH  10  11
ENDBRANCH   9  10
ENDBRANCH   8   9
ENDBRANCH   6   8
ENDBRANCH   5   6
ENDBRANCH   4   5
ENDBRANCH   3   4
ENDBRANCH   2   3
ENDBRANCH   1   2
BRANCH   1  17
ATOM     17  C   UNL A   1      40.805  20.774  27.047  1.00  0.00     0.188 C 
BRANCH  17  18
ATOM     18  O   UNL A   1      41.635  21.929  27.116  1.00  0.00    -0.376 OA
BRANCH  18  19
ATOM     19  C   UNL A   1      42.470  22.243  26.005  1.00  0.00     0.202 C 
BRANCH  19  20
ATOM     20  C   UNL A   1      42.718  23.727  25.748  1.00  0.00     0.261 C 
BRANCH  20  21
ATOM     21  O   UNL A   1      41.965  24.564  26.643  1.00  0.00    -0.460 OA
BRANCH  21  22
ATOM     22  C   UNL A   1      41.627  25.785  26.165  1.00  0.00     0.338 C 
ATOM     23  O   UNL A   1      41.586  26.138  25.001  1.00  0.00    -0.246 OA
BRANCH  22  24
ATOM     24  C   UNL A   1      41.193  26.642  27.283  1.00  0.00     0.060 A 
ATOM     25  C   UNL A   1      41.858  27.856  27.497  1.00  0.00     0.016 A 
ATOM     26  C   UNL A   1      40.202  26.206  28.164  1.00  0.00     0.016 A 
ATOM     27  C   UNL A   1      41.551  28.627  28.620  1.00  0.00     0.010 A 
ATOM     28  C   UNL A   1      39.907  26.973  29.292  1.00  0.00     0.010 A 
ATOM     29  C   UNL A   1      40.598  28.171  29.541  1.00  0.00    -0.014 A 
BRANCH  29  30
ATOM     30  C   UNL A   1      40.376  28.877  30.825  1.00  0.00     0.031 A 
ATOM     31  C   UNL A   1      39.354  29.978  30.886  1.00  0.00     0.074 A 
ATOM     32  C   UNL A   1      41.130  28.585  31.901  1.00  0.00     0.049 A 
ATOM     33  N   UNL A   1      39.114  30.829  31.849  1.00  0.00    -0.248 NA
ATOM     34  C   UNL A   1      38.493  30.149  29.702  1.00  0.00     0.031 C 
ATOM     35  C   UNL A   1      42.133  27.522  31.969  1.00  0.00     0.029 A 
ATOM     36  N   UNL A   1      41.192  29.186  33.134  1.00  0.00    -0.354 N 
ATOM     37  C   UNL A   1      38.096  31.653  31.381  1.00  0.00     0.074 A 
ATOM     38  C   UNL A   1      37.764  31.201  30.047  1.00  0.00     0.031 C 
ATOM     39  C   UNL A   1      42.739  27.570  33.168  1.00  0.00     0.029 A 
ATOM     40  C   UNL A   1      42.196  28.692  33.933  1.00  0.00     0.049 A 
ATOM     41  H   UNL A   1      40.579  29.901  33.417  1.00  0.00     0.167 HD
ATOM     42  C   UNL A   1      37.501  32.695  32.006  1.00  0.00     0.031 A 
ATOM     43  C   UNL A   1      42.657  29.125  35.123  1.00  0.00     0.031 A 
ATOM     44  C   UNL A   1      37.836  33.136  33.333  1.00  0.00     0.049 A 
ATOM     45  C   UNL A   1      42.022  30.331  35.767  1.00  0.00     0.074 A 
ATOM     46  C   UNL A   1      37.247  34.146  34.076  1.00  0.00     0.029 A 
ATOM     47  N   UNL A   1      38.857  32.612  34.109  1.00  0.00    -0.354 N 
ATOM     48  N   UNL A   1      41.018  31.061  35.339  1.00  0.00    -0.248 NA
ATOM     49  C   UNL A   1      42.585  30.776  37.050  1.00  0.00     0.031 C 
ATOM     50  C   UNL A   1      37.953  34.272  35.276  1.00  0.00     0.029 A 
ATOM     51  C   UNL A   1      38.946  33.306  35.303  1.00  0.00     0.049 A 
ATOM     52  H   UNL A   1      39.434  31.857  33.850  1.00  0.00     0.167 HD
ATOM     53  C   UNL A   1      40.821  32.039  36.309  1.00  0.00     0.074 A 
ATOM     54  C   UNL A   1      41.793  31.797  37.354  1.00  0.00     0.031 C 
ATOM     55  C   UNL A   1      39.918  33.050  36.333  1.00  0.00     0.031 A 
BRANCH  42  56
ATOM     56  C   UNL A   1      36.447  33.464  31.259  1.00  0.00    -0.014 A 
ATOM     57  C   UNL A   1      36.677  33.942  29.958  1.00  0.00     0.010 A 
ATOM     58  C   UNL A   1      35.172  33.624  31.834  1.00  0.00     0.010 A 
ATOM     59  C   UNL A   1      35.652  34.576  29.248  1.00  0.00     0.020 A 
ATOM     60  C   UNL A   1      34.140  34.239  31.121  1.00  0.00     0.020 A 
ATOM     61  C   UNL A   1      34.389  34.717  29.833  1.00  0.00     0.054 A 
BRANCH  61  62
ATOM     62  S   UNL A   1      33.061  35.484  28.864  1.00  0.00     0.124 S 
ATOM     63  O   UNL A   1      32.532  34.342  28.123  1.00  0.00    -0.237 OA
ATOM     64  O   UNL A   1      32.182  36.025  29.897  1.00  0.00    -0.237 OA
ATOM     65  O   UNL A   1      33.754  36.483  28.054  1.00  0.00    -0.744 OA
ENDBRANCH  61  62
ENDBRANCH  42  56
BRANCH  43  66
ATOM     66  C   UNL A   1      43.829  28.462  35.760  1.00  0.00    -0.014 A 
ATOM     67  C   UNL A   1      43.649  27.403  36.668  1.00  0.00     0.010 A 
ATOM     68  C   UNL A   1      45.133  28.914  35.489  1.00  0.00     0.010 A 
ATOM     69  C   UNL A   1      44.750  26.836  37.319  1.00  0.00     0.020 A 
ATOM     70  C   UNL A   1      46.238  28.331  36.114  1.00  0.00     0.020 A 
ATOM     71  C   UNL A   1      46.036  27.307  37.041  1.00  0.00     0.054 A 
BRANCH  71  72
ATOM     72  S   UNL A   1      47.449  26.552  37.894  1.00  0.00     0.124 S 
ATOM     73  O   UNL A   1      47.043  26.647  39.293  1.00  0.00    -0.237 OA
ATOM     74  O   UNL A   1      47.475  25.204  37.333  1.00  0.00    -0.237 OA
ATOM     75  O   UNL A   1      48.574  27.401  37.511  1.00  0.00    -0.744 OA
ENDBRANCH  71  72
ENDBRANCH  43  66
BRANCH  55  76
ATOM     76  C   UNL A   1      39.922  33.963  37.530  1.00  0.00    -0.014 A 
ATOM     77  C   UNL A   1      40.775  35.079  37.585  1.00  0.00     0.010 A 
ATOM     78  C   UNL A   1      39.006  33.745  38.576  1.00  0.00     0.010 A 
ATOM     79  C   UNL A   1      40.724  35.952  38.675  1.00  0.00     0.020 A 
ATOM     80  C   UNL A   1      38.935  34.630  39.654  1.00  0.00     0.020 A 
ATOM     81  C   UNL A   1      39.802  35.724  39.701  1.00  0.00     0.054 A 
BRANCH  81  82
ATOM     82  S   UNL A   1      39.712  36.909  41.073  1.00  0.00     0.124 S 
ATOM     83  O   UNL A   1      38.775  36.252  41.981  1.00  0.00    -0.237 OA
ATOM     84  O   UNL A   1      41.096  36.972  41.535  1.00  0.00    -0.237 OA
ATOM     85  O   UNL A   1      39.215  38.130  40.442  1.00  0.00    -0.744 OA
ENDBRANCH  81  82
ENDBRANCH  55  76
ENDBRANCH  29  30
ENDBRANCH  22  24
ENDBRANCH  21  22
ENDBRANCH  20  21
ENDBRANCH  19  20
ENDBRANCH  18  19
ENDBRANCH  17  18
ENDBRANCH   1  17
TORSDOF 24
ENDMDL
MODEL 2
REMARK VINA RESULT:      -7.6      2.321      3.141
REMARK SMILES O=C(CCCC[C@@H]1CCSS1)OCCOCCOCCOC(=O)c1ccc(-c2c3nc(c(-c4ccc(S(=O)(=O)[O-])cc4)c4ccc([nH]4)c(-c4ccc(S(=O)(=O)[O-])cc4)c4nc(c(-c5ccc(S(=O)(=O)[O-])cc5)c5ccc2[nH]5)C=C4)C=C3)cc1
REMARK SMILES IDX 16 1 15 2 14 3 13 4 12 5 2 6 1 7 3 8 4 9 5 10 6 11 7 12 8 13
REMARK SMILES IDX 11 14 9 15 10 16 17 17 18 18 19 19 20 20 21 21 22 22 23 23
REMARK SMILES IDX 24 24 25 25 83 26 26 27 82 28 27 29 28 30 29 31 76 32 30 33
REMARK SMILES IDX 81 34 75 35 77 36 31 37 80 38 74 39 73 40 32 42 62 43 43 44
REMARK SMILES IDX 61 45 44 46 47 47 60 48 78 49 45 50 46 51 59 53 79 54 48 55
REMARK SMILES IDX 33 56 34 57 42 58 35 59 41 60 36 61 37 62 38 63 39 64 40 65
REMARK SMILES IDX 63 66 64 67 72 68 65 69 71 70 66 71 67 72 68 73 69 74 70 75
REMARK SMILES IDX 49 76 50 77 58 78 51 79 57 80 52 81 53 82 54 83 55 84 56 85
REMARK H PARENT 77 41 47 52
REMARK Flexibility Score: inf
ROOT
ATOM      1  C   UNL A   1      39.223  20.626  25.369  1.00  0.00     0.188 C 
ENDROOT
BRANCH   1   2
ATOM      2  O   UNL A   1      38.443  21.815  25.482  1.00  0.00    -0.376 OA
BRANCH   2   3
ATOM      3  C   UNL A   1      37.045  21.660  25.278  1.00  0.00     0.202 C 
BRANCH   3   4
ATOM      4  C   UNL A   1      36.258  22.768  25.958  1.00  0.00     0.261 C 
BRANCH   4   5
ATOM      5  O   UNL A   1      34.856  22.685  25.666  1.00  0.00    -0.463 OA
BRANCH   5   6
ATOM      6  C   UNL A   1      34.436  22.149  24.491  1.00  0.00     0.305 C 
ATOM      7  O   UNL A   1      34.041  20.989  24.449  1.00  0.00    -0.252 OA
BRANCH   6   8
ATOM      8  C   UNL A   1      34.662  22.965  23.233  1.00  0.00     0.123 C 
BRANCH   8   9
ATOM      9  C   UNL A   1      34.268  24.441  23.316  1.00  0.00     0.012 C 
BRANCH   9  10
ATOM     10  C   UNL A   1      32.898  24.765  23.933  1.00  0.00     0.002 C 
BRANCH  10  11
ATOM     11  C   UNL A   1      32.198  26.034  23.411  1.00  0.00     0.015 C 
BRANCH  11  12
ATOM     12  C   UNL A   1      32.742  27.429  23.790  1.00  0.00     0.059 C 
ATOM     13  C   UNL A   1      33.378  27.393  25.196  1.00  0.00     0.027 C 
ATOM     14  S   UNL A   1      31.565  28.816  23.735  1.00  0.00    -0.091 SA
ATOM     15  C   UNL A   1      33.546  28.791  25.777  1.00  0.00     0.083 C 
ATOM     16  S   UNL A   1      31.927  29.554  25.607  1.00  0.00    -0.094 SA
ENDBRANCH  11  12
ENDBRANCH  10  11
ENDBRANCH   9  10
ENDBRANCH   8   9
ENDBRANCH   6   8
ENDBRANCH   5   6
ENDBRANCH   4   5
ENDBRANCH   3   4
ENDBRANCH   2   3
ENDBRANCH   1   2
BRANCH   1  17
ATOM     17  C   UNL A   1      40.319  20.448  26.427  1.00  0.00     0.188 C 
BRANCH  17  18
ATOM     18  O   UNL A   1      41.160  21.563  26.702  1.00  0.00    -0.376 OA
BRANCH  18  19
ATOM     19  C   UNL A   1      42.338  21.745  25.920  1.00  0.00     0.202 C 
BRANCH  19  20
ATOM     20  C   UNL A   1      43.130  23.023  26.186  1.00  0.00     0.261 C 
BRANCH  20  21
ATOM     21  O   UNL A   1      42.359  23.996  26.910  1.00  0.00    -0.460 OA
BRANCH  21  22
ATOM     22  C   UNL A   1      42.426  25.267  26.446  1.00  0.00     0.338 C 
ATOM     23  O   UNL A   1      42.689  25.628  25.314  1.00  0.00    -0.246 OA
BRANCH  22  24
ATOM     24  C   UNL A   1      42.018  26.197  27.514  1.00  0.00     0.060 A 
ATOM     25  C   UNL A   1      42.905  27.210  27.899  1.00  0.00     0.016 A 
ATOM     26  C   UNL A   1      40.810  26.012  28.188  1.00  0.00     0.016 A 
ATOM     27  C   UNL A   1      42.596  28.026  28.989  1.00  0.00     0.010 A 
ATOM     28  C   UNL A   1      40.510  26.821  29.285  1.00  0.00     0.010 A 
ATOM     29  C   UNL A   1      41.413  27.813  29.708  1.00  0.00    -0.014 A 
BRANCH  29  30
ATOM     30  C   UNL A   1      41.140  28.543  30.969  1.00  0.00     0.031 A 
ATOM     31  C   UNL A   1      40.058  29.587  30.987  1.00  0.00     0.074 A 
ATOM     32  C   UNL A   1      41.898  28.326  32.058  1.00  0.00     0.049 A 
ATOM     33  N   UNL A   1      39.762  30.453  31.922  1.00  0.00    -0.248 NA
ATOM     34  C   UNL A   1      39.201  29.675  29.792  1.00  0.00     0.031 C 
ATOM     35  C   UNL A   1      42.958  27.322  32.167  1.00  0.00     0.029 A 
ATOM     36  N   UNL A   1      41.915  28.967  33.273  1.00  0.00    -0.354 N 
ATOM     37  C   UNL A   1      38.706  31.205  31.420  1.00  0.00     0.074 A 
ATOM     38  C   UNL A   1      38.411  30.695  30.099  1.00  0.00     0.031 C 
ATOM     39  C   UNL A   1      43.548  27.441  33.369  1.00  0.00     0.029 A 
ATOM     40  C   UNL A   1      42.937  28.553  34.095  1.00  0.00     0.049 A 
ATOM     41  H   UNL A   1      41.261  29.655  33.529  1.00  0.00     0.167 HD
ATOM     42  C   UNL A   1      38.048  32.230  32.008  1.00  0.00     0.031 A 
ATOM     43  C   UNL A   1      43.362  29.047  35.275  1.00  0.00     0.031 A 
ATOM     44  C   UNL A   1      38.346  32.730  33.324  1.00  0.00     0.049 A 
ATOM     45  C   UNL A   1      42.655  30.235  35.876  1.00  0.00     0.074 A 
ATOM     46  C   UNL A   1      37.694  33.727  34.030  1.00  0.00     0.029 A 
ATOM     47  N   UNL A   1      39.386  32.287  34.124  1.00  0.00    -0.354 N 
ATOM     48  N   UNL A   1      41.617  30.895  35.418  1.00  0.00    -0.248 NA
ATOM     49  C   UNL A   1      43.181  30.750  37.149  1.00  0.00     0.031 C 
ATOM     50  C   UNL A   1      38.381  33.929  35.231  1.00  0.00     0.029 A 
ATOM     51  C   UNL A   1      39.425  33.020  35.296  1.00  0.00     0.049 A 
ATOM     52  H   UNL A   1      40.006  31.557  33.892  1.00  0.00     0.167 HD
ATOM     53  C   UNL A   1      41.358  31.890  36.356  1.00  0.00     0.074 A 
ATOM     54  C   UNL A   1      42.332  31.733  37.415  1.00  0.00     0.031 C 
ATOM     55  C   UNL A   1      40.400  32.849  36.341  1.00  0.00     0.031 A 
BRANCH  42  56
ATOM     56  C   UNL A   1      36.960  32.917  31.229  1.00  0.00    -0.014 A 
ATOM     57  C   UNL A   1      37.260  33.772  30.155  1.00  0.00     0.010 A 
ATOM     58  C   UNL A   1      35.614  32.623  31.517  1.00  0.00     0.010 A 
ATOM     59  C   UNL A   1      36.231  34.329  29.389  1.00  0.00     0.020 A 
ATOM     60  C   UNL A   1      34.585  33.161  30.742  1.00  0.00     0.020 A 
ATOM     61  C   UNL A   1      34.900  34.017  29.685  1.00  0.00     0.054 A 
BRANCH  61  62
ATOM     62  S   UNL A   1      33.590  34.701  28.633  1.00  0.00     0.124 S 
ATOM     63  O   UNL A   1      33.421  33.644  27.639  1.00  0.00    -0.237 OA
ATOM     64  O   UNL A   1      32.481  34.866  29.569  1.00  0.00    -0.237 OA
ATOM     65  O   UNL A   1      34.165  35.945  28.127  1.00  0.00    -0.744 OA
ENDBRANCH  61  62
ENDBRANCH  42  56
BRANCH  43  66
ATOM     66  C   UNL A   1      44.562  28.469  35.941  1.00  0.00    -0.014 A 
ATOM     67  C   UNL A   1      44.432  27.434  36.884  1.00  0.00     0.010 A 
ATOM     68  C   UNL A   1      45.843  28.981  35.662  1.00  0.00     0.010 A 
ATOM     69  C   UNL A   1      45.556  26.948  37.560  1.00  0.00     0.020 A 
ATOM     70  C   UNL A   1      46.972  28.479  36.314  1.00  0.00     0.020 A 
ATOM     71  C   UNL A   1      46.818  27.478  37.274  1.00  0.00     0.054 A 
BRANCH  71  72
ATOM     72  S   UNL A   1      48.262  26.829  38.161  1.00  0.00     0.124 S 
ATOM     73  O   UNL A   1      48.650  27.971  38.983  1.00  0.00    -0.237 OA
ATOM     74  O   UNL A   1      47.704  25.690  38.885  1.00  0.00    -0.237 OA
ATOM     75  O   UNL A   1      49.194  26.483  37.091  1.00  0.00    -0.744 OA
ENDBRANCH  71  72
ENDBRANCH  43  66
BRANCH  55  76
ATOM     76  C   UNL A   1      40.342  33.798  37.509  1.00  0.00    -0.014 A 
ATOM     77  C   UNL A   1      39.580  33.493  38.650  1.00  0.00     0.010 A 
ATOM     78  C   UNL A   1      41.120  34.970  37.495  1.00  0.00     0.010 A 
ATOM     79  C   UNL A   1      39.584  34.353  39.752  1.00  0.00     0.020 A 
ATOM     80  C   UNL A   1      41.146  35.819  38.604  1.00  0.00     0.020 A 
ATOM     81  C   UNL A   1      40.370  35.509  39.723  1.00  0.00     0.054 A 
BRANCH  81  82
ATOM     82  S   UNL A   1      40.407  36.576  41.190  1.00  0.00     0.124 S 
ATOM     83  O   UNL A   1      39.016  36.536  41.631  1.00  0.00    -0.237 OA
ATOM     84  O   UNL A   1      41.363  35.895  42.059  1.00  0.00    -0.237 OA
ATOM     85  O   UNL A   1      40.858  37.865  40.669  1.00  0.00    -0.744 OA
ENDBRANCH  81  82
ENDBRANCH  55  76
ENDBRANCH  29  30
ENDBRANCH  22  24
ENDBRANCH  21  22
ENDBRANCH  20  21
ENDBRANCH  19  20
ENDBRANCH  18  19
ENDBRANCH  17  18
ENDBRANCH   1  17
TORSDOF 24
ENDMDL
MODEL 3
REMARK VINA RESULT:      -7.6      2.321      3.253
REMARK SMILES O=C(CCCC[C@@H]1CCSS1)OCCOCCOCCOC(=O)c1ccc(-c2c3nc(c(-c4ccc(S(=O)(=O)[O-])cc4)c4ccc([nH]4)c(-c4ccc(S(=O)(=O)[O-])cc4)c4nc(c(-c5ccc(S(=O)(=O)[O-])cc5)c5ccc2[nH]5)C=C4)C=C3)cc1
REMARK SMILES IDX 16 1 15 2 14 3 13 4 12 5 2 6 1 7 3 8 4 9 5 10 6 11 7 12 8 13
REMARK SMILES IDX 11 14 9 15 10 16 17 17 18 18 19 19 20 20 21 21 22 22 23 23
REMARK SMILES IDX 24 24 25 25 83 26 26 27 82 28 27 29 28 30 29 31 76 32 30 33
REMARK SMILES IDX 81 34 75 35 77 36 31 37 80 38 74 39 73 40 32 42 62 43 43 44
REMARK SMILES IDX 61 45 44 46 47 47 60 48 78 49 45 50 46 51 59 53 79 54 48 55
REMARK SMILES IDX 33 56 34 57 42 58 35 59 41 60 36 61 37 62 38 63 39 64 40 65
REMARK SMILES IDX 63 66 64 67 72 68 65 69 71 70 66 71 67 72 68 73 69 74 70 75
REMARK SMILES IDX 49 76 50 77 58 78 51 79 57 80 52 81 53 82 54 83 55 84 56 85
REMARK H PARENT 77 41 47 52
REMARK Flexibility Score: inf
ROOT
ATOM      1  C   UNL A   1      40.211  25.314  26.761  1.00  0.00     0.188 C 
ENDROOT
BRANCH   1   2
ATOM      2  O   UNL A   1      39.179  24.333  26.676  1.00  0.00    -0.376 OA
BRANCH   2   3
ATOM      3  C   UNL A   1      39.608  22.978  26.725  1.00  0.00     0.202 C 
BRANCH   3   4
ATOM      4  C   UNL A   1      38.847  22.119  25.729  1.00  0.00     0.261 C 
BRANCH   4   5
ATOM      5  O   UNL A   1      37.481  21.923  26.124  1.00  0.00    -0.463 OA
BRANCH   5   6
ATOM      6  C   UNL A   1      36.521  21.737  25.181  1.00  0.00     0.305 C 
ATOM      7  O   UNL A   1      36.639  22.247  24.072  1.00  0.00    -0.252 OA
BRANCH   6   8
ATOM      8  C   UNL A   1      35.240  21.054  25.618  1.00  0.00     0.123 C 
BRANCH   8   9
ATOM      9  C   UNL A   1      34.485  21.724  26.767  1.00  0.00     0.012 C 
BRANCH   9  10
ATOM     10  C   UNL A   1      33.192  22.475  26.411  1.00  0.00     0.002 C 
BRANCH  10  11
ATOM     11  C   UNL A   1      32.514  22.075  25.088  1.00  0.00     0.015 C 
BRANCH  11  12
ATOM     12  C   UNL A   1      32.524  23.047  23.888  1.00  0.00     0.059 C 
ATOM     13  C   UNL A   1      33.583  24.150  24.100  1.00  0.00     0.027 C 
ATOM     14  S   UNL A   1      30.947  23.849  23.462  1.00  0.00    -0.091 SA
ATOM     15  C   UNL A   1      33.354  25.340  23.178  1.00  0.00     0.083 C 
ATOM     16  S   UNL A   1      31.626  25.777  23.417  1.00  0.00    -0.094 SA
ENDBRANCH  11  12
ENDBRANCH  10  11
ENDBRANCH   9  10
ENDBRANCH   8   9
ENDBRANCH   6   8
ENDBRANCH   5   6
ENDBRANCH   4   5
ENDBRANCH   3   4
ENDBRANCH   2   3
ENDBRANCH   1   2
BRANCH   1  17
ATOM     17  C   UNL A   1      41.588  24.874  26.251  1.00  0.00     0.188 C 
BRANCH  17  18
ATOM     18  O   UNL A   1      42.714  25.133  27.084  1.00  0.00    -0.376 OA
BRANCH  18  19
ATOM     19  C   UNL A   1      43.817  25.856  26.544  1.00  0.00     0.202 C 
BRANCH  19  20
ATOM     20  C   UNL A   1      44.207  27.136  27.280  1.00  0.00     0.261 C 
BRANCH  20  21
ATOM     21  O   UNL A   1      43.980  28.309  26.480  1.00  0.00    -0.460 OA
BRANCH  21  22
ATOM     22  C   UNL A   1      42.689  28.696  26.352  1.00  0.00     0.338 C 
ATOM     23  O   UNL A   1      41.975  28.579  25.373  1.00  0.00    -0.246 OA
BRANCH  22  24
ATOM     24  C   UNL A   1      42.204  29.206  27.646  1.00  0.00     0.060 A 
ATOM     25  C   UNL A   1      42.804  30.351  28.186  1.00  0.00     0.016 A 
ATOM     26  C   UNL A   1      41.229  28.507  28.361  1.00  0.00     0.016 A 
ATOM     27  C   UNL A   1      42.449  30.783  29.466  1.00  0.00     0.010 A 
ATOM     28  C   UNL A   1      40.886  28.934  29.645  1.00  0.00     0.010 A 
ATOM     29  C   UNL A   1      41.513  30.056  30.214  1.00  0.00    -0.014 A 
BRANCH  29  30
ATOM     30  C   UNL A   1      41.245  30.386  31.634  1.00  0.00     0.031 A 
ATOM     31  C   UNL A   1      39.998  31.152  31.982  1.00  0.00     0.074 A 
ATOM     32  C   UNL A   1      42.140  30.070  32.587  1.00  0.00     0.049 A 
ATOM     33  N   UNL A   1      39.648  31.684  33.124  1.00  0.00    -0.248 NA
ATOM     34  C   UNL A   1      39.019  31.351  30.900  1.00  0.00     0.031 C 
ATOM     35  C   UNL A   1      43.371  29.308  32.373  1.00  0.00     0.029 A 
ATOM     36  N   UNL A   1      42.167  30.386  33.923  1.00  0.00    -0.354 N 
ATOM     37  C   UNL A   1      38.425  32.304  32.894  1.00  0.00     0.074 A 
ATOM     38  C   UNL A   1      38.093  32.082  31.503  1.00  0.00     0.031 C 
ATOM     39  C   UNL A   1      44.053  29.248  33.530  1.00  0.00     0.029 A 
ATOM     40  C   UNL A   1      43.328  30.001  34.552  1.00  0.00     0.049 A 
ATOM     41  H   UNL A   1      41.428  30.842  34.384  1.00  0.00     0.167 HD
ATOM     42  C   UNL A   1      37.657  32.999  33.763  1.00  0.00     0.031 A 
ATOM     43  C   UNL A   1      43.777  30.269  35.794  1.00  0.00     0.031 A 
ATOM     44  C   UNL A   1      37.994  33.214  35.145  1.00  0.00     0.049 A 
ATOM     45  C   UNL A   1      42.932  31.105  36.721  1.00  0.00     0.074 A 
ATOM     46  C   UNL A   1      37.249  33.854  36.120  1.00  0.00     0.029 A 
ATOM     47  N   UNL A   1      39.177  32.811  35.743  1.00  0.00    -0.354 N 
ATOM     48  N   UNL A   1      41.748  31.631  36.508  1.00  0.00    -0.248 NA
ATOM     49  C   UNL A   1      43.485  31.390  38.053  1.00  0.00     0.031 C 
ATOM     50  C   UNL A   1      38.010  33.893  37.293  1.00  0.00     0.029 A 
ATOM     51  C   UNL A   1      39.203  33.228  37.062  1.00  0.00     0.049 A 
ATOM     52  H   UNL A   1      39.891  32.302  35.297  1.00  0.00     0.167 HD
ATOM     53  C   UNL A   1      41.411  32.292  37.684  1.00  0.00     0.074 A 
ATOM     54  C   UNL A   1      42.502  32.085  38.612  1.00  0.00     0.031 C 
ATOM     55  C   UNL A   1      40.297  33.011  37.972  1.00  0.00     0.031 A 
BRANCH  42  56
ATOM     56  C   UNL A   1      36.386  33.618  33.250  1.00  0.00    -0.014 A 
ATOM     57  C   UNL A   1      35.160  32.935  33.324  1.00  0.00     0.010 A 
ATOM     58  C   UNL A   1      36.405  34.943  32.776  1.00  0.00     0.010 A 
ATOM     59  C   UNL A   1      33.977  33.564  32.923  1.00  0.00     0.020 A 
ATOM     60  C   UNL A   1      35.224  35.582  32.394  1.00  0.00     0.020 A 
ATOM     61  C   UNL A   1      34.016  34.885  32.464  1.00  0.00     0.054 A 
BRANCH  61  62
ATOM     62  S   UNL A   1      32.457  35.697  32.015  1.00  0.00     0.124 S 
ATOM     63  O   UNL A   1      31.487  34.945  32.806  1.00  0.00    -0.237 OA
ATOM     64  O   UNL A   1      32.680  37.076  32.440  1.00  0.00    -0.237 OA
ATOM     65  O   UNL A   1      32.367  35.501  30.570  1.00  0.00    -0.744 OA
ENDBRANCH  61  62
ENDBRANCH  42  56
BRANCH  43  66
ATOM     66  C   UNL A   1      45.126  29.803  36.221  1.00  0.00    -0.014 A 
ATOM     67  C   UNL A   1      46.266  30.590  35.982  1.00  0.00     0.010 A 
ATOM     68  C   UNL A   1      45.279  28.547  36.837  1.00  0.00     0.010 A 
ATOM     69  C   UNL A   1      47.537  30.113  36.318  1.00  0.00     0.020 A 
ATOM     70  C   UNL A   1      46.545  28.079  37.201  1.00  0.00     0.020 A 
ATOM     71  C   UNL A   1      47.668  28.858  36.920  1.00  0.00     0.054 A 
BRANCH  71  72
ATOM     72  S   UNL A   1      49.328  28.261  37.352  1.00  0.00     0.124 S 
ATOM     73  O   UNL A   1      49.024  27.131  38.224  1.00  0.00    -0.237 OA
ATOM     74  O   UNL A   1      49.891  27.921  36.048  1.00  0.00    -0.237 OA
ATOM     75  O   UNL A   1      49.944  29.411  38.009  1.00  0.00    -0.744 OA
ENDBRANCH  71  72
ENDBRANCH  43  66
BRANCH  55  76
ATOM     76  C   UNL A   1      40.190  33.614  39.347  1.00  0.00    -0.014 A 
ATOM     77  C   UNL A   1      39.631  32.887  40.413  1.00  0.00     0.010 A 
ATOM     78  C   UNL A   1      40.724  34.892  39.592  1.00  0.00     0.010 A 
ATOM     79  C   UNL A   1      39.593  33.436  41.697  1.00  0.00     0.020 A 
ATOM     80  C   UNL A   1      40.710  35.434  40.880  1.00  0.00     0.020 A 
ATOM     81  C   UNL A   1      40.136  34.705  41.923  1.00  0.00     0.054 A 
BRANCH  81  82
ATOM     82  S   UNL A   1      40.132  35.368  43.612  1.00  0.00     0.124 S 
ATOM     83  O   UNL A   1      41.464  35.959  43.711  1.00  0.00    -0.237 OA
ATOM     84  O   UNL A   1      39.024  36.318  43.583  1.00  0.00    -0.237 OA
ATOM     85  O   UNL A   1      39.912  34.188  44.446  1.00  0.00    -0.744 OA
ENDBRANCH  81  82
ENDBRANCH  55  76
ENDBRANCH  29  30
ENDBRANCH  22  24
ENDBRANCH  21  22
ENDBRANCH  20  21
ENDBRANCH  19  20
ENDBRANCH  18  19
ENDBRANCH  17  18
ENDBRANCH   1  17
TORSDOF 24
ENDMDL
