MODEL 1
REMARK VINA RESULT:      -9.4      0.000      0.000
REMARK SMILES Cc1cccc(O[C@H](C)C(=O)N2CCC[C@@H](C(=O)OCCOCCOCCOC(=O)c3ccc(-c4c5nc(c(-c6ccc(S(=O)(=O)[O-])cc6)c6ccc([nH]6)c(-c6ccc(S(=O)(=O)[O-])cc6)c6nc(c(-c7ccc(S(=O)(=O)[O-])cc7)c7ccc4[nH]7)C=C6)C=C5)cc3)C2)c1
REMARK SMILES IDX 23 1 22 2 21 3 20 4 19 5 17 6 18 7 16 8 12 9 13 10 91 11
REMARK SMILES IDX 14 12 15 13 10 14 11 15 8 16 9 17 7 18 6 19 1 20 2 21 3 22
REMARK SMILES IDX 92 23 4 24 5 25 24 26 25 27 26 28 27 29 28 30 29 31 30 32
REMARK SMILES IDX 31 33 32 34 90 35 33 36 89 37 34 38 35 39 36 40 83 41 37 42
REMARK SMILES IDX 88 43 82 44 84 45 38 46 87 47 81 48 80 49 39 51 69 52 50 53
REMARK SMILES IDX 68 54 51 55 54 56 67 57 85 58 52 59 53 60 66 62 86 63 55 64
REMARK SMILES IDX 40 65 41 66 49 67 42 68 48 69 43 70 44 71 45 72 46 73 47 74
REMARK SMILES IDX 70 75 71 76 79 77 72 78 78 79 73 80 74 81 75 82 76 83 77 84
REMARK SMILES IDX 56 85 57 86 65 87 58 88 64 89 59 90 60 91 61 92 62 93 63 94
REMARK H PARENT 84 50 54 61
REMARK Flexibility Score: inf
ROOT
ATOM      1  C   UNL A   1      35.465  29.980  28.338  1.00  0.00     0.188 C 
ENDROOT
BRANCH   1   2
ATOM      2  O   UNL A   1      34.463  29.249  27.643  1.00  0.00    -0.376 OA
BRANCH   2   3
ATOM      3  C   UNL A   1      34.194  29.712  26.322  1.00  0.00     0.202 C 
BRANCH   3   4
ATOM      4  C   UNL A   1      32.776  29.712  25.719  1.00  0.00     0.261 C 
BRANCH   4   5
ATOM      5  O   UNL A   1      31.684  28.796  26.041  1.00  0.00    -0.463 OA
BRANCH   5   6
ATOM      6  C   UNL A   1      31.532  27.660  26.781  1.00  0.00     0.310 C 
ATOM      7  O   UNL A   1      31.268  27.634  27.977  1.00  0.00    -0.252 OA
BRANCH   6   8
ATOM      8  C   UNL A   1      31.878  26.146  26.056  1.00  0.00     0.119 C 
ATOM      9  N   UNL A   1      32.132  22.706  25.985  1.00  0.00    -0.339 N 
ATOM     10  C   UNL A   1      31.251  22.654  24.571  1.00  0.00     0.119 C 
ATOM     11  C   UNL A   1      32.069  24.133  26.962  1.00  0.00     0.134 C 
ATOM     12  C   UNL A   1      30.865  24.146  23.571  1.00  0.00     0.022 C 
ATOM     13  C   UNL A   1      31.335  25.916  24.101  1.00  0.00     0.019 C 
BRANCH   9  14
ATOM     14  C   UNL A   1      33.207  21.826  26.223  1.00  0.00     0.263 C 
ATOM     15  O   UNL A   1      33.340  21.321  27.348  1.00  0.00    -0.271 OA
BRANCH  14  16
ATOM     16  C   UNL A   1      34.290  21.416  25.060  1.00  0.00     0.259 C 
ATOM     17  C   UNL A   1      35.010  22.473  24.203  1.00  0.00     0.064 C 
BRANCH  16  18
ATOM     18  O   UNL A   1      35.090  20.231  25.102  1.00  0.00    -0.481 OA
BRANCH  18  19
ATOM     19  C   UNL A   1      34.655  19.036  24.626  1.00  0.00     0.120 A 
ATOM     20  C   UNL A   1      32.029  18.099  22.054  1.00  0.00     0.044 C 
ATOM     21  C   UNL A   1      33.067  17.975  23.121  1.00  0.00    -0.047 A 
ATOM     22  C   UNL A   1      33.551  16.717  23.481  1.00  0.00     0.003 A 
ATOM     23  C   UNL A   1      33.594  19.120  23.734  1.00  0.00     0.049 A 
ATOM     24  C   UNL A   1      34.672  16.631  24.292  1.00  0.00     0.004 A 
ATOM     25  C   UNL A   1      35.265  17.800  24.789  1.00  0.00     0.046 A 
ENDBRANCH  18  19
ENDBRANCH  16  18
ENDBRANCH  14  16
ENDBRANCH   9  14
ENDBRANCH   6   8
ENDBRANCH   5   6
ENDBRANCH   4   5
ENDBRANCH   3   4
ENDBRANCH   2   3
ENDBRANCH   1   2
BRANCH   1  26
ATOM     26  C   UNL A   1      36.857  29.315  28.356  1.00  0.00     0.188 C 
BRANCH  26  27
ATOM     27  O   UNL A   1      37.903  30.220  28.720  1.00  0.00    -0.376 OA
BRANCH  27  28
ATOM     28  C   UNL A   1      38.928  29.705  29.557  1.00  0.00     0.202 C 
BRANCH  28  29
ATOM     29  C   UNL A   1      38.755  28.218  29.863  1.00  0.00     0.261 C 
BRANCH  29  30
ATOM     30  O   UNL A   1      39.937  27.537  29.430  1.00  0.00    -0.460 OA
BRANCH  30  31
ATOM     31  C   UNL A   1      39.795  26.751  28.332  1.00  0.00     0.338 C 
ATOM     32  O   UNL A   1      38.826  26.716  27.606  1.00  0.00    -0.246 OA
BRANCH  31  33
ATOM     33  C   UNL A   1      41.120  26.136  28.122  1.00  0.00     0.060 A 
ATOM     34  C   UNL A   1      41.397  24.481  28.439  1.00  0.00     0.016 A 
ATOM     35  C   UNL A   1      42.307  27.142  27.370  1.00  0.00     0.016 A 
ATOM     36  C   UNL A   1      43.021  23.854  28.135  1.00  0.00     0.010 A 
ATOM     37  C   UNL A   1      43.921  26.692  27.054  1.00  0.00     0.010 A 
ATOM     38  C   UNL A   1      44.431  25.048  27.444  1.00  0.00    -0.014 A 
BRANCH  38  39
ATOM     39  C   UNL A   1      45.906  25.684  28.006  1.00  0.00     0.031 A 
ATOM     40  C   UNL A   1      47.054  25.405  27.113  1.00  0.00     0.074 A 
ATOM     41  C   UNL A   1      46.107  26.739  28.913  1.00  0.00     0.049 A 
ATOM     42  N   UNL A   1      48.280  25.402  27.514  1.00  0.00    -0.248 NA
ATOM     43  C   UNL A   1      46.914  25.072  25.695  1.00  0.00     0.031 C 
ATOM     44  C   UNL A   1      47.178  27.756  28.943  1.00  0.00     0.029 A 
ATOM     45  N   UNL A   1      45.347  27.215  29.988  1.00  0.00    -0.354 N 
ATOM     46  C   UNL A   1      49.035  25.534  26.373  1.00  0.00     0.074 A 
ATOM     47  C   UNL A   1      48.196  25.012  25.323  1.00  0.00     0.031 C 
ATOM     48  C   UNL A   1      47.062  28.574  30.022  1.00  0.00     0.029 A 
ATOM     49  C   UNL A   1      45.915  28.162  30.816  1.00  0.00     0.049 A 
ATOM     50  H   UNL A   1      44.433  26.884  30.148  1.00  0.00     0.167 HD
ATOM     51  C   UNL A   1      50.136  26.343  26.379  1.00  0.00     0.031 A 
ATOM     52  C   UNL A   1      45.781  28.061  32.174  1.00  0.00     0.031 A 
ATOM     53  C   UNL A   1      50.364  26.973  27.704  1.00  0.00     0.049 A 
ATOM     54  C   UNL A   1      47.068  27.401  32.586  1.00  0.00     0.074 A 
ATOM     55  C   UNL A   1      50.486  28.289  28.128  1.00  0.00     0.029 A 
ATOM     56  N   UNL A   1      50.226  26.220  28.878  1.00  0.00    -0.354 N 
ATOM     57  N   UNL A   1      47.813  26.817  31.687  1.00  0.00    -0.248 NA
ATOM     58  C   UNL A   1      47.713  27.441  33.893  1.00  0.00     0.031 C 
ATOM     59  C   UNL A   1      50.366  28.314  29.552  1.00  0.00     0.029 A 
ATOM     60  C   UNL A   1      50.175  27.018  30.007  1.00  0.00     0.049 A 
ATOM     61  H   UNL A   1      50.172  25.237  28.896  1.00  0.00     0.167 HD
ATOM     62  C   UNL A   1      49.062  26.690  32.161  1.00  0.00     0.074 A 
ATOM     63  C   UNL A   1      48.934  26.953  33.585  1.00  0.00     0.031 C 
ATOM     64  C   UNL A   1      50.108  26.416  31.341  1.00  0.00     0.031 A 
BRANCH  51  65
ATOM     65  C   UNL A   1      50.895  26.766  25.121  1.00  0.00    -0.014 A 
ATOM     66  C   UNL A   1      52.154  26.193  24.850  1.00  0.00     0.010 A 
ATOM     67  C   UNL A   1      50.437  27.688  24.154  1.00  0.00     0.010 A 
ATOM     68  C   UNL A   1      52.881  26.484  23.682  1.00  0.00     0.020 A 
ATOM     69  C   UNL A   1      51.137  27.973  22.970  1.00  0.00     0.020 A 
ATOM     70  C   UNL A   1      52.353  27.354  22.733  1.00  0.00     0.054 A 
BRANCH  70  71
ATOM     71  S   UNL A   1      53.229  27.609  21.171  1.00  0.00     0.124 S 
ATOM     72  O   UNL A   1      52.133  27.749  20.217  1.00  0.00    -0.237 OA
ATOM     73  O   UNL A   1      53.995  28.823  21.439  1.00  0.00    -0.237 OA
ATOM     74  O   UNL A   1      54.030  26.395  21.019  1.00  0.00    -0.744 OA
ENDBRANCH  70  71
ENDBRANCH  51  65
BRANCH  52  75
ATOM     75  C   UNL A   1      44.383  27.787  32.683  1.00  0.00    -0.014 A 
ATOM     76  C   UNL A   1      44.122  26.484  33.173  1.00  0.00     0.010 A 
ATOM     77  C   UNL A   1      43.525  28.818  33.113  1.00  0.00     0.010 A 
ATOM     78  C   UNL A   1      43.190  26.255  34.206  1.00  0.00     0.020 A 
ATOM     79  C   UNL A   1      42.619  28.602  34.178  1.00  0.00     0.020 A 
ATOM     80  C   UNL A   1      42.501  27.333  34.758  1.00  0.00     0.054 A 
BRANCH  80  81
ATOM     81  S   UNL A   1      41.741  27.146  36.415  1.00  0.00     0.124 S 
ATOM     82  O   UNL A   1      40.937  25.940  36.254  1.00  0.00    -0.237 OA
ATOM     83  O   UNL A   1      42.895  27.010  37.304  1.00  0.00    -0.237 OA
ATOM     84  O   UNL A   1      40.980  28.386  36.571  1.00  0.00    -0.744 OA
ENDBRANCH  80  81
ENDBRANCH  52  75
BRANCH  64  85
ATOM     85  C   UNL A   1      51.205  25.540  31.818  1.00  0.00    -0.014 A 
ATOM     86  C   UNL A   1      52.470  26.053  32.142  1.00  0.00     0.010 A 
ATOM     87  C   UNL A   1      50.924  24.197  32.123  1.00  0.00     0.010 A 
ATOM     88  C   UNL A   1      53.470  25.217  32.610  1.00  0.00     0.020 A 
ATOM     89  C   UNL A   1      51.897  23.368  32.659  1.00  0.00     0.020 A 
ATOM     90  C   UNL A   1      53.178  23.874  32.844  1.00  0.00     0.054 A 
BRANCH  90  91
ATOM     91  S   UNL A   1      54.511  22.792  33.370  1.00  0.00     0.124 S 
ATOM     92  O   UNL A   1      53.939  22.196  34.576  1.00  0.00    -0.237 OA
ATOM     93  O   UNL A   1      54.658  21.889  32.231  1.00  0.00    -0.237 OA
ATOM     94  O   UNL A   1      55.630  23.703  33.590  1.00  0.00    -0.744 OA
ENDBRANCH  90  91
ENDBRANCH  64  85
ENDBRANCH  38  39
ENDBRANCH  31  33
ENDBRANCH  30  31
ENDBRANCH  29  30
ENDBRANCH  28  29
ENDBRANCH  27  28
ENDBRANCH  26  27
ENDBRANCH   1  26
TORSDOF 24
ENDMDL
MODEL 2
REMARK VINA RESULT:      -9.3      6.854     10.875
REMARK SMILES Cc1cccc(O[C@H](C)C(=O)N2CCC[C@@H](C(=O)OCCOCCOCCOC(=O)c3ccc(-c4c5nc(c(-c6ccc(S(=O)(=O)[O-])cc6)c6ccc([nH]6)c(-c6ccc(S(=O)(=O)[O-])cc6)c6nc(c(-c7ccc(S(=O)(=O)[O-])cc7)c7ccc4[nH]7)C=C6)C=C5)cc3)C2)c1
REMARK SMILES IDX 23 1 22 2 21 3 20 4 19 5 17 6 18 7 16 8 12 9 13 10 91 11
REMARK SMILES IDX 14 12 15 13 10 14 11 15 8 16 9 17 7 18 6 19 1 20 2 21 3 22
REMARK SMILES IDX 92 23 4 24 5 25 24 26 25 27 26 28 27 29 28 30 29 31 30 32
REMARK SMILES IDX 31 33 32 34 90 35 33 36 89 37 34 38 35 39 36 40 83 41 37 42
REMARK SMILES IDX 88 43 82 44 84 45 38 46 87 47 81 48 80 49 39 51 69 52 50 53
REMARK SMILES IDX 68 54 51 55 54 56 67 57 85 58 52 59 53 60 66 62 86 63 55 64
REMARK SMILES IDX 40 65 41 66 49 67 42 68 48 69 43 70 44 71 45 72 46 73 47 74
REMARK SMILES IDX 70 75 71 76 79 77 72 78 78 79 73 80 74 81 75 82 76 83 77 84
REMARK SMILES IDX 56 85 57 86 65 87 58 88 64 89 59 90 60 91 61 92 62 93 63 94
REMARK H PARENT 84 50 54 61
REMARK Flexibility Score: inf
ROOT
ATOM      1  C   UNL A   1      33.578  35.793  30.713  1.00  0.00     0.188 C 
ENDROOT
BRANCH   1   2
ATOM      2  O   UNL A   1      32.523  35.436  29.828  1.00  0.00    -0.376 OA
BRANCH   2   3
ATOM      3  C   UNL A   1      32.948  34.972  28.549  1.00  0.00     0.202 C 
BRANCH   3   4
ATOM      4  C   UNL A   1      33.324  33.501  28.287  1.00  0.00     0.261 C 
BRANCH   4   5
ATOM      5  O   UNL A   1      34.404  32.745  28.916  1.00  0.00    -0.463 OA
BRANCH   5   6
ATOM      6  C   UNL A   1      35.647  33.017  29.407  1.00  0.00     0.310 C 
ATOM      7  O   UNL A   1      36.105  34.143  29.565  1.00  0.00    -0.252 OA
BRANCH   6   8
ATOM      8  C   UNL A   1      36.730  31.720  29.691  1.00  0.00     0.119 C 
ATOM      9  N   UNL A   1      37.750  28.772  31.166  1.00  0.00    -0.339 N 
ATOM     10  C   UNL A   1      38.109  28.130  29.670  1.00  0.00     0.119 C 
ATOM     11  C   UNL A   1      36.713  30.154  31.259  1.00  0.00     0.134 C 
ATOM     12  C   UNL A   1      38.174  29.133  28.133  1.00  0.00     0.022 C 
ATOM     13  C   UNL A   1      37.733  30.988  28.070  1.00  0.00     0.019 C 
BRANCH   9  14
ATOM     14  C   UNL A   1      38.540  28.499  32.299  1.00  0.00     0.263 C 
ATOM     15  O   UNL A   1      38.221  27.566  33.051  1.00  0.00    -0.271 OA
BRANCH  14  16
ATOM     16  C   UNL A   1      39.893  29.354  32.664  1.00  0.00     0.259 C 
ATOM     17  C   UNL A   1      41.006  28.782  33.559  1.00  0.00     0.064 C 
BRANCH  16  18
ATOM     18  O   UNL A   1      40.455  30.355  31.810  1.00  0.00    -0.481 OA
BRANCH  18  19
ATOM     19  C   UNL A   1      39.961  31.618  31.737  1.00  0.00     0.120 A 
ATOM     20  C   UNL A   1      39.963  34.222  28.979  1.00  0.00     0.044 C 
ATOM     21  C   UNL A   1      39.767  33.580  30.314  1.00  0.00    -0.047 A 
ATOM     22  C   UNL A   1      39.061  34.248  31.314  1.00  0.00     0.003 A 
ATOM     23  C   UNL A   1      40.251  32.287  30.555  1.00  0.00     0.049 A 
ATOM     24  C   UNL A   1      38.682  33.555  32.453  1.00  0.00     0.004 A 
ATOM     25  C   UNL A   1      39.066  32.216  32.615  1.00  0.00     0.046 A 
ENDBRANCH  18  19
ENDBRANCH  16  18
ENDBRANCH  14  16
ENDBRANCH   9  14
ENDBRANCH   6   8
ENDBRANCH   5   6
ENDBRANCH   4   5
ENDBRANCH   3   4
ENDBRANCH   2   3
ENDBRANCH   1   2
BRANCH   1  26
ATOM     26  C   UNL A   1      33.510  35.129  32.104  1.00  0.00     0.188 C 
BRANCH  26  27
ATOM     27  O   UNL A   1      34.797  34.776  32.617  1.00  0.00    -0.376 OA
BRANCH  27  28
ATOM     28  C   UNL A   1      34.970  34.873  34.023  1.00  0.00     0.202 C 
BRANCH  28  29
ATOM     29  C   UNL A   1      35.807  33.731  34.598  1.00  0.00     0.261 C 
BRANCH  29  30
ATOM     30  O   UNL A   1      36.941  34.303  35.260  1.00  0.00    -0.460 OA
BRANCH  30  31
ATOM     31  C   UNL A   1      37.405  33.614  36.333  1.00  0.00     0.338 C 
ATOM     32  O   UNL A   1      36.731  32.977  37.112  1.00  0.00    -0.246 OA
BRANCH  31  33
ATOM     33  C   UNL A   1      38.875  33.649  36.209  1.00  0.00     0.060 A 
ATOM     34  C   UNL A   1      39.784  34.999  36.729  1.00  0.00     0.016 A 
ATOM     35  C   UNL A   1      39.622  32.182  35.683  1.00  0.00     0.016 A 
ATOM     36  C   UNL A   1      41.539  34.919  36.543  1.00  0.00     0.010 A 
ATOM     37  C   UNL A   1      41.292  31.968  35.418  1.00  0.00     0.010 A 
ATOM     38  C   UNL A   1      42.383  33.310  35.773  1.00  0.00    -0.014 A 
BRANCH  38  39
ATOM     39  C   UNL A   1      43.256  32.918  34.367  1.00  0.00     0.031 A 
ATOM     40  C   UNL A   1      42.900  33.749  33.194  1.00  0.00     0.074 A 
ATOM     41  C   UNL A   1      44.494  32.259  34.267  1.00  0.00     0.049 A 
ATOM     42  N   UNL A   1      43.094  33.376  31.974  1.00  0.00    -0.248 NA
ATOM     43  C   UNL A   1      42.262  35.062  33.296  1.00  0.00     0.031 C 
ATOM     44  C   UNL A   1      45.587  32.461  33.296  1.00  0.00     0.029 A 
ATOM     45  N   UNL A   1      45.115  31.297  35.073  1.00  0.00    -0.354 N 
ATOM     46  C   UNL A   1      43.049  34.531  31.230  1.00  0.00     0.074 A 
ATOM     47  C   UNL A   1      42.242  35.433  32.012  1.00  0.00     0.031 C 
ATOM     48  C   UNL A   1      46.601  31.579  33.491  1.00  0.00     0.029 A 
ATOM     49  C   UNL A   1      46.264  30.698  34.599  1.00  0.00     0.049 A 
ATOM     50  H   UNL A   1      44.744  31.057  35.953  1.00  0.00     0.167 HD
ATOM     51  C   UNL A   1      43.937  34.713  30.208  1.00  0.00     0.031 A 
ATOM     52  C   UNL A   1      46.442  29.346  34.729  1.00  0.00     0.031 A 
ATOM     53  C   UNL A   1      44.852  33.555  30.045  1.00  0.00     0.049 A 
ATOM     54  C   UNL A   1      46.004  28.825  33.388  1.00  0.00     0.074 A 
ATOM     55  C   UNL A   1      46.234  33.422  30.047  1.00  0.00     0.029 A 
ATOM     56  N   UNL A   1      44.356  32.247  30.118  1.00  0.00    -0.354 N 
ATOM     57  N   UNL A   1      45.313  29.591  32.588  1.00  0.00    -0.248 NA
ATOM     58  C   UNL A   1      46.380  27.566  32.755  1.00  0.00     0.031 C 
ATOM     59  C   UNL A   1      46.550  32.033  30.175  1.00  0.00     0.029 A 
ATOM     60  C   UNL A   1      45.368  31.311  30.247  1.00  0.00     0.049 A 
ATOM     61  H   UNL A   1      43.399  32.020  30.081  1.00  0.00     0.167 HD
ATOM     62  C   UNL A   1      45.404  29.120  31.334  1.00  0.00     0.074 A 
ATOM     63  C   UNL A   1      45.951  27.781  31.493  1.00  0.00     0.031 C 
ATOM     64  C   UNL A   1      45.059  29.879  30.264  1.00  0.00     0.031 A 
BRANCH  51  65
ATOM     65  C   UNL A   1      44.151  36.044  29.486  1.00  0.00    -0.014 A 
ATOM     66  C   UNL A   1      43.227  36.449  28.502  1.00  0.00     0.010 A 
ATOM     67  C   UNL A   1      45.204  36.952  29.729  1.00  0.00     0.010 A 
ATOM     68  C   UNL A   1      43.323  37.688  27.842  1.00  0.00     0.020 A 
ATOM     69  C   UNL A   1      45.303  38.203  29.098  1.00  0.00     0.020 A 
ATOM     70  C   UNL A   1      44.347  38.571  28.166  1.00  0.00     0.054 A 
BRANCH  70  71
ATOM     71  S   UNL A   1      44.377  40.218  27.416  1.00  0.00     0.124 S 
ATOM     72  O   UNL A   1      43.137  40.232  26.645  1.00  0.00    -0.237 OA
ATOM     73  O   UNL A   1      44.407  41.092  28.585  1.00  0.00    -0.237 OA
ATOM     74  O   UNL A   1      45.602  40.213  26.616  1.00  0.00    -0.744 OA
ENDBRANCH  70  71
ENDBRANCH  51  65
BRANCH  52  75
ATOM     75  C   UNL A   1      46.156  28.770  36.097  1.00  0.00    -0.014 A 
ATOM     76  C   UNL A   1      44.937  28.066  36.256  1.00  0.00     0.010 A 
ATOM     77  C   UNL A   1      47.179  28.497  37.026  1.00  0.00     0.010 A 
ATOM     78  C   UNL A   1      44.817  26.990  37.158  1.00  0.00     0.020 A 
ATOM     79  C   UNL A   1      47.078  27.393  37.904  1.00  0.00     0.020 A 
ATOM     80  C   UNL A   1      45.918  26.609  37.921  1.00  0.00     0.054 A 
BRANCH  80  81
ATOM     81  S   UNL A   1      45.955  24.927  38.649  1.00  0.00     0.124 S 
ATOM     82  O   UNL A   1      46.321  25.197  40.036  1.00  0.00    -0.237 OA
ATOM     83  O   UNL A   1      44.589  24.441  38.450  1.00  0.00    -0.237 OA
ATOM     84  O   UNL A   1      46.979  24.246  37.857  1.00  0.00    -0.744 OA
ENDBRANCH  80  81
ENDBRANCH  52  75
BRANCH  64  85
ATOM     85  C   UNL A   1      44.408  29.244  29.093  1.00  0.00    -0.014 A 
ATOM     86  C   UNL A   1      45.157  28.649  28.067  1.00  0.00     0.010 A 
ATOM     87  C   UNL A   1      43.013  29.077  29.095  1.00  0.00     0.010 A 
ATOM     88  C   UNL A   1      44.523  28.040  26.996  1.00  0.00     0.020 A 
ATOM     89  C   UNL A   1      42.373  28.406  28.064  1.00  0.00     0.020 A 
ATOM     90  C   UNL A   1      43.133  27.944  26.995  1.00  0.00     0.054 A 
BRANCH  90  91
ATOM     91  S   UNL A   1      42.330  27.226  25.558  1.00  0.00     0.124 S 
ATOM     92  O   UNL A   1      43.158  26.044  25.326  1.00  0.00    -0.237 OA
ATOM     93  O   UNL A   1      40.979  26.961  26.046  1.00  0.00    -0.237 OA
ATOM     94  O   UNL A   1      42.432  28.273  24.546  1.00  0.00    -0.744 OA
ENDBRANCH  90  91
ENDBRANCH  64  85
ENDBRANCH  38  39
ENDBRANCH  31  33
ENDBRANCH  30  31
ENDBRANCH  29  30
ENDBRANCH  28  29
ENDBRANCH  27  28
ENDBRANCH  26  27
ENDBRANCH   1  26
TORSDOF 24
ENDMDL
MODEL 3
REMARK VINA RESULT:      -9.3     10.858     17.198
REMARK SMILES Cc1cccc(O[C@H](C)C(=O)N2CCC[C@@H](C(=O)OCCOCCOCCOC(=O)c3ccc(-c4c5nc(c(-c6ccc(S(=O)(=O)[O-])cc6)c6ccc([nH]6)c(-c6ccc(S(=O)(=O)[O-])cc6)c6nc(c(-c7ccc(S(=O)(=O)[O-])cc7)c7ccc4[nH]7)C=C6)C=C5)cc3)C2)c1
REMARK SMILES IDX 23 1 22 2 21 3 20 4 19 5 17 6 18 7 16 8 12 9 13 10 91 11
REMARK SMILES IDX 14 12 15 13 10 14 11 15 8 16 9 17 7 18 6 19 1 20 2 21 3 22
REMARK SMILES IDX 92 23 4 24 5 25 24 26 25 27 26 28 27 29 28 30 29 31 30 32
REMARK SMILES IDX 31 33 32 34 90 35 33 36 89 37 34 38 35 39 36 40 83 41 37 42
REMARK SMILES IDX 88 43 82 44 84 45 38 46 87 47 81 48 80 49 39 51 69 52 50 53
REMARK SMILES IDX 68 54 51 55 54 56 67 57 85 58 52 59 53 60 66 62 86 63 55 64
REMARK SMILES IDX 40 65 41 66 49 67 42 68 48 69 43 70 44 71 45 72 46 73 47 74
REMARK SMILES IDX 70 75 71 76 79 77 72 78 78 79 73 80 74 81 75 82 76 83 77 84
REMARK SMILES IDX 56 85 57 86 65 87 58 88 64 89 59 90 60 91 61 92 62 93 63 94
REMARK H PARENT 84 50 54 61
REMARK Flexibility Score: inf
ROOT
ATOM      1  C   UNL A   1      44.982  42.618  30.878  1.00  0.00     0.188 C 
ENDROOT
BRANCH   1   2
ATOM      2  O   UNL A   1      44.417  43.357  29.803  1.00  0.00    -0.376 OA
BRANCH   2   3
ATOM      3  C   UNL A   1      45.079  43.190  28.551  1.00  0.00     0.202 C 
BRANCH   3   4
ATOM      4  C   UNL A   1      44.586  42.195  27.482  1.00  0.00     0.261 C 
BRANCH   4   5
ATOM      5  O   UNL A   1      44.332  42.476  26.071  1.00  0.00    -0.463 OA
BRANCH   5   6
ATOM      6  C   UNL A   1      43.386  42.135  25.149  1.00  0.00     0.310 C 
ATOM      7  O   UNL A   1      42.541  41.262  25.306  1.00  0.00    -0.252 OA
BRANCH   6   8
ATOM      8  C   UNL A   1      43.450  42.848  23.592  1.00  0.00     0.119 C 
ATOM      9  N   UNL A   1      44.694  43.268  20.402  1.00  0.00    -0.339 N 
ATOM     10  C   UNL A   1      43.157  43.143  19.769  1.00  0.00     0.119 C 
ATOM     11  C   UNL A   1      44.991  42.694  22.007  1.00  0.00     0.134 C 
ATOM     12  C   UNL A   1      41.638  43.192  20.800  1.00  0.00     0.022 C 
ATOM     13  C   UNL A   1      41.663  43.280  22.705  1.00  0.00     0.019 C 
BRANCH   9  14
ATOM     14  C   UNL A   1      45.649  44.152  19.862  1.00  0.00     0.263 C 
ATOM     15  O   UNL A   1      46.734  43.702  19.462  1.00  0.00    -0.271 OA
BRANCH  14  16
ATOM     16  C   UNL A   1      45.382  45.764  19.715  1.00  0.00     0.259 C 
ATOM     17  C   UNL A   1      45.465  46.720  20.919  1.00  0.00     0.064 C 
BRANCH  16  18
ATOM     18  O   UNL A   1      45.632  46.506  18.517  1.00  0.00    -0.481 OA
BRANCH  18  19
ATOM     19  C   UNL A   1      44.666  47.215  17.880  1.00  0.00     0.120 A 
ATOM     20  C   UNL A   1      44.594  50.710  16.406  1.00  0.00     0.044 C 
ATOM     21  C   UNL A   1      44.142  49.361  16.865  1.00  0.00    -0.047 A 
ATOM     22  C   UNL A   1      42.857  48.914  16.556  1.00  0.00     0.003 A 
ATOM     23  C   UNL A   1      45.017  48.521  17.566  1.00  0.00     0.049 A 
ATOM     24  C   UNL A   1      42.534  47.584  16.776  1.00  0.00     0.004 A 
ATOM     25  C   UNL A   1      43.475  46.724  17.361  1.00  0.00     0.046 A 
ENDBRANCH  18  19
ENDBRANCH  16  18
ENDBRANCH  14  16
ENDBRANCH   9  14
ENDBRANCH   6   8
ENDBRANCH   5   6
ENDBRANCH   4   5
ENDBRANCH   3   4
ENDBRANCH   2   3
ENDBRANCH   1   2
BRANCH   1  26
ATOM     26  C   UNL A   1      43.964  42.096  31.913  1.00  0.00     0.188 C 
BRANCH  26  27
ATOM     27  O   UNL A   1      44.072  40.689  32.140  1.00  0.00    -0.376 OA
BRANCH  27  28
ATOM     28  C   UNL A   1      44.636  39.916  31.091  1.00  0.00     0.202 C 
BRANCH  28  29
ATOM     29  C   UNL A   1      45.827  39.074  31.547  1.00  0.00     0.261 C 
BRANCH  29  30
ATOM     30  O   UNL A   1      45.325  37.836  32.061  1.00  0.00    -0.460 OA
BRANCH  30  31
ATOM     31  C   UNL A   1      45.394  37.686  33.408  1.00  0.00     0.338 C 
ATOM     32  O   UNL A   1      46.160  38.266  34.146  1.00  0.00    -0.246 OA
BRANCH  31  33
ATOM     33  C   UNL A   1      44.231  36.851  33.765  1.00  0.00     0.060 A 
ATOM     34  C   UNL A   1      43.676  36.736  35.376  1.00  0.00     0.016 A 
ATOM     35  C   UNL A   1      43.368  36.154  32.440  1.00  0.00     0.016 A 
ATOM     36  C   UNL A   1      42.265  35.716  35.680  1.00  0.00     0.010 A 
ATOM     37  C   UNL A   1      42.021  35.119  32.579  1.00  0.00     0.010 A 
ATOM     38  C   UNL A   1      41.383  34.773  34.189  1.00  0.00    -0.014 A 
BRANCH  38  39
ATOM     39  C   UNL A   1      41.152  33.159  33.704  1.00  0.00     0.031 A 
ATOM     40  C   UNL A   1      42.315  32.283  33.977  1.00  0.00     0.074 A 
ATOM     41  C   UNL A   1      39.939  32.480  33.494  1.00  0.00     0.049 A 
ATOM     42  N   UNL A   1      42.539  31.183  33.340  1.00  0.00    -0.248 NA
ATOM     43  C   UNL A   1      43.344  32.589  34.971  1.00  0.00     0.031 C 
ATOM     44  C   UNL A   1      39.604  31.064  33.744  1.00  0.00     0.029 A 
ATOM     45  N   UNL A   1      38.675  32.917  33.082  1.00  0.00    -0.354 N 
ATOM     46  C   UNL A   1      43.411  30.477  34.135  1.00  0.00     0.074 A 
ATOM     47  C   UNL A   1      44.091  31.483  34.910  1.00  0.00     0.031 C 
ATOM     48  C   UNL A   1      38.337  30.771  33.350  1.00  0.00     0.029 A 
ATOM     49  C   UNL A   1      37.723  31.963  32.784  1.00  0.00     0.049 A 
ATOM     50  H   UNL A   1      38.470  33.877  33.009  1.00  0.00     0.167 HD
ATOM     51  C   UNL A   1      43.248  29.128  34.284  1.00  0.00     0.031 A 
ATOM     52  C   UNL A   1      36.934  32.098  31.673  1.00  0.00     0.031 A 
ATOM     53  C   UNL A   1      42.098  28.610  33.502  1.00  0.00     0.049 A 
ATOM     54  C   UNL A   1      37.642  31.243  30.658  1.00  0.00     0.074 A 
ATOM     55  C   UNL A   1      40.958  27.893  33.841  1.00  0.00     0.029 A 
ATOM     56  N   UNL A   1      41.880  29.049  32.190  1.00  0.00    -0.354 N 
ATOM     57  N   UNL A   1      38.873  30.864  30.874  1.00  0.00    -0.248 NA
ATOM     58  C   UNL A   1      37.077  30.621  29.466  1.00  0.00     0.031 C 
ATOM     59  C   UNL A   1      40.045  27.957  32.743  1.00  0.00     0.029 A 
ATOM     60  C   UNL A   1      40.621  28.707  31.727  1.00  0.00     0.049 A 
ATOM     61  H   UNL A   1      42.546  29.543  31.659  1.00  0.00     0.167 HD
ATOM     62  C   UNL A   1      39.150  29.799  30.106  1.00  0.00     0.074 A 
ATOM     63  C   UNL A   1      38.066  29.763  29.138  1.00  0.00     0.031 C 
ATOM     64  C   UNL A   1      40.227  29.010  30.349  1.00  0.00     0.031 A 
BRANCH  51  65
ATOM     65  C   UNL A   1      43.985  28.287  35.328  1.00  0.00    -0.014 A 
ATOM     66  C   UNL A   1      44.918  27.322  34.901  1.00  0.00     0.010 A 
ATOM     67  C   UNL A   1      43.838  28.400  36.728  1.00  0.00     0.010 A 
ATOM     68  C   UNL A   1      45.680  26.557  35.804  1.00  0.00     0.020 A 
ATOM     69  C   UNL A   1      44.606  27.663  37.644  1.00  0.00     0.020 A 
ATOM     70  C   UNL A   1      45.538  26.754  37.173  1.00  0.00     0.054 A 
BRANCH  70  71
ATOM     71  S   UNL A   1      46.624  25.868  38.319  1.00  0.00     0.124 S 
ATOM     72  O   UNL A   1      47.228  24.856  37.457  1.00  0.00    -0.237 OA
ATOM     73  O   UNL A   1      47.519  26.926  38.779  1.00  0.00    -0.237 OA
ATOM     74  O   UNL A   1      45.708  25.350  39.334  1.00  0.00    -0.744 OA
ENDBRANCH  70  71
ENDBRANCH  51  65
BRANCH  52  75
ATOM     75  C   UNL A   1      36.299  33.456  31.474  1.00  0.00    -0.014 A 
ATOM     76  C   UNL A   1      35.249  33.541  30.527  1.00  0.00     0.010 A 
ATOM     77  C   UNL A   1      36.362  34.466  32.454  1.00  0.00     0.010 A 
ATOM     78  C   UNL A   1      34.190  34.459  30.678  1.00  0.00     0.020 A 
ATOM     79  C   UNL A   1      35.282  35.362  32.633  1.00  0.00     0.020 A 
ATOM     80  C   UNL A   1      34.175  35.312  31.779  1.00  0.00     0.054 A 
BRANCH  80  81
ATOM     81  S   UNL A   1      32.590  36.085  32.282  1.00  0.00     0.124 S 
ATOM     82  O   UNL A   1      32.992  36.908  33.417  1.00  0.00    -0.237 OA
ATOM     83  O   UNL A   1      32.181  36.827  31.089  1.00  0.00    -0.237 OA
ATOM     84  O   UNL A   1      31.752  34.933  32.614  1.00  0.00    -0.744 OA
ENDBRANCH  80  81
ENDBRANCH  52  75
BRANCH  64  85
ATOM     85  C   UNL A   1      40.977  28.421  29.214  1.00  0.00    -0.014 A 
ATOM     86  C   UNL A   1      40.970  27.041  28.963  1.00  0.00     0.010 A 
ATOM     87  C   UNL A   1      41.561  29.277  28.263  1.00  0.00     0.010 A 
ATOM     88  C   UNL A   1      41.659  26.519  27.880  1.00  0.00     0.020 A 
ATOM     89  C   UNL A   1      42.190  28.769  27.137  1.00  0.00     0.020 A 
ATOM     90  C   UNL A   1      42.281  27.390  26.988  1.00  0.00     0.054 A 
BRANCH  90  91
ATOM     91  S   UNL A   1      43.238  26.687  25.640  1.00  0.00     0.124 S 
ATOM     92  O   UNL A   1      42.177  26.218  24.749  1.00  0.00    -0.237 OA
ATOM     93  O   UNL A   1      44.002  27.834  25.159  1.00  0.00    -0.237 OA
ATOM     94  O   UNL A   1      44.025  25.639  26.284  1.00  0.00    -0.744 OA
ENDBRANCH  90  91
ENDBRANCH  64  85
ENDBRANCH  38  39
ENDBRANCH  31  33
ENDBRANCH  30  31
ENDBRANCH  29  30
ENDBRANCH  28  29
ENDBRANCH  27  28
ENDBRANCH  26  27
ENDBRANCH   1  26
TORSDOF 24
ENDMDL
