MODEL 1
REMARK VINA RESULT:      -9.2      0.000      0.000
REMARK SMILES CC(C)[C@H](/N=C1\C(=O)C(=O)[C@H]1[NH+]1CCCC1)C(=O)OCCOCCOCCOC(=O)c1ccc(-c2c3nc(c(-c4ccc(S(=O)(=O)[O-])cc4)c4ccc([nH]4)c(-c4ccc(S(=O)(=O)[O-])cc4)c4nc(c(-c5ccc(S(=O)(=O)[O-])cc5)c5ccc2[nH]5)C=C4)C=C3)cc1
REMARK SMILES IDX 24 1 23 2 22 3 21 4 20 5 19 6 17 7 18 8 4 9 2 10 1 11 3 12
REMARK SMILES IDX 5 13 6 14 7 15 11 16 8 17 9 18 10 19 12 20 13 21 16 22 14 24
REMARK SMILES IDX 15 25 25 26 26 27 27 28 28 29 29 30 30 31 31 32 32 33 90 34
REMARK SMILES IDX 33 35 89 36 34 37 35 38 36 39 83 40 37 41 88 42 82 43 84 44
REMARK SMILES IDX 38 45 87 46 81 47 80 48 39 50 69 51 50 52 68 53 51 54 54 55
REMARK SMILES IDX 67 56 85 57 52 58 53 59 66 61 86 62 55 63 40 64 41 65 49 66
REMARK SMILES IDX 42 67 48 68 43 69 44 70 45 71 46 72 47 73 70 74 71 75 79 76
REMARK SMILES IDX 72 77 78 78 73 79 74 80 75 81 76 82 77 83 56 84 57 85 65 86
REMARK SMILES IDX 58 87 64 88 59 89 60 90 61 91 62 92 63 93
REMARK H PARENT 12 23 84 49 54 60
REMARK Flexibility Score: inf
ROOT
ATOM      1  C   UNL A   1      34.747  33.175  28.579  1.00  0.00     0.188 C 
ENDROOT
BRANCH   1   2
ATOM      2  C   UNL A   1      35.996  32.485  28.015  1.00  0.00     0.188 C 
BRANCH   2   3
ATOM      3  O   UNL A   1      35.903  31.096  27.716  1.00  0.00    -0.376 OA
BRANCH   3   4
ATOM      4  C   UNL A   1      34.645  30.450  27.905  1.00  0.00     0.202 C 
BRANCH   4   5
ATOM      5  C   UNL A   1      34.522  29.064  27.278  1.00  0.00     0.261 C 
BRANCH   5   6
ATOM      6  O   UNL A   1      34.182  29.220  25.888  1.00  0.00    -0.462 OA
BRANCH   6   7
ATOM      7  C   UNL A   1      33.065  28.556  25.488  1.00  0.00     0.331 C 
ATOM      8  O   UNL A   1      31.939  28.822  25.887  1.00  0.00    -0.250 OA
BRANCH   7   9
ATOM      9  C   UNL A   1      33.386  27.527  24.393  1.00  0.00     0.218 C 
BRANCH   9  10
ATOM     10  C   UNL A   1      32.372  27.458  23.229  1.00  0.00     0.019 C 
ATOM     11  C   UNL A   1      31.987  28.820  22.650  1.00  0.00     0.010 C 
ATOM     12  C   UNL A   1      32.871  26.534  22.111  1.00  0.00     0.010 C 
ENDBRANCH   9  10
BRANCH   9  13
ATOM     13  N   UNL A   1      33.733  26.150  24.822  1.00  0.00    -0.264 NA
ATOM     14  C   UNL A   1      32.985  25.329  25.447  1.00  0.00     0.153 C 
ATOM     15  C   UNL A   1      31.620  25.337  26.011  1.00  0.00     0.255 C 
ATOM     16  C   UNL A   1      33.282  23.918  25.988  1.00  0.00     0.314 C 
ATOM     17  O   UNL A   1      30.645  25.988  25.801  1.00  0.00    -0.283 OA
ATOM     18  C   UNL A   1      31.894  24.040  26.730  1.00  0.00     0.268 C 
ATOM     19  O   UNL A   1      31.150  23.432  27.453  1.00  0.00    -0.283 OA
BRANCH  16  20
ATOM     20  N   UNL A   1      33.380  22.774  25.039  1.00  0.00    -0.321 N 
ATOM     21  C   UNL A   1      34.446  21.844  25.431  1.00  0.00     0.263 C 
ATOM     22  C   UNL A   1      33.618  23.100  23.633  1.00  0.00     0.263 C 
ATOM     23  H   UNL A   1      32.446  22.368  25.105  1.00  0.00     0.349 HD
ATOM     24  C   UNL A   1      35.630  22.105  24.506  1.00  0.00     0.067 C 
ATOM     25  C   UNL A   1      35.120  23.052  23.434  1.00  0.00     0.067 C 
ENDBRANCH  16  20
ENDBRANCH   9  13
ENDBRANCH   7   9
ENDBRANCH   6   7
ENDBRANCH   5   6
ENDBRANCH   4   5
ENDBRANCH   3   4
ENDBRANCH   2   3
ENDBRANCH   1   2
BRANCH   1  26
ATOM     26  O   UNL A   1      34.639  34.582  28.368  1.00  0.00    -0.376 OA
BRANCH  26  27
ATOM     27  C   UNL A   1      33.302  35.095  28.359  1.00  0.00     0.202 C 
BRANCH  27  28
ATOM     28  C   UNL A   1      32.985  35.921  29.606  1.00  0.00     0.261 C 
BRANCH  28  29
ATOM     29  O   UNL A   1      32.556  35.041  30.660  1.00  0.00    -0.460 OA
BRANCH  29  30
ATOM     30  C   UNL A   1      32.949  35.363  31.915  1.00  0.00     0.338 C 
ATOM     31  O   UNL A   1      32.304  35.985  32.742  1.00  0.00    -0.246 OA
BRANCH  30  32
ATOM     32  C   UNL A   1      34.232  34.674  32.216  1.00  0.00     0.060 A 
ATOM     33  C   UNL A   1      34.180  33.471  32.932  1.00  0.00     0.016 A 
ATOM     34  C   UNL A   1      35.465  35.166  31.766  1.00  0.00     0.016 A 
ATOM     35  C   UNL A   1      35.356  32.778  33.227  1.00  0.00     0.010 A 
ATOM     36  C   UNL A   1      36.642  34.476  32.067  1.00  0.00     0.010 A 
ATOM     37  C   UNL A   1      36.592  33.294  32.820  1.00  0.00    -0.014 A 
BRANCH  37  38
ATOM     38  C   UNL A   1      37.850  32.706  33.330  1.00  0.00     0.031 A 
ATOM     39  C   UNL A   1      38.489  31.599  32.543  1.00  0.00     0.074 A 
ATOM     40  C   UNL A   1      38.402  33.128  34.481  1.00  0.00     0.049 A 
ATOM     41  N   UNL A   1      39.554  30.894  32.821  1.00  0.00    -0.248 NA
ATOM     42  C   UNL A   1      37.839  31.242  31.270  1.00  0.00     0.031 C 
ATOM     43  C   UNL A   1      37.893  34.209  35.324  1.00  0.00     0.029 A 
ATOM     44  N   UNL A   1      39.516  32.679  35.143  1.00  0.00    -0.354 N 
ATOM     45  C   UNL A   1      39.705  30.014  31.758  1.00  0.00     0.074 A 
ATOM     46  C   UNL A   1      38.622  30.268  30.833  1.00  0.00     0.031 C 
ATOM     47  C   UNL A   1      38.689  34.332  36.402  1.00  0.00     0.029 A 
ATOM     48  C   UNL A   1      39.749  33.328  36.331  1.00  0.00     0.049 A 
ATOM     49  H   UNL A   1      40.095  31.961  34.799  1.00  0.00     0.167 HD
ATOM     50  C   UNL A   1      40.656  29.070  31.567  1.00  0.00     0.031 A 
ATOM     51  C   UNL A   1      40.699  33.118  37.262  1.00  0.00     0.031 A 
ATOM     52  C   UNL A   1      41.711  28.783  32.492  1.00  0.00     0.049 A 
ATOM     53  C   UNL A   1      41.709  32.021  37.063  1.00  0.00     0.074 A 
ATOM     54  C   UNL A   1      42.707  27.828  32.401  1.00  0.00     0.029 A 
ATOM     55  N   UNL A   1      41.899  29.449  33.693  1.00  0.00    -0.354 N 
ATOM     56  N   UNL A   1      41.840  31.199  36.049  1.00  0.00    -0.248 NA
ATOM     57  C   UNL A   1      42.691  31.818  38.138  1.00  0.00     0.031 C 
ATOM     58  C   UNL A   1      43.489  27.906  33.561  1.00  0.00     0.029 A 
ATOM     59  C   UNL A   1      42.986  28.919  34.362  1.00  0.00     0.049 A 
ATOM     60  H   UNL A   1      41.341  30.192  34.021  1.00  0.00     0.167 HD
ATOM     61  C   UNL A   1      42.920  30.382  36.364  1.00  0.00     0.074 A 
ATOM     62  C   UNL A   1      43.412  30.813  37.657  1.00  0.00     0.031 C 
ATOM     63  C   UNL A   1      43.455  29.364  35.647  1.00  0.00     0.031 A 
BRANCH  50  64
ATOM     64  C   UNL A   1      40.546  28.271  30.304  1.00  0.00    -0.014 A 
ATOM     65  C   UNL A   1      39.616  27.221  30.207  1.00  0.00     0.010 A 
ATOM     66  C   UNL A   1      41.428  28.519  29.239  1.00  0.00     0.010 A 
ATOM     67  C   UNL A   1      39.605  26.395  29.082  1.00  0.00     0.020 A 
ATOM     68  C   UNL A   1      41.415  27.698  28.109  1.00  0.00     0.020 A 
ATOM     69  C   UNL A   1      40.522  26.624  28.050  1.00  0.00     0.054 A 
BRANCH  69  70
ATOM     70  S   UNL A   1      40.544  25.511  26.619  1.00  0.00     0.124 S 
ATOM     71  O   UNL A   1      41.522  24.510  27.037  1.00  0.00    -0.237 OA
ATOM     72  O   UNL A   1      39.162  25.044  26.541  1.00  0.00    -0.237 OA
ATOM     73  O   UNL A   1      40.966  26.378  25.522  1.00  0.00    -0.744 OA
ENDBRANCH  69  70
ENDBRANCH  50  64
BRANCH  51  74
ATOM     74  C   UNL A   1      40.722  33.949  38.492  1.00  0.00    -0.014 A 
ATOM     75  C   UNL A   1      41.498  35.118  38.545  1.00  0.00     0.010 A 
ATOM     76  C   UNL A   1      39.961  33.574  39.612  1.00  0.00     0.010 A 
ATOM     77  C   UNL A   1      41.519  35.900  39.704  1.00  0.00     0.020 A 
ATOM     78  C   UNL A   1      39.970  34.359  40.768  1.00  0.00     0.020 A 
ATOM     79  C   UNL A   1      40.757  35.512  40.810  1.00  0.00     0.054 A 
BRANCH  79  80
ATOM     80  S   UNL A   1      40.734  36.558  42.294  1.00  0.00     0.124 S 
ATOM     81  O   UNL A   1      41.670  35.859  43.169  1.00  0.00    -0.237 OA
ATOM     82  O   UNL A   1      41.186  37.853  41.791  1.00  0.00    -0.237 OA
ATOM     83  O   UNL A   1      39.333  36.515  42.706  1.00  0.00    -0.744 OA
ENDBRANCH  79  80
ENDBRANCH  51  74
BRANCH  63  84
ATOM     84  C   UNL A   1      44.632  28.647  36.237  1.00  0.00    -0.014 A 
ATOM     85  C   UNL A   1      45.923  29.194  36.130  1.00  0.00     0.010 A 
ATOM     86  C   UNL A   1      44.438  27.469  36.978  1.00  0.00     0.010 A 
ATOM     87  C   UNL A   1      47.004  28.571  36.757  1.00  0.00     0.020 A 
ATOM     88  C   UNL A   1      45.517  26.848  37.612  1.00  0.00     0.020 A 
ATOM     89  C   UNL A   1      46.794  27.401  37.493  1.00  0.00     0.054 A 
BRANCH  89  90
ATOM     90  S   UNL A   1      48.188  26.643  38.374  1.00  0.00     0.124 S 
ATOM     91  O   UNL A   1      47.576  25.442  38.934  1.00  0.00    -0.237 OA
ATOM     92  O   UNL A   1      49.166  26.412  37.313  1.00  0.00    -0.237 OA
ATOM     93  O   UNL A   1      48.568  27.665  39.348  1.00  0.00    -0.744 OA
ENDBRANCH  89  90
ENDBRANCH  63  84
ENDBRANCH  37  38
ENDBRANCH  30  32
ENDBRANCH  29  30
ENDBRANCH  28  29
ENDBRANCH  27  28
ENDBRANCH  26  27
ENDBRANCH   1  26
TORSDOF 23
ENDMDL
MODEL 2
REMARK VINA RESULT:      -9.2      0.828      8.060
REMARK SMILES CC(C)[C@H](/N=C1\C(=O)C(=O)[C@H]1[NH+]1CCCC1)C(=O)OCCOCCOCCOC(=O)c1ccc(-c2c3nc(c(-c4ccc(S(=O)(=O)[O-])cc4)c4ccc([nH]4)c(-c4ccc(S(=O)(=O)[O-])cc4)c4nc(c(-c5ccc(S(=O)(=O)[O-])cc5)c5ccc2[nH]5)C=C4)C=C3)cc1
REMARK SMILES IDX 24 1 23 2 22 3 21 4 20 5 19 6 17 7 18 8 4 9 2 10 1 11 3 12
REMARK SMILES IDX 5 13 6 14 7 15 11 16 8 17 9 18 10 19 12 20 13 21 16 22 14 24
REMARK SMILES IDX 15 25 25 26 26 27 27 28 28 29 29 30 30 31 31 32 32 33 90 34
REMARK SMILES IDX 33 35 89 36 34 37 35 38 36 39 83 40 37 41 88 42 82 43 84 44
REMARK SMILES IDX 38 45 87 46 81 47 80 48 39 50 69 51 50 52 68 53 51 54 54 55
REMARK SMILES IDX 67 56 85 57 52 58 53 59 66 61 86 62 55 63 40 64 41 65 49 66
REMARK SMILES IDX 42 67 48 68 43 69 44 70 45 71 46 72 47 73 70 74 71 75 79 76
REMARK SMILES IDX 72 77 78 78 73 79 74 80 75 81 76 82 77 83 56 84 57 85 65 86
REMARK SMILES IDX 58 87 64 88 59 89 60 90 61 91 62 92 63 93
REMARK H PARENT 12 23 84 49 54 60
REMARK Flexibility Score: inf
ROOT
ATOM      1  C   UNL A   1      34.417  32.604  28.601  1.00  0.00     0.188 C 
ENDROOT
BRANCH   1   2
ATOM      2  C   UNL A   1      35.601  31.860  27.969  1.00  0.00     0.188 C 
BRANCH   2   3
ATOM      3  O   UNL A   1      35.460  30.461  27.751  1.00  0.00    -0.376 OA
BRANCH   3   4
ATOM      4  C   UNL A   1      34.192  29.972  27.318  1.00  0.00     0.202 C 
BRANCH   4   5
ATOM      5  C   UNL A   1      34.224  28.636  26.580  1.00  0.00     0.261 C 
BRANCH   5   6
ATOM      6  O   UNL A   1      33.623  28.817  25.285  1.00  0.00    -0.462 OA
BRANCH   6   7
ATOM      7  C   UNL A   1      32.418  28.209  25.117  1.00  0.00     0.331 C 
ATOM      8  O   UNL A   1      31.385  28.594  25.649  1.00  0.00    -0.250 OA
BRANCH   7   9
ATOM      9  C   UNL A   1      32.503  27.069  24.090  1.00  0.00     0.218 C 
BRANCH   9  10
ATOM     10  C   UNL A   1      31.372  27.039  23.037  1.00  0.00     0.019 C 
ATOM     11  C   UNL A   1      30.904  28.421  22.579  1.00  0.00     0.010 C 
ATOM     12  C   UNL A   1      31.764  26.188  21.823  1.00  0.00     0.010 C 
ENDBRANCH   9  10
BRANCH   9  13
ATOM     13  N   UNL A   1      32.730  25.696  24.602  1.00  0.00    -0.264 NA
ATOM     14  C   UNL A   1      31.919  24.984  25.279  1.00  0.00     0.153 C 
ATOM     15  C   UNL A   1      30.565  25.147  25.846  1.00  0.00     0.255 C 
ATOM     16  C   UNL A   1      32.095  23.588  25.905  1.00  0.00     0.314 C 
ATOM     17  O   UNL A   1      29.649  25.868  25.599  1.00  0.00    -0.283 OA
ATOM     18  C   UNL A   1      30.730  23.878  26.643  1.00  0.00     0.268 C 
ATOM     19  O   UNL A   1      29.942  23.382  27.404  1.00  0.00    -0.283 OA
BRANCH  16  20
ATOM     20  N   UNL A   1      32.085  22.384  25.028  1.00  0.00    -0.321 N 
ATOM     21  C   UNL A   1      33.299  21.580  25.208  1.00  0.00     0.263 C 
ATOM     22  C   UNL A   1      31.956  22.615  23.590  1.00  0.00     0.263 C 
ATOM     23  H   UNL A   1      31.237  21.909  25.338  1.00  0.00     0.349 HD
ATOM     24  C   UNL A   1      34.204  21.864  24.015  1.00  0.00     0.067 C 
ATOM     25  C   UNL A   1      33.368  22.676  23.041  1.00  0.00     0.067 C 
ENDBRANCH  16  20
ENDBRANCH   9  13
ENDBRANCH   7   9
ENDBRANCH   6   7
ENDBRANCH   5   6
ENDBRANCH   4   5
ENDBRANCH   3   4
ENDBRANCH   2   3
ENDBRANCH   1   2
BRANCH   1  26
ATOM     26  O   UNL A   1      34.240  33.969  28.226  1.00  0.00    -0.376 OA
BRANCH  26  27
ATOM     27  C   UNL A   1      32.931  34.500  28.457  1.00  0.00     0.202 C 
BRANCH  27  28
ATOM     28  C   UNL A   1      32.939  35.660  29.453  1.00  0.00     0.261 C 
BRANCH  28  29
ATOM     29  O   UNL A   1      32.375  35.219  30.699  1.00  0.00    -0.460 OA
BRANCH  29  30
ATOM     30  C   UNL A   1      33.002  35.630  31.828  1.00  0.00     0.338 C 
ATOM     31  O   UNL A   1      32.602  36.468  32.618  1.00  0.00    -0.246 OA
BRANCH  30  32
ATOM     32  C   UNL A   1      34.185  34.763  32.071  1.00  0.00     0.060 A 
ATOM     33  C   UNL A   1      34.010  33.620  32.862  1.00  0.00     0.016 A 
ATOM     34  C   UNL A   1      35.436  35.031  31.499  1.00  0.00     0.016 A 
ATOM     35  C   UNL A   1      35.086  32.765  33.108  1.00  0.00     0.010 A 
ATOM     36  C   UNL A   1      36.514  34.180  31.751  1.00  0.00     0.010 A 
ATOM     37  C   UNL A   1      36.348  33.059  32.577  1.00  0.00    -0.014 A 
BRANCH  37  38
ATOM     38  C   UNL A   1      37.539  32.305  33.025  1.00  0.00     0.031 A 
ATOM     39  C   UNL A   1      38.191  32.707  34.317  1.00  0.00     0.074 A 
ATOM     40  C   UNL A   1      38.049  31.302  32.291  1.00  0.00     0.049 A 
ATOM     41  N   UNL A   1      39.273  32.236  34.879  1.00  0.00    -0.248 NA
ATOM     42  C   UNL A   1      37.531  33.784  35.075  1.00  0.00     0.031 C 
ATOM     43  C   UNL A   1      37.496  30.801  31.034  1.00  0.00     0.029 A 
ATOM     44  N   UNL A   1      39.163  30.530  32.502  1.00  0.00    -0.354 N 
ATOM     45  C   UNL A   1      39.421  32.955  36.058  1.00  0.00     0.074 A 
ATOM     46  C   UNL A   1      38.324  33.895  36.129  1.00  0.00     0.031 C 
ATOM     47  C   UNL A   1      38.283  29.809  30.576  1.00  0.00     0.029 A 
ATOM     48  C   UNL A   1      39.401  29.622  31.499  1.00  0.00     0.049 A 
ATOM     49  H   UNL A   1      39.737  30.617  33.296  1.00  0.00     0.167 HD
ATOM     50  C   UNL A   1      40.388  32.850  36.999  1.00  0.00     0.031 A 
ATOM     51  C   UNL A   1      40.418  28.754  31.338  1.00  0.00     0.031 A 
ATOM     52  C   UNL A   1      41.500  31.949  36.923  1.00  0.00     0.049 A 
ATOM     53  C   UNL A   1      41.518  28.697  32.363  1.00  0.00     0.074 A 
ATOM     54  C   UNL A   1      42.546  31.787  37.813  1.00  0.00     0.029 A 
ATOM     55  N   UNL A   1      41.714  31.061  35.881  1.00  0.00    -0.354 N 
ATOM     56  N   UNL A   1      41.642  29.381  33.475  1.00  0.00    -0.248 NA
ATOM     57  C   UNL A   1      42.620  27.758  32.104  1.00  0.00     0.031 C 
ATOM     58  C   UNL A   1      43.406  30.809  37.297  1.00  0.00     0.029 A 
ATOM     59  C   UNL A   1      42.884  30.356  36.095  1.00  0.00     0.049 A 
ATOM     60  H   UNL A   1      41.121  30.949  35.103  1.00  0.00     0.167 HD
ATOM     61  C   UNL A   1      42.834  28.954  34.050  1.00  0.00     0.074 A 
ATOM     62  C   UNL A   1      43.390  27.948  33.168  1.00  0.00     0.031 C 
ATOM     63  C   UNL A   1      43.416  29.361  35.203  1.00  0.00     0.031 A 
BRANCH  50  64
ATOM     64  C   UNL A   1      40.269  33.775  38.172  1.00  0.00    -0.014 A 
ATOM     65  C   UNL A   1      40.755  35.092  38.088  1.00  0.00     0.010 A 
ATOM     66  C   UNL A   1      39.742  33.304  39.386  1.00  0.00     0.010 A 
ATOM     67  C   UNL A   1      40.763  35.910  39.219  1.00  0.00     0.020 A 
ATOM     68  C   UNL A   1      39.744  34.123  40.518  1.00  0.00     0.020 A 
ATOM     69  C   UNL A   1      40.280  35.411  40.433  1.00  0.00     0.054 A 
BRANCH  69  70
ATOM     70  S   UNL A   1      40.349  36.457  41.913  1.00  0.00     0.124 S 
ATOM     71  O   UNL A   1      38.936  36.763  42.125  1.00  0.00    -0.237 OA
ATOM     72  O   UNL A   1      40.957  35.581  42.911  1.00  0.00    -0.237 OA
ATOM     73  O   UNL A   1      41.177  37.585  41.493  1.00  0.00    -0.744 OA
ENDBRANCH  69  70
ENDBRANCH  50  64
BRANCH  51  74
ATOM     74  C   UNL A   1      40.462  27.884  30.136  1.00  0.00    -0.014 A 
ATOM     75  C   UNL A   1      39.538  26.839  29.981  1.00  0.00     0.010 A 
ATOM     76  C   UNL A   1      41.429  28.106  29.140  1.00  0.00     0.010 A 
ATOM     77  C   UNL A   1      39.580  26.021  28.848  1.00  0.00     0.020 A 
ATOM     78  C   UNL A   1      41.468  27.297  28.001  1.00  0.00     0.020 A 
ATOM     79  C   UNL A   1      40.549  26.253  27.867  1.00  0.00     0.054 A 
BRANCH  79  80
ATOM     80  S   UNL A   1      40.568  25.231  26.366  1.00  0.00     0.124 S 
ATOM     81  O   UNL A   1      41.021  26.184  25.359  1.00  0.00    -0.237 OA
ATOM     82  O   UNL A   1      41.512  24.170  26.703  1.00  0.00    -0.237 OA
ATOM     83  O   UNL A   1      39.177  24.799  26.244  1.00  0.00    -0.744 OA
ENDBRANCH  79  80
ENDBRANCH  51  74
BRANCH  63  84
ATOM     84  C   UNL A   1      44.718  28.720  35.584  1.00  0.00    -0.014 A 
ATOM     85  C   UNL A   1      44.731  27.537  36.342  1.00  0.00     0.010 A 
ATOM     86  C   UNL A   1      45.928  29.252  35.107  1.00  0.00     0.010 A 
ATOM     87  C   UNL A   1      45.940  26.893  36.619  1.00  0.00     0.020 A 
ATOM     88  C   UNL A   1      47.137  28.606  35.376  1.00  0.00     0.020 A 
ATOM     89  C   UNL A   1      47.135  27.433  36.135  1.00  0.00     0.054 A 
BRANCH  89  90
ATOM     90  S   UNL A   1      48.693  26.548  36.427  1.00  0.00     0.124 S 
ATOM     91  O   UNL A   1      49.164  27.164  37.664  1.00  0.00    -0.237 OA
ATOM     92  O   UNL A   1      48.267  25.155  36.541  1.00  0.00    -0.237 OA
ATOM     93  O   UNL A   1      49.482  26.854  35.235  1.00  0.00    -0.744 OA
ENDBRANCH  89  90
ENDBRANCH  63  84
ENDBRANCH  37  38
ENDBRANCH  30  32
ENDBRANCH  29  30
ENDBRANCH  28  29
ENDBRANCH  27  28
ENDBRANCH  26  27
ENDBRANCH   1  26
TORSDOF 23
ENDMDL
MODEL 3
REMARK VINA RESULT:      -9.1      1.566      8.148
REMARK SMILES CC(C)[C@H](/N=C1\C(=O)C(=O)[C@H]1[NH+]1CCCC1)C(=O)OCCOCCOCCOC(=O)c1ccc(-c2c3nc(c(-c4ccc(S(=O)(=O)[O-])cc4)c4ccc([nH]4)c(-c4ccc(S(=O)(=O)[O-])cc4)c4nc(c(-c5ccc(S(=O)(=O)[O-])cc5)c5ccc2[nH]5)C=C4)C=C3)cc1
REMARK SMILES IDX 24 1 23 2 22 3 21 4 20 5 19 6 17 7 18 8 4 9 2 10 1 11 3 12
REMARK SMILES IDX 5 13 6 14 7 15 11 16 8 17 9 18 10 19 12 20 13 21 16 22 14 24
REMARK SMILES IDX 15 25 25 26 26 27 27 28 28 29 29 30 30 31 31 32 32 33 90 34
REMARK SMILES IDX 33 35 89 36 34 37 35 38 36 39 83 40 37 41 88 42 82 43 84 44
REMARK SMILES IDX 38 45 87 46 81 47 80 48 39 50 69 51 50 52 68 53 51 54 54 55
REMARK SMILES IDX 67 56 85 57 52 58 53 59 66 61 86 62 55 63 40 64 41 65 49 66
REMARK SMILES IDX 42 67 48 68 43 69 44 70 45 71 46 72 47 73 70 74 71 75 79 76
REMARK SMILES IDX 72 77 78 78 73 79 74 80 75 81 76 82 77 83 56 84 57 85 65 86
REMARK SMILES IDX 58 87 64 88 59 89 60 90 61 91 62 92 63 93
REMARK H PARENT 12 23 84 49 54 60
REMARK Flexibility Score: inf
ROOT
ATOM      1  C   UNL A   1      34.714  33.187  29.216  1.00  0.00     0.188 C 
ENDROOT
BRANCH   1   2
ATOM      2  C   UNL A   1      34.261  32.502  27.920  1.00  0.00     0.188 C 
BRANCH   2   3
ATOM      3  O   UNL A   1      33.843  31.144  28.004  1.00  0.00    -0.376 OA
BRANCH   3   4
ATOM      4  C   UNL A   1      33.235  30.555  26.856  1.00  0.00     0.202 C 
BRANCH   4   5
ATOM      5  C   UNL A   1      32.261  29.416  27.145  1.00  0.00     0.261 C 
BRANCH   5   6
ATOM      6  O   UNL A   1      32.856  28.183  26.702  1.00  0.00    -0.462 OA
BRANCH   6   7
ATOM      7  C   UNL A   1      31.975  27.223  26.310  1.00  0.00     0.331 C 
ATOM      8  O   UNL A   1      31.038  26.842  26.999  1.00  0.00    -0.250 OA
BRANCH   7   9
ATOM      9  C   UNL A   1      32.238  26.779  24.863  1.00  0.00     0.218 C 
BRANCH   9  10
ATOM     10  C   UNL A   1      31.453  27.552  23.779  1.00  0.00     0.019 C 
ATOM     11  C   UNL A   1      29.980  27.787  24.118  1.00  0.00     0.010 C 
ATOM     12  C   UNL A   1      32.133  28.885  23.444  1.00  0.00     0.010 C 
ENDBRANCH   9  10
BRANCH   9  13
ATOM     13  N   UNL A   1      32.179  25.327  24.567  1.00  0.00    -0.264 NA
ATOM     14  C   UNL A   1      32.636  24.734  23.536  1.00  0.00     0.153 C 
ATOM     15  C   UNL A   1      33.318  25.128  22.286  1.00  0.00     0.255 C 
ATOM     16  C   UNL A   1      32.560  23.254  23.117  1.00  0.00     0.314 C 
ATOM     17  O   UNL A   1      33.953  26.081  21.959  1.00  0.00    -0.283 OA
ATOM     18  C   UNL A   1      33.117  23.743  21.723  1.00  0.00     0.268 C 
ATOM     19  O   UNL A   1      33.446  23.338  20.640  1.00  0.00    -0.283 OA
BRANCH  16  20
ATOM     20  N   UNL A   1      33.414  22.250  23.810  1.00  0.00    -0.321 N 
ATOM     21  C   UNL A   1      32.972  20.881  23.521  1.00  0.00     0.263 C 
ATOM     22  C   UNL A   1      33.504  22.352  25.266  1.00  0.00     0.263 C 
ATOM     23  H   UNL A   1      34.337  22.465  23.431  1.00  0.00     0.349 HD
ATOM     24  C   UNL A   1      32.211  20.388  24.747  1.00  0.00     0.067 C 
ATOM     25  C   UNL A   1      32.434  21.435  25.824  1.00  0.00     0.067 C 
ENDBRANCH  16  20
ENDBRANCH   9  13
ENDBRANCH   7   9
ENDBRANCH   6   7
ENDBRANCH   5   6
ENDBRANCH   4   5
ENDBRANCH   3   4
ENDBRANCH   2   3
ENDBRANCH   1   2
BRANCH   1  26
ATOM     26  O   UNL A   1      34.590  34.607  29.271  1.00  0.00    -0.376 OA
BRANCH  26  27
ATOM     27  C   UNL A   1      33.287  35.117  28.966  1.00  0.00     0.202 C 
BRANCH  27  28
ATOM     28  C   UNL A   1      32.717  35.975  30.097  1.00  0.00     0.261 C 
BRANCH  28  29
ATOM     29  O   UNL A   1      32.458  35.141  31.239  1.00  0.00    -0.460 OA
BRANCH  29  30
ATOM     30  C   UNL A   1      33.028  35.520  32.407  1.00  0.00     0.338 C 
ATOM     31  O   UNL A   1      32.521  36.213  33.273  1.00  0.00    -0.246 OA
BRANCH  30  32
ATOM     32  C   UNL A   1      34.319  34.803  32.575  1.00  0.00     0.060 A 
ATOM     33  C   UNL A   1      34.278  33.451  32.942  1.00  0.00     0.016 A 
ATOM     34  C   UNL A   1      35.553  35.421  32.331  1.00  0.00     0.016 A 
ATOM     35  C   UNL A   1      35.463  32.728  33.097  1.00  0.00     0.010 A 
ATOM     36  C   UNL A   1      36.738  34.701  32.493  1.00  0.00     0.010 A 
ATOM     37  C   UNL A   1      36.697  33.360  32.901  1.00  0.00    -0.014 A 
BRANCH  37  38
ATOM     38  C   UNL A   1      37.952  32.683  33.296  1.00  0.00     0.031 A 
ATOM     39  C   UNL A   1      38.482  32.920  34.681  1.00  0.00     0.074 A 
ATOM     40  C   UNL A   1      38.621  31.895  32.438  1.00  0.00     0.049 A 
ATOM     41  N   UNL A   1      39.587  32.486  35.229  1.00  0.00    -0.248 NA
ATOM     42  C   UNL A   1      37.653  33.758  35.565  1.00  0.00     0.031 C 
ATOM     43  C   UNL A   1      38.198  31.566  31.077  1.00  0.00     0.029 A 
ATOM     44  N   UNL A   1      39.812  31.233  32.591  1.00  0.00    -0.354 N 
ATOM     45  C   UNL A   1      39.584  32.992  36.522  1.00  0.00     0.074 A 
ATOM     46  C   UNL A   1      38.373  33.770  36.675  1.00  0.00     0.031 C 
ATOM     47  C   UNL A   1      39.127  30.772  30.513  1.00  0.00     0.029 A 
ATOM     48  C   UNL A   1      40.213  30.554  31.467  1.00  0.00     0.049 A 
ATOM     49  H   UNL A   1      40.331  31.243  33.428  1.00  0.00     0.167 HD
ATOM     50  C   UNL A   1      40.509  32.834  37.497  1.00  0.00     0.031 A 
ATOM     51  C   UNL A   1      41.340  29.855  31.231  1.00  0.00     0.031 A 
ATOM     52  C   UNL A   1      41.729  32.098  37.345  1.00  0.00     0.049 A 
ATOM     53  C   UNL A   1      42.386  29.744  32.306  1.00  0.00     0.074 A 
ATOM     54  C   UNL A   1      42.742  31.902  38.265  1.00  0.00     0.029 A 
ATOM     55  N   UNL A   1      42.106  31.443  36.184  1.00  0.00    -0.354 N 
ATOM     56  N   UNL A   1      42.367  30.226  33.525  1.00  0.00    -0.248 NA
ATOM     57  C   UNL A   1      43.610  29.002  31.968  1.00  0.00     0.031 C 
ATOM     58  C   UNL A   1      43.744  31.141  37.651  1.00  0.00     0.029 A 
ATOM     59  C   UNL A   1      43.344  30.853  36.355  1.00  0.00     0.049 A 
ATOM     60  H   UNL A   1      41.571  31.404  35.358  1.00  0.00     0.167 HD
ATOM     61  C   UNL A   1      43.574  29.846  34.100  1.00  0.00     0.074 A 
ATOM     62  C   UNL A   1      44.297  29.087  33.100  1.00  0.00     0.031 C 
ATOM     63  C   UNL A   1      44.042  30.104  35.345  1.00  0.00     0.031 A 
BRANCH  50  64
ATOM     64  C   UNL A   1      40.215  33.513  38.800  1.00  0.00    -0.014 A 
ATOM     65  C   UNL A   1      40.673  34.821  39.037  1.00  0.00     0.010 A 
ATOM     66  C   UNL A   1      39.548  32.814  39.820  1.00  0.00     0.010 A 
ATOM     67  C   UNL A   1      40.514  35.403  40.296  1.00  0.00     0.020 A 
ATOM     68  C   UNL A   1      39.382  33.396  41.079  1.00  0.00     0.020 A 
ATOM     69  C   UNL A   1      39.890  34.677  41.316  1.00  0.00     0.054 A 
BRANCH  69  70
ATOM     70  S   UNL A   1      39.740  35.414  42.966  1.00  0.00     0.124 S 
ATOM     71  O   UNL A   1      38.303  35.662  43.049  1.00  0.00    -0.237 OA
ATOM     72  O   UNL A   1      40.248  34.365  43.846  1.00  0.00    -0.237 OA
ATOM     73  O   UNL A   1      40.577  36.609  42.881  1.00  0.00    -0.744 OA
ENDBRANCH  69  70
ENDBRANCH  50  64
BRANCH  51  74
ATOM     74  C   UNL A   1      41.554  29.227  29.903  1.00  0.00    -0.014 A 
ATOM     75  C   UNL A   1      41.008  27.965  29.618  1.00  0.00     0.010 A 
ATOM     76  C   UNL A   1      42.301  29.896  28.918  1.00  0.00     0.010 A 
ATOM     77  C   UNL A   1      41.210  27.375  28.366  1.00  0.00     0.020 A 
ATOM     78  C   UNL A   1      42.496  29.314  27.662  1.00  0.00     0.020 A 
ATOM     79  C   UNL A   1      41.957  28.052  27.398  1.00  0.00     0.054 A 
BRANCH  79  80
ATOM     80  S   UNL A   1      42.169  27.315  25.752  1.00  0.00     0.124 S 
ATOM     81  O   UNL A   1      41.009  26.435  25.665  1.00  0.00    -0.237 OA
ATOM     82  O   UNL A   1      42.150  28.477  24.867  1.00  0.00    -0.237 OA
ATOM     83  O   UNL A   1      43.463  26.645  25.856  1.00  0.00    -0.744 OA
ENDBRANCH  79  80
ENDBRANCH  51  74
BRANCH  63  84
ATOM     84  C   UNL A   1      45.395  29.562  35.701  1.00  0.00    -0.014 A 
ATOM     85  C   UNL A   1      46.547  30.343  35.502  1.00  0.00     0.010 A 
ATOM     86  C   UNL A   1      45.507  28.305  36.320  1.00  0.00     0.010 A 
ATOM     87  C   UNL A   1      47.795  29.872  35.917  1.00  0.00     0.020 A 
ATOM     88  C   UNL A   1      46.753  27.836  36.742  1.00  0.00     0.020 A 
ATOM     89  C   UNL A   1      47.890  28.621  36.534  1.00  0.00     0.054 A 
BRANCH  89  90
ATOM     90  S   UNL A   1      49.501  28.052  37.146  1.00  0.00     0.124 S 
ATOM     91  O   UNL A   1      49.991  29.232  37.853  1.00  0.00    -0.237 OA
ATOM     92  O   UNL A   1      49.152  26.913  37.992  1.00  0.00    -0.237 OA
ATOM     93  O   UNL A   1      50.224  27.709  35.923  1.00  0.00    -0.744 OA
ENDBRANCH  89  90
ENDBRANCH  63  84
ENDBRANCH  37  38
ENDBRANCH  30  32
ENDBRANCH  29  30
ENDBRANCH  28  29
ENDBRANCH  27  28
ENDBRANCH  26  27
ENDBRANCH   1  26
TORSDOF 23
ENDMDL
