MODEL 1
REMARK VINA RESULT:     -12.0      0.000      0.000
REMARK SMILES O=C(OCCOCCOCCOC(=O)c1nnn(-c2cccc(C(F)(F)F)c2)c1[C@@H]1COc2ccccc2O1)c1ccc(-c2c3nc(c(-c4ccc(S(=O)(=O)[O-])cc4)c4ccc([nH]4)c(-c4ccc(S(=O)(=O)[O-])cc4)c4nc(c(-c5ccc(S(=O)(=O)[O-])cc5)c5ccc2[nH]5)C=C4)C=C3)cc1
REMARK SMILES IDX 7 1 6 2 5 3 4 4 3 5 2 6 1 7 40 8 41 9 99 10 42 11 98 12
REMARK SMILES IDX 43 13 44 14 45 15 92 16 46 17 97 18 91 19 93 20 47 21 96 22
REMARK SMILES IDX 90 23 89 24 48 26 78 27 59 28 77 29 60 30 63 31 76 32 94 33
REMARK SMILES IDX 61 34 62 35 75 37 95 38 64 39 49 40 50 41 58 42 51 43 57 44
REMARK SMILES IDX 52 45 53 46 54 47 55 48 56 49 79 50 80 51 88 52 81 53 87 54
REMARK SMILES IDX 82 55 83 56 84 57 85 58 86 59 65 60 66 61 74 62 67 63 73 64
REMARK SMILES IDX 68 65 69 66 70 67 71 68 72 69 8 70 9 71 10 72 11 73 12 74
REMARK SMILES IDX 13 75 14 76 15 77 16 78 29 79 17 80 18 81 30 82 31 83 39 84
REMARK SMILES IDX 32 85 38 86 33 87 37 88 34 89 36 90 35 91 19 92 20 93 28 94
REMARK SMILES IDX 21 95 23 96 22 97 24 98 25 99 26 100 27 101
REMARK H PARENT 93 25 63 36
REMARK Flexibility Score: inf
ROOT
ATOM      1  C   UNL A   1      39.884  21.433  26.523  1.00  0.00     0.188 C 
ENDROOT
BRANCH   1   2
ATOM      2  O   UNL A   1      40.872  21.778  27.493  1.00  0.00    -0.376 OA
BRANCH   2   3
ATOM      3  C   UNL A   1      42.177  21.253  27.274  1.00  0.00     0.202 C 
BRANCH   3   4
ATOM      4  C   UNL A   1      42.600  21.144  25.807  1.00  0.00     0.261 C 
BRANCH   4   5
ATOM      5  O   UNL A   1      42.530  22.364  25.054  1.00  0.00    -0.460 OA
BRANCH   5   6
ATOM      6  C   UNL A   1      43.119  23.564  25.209  1.00  0.00     0.338 C 
ATOM      7  O   UNL A   1      44.290  23.693  24.858  1.00  0.00    -0.246 OA
BRANCH   6   8
ATOM      8  C   UNL A   1      42.495  24.686  25.953  1.00  0.00     0.060 A 
ATOM      9  C   UNL A   1      41.691  25.675  25.390  1.00  0.00     0.016 A 
ATOM     10  C   UNL A   1      42.854  24.787  27.313  1.00  0.00     0.016 A 
ATOM     11  C   UNL A   1      41.342  26.794  26.142  1.00  0.00     0.010 A 
ATOM     12  C   UNL A   1      42.504  25.903  28.066  1.00  0.00     0.010 A 
ATOM     13  C   UNL A   1      41.805  26.938  27.454  1.00  0.00    -0.014 A 
BRANCH  13  14
ATOM     14  C   UNL A   1      41.606  28.232  28.101  1.00  0.00     0.031 A 
ATOM     15  C   UNL A   1      42.707  29.226  27.996  1.00  0.00     0.074 A 
ATOM     16  C   UNL A   1      40.472  28.552  28.755  1.00  0.00     0.049 A 
ATOM     17  N   UNL A   1      43.458  29.689  28.940  1.00  0.00    -0.248 NA
ATOM     18  C   UNL A   1      43.047  29.723  26.656  1.00  0.00     0.031 C 
ATOM     19  C   UNL A   1      39.186  27.848  28.737  1.00  0.00     0.029 A 
ATOM     20  N   UNL A   1      40.212  29.656  29.513  1.00  0.00    -0.354 N 
ATOM     21  C   UNL A   1      44.260  30.667  28.355  1.00  0.00     0.074 A 
ATOM     22  C   UNL A   1      44.041  30.569  26.932  1.00  0.00     0.031 C 
ATOM     23  C   UNL A   1      38.233  28.654  29.256  1.00  0.00     0.029 A 
ATOM     24  C   UNL A   1      38.866  29.853  29.776  1.00  0.00     0.049 A 
ATOM     25  H   UNL A   1      40.918  30.257  29.843  1.00  0.00     0.167 HD
ATOM     26  C   UNL A   1      44.928  31.608  29.082  1.00  0.00     0.031 A 
ATOM     27  C   UNL A   1      38.299  30.956  30.322  1.00  0.00     0.031 A 
ATOM     28  C   UNL A   1      44.989  31.285  30.480  1.00  0.00     0.049 A 
ATOM     29  C   UNL A   1      39.351  31.684  31.069  1.00  0.00     0.074 A 
ATOM     30  C   UNL A   1      45.546  30.269  31.229  1.00  0.00     0.029 A 
ATOM     31  N   UNL A   1      44.125  31.947  31.320  1.00  0.00    -0.354 N 
ATOM     32  N   UNL A   1      39.925  31.227  32.147  1.00  0.00    -0.248 NA
ATOM     33  C   UNL A   1      40.052  32.774  30.407  1.00  0.00     0.031 C 
ATOM     34  C   UNL A   1      44.659  30.088  32.327  1.00  0.00     0.029 A 
ATOM     35  C   UNL A   1      43.625  31.019  32.196  1.00  0.00     0.049 A 
ATOM     36  H   UNL A   1      43.908  32.906  31.297  1.00  0.00     0.167 HD
ATOM     37  C   UNL A   1      41.233  31.684  32.081  1.00  0.00     0.074 A 
ATOM     38  C   UNL A   1      41.219  32.720  31.055  1.00  0.00     0.031 C 
ATOM     39  C   UNL A   1      42.256  30.997  32.671  1.00  0.00     0.031 A 
BRANCH  26  40
ATOM     40  C   UNL A   1      45.257  32.992  28.581  1.00  0.00    -0.014 A 
ATOM     41  C   UNL A   1      46.573  33.482  28.722  1.00  0.00     0.010 A 
ATOM     42  C   UNL A   1      44.258  33.924  28.234  1.00  0.00     0.010 A 
ATOM     43  C   UNL A   1      46.858  34.849  28.590  1.00  0.00     0.020 A 
ATOM     44  C   UNL A   1      44.540  35.280  28.056  1.00  0.00     0.020 A 
ATOM     45  C   UNL A   1      45.833  35.741  28.275  1.00  0.00     0.054 A 
BRANCH  45  46
ATOM     46  S   UNL A   1      46.182  37.516  28.241  1.00  0.00     0.124 S 
ATOM     47  O   UNL A   1      47.013  37.681  29.429  1.00  0.00    -0.237 OA
ATOM     48  O   UNL A   1      46.865  37.676  26.960  1.00  0.00    -0.237 OA
ATOM     49  O   UNL A   1      44.855  38.126  28.313  1.00  0.00    -0.744 OA
ENDBRANCH  45  46
ENDBRANCH  26  40
BRANCH  27  50
ATOM     50  C   UNL A   1      37.000  31.559  29.942  1.00  0.00    -0.014 A 
ATOM     51  C   UNL A   1      36.049  31.919  30.913  1.00  0.00     0.010 A 
ATOM     52  C   UNL A   1      36.804  32.029  28.625  1.00  0.00     0.010 A 
ATOM     53  C   UNL A   1      34.972  32.762  30.587  1.00  0.00     0.020 A 
ATOM     54  C   UNL A   1      35.731  32.858  28.292  1.00  0.00     0.020 A 
ATOM     55  C   UNL A   1      34.831  33.240  29.281  1.00  0.00     0.054 A 
BRANCH  55  56
ATOM     56  S   UNL A   1      33.544  34.468  28.910  1.00  0.00     0.124 S 
ATOM     57  O   UNL A   1      32.688  33.745  27.974  1.00  0.00    -0.237 OA
ATOM     58  O   UNL A   1      32.966  34.728  30.225  1.00  0.00    -0.237 OA
ATOM     59  O   UNL A   1      34.290  35.585  28.332  1.00  0.00    -0.744 OA
ENDBRANCH  55  56
ENDBRANCH  27  50
BRANCH  39  60
ATOM     60  C   UNL A   1      41.924  29.918  33.674  1.00  0.00    -0.014 A 
ATOM     61  C   UNL A   1      41.618  28.595  33.303  1.00  0.00     0.010 A 
ATOM     62  C   UNL A   1      42.127  30.206  35.036  1.00  0.00     0.010 A 
ATOM     63  C   UNL A   1      41.518  27.585  34.272  1.00  0.00     0.020 A 
ATOM     64  C   UNL A   1      42.046  29.200  36.005  1.00  0.00     0.020 A 
ATOM     65  C   UNL A   1      41.745  27.894  35.617  1.00  0.00     0.054 A 
BRANCH  65  66
ATOM     66  S   UNL A   1      41.735  26.560  36.848  1.00  0.00     0.124 S 
ATOM     67  O   UNL A   1      40.470  26.778  37.543  1.00  0.00    -0.237 OA
ATOM     68  O   UNL A   1      41.801  25.356  36.023  1.00  0.00    -0.237 OA
ATOM     69  O   UNL A   1      42.933  26.815  37.648  1.00  0.00    -0.744 OA
ENDBRANCH  65  66
ENDBRANCH  39  60
ENDBRANCH  13  14
ENDBRANCH   6   8
ENDBRANCH   5   6
ENDBRANCH   4   5
ENDBRANCH   3   4
ENDBRANCH   2   3
ENDBRANCH   1   2
BRANCH   1  70
ATOM     70  C   UNL A   1      39.077  22.635  25.982  1.00  0.00     0.188 C 
BRANCH  70  71
ATOM     71  O   UNL A   1      37.674  22.529  25.739  1.00  0.00    -0.376 OA
BRANCH  71  72
ATOM     72  C   UNL A   1      37.120  21.257  25.460  1.00  0.00     0.202 C 
BRANCH  72  73
ATOM     73  C   UNL A   1      35.811  21.389  24.672  1.00  0.00     0.261 C 
BRANCH  73  74
ATOM     74  O   UNL A   1      34.644  21.030  25.435  1.00  0.00    -0.458 OA
BRANCH  74  75
ATOM     75  C   UNL A   1      33.547  20.671  24.686  1.00  0.00     0.361 C 
ATOM     76  O   UNL A   1      33.208  19.529  24.464  1.00  0.00    -0.244 OA
BRANCH  75  77
ATOM     77  C   UNL A   1      32.820  21.834  24.174  1.00  0.00     0.198 A 
ATOM     78  N   UNL A   1      32.065  21.742  23.031  1.00  0.00    -0.122 NA
ATOM     79  C   UNL A   1      32.710  23.125  24.680  1.00  0.00     0.123 A 
ATOM     80  N   UNL A   1      31.510  22.921  22.801  1.00  0.00    -0.061 NA
ATOM     81  N   UNL A   1      32.046  23.809  23.670  1.00  0.00    -0.213 N 
BRANCH  79  82
ATOM     82  C   UNL A   1      33.088  23.708  26.010  1.00  0.00     0.262 C 
ATOM     83  C   UNL A   1      31.900  23.865  26.968  1.00  0.00     0.281 C 
ATOM     84  O   UNL A   1      33.859  24.901  25.836  1.00  0.00    -0.477 OA
ATOM     85  O   UNL A   1      31.075  24.978  26.626  1.00  0.00    -0.485 OA
ATOM     86  C   UNL A   1      33.202  26.056  26.172  1.00  0.00     0.162 A 
ATOM     87  C   UNL A   1      31.847  26.104  26.512  1.00  0.00     0.161 A 
ATOM     88  C   UNL A   1      33.932  27.239  26.077  1.00  0.00     0.050 A 
ATOM     89  C   UNL A   1      31.207  27.328  26.685  1.00  0.00     0.050 A 
ATOM     90  C   UNL A   1      33.299  28.466  26.278  1.00  0.00     0.004 A 
ATOM     91  C   UNL A   1      31.935  28.512  26.567  1.00  0.00     0.004 A 
ENDBRANCH  79  82
BRANCH  81  92
ATOM     92  C   UNL A   1      32.271  25.116  23.198  1.00  0.00     0.067 A 
ATOM     93  C   UNL A   1      33.554  25.503  22.806  1.00  0.00     0.028 A 
ATOM     94  C   UNL A   1      31.211  26.033  23.212  1.00  0.00     0.041 A 
ATOM     95  C   UNL A   1      33.752  26.801  22.335  1.00  0.00     0.003 A 
ATOM     96  C   UNL A   1      31.423  27.353  22.794  1.00  0.00     0.058 A 
ATOM     97  C   UNL A   1      32.696  27.719  22.326  1.00  0.00     0.013 A 
BRANCH  96  98
ATOM     98  C   UNL A   1      30.307  28.364  22.841  1.00  0.00     0.416 C 
ATOM     99  F   UNL A   1      30.480  29.385  21.953  1.00  0.00    -0.166 F 
ATOM    100  F   UNL A   1      29.092  27.821  22.551  1.00  0.00    -0.166 F 
ATOM    101  F   UNL A   1      30.163  28.960  24.059  1.00  0.00    -0.166 F 
ENDBRANCH  96  98
ENDBRANCH  81  92
ENDBRANCH  75  77
ENDBRANCH  74  75
ENDBRANCH  73  74
ENDBRANCH  72  73
ENDBRANCH  71  72
ENDBRANCH  70  71
ENDBRANCH   1  70
TORSDOF 23
ENDMDL
MODEL 2
REMARK VINA RESULT:     -10.9      2.920      9.320
REMARK SMILES O=C(OCCOCCOCCOC(=O)c1nnn(-c2cccc(C(F)(F)F)c2)c1[C@@H]1COc2ccccc2O1)c1ccc(-c2c3nc(c(-c4ccc(S(=O)(=O)[O-])cc4)c4ccc([nH]4)c(-c4ccc(S(=O)(=O)[O-])cc4)c4nc(c(-c5ccc(S(=O)(=O)[O-])cc5)c5ccc2[nH]5)C=C4)C=C3)cc1
REMARK SMILES IDX 7 1 6 2 5 3 4 4 3 5 2 6 1 7 40 8 41 9 99 10 42 11 98 12
REMARK SMILES IDX 43 13 44 14 45 15 92 16 46 17 97 18 91 19 93 20 47 21 96 22
REMARK SMILES IDX 90 23 89 24 48 26 78 27 59 28 77 29 60 30 63 31 76 32 94 33
REMARK SMILES IDX 61 34 62 35 75 37 95 38 64 39 49 40 50 41 58 42 51 43 57 44
REMARK SMILES IDX 52 45 53 46 54 47 55 48 56 49 79 50 80 51 88 52 81 53 87 54
REMARK SMILES IDX 82 55 83 56 84 57 85 58 86 59 65 60 66 61 74 62 67 63 73 64
REMARK SMILES IDX 68 65 69 66 70 67 71 68 72 69 8 70 9 71 10 72 11 73 12 74
REMARK SMILES IDX 13 75 14 76 15 77 16 78 29 79 17 80 18 81 30 82 31 83 39 84
REMARK SMILES IDX 32 85 38 86 33 87 37 88 34 89 36 90 35 91 19 92 20 93 28 94
REMARK SMILES IDX 21 95 23 96 22 97 24 98 25 99 26 100 27 101
REMARK H PARENT 93 25 63 36
REMARK Flexibility Score: inf
ROOT
ATOM      1  C   UNL A   1      34.692  32.413  27.928  1.00  0.00     0.188 C 
ENDROOT
BRANCH   1   2
ATOM      2  O   UNL A   1      33.642  33.192  28.498  1.00  0.00    -0.376 OA
BRANCH   2   3
ATOM      3  C   UNL A   1      33.846  34.600  28.518  1.00  0.00     0.202 C 
BRANCH   3   4
ATOM      4  C   UNL A   1      33.626  35.273  29.876  1.00  0.00     0.261 C 
BRANCH   4   5
ATOM      5  O   UNL A   1      33.727  34.406  31.016  1.00  0.00    -0.460 OA
BRANCH   5   6
ATOM      6  C   UNL A   1      34.767  34.028  31.782  1.00  0.00     0.338 C 
ATOM      7  O   UNL A   1      34.974  34.634  32.831  1.00  0.00    -0.246 OA
BRANCH   6   8
ATOM      8  C   UNL A   1      35.788  33.046  31.340  1.00  0.00     0.060 A 
ATOM      9  C   UNL A   1      35.675  31.662  31.455  1.00  0.00     0.016 A 
ATOM     10  C   UNL A   1      36.998  33.597  30.871  1.00  0.00     0.016 A 
ATOM     11  C   UNL A   1      36.783  30.855  31.208  1.00  0.00     0.010 A 
ATOM     12  C   UNL A   1      38.104  32.793  30.622  1.00  0.00     0.010 A 
ATOM     13  C   UNL A   1      38.011  31.425  30.859  1.00  0.00    -0.014 A 
BRANCH  13  14
ATOM     14  C   UNL A   1      39.180  30.551  30.848  1.00  0.00     0.031 A 
ATOM     15  C   UNL A   1      39.920  30.383  32.126  1.00  0.00     0.074 A 
ATOM     16  C   UNL A   1      39.587  29.892  29.745  1.00  0.00     0.049 A 
ATOM     17  N   UNL A   1      41.119  30.771  32.414  1.00  0.00    -0.248 NA
ATOM     18  C   UNL A   1      39.209  29.748  33.244  1.00  0.00     0.031 C 
ATOM     19  C   UNL A   1      38.859  29.696  28.487  1.00  0.00     0.029 A 
ATOM     20  N   UNL A   1      40.727  29.165  29.562  1.00  0.00    -0.354 N 
ATOM     21  C   UNL A   1      41.390  30.285  33.692  1.00  0.00     0.074 A 
ATOM     22  C   UNL A   1      40.144  29.758  34.194  1.00  0.00     0.031 C 
ATOM     23  C   UNL A   1      39.469  28.726  27.769  1.00  0.00     0.029 A 
ATOM     24  C   UNL A   1      40.699  28.349  28.442  1.00  0.00     0.049 A 
ATOM     25  H   UNL A   1      41.499  29.218  30.170  1.00  0.00     0.167 HD
ATOM     26  C   UNL A   1      42.653  30.192  34.195  1.00  0.00     0.031 A 
ATOM     27  C   UNL A   1      41.590  27.380  28.124  1.00  0.00     0.031 A 
ATOM     28  C   UNL A   1      43.611  30.940  33.427  1.00  0.00     0.049 A 
ATOM     29  C   UNL A   1      42.853  27.670  28.842  1.00  0.00     0.074 A 
ATOM     30  C   UNL A   1      43.798  32.272  33.124  1.00  0.00     0.029 A 
ATOM     31  N   UNL A   1      44.420  30.236  32.568  1.00  0.00    -0.354 N 
ATOM     32  N   UNL A   1      43.612  28.699  28.589  1.00  0.00    -0.248 NA
ATOM     33  C   UNL A   1      43.097  27.017  30.119  1.00  0.00     0.031 C 
ATOM     34  C   UNL A   1      44.349  32.279  31.811  1.00  0.00     0.029 A 
ATOM     35  C   UNL A   1      44.486  30.951  31.401  1.00  0.00     0.049 A 
ATOM     36  H   UNL A   1      44.868  29.381  32.756  1.00  0.00     0.167 HD
ATOM     37  C   UNL A   1      44.143  29.066  29.817  1.00  0.00     0.074 A 
ATOM     38  C   UNL A   1      43.884  27.930  30.694  1.00  0.00     0.031 C 
ATOM     39  C   UNL A   1      44.503  30.358  30.078  1.00  0.00     0.031 A 
BRANCH  26  40
ATOM     40  C   UNL A   1      43.091  29.162  35.206  1.00  0.00    -0.014 A 
ATOM     41  C   UNL A   1      43.945  29.549  36.261  1.00  0.00     0.010 A 
ATOM     42  C   UNL A   1      42.919  27.779  34.993  1.00  0.00     0.010 A 
ATOM     43  C   UNL A   1      44.643  28.598  37.018  1.00  0.00     0.020 A 
ATOM     44  C   UNL A   1      43.576  26.823  35.772  1.00  0.00     0.020 A 
ATOM     45  C   UNL A   1      44.466  27.240  36.754  1.00  0.00     0.054 A 
BRANCH  45  46
ATOM     46  S   UNL A   1      45.472  26.025  37.643  1.00  0.00     0.124 S 
ATOM     47  O   UNL A   1      46.643  26.816  38.008  1.00  0.00    -0.237 OA
ATOM     48  O   UNL A   1      44.596  25.641  38.746  1.00  0.00    -0.237 OA
ATOM     49  O   UNL A   1      45.705  24.981  36.646  1.00  0.00    -0.744 OA
ENDBRANCH  45  46
ENDBRANCH  26  40
BRANCH  27  50
ATOM     50  C   UNL A   1      41.282  26.066  27.509  1.00  0.00    -0.014 A 
ATOM     51  C   UNL A   1      42.173  25.451  26.613  1.00  0.00     0.010 A 
ATOM     52  C   UNL A   1      40.219  25.288  28.017  1.00  0.00     0.010 A 
ATOM     53  C   UNL A   1      42.034  24.092  26.280  1.00  0.00     0.020 A 
ATOM     54  C   UNL A   1      40.069  23.940  27.683  1.00  0.00     0.020 A 
ATOM     55  C   UNL A   1      40.992  23.341  26.833  1.00  0.00     0.054 A 
BRANCH  55  56
ATOM     56  S   UNL A   1      40.925  21.550  26.539  1.00  0.00     0.124 S 
ATOM     57  O   UNL A   1      41.270  21.008  27.851  1.00  0.00    -0.237 OA
ATOM     58  O   UNL A   1      39.542  21.350  26.116  1.00  0.00    -0.237 OA
ATOM     59  O   UNL A   1      41.927  21.334  25.496  1.00  0.00    -0.744 OA
ENDBRANCH  55  56
ENDBRANCH  27  50
BRANCH  39  60
ATOM     60  C   UNL A   1      44.631  31.324  28.925  1.00  0.00    -0.014 A 
ATOM     61  C   UNL A   1      45.192  30.966  27.684  1.00  0.00     0.010 A 
ATOM     62  C   UNL A   1      43.983  32.568  29.037  1.00  0.00     0.010 A 
ATOM     63  C   UNL A   1      45.104  31.831  26.583  1.00  0.00     0.020 A 
ATOM     64  C   UNL A   1      43.877  33.427  27.939  1.00  0.00     0.020 A 
ATOM     65  C   UNL A   1      44.436  33.053  26.716  1.00  0.00     0.054 A 
BRANCH  65  66
ATOM     66  S   UNL A   1      44.220  34.111  25.257  1.00  0.00     0.124 S 
ATOM     67  O   UNL A   1      44.362  33.164  24.155  1.00  0.00    -0.237 OA
ATOM     68  O   UNL A   1      42.879  34.658  25.448  1.00  0.00    -0.237 OA
ATOM     69  O   UNL A   1      45.300  35.091  25.374  1.00  0.00    -0.744 OA
ENDBRANCH  65  66
ENDBRANCH  39  60
ENDBRANCH  13  14
ENDBRANCH   6   8
ENDBRANCH   5   6
ENDBRANCH   4   5
ENDBRANCH   3   4
ENDBRANCH   2   3
ENDBRANCH   1   2
BRANCH   1  70
ATOM     70  C   UNL A   1      34.273  30.982  27.519  1.00  0.00     0.188 C 
BRANCH  70  71
ATOM     71  O   UNL A   1      32.907  30.571  27.573  1.00  0.00    -0.376 OA
BRANCH  71  72
ATOM     72  C   UNL A   1      32.017  31.016  26.566  1.00  0.00     0.202 C 
BRANCH  72  73
ATOM     73  C   UNL A   1      31.474  29.833  25.753  1.00  0.00     0.261 C 
BRANCH  73  74
ATOM     74  O   UNL A   1      32.177  28.601  25.995  1.00  0.00    -0.458 OA
BRANCH  74  75
ATOM     75  C   UNL A   1      31.415  27.593  26.540  1.00  0.00     0.361 C 
ATOM     76  O   UNL A   1      30.926  27.622  27.648  1.00  0.00    -0.244 OA
BRANCH  75  77
ATOM     77  C   UNL A   1      31.258  26.461  25.625  1.00  0.00     0.198 A 
ATOM     78  N   UNL A   1      30.024  25.892  25.418  1.00  0.00    -0.122 NA
ATOM     79  C   UNL A   1      32.191  25.805  24.830  1.00  0.00     0.123 A 
ATOM     80  N   UNL A   1      30.160  24.907  24.545  1.00  0.00    -0.061 NA
ATOM     81  N   UNL A   1      31.483  24.717  24.335  1.00  0.00    -0.213 N 
BRANCH  79  82
ATOM     82  C   UNL A   1      33.600  26.159  24.453  1.00  0.00     0.262 C 
ATOM     83  C   UNL A   1      33.902  25.958  22.962  1.00  0.00     0.281 C 
ATOM     84  O   UNL A   1      34.532  25.516  25.329  1.00  0.00    -0.477 OA
ATOM     85  O   UNL A   1      34.074  24.581  22.627  1.00  0.00    -0.485 OA
ATOM     86  C   UNL A   1      35.250  24.502  24.749  1.00  0.00     0.162 A 
ATOM     87  C   UNL A   1      35.004  24.019  23.462  1.00  0.00     0.161 A 
ATOM     88  C   UNL A   1      36.213  23.887  25.546  1.00  0.00     0.050 A 
ATOM     89  C   UNL A   1      35.663  22.883  22.997  1.00  0.00     0.050 A 
ATOM     90  C   UNL A   1      36.895  22.766  25.073  1.00  0.00     0.004 A 
ATOM     91  C   UNL A   1      36.610  22.255  23.806  1.00  0.00     0.004 A 
ENDBRANCH  79  82
BRANCH  81  92
ATOM     92  C   UNL A   1      31.922  23.392  24.152  1.00  0.00     0.067 A 
ATOM     93  C   UNL A   1      31.658  22.731  22.952  1.00  0.00     0.028 A 
ATOM     94  C   UNL A   1      32.549  22.733  25.219  1.00  0.00     0.041 A 
ATOM     95  C   UNL A   1      32.110  21.421  22.790  1.00  0.00     0.003 A 
ATOM     96  C   UNL A   1      32.950  21.399  25.078  1.00  0.00     0.058 A 
ATOM     97  C   UNL A   1      32.753  20.760  23.842  1.00  0.00     0.013 A 
BRANCH  96  98
ATOM     98  C   UNL A   1      33.587  20.661  26.227  1.00  0.00     0.416 C 
ATOM     99  F   UNL A   1      33.046  19.425  26.425  1.00  0.00    -0.166 F 
ATOM    100  F   UNL A   1      34.922  20.459  26.048  1.00  0.00    -0.166 F 
ATOM    101  F   UNL A   1      33.469  21.307  27.422  1.00  0.00    -0.166 F 
ENDBRANCH  96  98
ENDBRANCH  81  92
ENDBRANCH  75  77
ENDBRANCH  74  75
ENDBRANCH  73  74
ENDBRANCH  72  73
ENDBRANCH  71  72
ENDBRANCH  70  71
ENDBRANCH   1  70
TORSDOF 23
ENDMDL
MODEL 3
REMARK VINA RESULT:     -10.0      3.788      9.778
REMARK SMILES O=C(OCCOCCOCCOC(=O)c1nnn(-c2cccc(C(F)(F)F)c2)c1[C@@H]1COc2ccccc2O1)c1ccc(-c2c3nc(c(-c4ccc(S(=O)(=O)[O-])cc4)c4ccc([nH]4)c(-c4ccc(S(=O)(=O)[O-])cc4)c4nc(c(-c5ccc(S(=O)(=O)[O-])cc5)c5ccc2[nH]5)C=C4)C=C3)cc1
REMARK SMILES IDX 7 1 6 2 5 3 4 4 3 5 2 6 1 7 40 8 41 9 99 10 42 11 98 12
REMARK SMILES IDX 43 13 44 14 45 15 92 16 46 17 97 18 91 19 93 20 47 21 96 22
REMARK SMILES IDX 90 23 89 24 48 26 78 27 59 28 77 29 60 30 63 31 76 32 94 33
REMARK SMILES IDX 61 34 62 35 75 37 95 38 64 39 49 40 50 41 58 42 51 43 57 44
REMARK SMILES IDX 52 45 53 46 54 47 55 48 56 49 79 50 80 51 88 52 81 53 87 54
REMARK SMILES IDX 82 55 83 56 84 57 85 58 86 59 65 60 66 61 74 62 67 63 73 64
REMARK SMILES IDX 68 65 69 66 70 67 71 68 72 69 8 70 9 71 10 72 11 73 12 74
REMARK SMILES IDX 13 75 14 76 15 77 16 78 29 79 17 80 18 81 30 82 31 83 39 84
REMARK SMILES IDX 32 85 38 86 33 87 37 88 34 89 36 90 35 91 19 92 20 93 28 94
REMARK SMILES IDX 21 95 23 96 22 97 24 98 25 99 26 100 27 101
REMARK H PARENT 93 25 63 36
REMARK Flexibility Score: inf
ROOT
ATOM      1  C   UNL A   1      35.341  33.164  29.372  1.00  0.00     0.188 C 
ENDROOT
BRANCH   1   2
ATOM      2  O   UNL A   1      35.800  32.998  30.714  1.00  0.00    -0.376 OA
BRANCH   2   3
ATOM      3  C   UNL A   1      36.503  34.100  31.276  1.00  0.00     0.202 C 
BRANCH   3   4
ATOM      4  C   UNL A   1      36.404  34.230  32.799  1.00  0.00     0.261 C 
BRANCH   4   5
ATOM      5  O   UNL A   1      36.196  32.999  33.509  1.00  0.00    -0.460 OA
BRANCH   5   6
ATOM      6  C   UNL A   1      37.036  32.164  34.147  1.00  0.00     0.338 C 
ATOM      7  O   UNL A   1      37.159  32.272  35.365  1.00  0.00    -0.246 OA
BRANCH   6   8
ATOM      8  C   UNL A   1      37.962  31.245  33.439  1.00  0.00     0.060 A 
ATOM      9  C   UNL A   1      37.689  29.917  33.119  1.00  0.00     0.016 A 
ATOM     10  C   UNL A   1      39.250  31.759  33.183  1.00  0.00     0.016 A 
ATOM     11  C   UNL A   1      38.710  29.093  32.652  1.00  0.00     0.010 A 
ATOM     12  C   UNL A   1      40.270  30.938  32.716  1.00  0.00     0.010 A 
ATOM     13  C   UNL A   1      40.011  29.586  32.516  1.00  0.00    -0.014 A 
BRANCH  13  14
ATOM     14  C   UNL A   1      41.074  28.620  32.255  1.00  0.00     0.031 A 
ATOM     15  C   UNL A   1      41.864  28.140  33.419  1.00  0.00     0.074 A 
ATOM     16  C   UNL A   1      41.339  28.145  31.022  1.00  0.00     0.049 A 
ATOM     17  N   UNL A   1      43.114  28.348  33.677  1.00  0.00    -0.248 NA
ATOM     18  C   UNL A   1      41.154  27.378  34.455  1.00  0.00     0.031 C 
ATOM     19  C   UNL A   1      40.521  28.263  29.810  1.00  0.00     0.029 A 
ATOM     20  N   UNL A   1      42.378  27.358  30.620  1.00  0.00    -0.354 N 
ATOM     21  C   UNL A   1      43.404  27.604  34.820  1.00  0.00     0.074 A 
ATOM     22  C   UNL A   1      42.139  27.117  35.315  1.00  0.00     0.031 C 
ATOM     23  C   UNL A   1      40.976  27.391  28.882  1.00  0.00     0.029 A 
ATOM     24  C   UNL A   1      42.194  26.775  29.377  1.00  0.00     0.049 A 
ATOM     25  H   UNL A   1      43.186  27.218  31.165  1.00  0.00     0.167 HD
ATOM     26  C   UNL A   1      44.676  27.294  35.197  1.00  0.00     0.031 A 
ATOM     27  C   UNL A   1      42.951  25.801  28.817  1.00  0.00     0.031 A 
ATOM     28  C   UNL A   1      45.664  28.076  34.505  1.00  0.00     0.049 A 
ATOM     29  C   UNL A   1      44.278  25.824  29.475  1.00  0.00     0.074 A 
ATOM     30  C   UNL A   1      45.980  29.417  34.436  1.00  0.00     0.029 A 
ATOM     31  N   UNL A   1      46.338  27.471  33.472  1.00  0.00    -0.354 N 
ATOM     32  N   UNL A   1      45.131  26.803  29.355  1.00  0.00    -0.248 NA
ATOM     33  C   UNL A   1      44.524  24.921  30.588  1.00  0.00     0.031 C 
ATOM     34  C   UNL A   1      46.450  29.619  33.107  1.00  0.00     0.029 A 
ATOM     35  C   UNL A   1      46.414  28.385  32.452  1.00  0.00     0.049 A 
ATOM     36  H   UNL A   1      46.698  26.557  33.465  1.00  0.00     0.167 HD
ATOM     37  C   UNL A   1      45.771  26.877  30.584  1.00  0.00     0.074 A 
ATOM     38  C   UNL A   1      45.440  25.627  31.257  1.00  0.00     0.031 C 
ATOM     39  C   UNL A   1      46.287  28.054  31.047  1.00  0.00     0.031 A 
BRANCH  26  40
ATOM     40  C   UNL A   1      45.056  26.053  35.965  1.00  0.00    -0.014 A 
ATOM     41  C   UNL A   1      45.762  26.182  37.181  1.00  0.00     0.010 A 
ATOM     42  C   UNL A   1      44.988  24.765  35.396  1.00  0.00     0.010 A 
ATOM     43  C   UNL A   1      46.424  25.090  37.758  1.00  0.00     0.020 A 
ATOM     44  C   UNL A   1      45.607  23.661  35.988  1.00  0.00     0.020 A 
ATOM     45  C   UNL A   1      46.355  23.839  37.145  1.00  0.00     0.054 A 
BRANCH  45  46
ATOM     46  S   UNL A   1      47.323  22.466  37.820  1.00  0.00     0.124 S 
ATOM     47  O   UNL A   1      48.355  23.170  38.574  1.00  0.00    -0.237 OA
ATOM     48  O   UNL A   1      46.332  21.748  38.618  1.00  0.00    -0.237 OA
ATOM     49  O   UNL A   1      47.787  21.758  36.628  1.00  0.00    -0.744 OA
ENDBRANCH  45  46
ENDBRANCH  26  40
BRANCH  27  50
ATOM     50  C   UNL A   1      42.464  24.664  28.001  1.00  0.00    -0.014 A 
ATOM     51  C   UNL A   1      43.356  23.790  27.355  1.00  0.00     0.010 A 
ATOM     52  C   UNL A   1      41.107  24.280  28.075  1.00  0.00     0.010 A 
ATOM     53  C   UNL A   1      42.915  22.554  26.852  1.00  0.00     0.020 A 
ATOM     54  C   UNL A   1      40.659  23.058  27.567  1.00  0.00     0.020 A 
ATOM     55  C   UNL A   1      41.572  22.189  26.978  1.00  0.00     0.054 A 
BRANCH  55  56
ATOM     56  S   UNL A   1      41.046  20.521  26.486  1.00  0.00     0.124 S 
ATOM     57  O   UNL A   1      39.751  20.776  25.862  1.00  0.00    -0.237 OA
ATOM     58  O   UNL A   1      42.114  20.107  25.580  1.00  0.00    -0.237 OA
ATOM     59  O   UNL A   1      40.993  19.790  27.751  1.00  0.00    -0.744 OA
ENDBRANCH  55  56
ENDBRANCH  27  50
BRANCH  39  60
ATOM     60  C   UNL A   1      46.454  29.204  30.082  1.00  0.00    -0.014 A 
ATOM     61  C   UNL A   1      47.579  29.347  29.247  1.00  0.00     0.010 A 
ATOM     62  C   UNL A   1      45.349  30.050  29.874  1.00  0.00     0.010 A 
ATOM     63  C   UNL A   1      47.595  30.312  28.229  1.00  0.00     0.020 A 
ATOM     64  C   UNL A   1      45.353  31.001  28.849  1.00  0.00     0.020 A 
ATOM     65  C   UNL A   1      46.475  31.125  28.030  1.00  0.00     0.054 A 
BRANCH  65  66
ATOM     66  S   UNL A   1      46.458  32.286  26.633  1.00  0.00     0.124 S 
ATOM     67  O   UNL A   1      45.550  31.636  25.692  1.00  0.00    -0.237 OA
ATOM     68  O   UNL A   1      45.959  33.517  27.241  1.00  0.00    -0.237 OA
ATOM     69  O   UNL A   1      47.856  32.340  26.208  1.00  0.00    -0.744 OA
ENDBRANCH  65  66
ENDBRANCH  39  60
ENDBRANCH  13  14
ENDBRANCH   6   8
ENDBRANCH   5   6
ENDBRANCH   4   5
ENDBRANCH   3   4
ENDBRANCH   2   3
ENDBRANCH   1   2
BRANCH   1  70
ATOM     70  C   UNL A   1      34.409  32.035  28.875  1.00  0.00     0.188 C 
BRANCH  70  71
ATOM     71  O   UNL A   1      34.707  31.307  27.684  1.00  0.00    -0.376 OA
BRANCH  71  72
ATOM     72  C   UNL A   1      35.439  30.099  27.783  1.00  0.00     0.202 C 
BRANCH  72  73
ATOM     73  C   UNL A   1      34.636  28.922  27.213  1.00  0.00     0.261 C 
BRANCH  73  74
ATOM     74  O   UNL A   1      33.682  29.313  26.209  1.00  0.00    -0.458 OA
BRANCH  74  75
ATOM     75  C   UNL A   1      32.370  29.030  26.511  1.00  0.00     0.361 C 
ATOM     76  O   UNL A   1      31.584  29.825  26.979  1.00  0.00    -0.244 OA
BRANCH  75  77
ATOM     77  C   UNL A   1      32.018  27.642  26.207  1.00  0.00     0.198 A 
ATOM     78  N   UNL A   1      31.875  26.718  27.213  1.00  0.00    -0.122 NA
ATOM     79  C   UNL A   1      31.747  27.024  24.991  1.00  0.00     0.123 A 
ATOM     80  N   UNL A   1      31.545  25.557  26.670  1.00  0.00    -0.061 NA
ATOM     81  N   UNL A   1      31.658  25.679  25.328  1.00  0.00    -0.213 N 
BRANCH  79  82
ATOM     82  C   UNL A   1      31.492  27.588  23.623  1.00  0.00     0.262 C 
ATOM     83  C   UNL A   1      32.075  28.993  23.424  1.00  0.00     0.281 C 
ATOM     84  O   UNL A   1      30.106  27.477  23.283  1.00  0.00    -0.477 OA
ATOM     85  O   UNL A   1      31.293  29.998  24.070  1.00  0.00    -0.485 OA
ATOM     86  C   UNL A   1      29.429  28.669  23.262  1.00  0.00     0.162 A 
ATOM     87  C   UNL A   1      29.985  29.881  23.682  1.00  0.00     0.161 A 
ATOM     88  C   UNL A   1      28.092  28.618  22.877  1.00  0.00     0.050 A 
ATOM     89  C   UNL A   1      29.192  31.021  23.785  1.00  0.00     0.050 A 
ATOM     90  C   UNL A   1      27.302  29.766  22.953  1.00  0.00     0.004 A 
ATOM     91  C   UNL A   1      27.847  30.962  23.421  1.00  0.00     0.004 A 
ENDBRANCH  79  82
BRANCH  81  92
ATOM     92  C   UNL A   1      32.137  24.562  24.617  1.00  0.00     0.067 A 
ATOM     93  C   UNL A   1      31.240  23.715  23.965  1.00  0.00     0.028 A 
ATOM     94  C   UNL A   1      33.509  24.277  24.649  1.00  0.00     0.041 A 
ATOM     95  C   UNL A   1      31.738  22.619  23.261  1.00  0.00     0.003 A 
ATOM     96  C   UNL A   1      34.004  23.144  23.992  1.00  0.00     0.058 A 
ATOM     97  C   UNL A   1      33.108  22.336  23.270  1.00  0.00     0.013 A 
BRANCH  96  98
ATOM     98  C   UNL A   1      35.468  22.797  24.050  1.00  0.00     0.416 C 
ATOM     99  F   UNL A   1      35.689  21.475  24.303  1.00  0.00    -0.166 F 
ATOM    100  F   UNL A   1      36.121  23.067  22.885  1.00  0.00    -0.166 F 
ATOM    101  F   UNL A   1      36.150  23.473  25.019  1.00  0.00    -0.166 F 
ENDBRANCH  96  98
ENDBRANCH  81  92
ENDBRANCH  75  77
ENDBRANCH  74  75
ENDBRANCH  73  74
ENDBRANCH  72  73
ENDBRANCH  71  72
ENDBRANCH  70  71
ENDBRANCH   1  70
TORSDOF 23
ENDMDL
