MODEL 1
REMARK VINA RESULT:     -10.4      0.000      0.000
REMARK SMILES CS(=O)(=O)c1ccc(/C=C(/C(=O)OCCOCCOCCOC(=O)c2ccc(-c3c4nc(c(-c5ccc(S(=O)(=O)[O-])cc5)c5ccc([nH]5)c(-c5ccc(S(=O)(=O)[O-])cc5)c5nc(c(-c6ccc(S(=O)(=O)[O-])cc6)c6ccc3[nH]6)C=C5)C=C4)cc2)c2cccc(Br)c2)cc1
REMARK SMILES IDX 18 1 17 2 16 3 15 4 14 5 13 6 11 7 12 8 10 9 9 10 8 11 5 12
REMARK SMILES IDX 6 13 93 14 7 15 92 16 2 17 1 18 3 19 4 20 85 21 86 22 91 23
REMARK SMILES IDX 87 24 89 25 88 26 90 27 19 28 20 29 21 30 22 31 23 32 24 33
REMARK SMILES IDX 25 34 26 35 84 36 27 37 83 38 28 39 29 40 30 41 77 42 31 43
REMARK SMILES IDX 82 44 76 45 78 46 32 47 81 48 75 49 74 50 33 52 63 53 44 54
REMARK SMILES IDX 62 55 45 56 48 57 61 58 79 59 46 60 47 61 60 63 80 64 49 65
REMARK SMILES IDX 34 66 35 67 43 68 36 69 42 70 37 71 38 72 39 73 40 74 41 75
REMARK SMILES IDX 64 76 65 77 73 78 66 79 72 80 67 81 68 82 69 83 70 84 71 85
REMARK SMILES IDX 50 86 51 87 59 88 52 89 58 90 53 91 54 92 55 93 56 94 57 95
REMARK H PARENT 78 51 48 62
REMARK Flexibility Score: inf
ROOT
ATOM      1  C   UNL A   1      43.932  23.060  24.432  1.00  0.00     0.188 C 
ENDROOT
BRANCH   1   2
ATOM      2  C   UNL A   1      43.637  22.251  25.713  1.00  0.00     0.188 C 
BRANCH   2   3
ATOM      3  O   UNL A   1      42.443  21.504  25.623  1.00  0.00    -0.376 OA
BRANCH   3   4
ATOM      4  C   UNL A   1      41.243  22.145  26.012  1.00  0.00     0.202 C 
BRANCH   4   5
ATOM      5  C   UNL A   1      40.038  21.334  26.534  1.00  0.00     0.261 C 
BRANCH   5   6
ATOM      6  O   UNL A   1      38.724  21.817  26.212  1.00  0.00    -0.460 OA
BRANCH   6   7
ATOM      7  C   UNL A   1      37.961  21.067  25.375  1.00  0.00     0.338 C 
ATOM      8  O   UNL A   1      38.284  19.977  24.928  1.00  0.00    -0.246 OA
BRANCH   7   9
ATOM      9  C   UNL A   1      36.612  21.701  25.154  1.00  0.00     0.067 C 
ATOM     10  C   UNL A   1      36.535  23.007  24.793  1.00  0.00     0.024 C 
BRANCH  10  11
ATOM     11  C   UNL A   1      35.343  23.786  24.370  1.00  0.00    -0.025 A 
ATOM     12  C   UNL A   1      33.454  25.666  23.476  1.00  0.00     0.067 A 
ATOM     13  C   UNL A   1      33.756  24.560  22.686  1.00  0.00     0.021 A 
ATOM     14  C   UNL A   1      33.991  25.782  24.759  1.00  0.00     0.021 A 
ATOM     15  C   UNL A   1      34.664  23.605  23.155  1.00  0.00     0.009 A 
ATOM     16  C   UNL A   1      34.925  24.838  25.202  1.00  0.00     0.009 A 
BRANCH  12  17
ATOM     17  S   UNL A   1      32.496  27.003  22.804  1.00  0.00     0.175 S 
ATOM     18  C   UNL A   1      31.632  27.683  24.188  1.00  0.00     0.163 C 
ATOM     19  O   UNL A   1      31.502  26.438  21.911  1.00  0.00    -0.224 OA
ATOM     20  O   UNL A   1      33.442  28.001  22.337  1.00  0.00    -0.224 OA
ENDBRANCH  12  17
ENDBRANCH  10  11
BRANCH   9  21
ATOM     21  C   UNL A   1      35.416  20.849  25.338  1.00  0.00    -0.010 A 
ATOM     22  C   UNL A   1      34.360  21.313  26.141  1.00  0.00     0.009 A 
ATOM     23  C   UNL A   1      35.251  19.656  24.626  1.00  0.00     0.024 A 
ATOM     24  C   UNL A   1      33.156  20.614  26.210  1.00  0.00     0.002 A 
ATOM     25  C   UNL A   1      34.034  18.972  24.685  1.00  0.00     0.018 A 
ATOM     26  C   UNL A   1      32.988  19.444  25.477  1.00  0.00     0.016 A 
ATOM     27  Br  UNL A   1      33.775  17.436  23.618  1.00  0.00    -0.051 Br
ENDBRANCH   9  21
ENDBRANCH   7   9
ENDBRANCH   6   7
ENDBRANCH   5   6
ENDBRANCH   4   5
ENDBRANCH   3   4
ENDBRANCH   2   3
ENDBRANCH   1   2
BRANCH   1  28
ATOM     28  O   UNL A   1      44.615  24.304  24.512  1.00  0.00    -0.376 OA
BRANCH  28  29
ATOM     29  C   UNL A   1      44.094  25.328  25.348  1.00  0.00     0.202 C 
BRANCH  29  30
ATOM     30  C   UNL A   1      42.577  25.587  25.426  1.00  0.00     0.261 C 
BRANCH  30  31
ATOM     31  O   UNL A   1      41.971  25.516  26.726  1.00  0.00    -0.460 OA
BRANCH  31  32
ATOM     32  C   UNL A   1      40.645  25.813  26.769  1.00  0.00     0.338 C 
ATOM     33  O   UNL A   1      39.760  25.308  26.108  1.00  0.00    -0.246 OA
BRANCH  32  34
ATOM     34  C   UNL A   1      40.383  26.734  27.901  1.00  0.00     0.060 A 
ATOM     35  C   UNL A   1      41.061  27.961  27.932  1.00  0.00     0.016 A 
ATOM     36  C   UNL A   1      39.526  26.379  28.944  1.00  0.00     0.016 A 
ATOM     37  C   UNL A   1      40.895  28.830  29.010  1.00  0.00     0.010 A 
ATOM     38  C   UNL A   1      39.384  27.240  30.042  1.00  0.00     0.010 A 
ATOM     39  C   UNL A   1      40.086  28.459  30.091  1.00  0.00    -0.014 A 
BRANCH  39  40
ATOM     40  C   UNL A   1      40.123  29.266  31.337  1.00  0.00     0.031 A 
ATOM     41  C   UNL A   1      41.253  29.045  32.307  1.00  0.00     0.074 A 
ATOM     42  C   UNL A   1      39.198  30.210  31.589  1.00  0.00     0.049 A 
ATOM     43  N   UNL A   1      41.498  29.643  33.443  1.00  0.00    -0.248 NA
ATOM     44  C   UNL A   1      42.232  28.007  31.947  1.00  0.00     0.031 C 
ATOM     45  C   UNL A   1      38.069  30.538  30.722  1.00  0.00     0.029 A 
ATOM     46  N   UNL A   1      39.071  31.075  32.647  1.00  0.00    -0.354 N 
ATOM     47  C   UNL A   1      42.651  29.048  33.941  1.00  0.00     0.074 A 
ATOM     48  C   UNL A   1      43.044  28.028  32.993  1.00  0.00     0.031 C 
ATOM     49  C   UNL A   1      37.378  31.554  31.268  1.00  0.00     0.029 A 
ATOM     50  C   UNL A   1      37.983  31.911  32.553  1.00  0.00     0.049 A 
ATOM     51  H   UNL A   1      39.700  31.095  33.403  1.00  0.00     0.167 HD
ATOM     52  C   UNL A   1      43.321  29.322  35.087  1.00  0.00     0.031 A 
ATOM     53  C   UNL A   1      37.515  32.841  33.411  1.00  0.00     0.031 A 
ATOM     54  C   UNL A   1      42.913  30.313  36.047  1.00  0.00     0.049 A 
ATOM     55  C   UNL A   1      38.241  33.078  34.713  1.00  0.00     0.074 A 
ATOM     56  C   UNL A   1      43.530  30.662  37.236  1.00  0.00     0.029 A 
ATOM     57  N   UNL A   1      41.779  31.103  35.939  1.00  0.00    -0.354 N 
ATOM     58  N   UNL A   1      39.346  32.526  35.157  1.00  0.00    -0.248 NA
ATOM     59  C   UNL A   1      37.653  34.065  35.630  1.00  0.00     0.031 C 
ATOM     60  C   UNL A   1      42.734  31.616  37.878  1.00  0.00     0.029 A 
ATOM     61  C   UNL A   1      41.661  31.917  37.055  1.00  0.00     0.049 A 
ATOM     62  H   UNL A   1      41.151  31.090  35.182  1.00  0.00     0.167 HD
ATOM     63  C   UNL A   1      39.595  33.113  36.396  1.00  0.00     0.074 A 
ATOM     64  C   UNL A   1      38.540  34.081  36.617  1.00  0.00     0.031 C 
ATOM     65  C   UNL A   1      40.602  32.871  37.272  1.00  0.00     0.031 A 
BRANCH  52  66
ATOM     66  C   UNL A   1      44.544  28.494  35.386  1.00  0.00    -0.014 A 
ATOM     67  C   UNL A   1      44.488  27.396  36.263  1.00  0.00     0.010 A 
ATOM     68  C   UNL A   1      45.763  28.805  34.756  1.00  0.00     0.010 A 
ATOM     69  C   UNL A   1      45.638  26.650  36.535  1.00  0.00     0.020 A 
ATOM     70  C   UNL A   1      46.908  28.043  35.002  1.00  0.00     0.020 A 
ATOM     71  C   UNL A   1      46.841  26.979  35.904  1.00  0.00     0.054 A 
BRANCH  71  72
ATOM     72  S   UNL A   1      48.314  25.983  36.263  1.00  0.00     0.124 S 
ATOM     73  O   UNL A   1      49.391  26.880  35.852  1.00  0.00    -0.237 OA
ATOM     74  O   UNL A   1      48.201  25.756  37.702  1.00  0.00    -0.237 OA
ATOM     75  O   UNL A   1      48.142  24.795  35.432  1.00  0.00    -0.744 OA
ENDBRANCH  71  72
ENDBRANCH  52  66
BRANCH  53  76
ATOM     76  C   UNL A   1      36.273  33.601  33.091  1.00  0.00    -0.014 A 
ATOM     77  C   UNL A   1      36.336  34.846  32.440  1.00  0.00     0.010 A 
ATOM     78  C   UNL A   1      35.015  33.090  33.460  1.00  0.00     0.010 A 
ATOM     79  C   UNL A   1      35.169  35.573  32.182  1.00  0.00     0.020 A 
ATOM     80  C   UNL A   1      33.844  33.797  33.174  1.00  0.00     0.020 A 
ATOM     81  C   UNL A   1      33.930  35.041  32.547  1.00  0.00     0.054 A 
BRANCH  81  82
ATOM     82  S   UNL A   1      32.424  35.980  32.163  1.00  0.00     0.124 S 
ATOM     83  O   UNL A   1      32.533  37.114  33.075  1.00  0.00    -0.237 OA
ATOM     84  O   UNL A   1      32.598  36.285  30.746  1.00  0.00    -0.237 OA
ATOM     85  O   UNL A   1      31.349  35.038  32.463  1.00  0.00    -0.744 OA
ENDBRANCH  81  82
ENDBRANCH  53  76
BRANCH  65  86
ATOM     86  C   UNL A   1      40.634  33.686  38.541  1.00  0.00    -0.014 A 
ATOM     87  C   UNL A   1      40.025  33.227  39.725  1.00  0.00     0.010 A 
ATOM     88  C   UNL A   1      41.323  34.913  38.563  1.00  0.00     0.010 A 
ATOM     89  C   UNL A   1      40.067  34.001  40.889  1.00  0.00     0.020 A 
ATOM     90  C   UNL A   1      41.396  35.675  39.733  1.00  0.00     0.020 A 
ATOM     91  C   UNL A   1      40.752  35.221  40.885  1.00  0.00     0.054 A 
BRANCH  91  92
ATOM     92  S   UNL A   1      40.813  36.194  42.415  1.00  0.00     0.124 S 
ATOM     93  O   UNL A   1      39.490  36.812  42.437  1.00  0.00    -0.237 OA
ATOM     94  O   UNL A   1      41.045  35.172  43.435  1.00  0.00    -0.237 OA
ATOM     95  O   UNL A   1      41.928  37.114  42.198  1.00  0.00    -0.744 OA
ENDBRANCH  91  92
ENDBRANCH  65  86
ENDBRANCH  39  40
ENDBRANCH  32  34
ENDBRANCH  31  32
ENDBRANCH  30  31
ENDBRANCH  29  30
ENDBRANCH  28  29
ENDBRANCH   1  28
TORSDOF 23
ENDMDL
MODEL 2
REMARK VINA RESULT:     -10.2      1.482      7.931
REMARK SMILES CS(=O)(=O)c1ccc(/C=C(/C(=O)OCCOCCOCCOC(=O)c2ccc(-c3c4nc(c(-c5ccc(S(=O)(=O)[O-])cc5)c5ccc([nH]5)c(-c5ccc(S(=O)(=O)[O-])cc5)c5nc(c(-c6ccc(S(=O)(=O)[O-])cc6)c6ccc3[nH]6)C=C5)C=C4)cc2)c2cccc(Br)c2)cc1
REMARK SMILES IDX 18 1 17 2 16 3 15 4 14 5 13 6 11 7 12 8 10 9 9 10 8 11 5 12
REMARK SMILES IDX 6 13 93 14 7 15 92 16 2 17 1 18 3 19 4 20 85 21 86 22 91 23
REMARK SMILES IDX 87 24 89 25 88 26 90 27 19 28 20 29 21 30 22 31 23 32 24 33
REMARK SMILES IDX 25 34 26 35 84 36 27 37 83 38 28 39 29 40 30 41 77 42 31 43
REMARK SMILES IDX 82 44 76 45 78 46 32 47 81 48 75 49 74 50 33 52 63 53 44 54
REMARK SMILES IDX 62 55 45 56 48 57 61 58 79 59 46 60 47 61 60 63 80 64 49 65
REMARK SMILES IDX 34 66 35 67 43 68 36 69 42 70 37 71 38 72 39 73 40 74 41 75
REMARK SMILES IDX 64 76 65 77 73 78 66 79 72 80 67 81 68 82 69 83 70 84 71 85
REMARK SMILES IDX 50 86 51 87 59 88 52 89 58 90 53 91 54 92 55 93 56 94 57 95
REMARK H PARENT 78 51 48 62
REMARK Flexibility Score: inf
ROOT
ATOM      1  C   UNL A   1      44.065  22.606  24.117  1.00  0.00     0.188 C 
ENDROOT
BRANCH   1   2
ATOM      2  C   UNL A   1      43.754  22.024  25.513  1.00  0.00     0.188 C 
BRANCH   2   3
ATOM      3  O   UNL A   1      42.472  21.438  25.586  1.00  0.00    -0.376 OA
BRANCH   3   4
ATOM      4  C   UNL A   1      41.418  22.240  26.085  1.00  0.00     0.202 C 
BRANCH   4   5
ATOM      5  C   UNL A   1      40.062  21.619  26.483  1.00  0.00     0.261 C 
BRANCH   5   6
ATOM      6  O   UNL A   1      38.874  22.213  25.934  1.00  0.00    -0.460 OA
BRANCH   6   7
ATOM      7  C   UNL A   1      37.956  21.386  25.370  1.00  0.00     0.338 C 
ATOM      8  O   UNL A   1      38.147  20.210  25.106  1.00  0.00    -0.246 OA
BRANCH   7   9
ATOM      9  C   UNL A   1      36.627  22.079  25.212  1.00  0.00     0.067 C 
ATOM     10  C   UNL A   1      36.583  23.345  24.724  1.00  0.00     0.024 C 
BRANCH  10  11
ATOM     11  C   UNL A   1      35.396  24.151  24.336  1.00  0.00    -0.025 A 
ATOM     12  C   UNL A   1      32.873  25.202  23.684  1.00  0.00     0.067 A 
ATOM     13  C   UNL A   1      33.504  25.598  24.861  1.00  0.00     0.021 A 
ATOM     14  C   UNL A   1      33.538  24.384  22.769  1.00  0.00     0.021 A 
ATOM     15  C   UNL A   1      34.778  25.104  25.158  1.00  0.00     0.009 A 
ATOM     16  C   UNL A   1      34.798  23.870  23.096  1.00  0.00     0.009 A 
BRANCH  12  17
ATOM     17  S   UNL A   1      31.169  25.622  23.406  1.00  0.00     0.175 S 
ATOM     18  C   UNL A   1      30.651  26.426  24.893  1.00  0.00     0.163 C 
ATOM     19  O   UNL A   1      30.415  24.388  23.299  1.00  0.00    -0.224 OA
ATOM     20  O   UNL A   1      31.150  26.607  22.339  1.00  0.00    -0.224 OA
ENDBRANCH  12  17
ENDBRANCH  10  11
BRANCH   9  21
ATOM     21  C   UNL A   1      35.412  21.326  25.597  1.00  0.00    -0.010 A 
ATOM     22  C   UNL A   1      34.745  21.662  26.788  1.00  0.00     0.009 A 
ATOM     23  C   UNL A   1      34.834  20.382  24.741  1.00  0.00     0.024 A 
ATOM     24  C   UNL A   1      33.515  21.087  27.103  1.00  0.00     0.002 A 
ATOM     25  C   UNL A   1      33.592  19.826  25.054  1.00  0.00     0.018 A 
ATOM     26  C   UNL A   1      32.932  20.171  26.233  1.00  0.00     0.016 A 
ATOM     27  Br  UNL A   1      32.759  18.654  23.830  1.00  0.00    -0.051 Br
ENDBRANCH   9  21
ENDBRANCH   7   9
ENDBRANCH   6   7
ENDBRANCH   5   6
ENDBRANCH   4   5
ENDBRANCH   3   4
ENDBRANCH   2   3
ENDBRANCH   1   2
BRANCH   1  28
ATOM     28  O   UNL A   1      45.267  23.332  23.896  1.00  0.00    -0.376 OA
BRANCH  28  29
ATOM     29  C   UNL A   1      45.846  24.058  24.971  1.00  0.00     0.202 C 
BRANCH  29  30
ATOM     30  C   UNL A   1      45.254  25.406  25.422  1.00  0.00     0.261 C 
BRANCH  30  31
ATOM     31  O   UNL A   1      44.238  25.364  26.437  1.00  0.00    -0.460 OA
BRANCH  31  32
ATOM     32  C   UNL A   1      43.033  25.879  26.077  1.00  0.00     0.338 C 
ATOM     33  O   UNL A   1      42.381  25.597  25.091  1.00  0.00    -0.246 OA
BRANCH  32  34
ATOM     34  C   UNL A   1      42.507  26.720  27.180  1.00  0.00     0.060 A 
ATOM     35  C   UNL A   1      43.031  28.010  27.341  1.00  0.00     0.016 A 
ATOM     36  C   UNL A   1      41.552  26.233  28.075  1.00  0.00     0.016 A 
ATOM     37  C   UNL A   1      42.614  28.812  28.403  1.00  0.00     0.010 A 
ATOM     38  C   UNL A   1      41.157  27.028  29.159  1.00  0.00     0.010 A 
ATOM     39  C   UNL A   1      41.703  28.312  29.342  1.00  0.00    -0.014 A 
BRANCH  39  40
ATOM     40  C   UNL A   1      41.468  29.067  30.599  1.00  0.00     0.031 A 
ATOM     41  C   UNL A   1      40.301  30.014  30.665  1.00  0.00     0.074 A 
ATOM     42  C   UNL A   1      42.249  28.887  31.681  1.00  0.00     0.049 A 
ATOM     43  N   UNL A   1      39.895  30.761  31.659  1.00  0.00    -0.248 NA
ATOM     44  C   UNL A   1      39.487  30.138  29.445  1.00  0.00     0.031 C 
ATOM     45  C   UNL A   1      43.394  27.984  31.755  1.00  0.00     0.029 A 
ATOM     46  N   UNL A   1      42.184  29.451  32.931  1.00  0.00    -0.354 N 
ATOM     47  C   UNL A   1      38.787  31.452  31.183  1.00  0.00     0.074 A 
ATOM     48  C   UNL A   1      38.598  31.051  29.805  1.00  0.00     0.031 C 
ATOM     49  C   UNL A   1      43.910  28.033  32.996  1.00  0.00     0.029 A 
ATOM     50  C   UNL A   1      43.167  29.013  33.788  1.00  0.00     0.049 A 
ATOM     51  H   UNL A   1      41.500  30.109  33.189  1.00  0.00     0.167 HD
ATOM     52  C   UNL A   1      38.000  32.344  31.831  1.00  0.00     0.031 A 
ATOM     53  C   UNL A   1      43.447  29.375  35.057  1.00  0.00     0.031 A 
ATOM     54  C   UNL A   1      38.206  32.770  33.190  1.00  0.00     0.049 A 
ATOM     55  C   UNL A   1      42.596  30.423  35.733  1.00  0.00     0.074 A 
ATOM     56  C   UNL A   1      37.458  33.668  33.932  1.00  0.00     0.029 A 
ATOM     57  N   UNL A   1      39.240  32.340  34.008  1.00  0.00    -0.354 N 
ATOM     58  N   UNL A   1      41.535  31.047  35.278  1.00  0.00    -0.248 NA
ATOM     59  C   UNL A   1      42.985  30.814  37.096  1.00  0.00     0.031 C 
ATOM     60  C   UNL A   1      38.078  33.832  35.175  1.00  0.00     0.029 A 
ATOM     61  C   UNL A   1      39.169  32.979  35.236  1.00  0.00     0.049 A 
ATOM     62  H   UNL A   1      39.923  31.679  33.755  1.00  0.00     0.167 HD
ATOM     63  C   UNL A   1      41.119  31.891  36.306  1.00  0.00     0.074 A 
ATOM     64  C   UNL A   1      42.027  31.675  37.414  1.00  0.00     0.031 C 
ATOM     65  C   UNL A   1      40.083  32.766  36.331  1.00  0.00     0.031 A 
BRANCH  52  66
ATOM     66  C   UNL A   1      36.867  32.960  31.051  1.00  0.00    -0.014 A 
ATOM     67  C   UNL A   1      37.107  33.875  30.010  1.00  0.00     0.010 A 
ATOM     68  C   UNL A   1      35.541  32.595  31.348  1.00  0.00     0.010 A 
ATOM     69  C   UNL A   1      36.040  34.442  29.308  1.00  0.00     0.020 A 
ATOM     70  C   UNL A   1      34.473  33.137  30.628  1.00  0.00     0.020 A 
ATOM     71  C   UNL A   1      34.730  34.072  29.623  1.00  0.00     0.054 A 
BRANCH  71  72
ATOM     72  S   UNL A   1      33.366  34.812  28.684  1.00  0.00     0.124 S 
ATOM     73  O   UNL A   1      33.038  33.746  27.740  1.00  0.00    -0.237 OA
ATOM     74  O   UNL A   1      32.366  35.062  29.719  1.00  0.00    -0.237 OA
ATOM     75  O   UNL A   1      33.959  36.007  28.092  1.00  0.00    -0.744 OA
ENDBRANCH  71  72
ENDBRANCH  52  66
BRANCH  53  76
ATOM     76  C   UNL A   1      44.609  28.772  35.771  1.00  0.00    -0.014 A 
ATOM     77  C   UNL A   1      45.856  29.423  35.801  1.00  0.00     0.010 A 
ATOM     78  C   UNL A   1      44.478  27.524  36.407  1.00  0.00     0.010 A 
ATOM     79  C   UNL A   1      46.952  28.829  36.435  1.00  0.00     0.020 A 
ATOM     80  C   UNL A   1      45.562  26.943  37.072  1.00  0.00     0.020 A 
ATOM     81  C   UNL A   1      46.796  27.594  37.071  1.00  0.00     0.054 A 
BRANCH  81  82
ATOM     82  S   UNL A   1      48.220  26.862  37.927  1.00  0.00     0.124 S 
ATOM     83  O   UNL A   1      48.210  27.579  39.199  1.00  0.00    -0.237 OA
ATOM     84  O   UNL A   1      47.855  25.450  37.991  1.00  0.00    -0.237 OA
ATOM     85  O   UNL A   1      49.343  27.169  37.046  1.00  0.00    -0.744 OA
ENDBRANCH  81  82
ENDBRANCH  53  76
BRANCH  65  86
ATOM     86  C   UNL A   1      39.851  33.539  37.606  1.00  0.00    -0.014 A 
ATOM     87  C   UNL A   1      40.476  34.778  37.838  1.00  0.00     0.010 A 
ATOM     88  C   UNL A   1      38.957  33.036  38.570  1.00  0.00     0.010 A 
ATOM     89  C   UNL A   1      40.246  35.476  39.028  1.00  0.00     0.020 A 
ATOM     90  C   UNL A   1      38.699  33.746  39.747  1.00  0.00     0.020 A 
ATOM     91  C   UNL A   1      39.359  34.954  39.975  1.00  0.00     0.054 A 
BRANCH  91  92
ATOM     92  S   UNL A   1      39.059  35.890  41.500  1.00  0.00     0.124 S 
ATOM     93  O   UNL A   1      37.760  35.374  41.925  1.00  0.00    -0.237 OA
ATOM     94  O   UNL A   1      40.192  35.506  42.340  1.00  0.00    -0.237 OA
ATOM     95  O   UNL A   1      39.062  37.284  41.060  1.00  0.00    -0.744 OA
ENDBRANCH  91  92
ENDBRANCH  65  86
ENDBRANCH  39  40
ENDBRANCH  32  34
ENDBRANCH  31  32
ENDBRANCH  30  31
ENDBRANCH  29  30
ENDBRANCH  28  29
ENDBRANCH   1  28
TORSDOF 23
ENDMDL
MODEL 3
REMARK VINA RESULT:      -8.8      5.685     11.827
REMARK SMILES CS(=O)(=O)c1ccc(/C=C(/C(=O)OCCOCCOCCOC(=O)c2ccc(-c3c4nc(c(-c5ccc(S(=O)(=O)[O-])cc5)c5ccc([nH]5)c(-c5ccc(S(=O)(=O)[O-])cc5)c5nc(c(-c6ccc(S(=O)(=O)[O-])cc6)c6ccc3[nH]6)C=C5)C=C4)cc2)c2cccc(Br)c2)cc1
REMARK SMILES IDX 18 1 17 2 16 3 15 4 14 5 13 6 11 7 12 8 10 9 9 10 8 11 5 12
REMARK SMILES IDX 6 13 93 14 7 15 92 16 2 17 1 18 3 19 4 20 85 21 86 22 91 23
REMARK SMILES IDX 87 24 89 25 88 26 90 27 19 28 20 29 21 30 22 31 23 32 24 33
REMARK SMILES IDX 25 34 26 35 84 36 27 37 83 38 28 39 29 40 30 41 77 42 31 43
REMARK SMILES IDX 82 44 76 45 78 46 32 47 81 48 75 49 74 50 33 52 63 53 44 54
REMARK SMILES IDX 62 55 45 56 48 57 61 58 79 59 46 60 47 61 60 63 80 64 49 65
REMARK SMILES IDX 34 66 35 67 43 68 36 69 42 70 37 71 38 72 39 73 40 74 41 75
REMARK SMILES IDX 64 76 65 77 73 78 66 79 72 80 67 81 68 82 69 83 70 84 71 85
REMARK SMILES IDX 50 86 51 87 59 88 52 89 58 90 53 91 54 92 55 93 56 94 57 95
REMARK H PARENT 78 51 48 62
REMARK Flexibility Score: inf
ROOT
ATOM      1  C   UNL A   1      37.974  28.601  30.019  1.00  0.00     0.188 C 
ENDROOT
BRANCH   1   2
ATOM      2  C   UNL A   1      38.544  29.457  28.868  1.00  0.00     0.188 C 
BRANCH   2   3
ATOM      3  O   UNL A   1      37.538  30.118  28.130  1.00  0.00    -0.376 OA
BRANCH   3   4
ATOM      4  C   UNL A   1      36.273  29.488  28.045  1.00  0.00     0.202 C 
BRANCH   4   5
ATOM      5  C   UNL A   1      35.010  30.284  27.654  1.00  0.00     0.261 C 
BRANCH   5   6
ATOM      6  O   UNL A   1      33.748  29.600  27.721  1.00  0.00    -0.460 OA
BRANCH   6   7
ATOM      7  C   UNL A   1      32.898  29.736  26.670  1.00  0.00     0.338 C 
ATOM      8  O   UNL A   1      32.374  30.785  26.330  1.00  0.00    -0.246 OA
BRANCH   7   9
ATOM      9  C   UNL A   1      32.770  28.445  25.905  1.00  0.00     0.067 C 
ATOM     10  C   UNL A   1      33.505  27.367  26.279  1.00  0.00     0.024 C 
BRANCH  10  11
ATOM     11  C   UNL A   1      33.423  25.968  25.784  1.00  0.00    -0.025 A 
ATOM     12  C   UNL A   1      33.746  23.256  25.123  1.00  0.00     0.067 A 
ATOM     13  C   UNL A   1      32.735  23.638  26.001  1.00  0.00     0.021 A 
ATOM     14  C   UNL A   1      34.519  24.221  24.477  1.00  0.00     0.021 A 
ATOM     15  C   UNL A   1      32.552  24.993  26.292  1.00  0.00     0.009 A 
ATOM     16  C   UNL A   1      34.348  25.571  24.804  1.00  0.00     0.009 A 
BRANCH  12  17
ATOM     17  S   UNL A   1      34.149  21.535  24.928  1.00  0.00     0.175 S 
ATOM     18  C   UNL A   1      33.766  20.799  26.490  1.00  0.00     0.163 C 
ATOM     19  O   UNL A   1      35.584  21.430  24.744  1.00  0.00    -0.224 OA
ATOM     20  O   UNL A   1      33.225  20.998  23.946  1.00  0.00    -0.224 OA
ENDBRANCH  12  17
ENDBRANCH  10  11
BRANCH   9  21
ATOM     21  C   UNL A   1      31.825  28.413  24.767  1.00  0.00    -0.010 A 
ATOM     22  C   UNL A   1      32.242  28.894  23.514  1.00  0.00     0.009 A 
ATOM     23  C   UNL A   1      30.574  27.793  24.871  1.00  0.00     0.024 A 
ATOM     24  C   UNL A   1      31.439  28.737  22.385  1.00  0.00     0.002 A 
ATOM     25  C   UNL A   1      29.785  27.621  23.732  1.00  0.00     0.018 A 
ATOM     26  C   UNL A   1      30.210  28.093  22.490  1.00  0.00     0.016 A 
ATOM     27  Br  UNL A   1      28.160  26.667  23.858  1.00  0.00    -0.051 Br
ENDBRANCH   9  21
ENDBRANCH   7   9
ENDBRANCH   6   7
ENDBRANCH   5   6
ENDBRANCH   4   5
ENDBRANCH   3   4
ENDBRANCH   2   3
ENDBRANCH   1   2
BRANCH   1  28
ATOM     28  O   UNL A   1      38.526  28.698  31.325  1.00  0.00    -0.376 OA
BRANCH  28  29
ATOM     29  C   UNL A   1      37.665  28.958  32.424  1.00  0.00     0.202 C 
BRANCH  29  30
ATOM     30  C   UNL A   1      36.898  30.291  32.526  1.00  0.00     0.261 C 
BRANCH  30  31
ATOM     31  O   UNL A   1      37.480  31.315  33.350  1.00  0.00    -0.460 OA
BRANCH  31  32
ATOM     32  C   UNL A   1      38.037  32.357  32.678  1.00  0.00     0.338 C 
ATOM     33  O   UNL A   1      37.609  33.491  32.601  1.00  0.00    -0.246 OA
BRANCH  32  34
ATOM     34  C   UNL A   1      39.382  31.966  32.191  1.00  0.00     0.060 A 
ATOM     35  C   UNL A   1      39.705  32.223  30.851  1.00  0.00     0.016 A 
ATOM     36  C   UNL A   1      40.295  31.312  33.020  1.00  0.00     0.016 A 
ATOM     37  C   UNL A   1      40.933  31.815  30.332  1.00  0.00     0.010 A 
ATOM     38  C   UNL A   1      41.516  30.874  32.489  1.00  0.00     0.010 A 
ATOM     39  C   UNL A   1      41.832  31.103  31.137  1.00  0.00    -0.014 A 
BRANCH  39  40
ATOM     40  C   UNL A   1      43.010  30.452  30.510  1.00  0.00     0.031 A 
ATOM     41  C   UNL A   1      44.322  31.189  30.499  1.00  0.00     0.074 A 
ATOM     42  C   UNL A   1      42.933  29.211  29.995  1.00  0.00     0.049 A 
ATOM     43  N   UNL A   1      45.480  30.811  30.024  1.00  0.00    -0.248 NA
ATOM     44  C   UNL A   1      44.323  32.534  31.098  1.00  0.00     0.031 C 
ATOM     45  C   UNL A   1      41.731  28.382  29.965  1.00  0.00     0.029 A 
ATOM     46  N   UNL A   1      43.896  28.426  29.410  1.00  0.00    -0.354 N 
ATOM     47  C   UNL A   1      46.346  31.873  30.256  1.00  0.00     0.074 A 
ATOM     48  C   UNL A   1      45.574  32.917  30.894  1.00  0.00     0.031 C 
ATOM     49  C   UNL A   1      42.033  27.193  29.415  1.00  0.00     0.029 A 
ATOM     50  C   UNL A   1      43.437  27.196  29.003  1.00  0.00     0.049 A 
ATOM     51  H   UNL A   1      44.828  28.719  29.291  1.00  0.00     0.167 HD
ATOM     52  C   UNL A   1      47.665  31.973  29.961  1.00  0.00     0.031 A 
ATOM     53  C   UNL A   1      44.069  26.195  28.355  1.00  0.00     0.031 A 
ATOM     54  C   UNL A   1      48.427  30.949  29.297  1.00  0.00     0.049 A 
ATOM     55  C   UNL A   1      45.520  26.360  27.976  1.00  0.00     0.074 A 
ATOM     56  C   UNL A   1      49.770  30.960  28.958  1.00  0.00     0.029 A 
ATOM     57  N   UNL A   1      47.915  29.738  28.857  1.00  0.00    -0.354 N 
ATOM     58  N   UNL A   1      46.333  27.360  28.227  1.00  0.00    -0.248 NA
ATOM     59  C   UNL A   1      46.139  25.258  27.224  1.00  0.00     0.031 C 
ATOM     60  C   UNL A   1      50.053  29.785  28.255  1.00  0.00     0.029 A 
ATOM     61  C   UNL A   1      48.906  29.007  28.222  1.00  0.00     0.049 A 
ATOM     62  H   UNL A   1      46.985  29.440  28.979  1.00  0.00     0.167 HD
ATOM     63  C   UNL A   1      47.562  26.998  27.679  1.00  0.00     0.074 A 
ATOM     64  C   UNL A   1      47.392  25.677  27.109  1.00  0.00     0.031 C 
ATOM     65  C   UNL A   1      48.726  27.696  27.648  1.00  0.00     0.031 A 
BRANCH  52  66
ATOM     66  C   UNL A   1      48.356  33.265  30.313  1.00  0.00    -0.014 A 
ATOM     67  C   UNL A   1      48.997  33.439  31.553  1.00  0.00     0.010 A 
ATOM     68  C   UNL A   1      48.387  34.313  29.375  1.00  0.00     0.010 A 
ATOM     69  C   UNL A   1      49.621  34.650  31.862  1.00  0.00     0.020 A 
ATOM     70  C   UNL A   1      49.035  35.516  29.668  1.00  0.00     0.020 A 
ATOM     71  C   UNL A   1      49.634  35.682  30.919  1.00  0.00     0.054 A 
BRANCH  71  72
ATOM     72  S   UNL A   1      50.465  37.238  31.341  1.00  0.00     0.124 S 
ATOM     73  O   UNL A   1      49.919  38.152  30.340  1.00  0.00    -0.237 OA
ATOM     74  O   UNL A   1      50.023  37.473  32.713  1.00  0.00    -0.237 OA
ATOM     75  O   UNL A   1      51.884  36.927  31.190  1.00  0.00    -0.744 OA
ENDBRANCH  71  72
ENDBRANCH  52  66
BRANCH  53  76
ATOM     76  C   UNL A   1      43.329  24.954  27.986  1.00  0.00    -0.014 A 
ATOM     77  C   UNL A   1      43.208  23.888  28.897  1.00  0.00     0.010 A 
ATOM     78  C   UNL A   1      42.760  24.823  26.706  1.00  0.00     0.010 A 
ATOM     79  C   UNL A   1      42.549  22.711  28.528  1.00  0.00     0.020 A 
ATOM     80  C   UNL A   1      42.072  23.661  26.345  1.00  0.00     0.020 A 
ATOM     81  C   UNL A   1      41.982  22.607  27.255  1.00  0.00     0.054 A 
BRANCH  81  82
ATOM     82  S   UNL A   1      41.093  21.087  26.811  1.00  0.00     0.124 S 
ATOM     83  O   UNL A   1      41.159  20.324  28.054  1.00  0.00    -0.237 OA
ATOM     84  O   UNL A   1      39.772  21.592  26.446  1.00  0.00    -0.237 OA
ATOM     85  O   UNL A   1      41.875  20.546  25.703  1.00  0.00    -0.744 OA
ENDBRANCH  81  82
ENDBRANCH  53  76
BRANCH  65  86
ATOM     86  C   UNL A   1      49.919  27.036  27.003  1.00  0.00    -0.014 A 
ATOM     87  C   UNL A   1      50.719  26.116  27.706  1.00  0.00     0.010 A 
ATOM     88  C   UNL A   1      50.221  27.309  25.656  1.00  0.00     0.010 A 
ATOM     89  C   UNL A   1      51.822  25.517  27.088  1.00  0.00     0.020 A 
ATOM     90  C   UNL A   1      51.302  26.688  25.023  1.00  0.00     0.020 A 
ATOM     91  C   UNL A   1      52.107  25.809  25.750  1.00  0.00     0.054 A 
BRANCH  91  92
ATOM     92  S   UNL A   1      53.528  25.001  24.963  1.00  0.00     0.124 S 
ATOM     93  O   UNL A   1      53.420  25.469  23.584  1.00  0.00    -0.237 OA
ATOM     94  O   UNL A   1      54.659  25.534  25.720  1.00  0.00    -0.237 OA
ATOM     95  O   UNL A   1      53.271  23.576  25.159  1.00  0.00    -0.744 OA
ENDBRANCH  91  92
ENDBRANCH  65  86
ENDBRANCH  39  40
ENDBRANCH  32  34
ENDBRANCH  31  32
ENDBRANCH  30  31
ENDBRANCH  29  30
ENDBRANCH  28  29
ENDBRANCH   1  28
TORSDOF 23
ENDMDL
