MODEL 1
REMARK VINA RESULT:      -8.5      0.000      0.000
REMARK SMILES CCN(CCOC)C(=O)c1cccn1CC(=O)OCCOCCOCCOC(=O)c1ccc(-c2c3nc(c(-c4ccc(S(=O)(=O)[O-])cc4)c4ccc([nH]4)c(-c4ccc(S(=O)(=O)[O-])cc4)c4nc(c(-c5ccc(S(=O)(=O)[O-])cc5)c5ccc2[nH]5)C=C4)C=C3)cc1
REMARK SMILES IDX 21 1 20 2 19 3 18 4 16 5 17 6 15 7 14 8 10 9 11 10 12 11
REMARK SMILES IDX 13 12 8 13 9 14 3 15 2 16 1 17 4 18 5 19 6 20 7 21 22 22
REMARK SMILES IDX 23 23 24 24 25 25 26 26 27 27 28 28 29 29 30 30 31 31 89 32
REMARK SMILES IDX 32 33 88 34 33 35 34 36 35 37 82 38 36 39 87 40 81 41 83 42
REMARK SMILES IDX 37 43 86 44 80 45 79 46 38 48 68 49 49 50 67 51 50 52 53 53
REMARK SMILES IDX 66 54 84 55 51 56 52 57 65 59 85 60 54 61 39 62 40 63 48 64
REMARK SMILES IDX 41 65 47 66 42 67 43 68 44 69 45 70 46 71 69 72 70 73 78 74
REMARK SMILES IDX 71 75 77 76 72 77 73 78 74 79 75 80 76 81 55 82 56 83 64 84
REMARK SMILES IDX 57 85 63 86 58 87 59 88 60 89 61 90 62 91
REMARK H PARENT 83 47 53 58
REMARK Flexibility Score: inf
ROOT
ATOM      1  O   UNL A   1      32.700  29.720  27.560  1.00  0.00    -0.376 OA
ENDROOT
BRANCH   1   2
ATOM      2  C   UNL A   1      32.856  28.357  27.201  1.00  0.00     0.202 C 
BRANCH   2   3
ATOM      3  C   UNL A   1      31.540  27.705  26.748  1.00  0.00     0.261 C 
BRANCH   3   4
ATOM      4  O   UNL A   1      31.728  26.582  25.857  1.00  0.00    -0.462 OA
BRANCH   4   5
ATOM      5  C   UNL A   1      30.837  25.562  25.932  1.00  0.00     0.326 C 
ATOM      6  O   UNL A   1      29.893  25.542  26.720  1.00  0.00    -0.250 OA
BRANCH   5   7
ATOM      7  C   UNL A   1      31.028  24.460  24.906  1.00  0.00     0.244 C 
BRANCH   7   8
ATOM      8  N   UNL A   1      32.190  24.522  24.010  1.00  0.00    -0.332 N 
ATOM      9  C   UNL A   1      33.474  24.017  24.238  1.00  0.00     0.107 A 
ATOM     10  C   UNL A   1      34.223  24.465  23.153  1.00  0.00     0.033 A 
ATOM     11  C   UNL A   1      33.360  25.024  22.184  1.00  0.00     0.020 A 
ATOM     12  C   UNL A   1      32.098  24.989  22.715  1.00  0.00     0.087 A 
BRANCH   9  13
ATOM     13  C   UNL A   1      33.784  23.142  25.368  1.00  0.00     0.270 C 
ATOM     14  O   UNL A   1      33.835  23.640  26.497  1.00  0.00    -0.267 OA
BRANCH  13  15
ATOM     15  N   UNL A   1      33.991  21.756  25.251  1.00  0.00    -0.335 N 
BRANCH  15  16
ATOM     16  C   UNL A   1      32.796  20.902  25.190  1.00  0.00     0.116 C 
ATOM     17  C   UNL A   1      32.434  20.415  23.791  1.00  0.00     0.027 C 
ENDBRANCH  15  16
BRANCH  15  18
ATOM     18  C   UNL A   1      35.271  21.070  25.035  1.00  0.00     0.148 C 
BRANCH  18  19
ATOM     19  C   UNL A   1      36.473  21.764  25.716  1.00  0.00     0.181 C 
BRANCH  19  20
ATOM     20  O   UNL A   1      37.723  21.454  25.106  1.00  0.00    -0.383 OA
ATOM     21  C   UNL A   1      38.858  21.751  25.907  1.00  0.00     0.194 C 
ENDBRANCH  19  20
ENDBRANCH  18  19
ENDBRANCH  15  18
ENDBRANCH  13  15
ENDBRANCH   9  13
ENDBRANCH   7   8
ENDBRANCH   5   7
ENDBRANCH   4   5
ENDBRANCH   3   4
ENDBRANCH   2   3
ENDBRANCH   1   2
BRANCH   1  22
ATOM     22  C   UNL A   1      33.722  30.638  27.162  1.00  0.00     0.188 C 
BRANCH  22  23
ATOM     23  C   UNL A   1      34.037  31.892  27.997  1.00  0.00     0.188 C 
BRANCH  23  24
ATOM     24  O   UNL A   1      33.163  32.983  27.717  1.00  0.00    -0.376 OA
BRANCH  24  25
ATOM     25  C   UNL A   1      33.736  34.267  27.919  1.00  0.00     0.202 C 
BRANCH  25  26
ATOM     26  C   UNL A   1      33.006  34.954  29.065  1.00  0.00     0.261 C 
BRANCH  26  27
ATOM     27  O   UNL A   1      33.895  35.434  30.073  1.00  0.00    -0.460 OA
BRANCH  27  28
ATOM     28  C   UNL A   1      33.852  34.753  31.225  1.00  0.00     0.338 C 
ATOM     29  O   UNL A   1      33.135  34.967  32.210  1.00  0.00    -0.246 OA
BRANCH  28  30
ATOM     30  C   UNL A   1      34.887  33.745  31.227  1.00  0.00     0.060 A 
ATOM     31  C   UNL A   1      34.803  32.735  32.192  1.00  0.00     0.016 A 
ATOM     32  C   UNL A   1      36.074  34.086  30.571  1.00  0.00     0.016 A 
ATOM     33  C   UNL A   1      35.975  32.183  32.645  1.00  0.00     0.010 A 
ATOM     34  C   UNL A   1      37.244  33.589  31.074  1.00  0.00     0.010 A 
ATOM     35  C   UNL A   1      37.181  32.678  32.135  1.00  0.00    -0.014 A 
BRANCH  35  36
ATOM     36  C   UNL A   1      38.434  32.156  32.660  1.00  0.00     0.031 A 
ATOM     37  C   UNL A   1      38.897  30.961  31.835  1.00  0.00     0.074 A 
ATOM     38  C   UNL A   1      38.925  32.813  33.755  1.00  0.00     0.049 A 
ATOM     39  N   UNL A   1      39.760  30.052  32.144  1.00  0.00    -0.248 NA
ATOM     40  C   UNL A   1      38.287  30.683  30.497  1.00  0.00     0.031 C 
ATOM     41  C   UNL A   1      38.283  33.988  34.403  1.00  0.00     0.029 A 
ATOM     42  N   UNL A   1      40.038  32.649  34.548  1.00  0.00    -0.354 N 
ATOM     43  C   UNL A   1      39.938  29.234  31.014  1.00  0.00     0.074 A 
ATOM     44  C   UNL A   1      38.947  29.611  30.059  1.00  0.00     0.031 C 
ATOM     45  C   UNL A   1      38.957  34.358  35.514  1.00  0.00     0.029 A 
ATOM     46  C   UNL A   1      40.118  33.507  35.675  1.00  0.00     0.049 A 
ATOM     47  H   UNL A   1      40.733  31.981  34.345  1.00  0.00     0.167 HD
ATOM     48  C   UNL A   1      40.985  28.373  30.898  1.00  0.00     0.031 A 
ATOM     49  C   UNL A   1      41.041  33.508  36.684  1.00  0.00     0.031 A 
ATOM     50  C   UNL A   1      41.752  28.378  32.099  1.00  0.00     0.049 A 
ATOM     51  C   UNL A   1      42.093  32.572  36.263  1.00  0.00     0.074 A 
ATOM     52  C   UNL A   1      41.469  27.904  33.354  1.00  0.00     0.029 A 
ATOM     53  N   UNL A   1      42.765  29.305  32.174  1.00  0.00    -0.354 N 
ATOM     54  N   UNL A   1      42.953  32.800  35.318  1.00  0.00    -0.248 NA
ATOM     55  C   UNL A   1      42.162  31.246  36.890  1.00  0.00     0.031 C 
ATOM     56  C   UNL A   1      41.977  28.911  34.197  1.00  0.00     0.029 A 
ATOM     57  C   UNL A   1      42.739  29.816  33.449  1.00  0.00     0.049 A 
ATOM     58  H   UNL A   1      43.389  29.555  31.454  1.00  0.00     0.167 HD
ATOM     59  C   UNL A   1      43.350  31.533  34.977  1.00  0.00     0.074 A 
ATOM     60  C   UNL A   1      43.121  30.705  36.142  1.00  0.00     0.031 C 
ATOM     61  C   UNL A   1      43.271  31.141  33.677  1.00  0.00     0.031 A 
BRANCH  48  62
ATOM     62  C   UNL A   1      41.543  27.657  29.712  1.00  0.00    -0.014 A 
ATOM     63  C   UNL A   1      42.803  28.101  29.245  1.00  0.00     0.010 A 
ATOM     64  C   UNL A   1      40.767  26.855  28.864  1.00  0.00     0.010 A 
ATOM     65  C   UNL A   1      43.205  27.887  27.930  1.00  0.00     0.020 A 
ATOM     66  C   UNL A   1      41.186  26.602  27.548  1.00  0.00     0.020 A 
ATOM     67  C   UNL A   1      42.372  27.170  27.077  1.00  0.00     0.054 A 
BRANCH  67  68
ATOM     68  S   UNL A   1      42.827  27.082  25.325  1.00  0.00     0.124 S 
ATOM     69  O   UNL A   1      44.283  26.984  25.393  1.00  0.00    -0.237 OA
ATOM     70  O   UNL A   1      42.138  25.872  24.881  1.00  0.00    -0.237 OA
ATOM     71  O   UNL A   1      42.304  28.328  24.772  1.00  0.00    -0.744 OA
ENDBRANCH  67  68
ENDBRANCH  48  62
BRANCH  49  72
ATOM     72  C   UNL A   1      41.201  34.094  38.067  1.00  0.00    -0.014 A 
ATOM     73  C   UNL A   1      41.687  35.370  38.377  1.00  0.00     0.010 A 
ATOM     74  C   UNL A   1      40.659  33.357  39.160  1.00  0.00     0.010 A 
ATOM     75  C   UNL A   1      41.483  35.931  39.661  1.00  0.00     0.020 A 
ATOM     76  C   UNL A   1      40.399  33.917  40.410  1.00  0.00     0.020 A 
ATOM     77  C   UNL A   1      40.784  35.224  40.647  1.00  0.00     0.054 A 
BRANCH  77  78
ATOM     78  S   UNL A   1      40.228  36.038  42.172  1.00  0.00     0.124 S 
ATOM     79  O   UNL A   1      38.830  36.335  41.877  1.00  0.00    -0.237 OA
ATOM     80  O   UNL A   1      40.457  35.014  43.188  1.00  0.00    -0.237 OA
ATOM     81  O   UNL A   1      41.107  37.204  42.273  1.00  0.00    -0.744 OA
ENDBRANCH  77  78
ENDBRANCH  49  72
BRANCH  61  82
ATOM     82  C   UNL A   1      43.339  32.270  32.650  1.00  0.00    -0.014 A 
ATOM     83  C   UNL A   1      42.194  32.593  31.896  1.00  0.00     0.010 A 
ATOM     84  C   UNL A   1      44.528  32.954  32.325  1.00  0.00     0.010 A 
ATOM     85  C   UNL A   1      42.232  33.531  30.853  1.00  0.00     0.020 A 
ATOM     86  C   UNL A   1      44.580  33.901  31.282  1.00  0.00     0.020 A 
ATOM     87  C   UNL A   1      43.428  34.181  30.548  1.00  0.00     0.054 A 
BRANCH  87  88
ATOM     88  S   UNL A   1      43.445  35.376  29.176  1.00  0.00     0.124 S 
ATOM     89  O   UNL A   1      43.797  34.547  28.025  1.00  0.00    -0.237 OA
ATOM     90  O   UNL A   1      42.077  35.886  29.183  1.00  0.00    -0.237 OA
ATOM     91  O   UNL A   1      44.468  36.345  29.567  1.00  0.00    -0.744 OA
ENDBRANCH  87  88
ENDBRANCH  61  82
ENDBRANCH  35  36
ENDBRANCH  28  30
ENDBRANCH  27  28
ENDBRANCH  26  27
ENDBRANCH  25  26
ENDBRANCH  24  25
ENDBRANCH  23  24
ENDBRANCH  22  23
ENDBRANCH   1  22
TORSDOF 27
ENDMDL
MODEL 2
REMARK VINA RESULT:      -8.4      1.560      2.115
REMARK SMILES CCN(CCOC)C(=O)c1cccn1CC(=O)OCCOCCOCCOC(=O)c1ccc(-c2c3nc(c(-c4ccc(S(=O)(=O)[O-])cc4)c4ccc([nH]4)c(-c4ccc(S(=O)(=O)[O-])cc4)c4nc(c(-c5ccc(S(=O)(=O)[O-])cc5)c5ccc2[nH]5)C=C4)C=C3)cc1
REMARK SMILES IDX 21 1 20 2 19 3 18 4 16 5 17 6 15 7 14 8 10 9 11 10 12 11
REMARK SMILES IDX 13 12 8 13 9 14 3 15 2 16 1 17 4 18 5 19 6 20 7 21 22 22
REMARK SMILES IDX 23 23 24 24 25 25 26 26 27 27 28 28 29 29 30 30 31 31 89 32
REMARK SMILES IDX 32 33 88 34 33 35 34 36 35 37 82 38 36 39 87 40 81 41 83 42
REMARK SMILES IDX 37 43 86 44 80 45 79 46 38 48 68 49 49 50 67 51 50 52 53 53
REMARK SMILES IDX 66 54 84 55 51 56 52 57 65 59 85 60 54 61 39 62 40 63 48 64
REMARK SMILES IDX 41 65 47 66 42 67 43 68 44 69 45 70 46 71 69 72 70 73 78 74
REMARK SMILES IDX 71 75 77 76 72 77 73 78 74 79 75 80 76 81 55 82 56 83 64 84
REMARK SMILES IDX 57 85 63 86 58 87 59 88 60 89 61 90 62 91
REMARK H PARENT 83 47 53 58
REMARK Flexibility Score: inf
ROOT
ATOM      1  O   UNL A   1      32.815  30.343  26.838  1.00  0.00    -0.376 OA
ENDROOT
BRANCH   1   2
ATOM      2  C   UNL A   1      32.662  29.929  25.491  1.00  0.00     0.202 C 
BRANCH   2   3
ATOM      3  C   UNL A   1      31.193  29.714  25.096  1.00  0.00     0.261 C 
BRANCH   3   4
ATOM      4  O   UNL A   1      31.000  29.497  23.679  1.00  0.00    -0.462 OA
BRANCH   4   5
ATOM      5  C   UNL A   1      30.422  28.332  23.292  1.00  0.00     0.326 C 
ATOM      6  O   UNL A   1      29.625  28.247  22.360  1.00  0.00    -0.250 OA
BRANCH   5   7
ATOM      7  C   UNL A   1      30.891  27.098  24.041  1.00  0.00     0.244 C 
BRANCH   7   8
ATOM      8  N   UNL A   1      31.878  26.217  23.403  1.00  0.00    -0.332 N 
ATOM      9  C   UNL A   1      32.920  25.515  24.015  1.00  0.00     0.107 A 
ATOM     10  C   UNL A   1      33.637  24.960  22.958  1.00  0.00     0.033 A 
ATOM     11  C   UNL A   1      32.911  25.129  21.758  1.00  0.00     0.020 A 
ATOM     12  C   UNL A   1      31.794  25.857  22.073  1.00  0.00     0.087 A 
BRANCH   9  13
ATOM     13  C   UNL A   1      33.042  25.401  25.468  1.00  0.00     0.270 C 
ATOM     14  O   UNL A   1      33.038  26.438  26.139  1.00  0.00    -0.267 OA
BRANCH  13  15
ATOM     15  N   UNL A   1      33.126  24.176  26.153  1.00  0.00    -0.335 N 
BRANCH  15  16
ATOM     16  C   UNL A   1      31.902  23.685  26.803  1.00  0.00     0.116 C 
ATOM     17  C   UNL A   1      30.612  24.012  26.057  1.00  0.00     0.027 C 
ENDBRANCH  15  16
BRANCH  15  18
ATOM     18  C   UNL A   1      34.267  23.251  26.173  1.00  0.00     0.148 C 
BRANCH  18  19
ATOM     19  C   UNL A   1      33.937  21.843  25.626  1.00  0.00     0.181 C 
BRANCH  19  20
ATOM     20  O   UNL A   1      33.143  21.869  24.444  1.00  0.00    -0.383 OA
ATOM     21  C   UNL A   1      32.447  20.660  24.176  1.00  0.00     0.194 C 
ENDBRANCH  19  20
ENDBRANCH  18  19
ENDBRANCH  15  18
ENDBRANCH  13  15
ENDBRANCH   9  13
ENDBRANCH   7   8
ENDBRANCH   5   7
ENDBRANCH   4   5
ENDBRANCH   3   4
ENDBRANCH   2   3
ENDBRANCH   1   2
BRANCH   1  22
ATOM     22  C   UNL A   1      34.143  30.492  27.346  1.00  0.00     0.188 C 
BRANCH  22  23
ATOM     23  C   UNL A   1      34.531  31.695  28.226  1.00  0.00     0.188 C 
BRANCH  23  24
ATOM     24  O   UNL A   1      33.695  32.830  28.020  1.00  0.00    -0.376 OA
BRANCH  24  25
ATOM     25  C   UNL A   1      34.226  34.053  28.508  1.00  0.00     0.202 C 
BRANCH  25  26
ATOM     26  C   UNL A   1      33.146  34.774  29.304  1.00  0.00     0.261 C 
BRANCH  26  27
ATOM     27  O   UNL A   1      33.673  35.492  30.418  1.00  0.00    -0.460 OA
BRANCH  27  28
ATOM     28  C   UNL A   1      33.190  35.110  31.608  1.00  0.00     0.338 C 
ATOM     29  O   UNL A   1      32.018  35.143  32.000  1.00  0.00    -0.246 OA
BRANCH  28  30
ATOM     30  C   UNL A   1      34.285  34.738  32.473  1.00  0.00     0.060 A 
ATOM     31  C   UNL A   1      35.489  35.437  32.328  1.00  0.00     0.016 A 
ATOM     32  C   UNL A   1      34.196  33.474  33.064  1.00  0.00     0.016 A 
ATOM     33  C   UNL A   1      36.655  34.771  32.611  1.00  0.00     0.010 A 
ATOM     34  C   UNL A   1      35.359  32.787  33.276  1.00  0.00     0.010 A 
ATOM     35  C   UNL A   1      36.573  33.430  33.003  1.00  0.00    -0.014 A 
BRANCH  35  36
ATOM     36  C   UNL A   1      37.804  32.687  33.234  1.00  0.00     0.031 A 
ATOM     37  C   UNL A   1      37.917  31.531  32.246  1.00  0.00     0.074 A 
ATOM     38  C   UNL A   1      38.581  33.152  34.259  1.00  0.00     0.049 A 
ATOM     39  N   UNL A   1      38.669  30.484  32.312  1.00  0.00    -0.248 NA
ATOM     40  C   UNL A   1      37.039  31.481  31.035  1.00  0.00     0.031 C 
ATOM     41  C   UNL A   1      38.258  34.331  35.106  1.00  0.00     0.029 A 
ATOM     42  N   UNL A   1      39.780  32.754  34.805  1.00  0.00    -0.354 N 
ATOM     43  C   UNL A   1      38.510  29.771  31.109  1.00  0.00     0.074 A 
ATOM     44  C   UNL A   1      37.433  30.379  30.397  1.00  0.00     0.031 C 
ATOM     45  C   UNL A   1      39.172  34.486  36.089  1.00  0.00     0.029 A 
ATOM     46  C   UNL A   1      40.196  33.470  35.957  1.00  0.00     0.049 A 
ATOM     47  H   UNL A   1      40.313  32.020  34.421  1.00  0.00     0.167 HD
ATOM     48  C   UNL A   1      39.371  28.790  30.728  1.00  0.00     0.031 A 
ATOM     49  C   UNL A   1      41.274  33.238  36.764  1.00  0.00     0.031 A 
ATOM     50  C   UNL A   1      40.334  28.564  31.753  1.00  0.00     0.049 A 
ATOM     51  C   UNL A   1      42.074  32.215  36.076  1.00  0.00     0.074 A 
ATOM     52  C   UNL A   1      40.213  28.006  32.999  1.00  0.00     0.029 A 
ATOM     53  N   UNL A   1      41.476  29.328  31.699  1.00  0.00    -0.354 N 
ATOM     54  N   UNL A   1      42.774  32.417  35.002  1.00  0.00    -0.248 NA
ATOM     55  C   UNL A   1      42.048  30.834  36.576  1.00  0.00     0.031 C 
ATOM     56  C   UNL A   1      41.016  28.839  33.801  1.00  0.00     0.029 A 
ATOM     57  C   UNL A   1      41.762  29.703  32.990  1.00  0.00     0.049 A 
ATOM     58  H   UNL A   1      41.990  29.563  30.893  1.00  0.00     0.167 HD
ATOM     59  C   UNL A   1      42.900  31.150  34.494  1.00  0.00     0.074 A 
ATOM     60  C   UNL A   1      42.759  30.245  35.616  1.00  0.00     0.031 C 
ATOM     61  C   UNL A   1      42.526  30.911  33.209  1.00  0.00     0.031 A 
BRANCH  48  62
ATOM     62  C   UNL A   1      39.587  28.130  29.404  1.00  0.00    -0.014 A 
ATOM     63  C   UNL A   1      39.518  26.718  29.388  1.00  0.00     0.010 A 
ATOM     64  C   UNL A   1      40.178  28.778  28.311  1.00  0.00     0.010 A 
ATOM     65  C   UNL A   1      40.151  25.972  28.398  1.00  0.00     0.020 A 
ATOM     66  C   UNL A   1      40.785  28.031  27.289  1.00  0.00     0.020 A 
ATOM     67  C   UNL A   1      40.817  26.637  27.373  1.00  0.00     0.054 A 
BRANCH  67  68
ATOM     68  S   UNL A   1      41.798  25.646  26.217  1.00  0.00     0.124 S 
ATOM     69  O   UNL A   1      41.695  24.310  26.798  1.00  0.00    -0.237 OA
ATOM     70  O   UNL A   1      41.086  25.837  24.955  1.00  0.00    -0.237 OA
ATOM     71  O   UNL A   1      43.121  26.260  26.278  1.00  0.00    -0.744 OA
ENDBRANCH  67  68
ENDBRANCH  48  62
BRANCH  49  72
ATOM     72  C   UNL A   1      41.772  33.650  38.129  1.00  0.00    -0.014 A 
ATOM     73  C   UNL A   1      42.838  34.516  38.399  1.00  0.00     0.010 A 
ATOM     74  C   UNL A   1      40.993  33.261  39.257  1.00  0.00     0.010 A 
ATOM     75  C   UNL A   1      43.002  35.087  39.684  1.00  0.00     0.020 A 
ATOM     76  C   UNL A   1      41.106  33.859  40.512  1.00  0.00     0.020 A 
ATOM     77  C   UNL A   1      42.096  34.802  40.713  1.00  0.00     0.054 A 
BRANCH  77  78
ATOM     78  S   UNL A   1      42.091  35.764  42.253  1.00  0.00     0.124 S 
ATOM     79  O   UNL A   1      41.325  34.909  43.154  1.00  0.00    -0.237 OA
ATOM     80  O   UNL A   1      43.514  35.892  42.559  1.00  0.00    -0.237 OA
ATOM     81  O   UNL A   1      41.436  37.015  41.870  1.00  0.00    -0.744 OA
ENDBRANCH  77  78
ENDBRANCH  49  72
BRANCH  61  82
ATOM     82  C   UNL A   1      42.583  32.119  32.277  1.00  0.00    -0.014 A 
ATOM     83  C   UNL A   1      41.384  32.731  31.860  1.00  0.00     0.010 A 
ATOM     84  C   UNL A   1      43.777  32.609  31.710  1.00  0.00     0.010 A 
ATOM     85  C   UNL A   1      41.369  33.761  30.907  1.00  0.00     0.020 A 
ATOM     86  C   UNL A   1      43.776  33.644  30.755  1.00  0.00     0.020 A 
ATOM     87  C   UNL A   1      42.567  34.213  30.355  1.00  0.00     0.054 A 
BRANCH  87  88
ATOM     88  S   UNL A   1      42.508  35.536  29.108  1.00  0.00     0.124 S 
ATOM     89  O   UNL A   1      43.337  35.003  28.028  1.00  0.00    -0.237 OA
ATOM     90  O   UNL A   1      41.081  35.628  28.811  1.00  0.00    -0.237 OA
ATOM     91  O   UNL A   1      43.072  36.695  29.798  1.00  0.00    -0.744 OA
ENDBRANCH  87  88
ENDBRANCH  61  82
ENDBRANCH  35  36
ENDBRANCH  28  30
ENDBRANCH  27  28
ENDBRANCH  26  27
ENDBRANCH  25  26
ENDBRANCH  24  25
ENDBRANCH  23  24
ENDBRANCH  22  23
ENDBRANCH   1  22
TORSDOF 27
ENDMDL
MODEL 3
REMARK VINA RESULT:      -8.2      4.247      8.139
REMARK SMILES CCN(CCOC)C(=O)c1cccn1CC(=O)OCCOCCOCCOC(=O)c1ccc(-c2c3nc(c(-c4ccc(S(=O)(=O)[O-])cc4)c4ccc([nH]4)c(-c4ccc(S(=O)(=O)[O-])cc4)c4nc(c(-c5ccc(S(=O)(=O)[O-])cc5)c5ccc2[nH]5)C=C4)C=C3)cc1
REMARK SMILES IDX 21 1 20 2 19 3 18 4 16 5 17 6 15 7 14 8 10 9 11 10 12 11
REMARK SMILES IDX 13 12 8 13 9 14 3 15 2 16 1 17 4 18 5 19 6 20 7 21 22 22
REMARK SMILES IDX 23 23 24 24 25 25 26 26 27 27 28 28 29 29 30 30 31 31 89 32
REMARK SMILES IDX 32 33 88 34 33 35 34 36 35 37 82 38 36 39 87 40 81 41 83 42
REMARK SMILES IDX 37 43 86 44 80 45 79 46 38 48 68 49 49 50 67 51 50 52 53 53
REMARK SMILES IDX 66 54 84 55 51 56 52 57 65 59 85 60 54 61 39 62 40 63 48 64
REMARK SMILES IDX 41 65 47 66 42 67 43 68 44 69 45 70 46 71 69 72 70 73 78 74
REMARK SMILES IDX 71 75 77 76 72 77 73 78 74 79 75 80 76 81 55 82 56 83 64 84
REMARK SMILES IDX 57 85 63 86 58 87 59 88 60 89 61 90 62 91
REMARK H PARENT 83 47 53 58
REMARK Flexibility Score: inf
ROOT
ATOM      1  O   UNL A   1      34.702  21.759  25.785  1.00  0.00    -0.376 OA
ENDROOT
BRANCH   1   2
ATOM      2  C   UNL A   1      33.342  21.409  25.589  1.00  0.00     0.202 C 
BRANCH   2   3
ATOM      3  C   UNL A   1      32.447  22.626  25.305  1.00  0.00     0.261 C 
BRANCH   3   4
ATOM      4  O   UNL A   1      32.290  23.507  26.441  1.00  0.00    -0.462 OA
BRANCH   4   5
ATOM      5  C   UNL A   1      31.100  24.141  26.588  1.00  0.00     0.326 C 
ATOM      6  O   UNL A   1      30.197  23.729  27.313  1.00  0.00    -0.250 OA
BRANCH   5   7
ATOM      7  C   UNL A   1      30.977  25.463  25.852  1.00  0.00     0.244 C 
BRANCH   7   8
ATOM      8  N   UNL A   1      31.822  26.587  26.273  1.00  0.00    -0.332 N 
ATOM      9  C   UNL A   1      33.011  27.032  25.685  1.00  0.00     0.107 A 
ATOM     10  C   UNL A   1      33.480  28.020  26.547  1.00  0.00     0.033 A 
ATOM     11  C   UNL A   1      32.482  28.324  27.500  1.00  0.00     0.020 A 
ATOM     12  C   UNL A   1      31.442  27.464  27.268  1.00  0.00     0.087 A 
BRANCH   9  13
ATOM     13  C   UNL A   1      33.480  26.535  24.391  1.00  0.00     0.270 C 
ATOM     14  O   UNL A   1      34.343  25.652  24.381  1.00  0.00    -0.267 OA
BRANCH  13  15
ATOM     15  N   UNL A   1      32.979  26.978  23.154  1.00  0.00    -0.335 N 
BRANCH  15  16
ATOM     16  C   UNL A   1      32.063  28.128  23.175  1.00  0.00     0.116 C 
ATOM     17  C   UNL A   1      30.632  27.809  22.756  1.00  0.00     0.027 C 
ENDBRANCH  15  16
BRANCH  15  18
ATOM     18  C   UNL A   1      33.381  26.513  21.821  1.00  0.00     0.148 C 
BRANCH  18  19
ATOM     19  C   UNL A   1      32.504  25.364  21.272  1.00  0.00     0.181 C 
BRANCH  19  20
ATOM     20  O   UNL A   1      32.341  24.289  22.193  1.00  0.00    -0.383 OA
ATOM     21  C   UNL A   1      33.273  23.228  22.031  1.00  0.00     0.194 C 
ENDBRANCH  19  20
ENDBRANCH  18  19
ENDBRANCH  15  18
ENDBRANCH  13  15
ENDBRANCH   9  13
ENDBRANCH   7   8
ENDBRANCH   5   7
ENDBRANCH   4   5
ENDBRANCH   3   4
ENDBRANCH   2   3
ENDBRANCH   1   2
BRANCH   1  22
ATOM     22  C   UNL A   1      35.700  20.815  25.390  1.00  0.00     0.188 C 
BRANCH  22  23
ATOM     23  C   UNL A   1      37.068  21.277  24.858  1.00  0.00     0.188 C 
BRANCH  23  24
ATOM     24  O   UNL A   1      37.860  21.930  25.846  1.00  0.00    -0.376 OA
BRANCH  24  25
ATOM     25  C   UNL A   1      39.204  21.476  25.923  1.00  0.00     0.202 C 
BRANCH  25  26
ATOM     26  C   UNL A   1      39.915  22.235  27.036  1.00  0.00     0.261 C 
BRANCH  26  27
ATOM     27  O   UNL A   1      40.688  23.329  26.547  1.00  0.00    -0.460 OA
BRANCH  27  28
ATOM     28  C   UNL A   1      40.058  24.511  26.568  1.00  0.00     0.338 C 
ATOM     29  O   UNL A   1      39.012  24.828  25.990  1.00  0.00    -0.246 OA
BRANCH  28  30
ATOM     30  C   UNL A   1      40.856  25.467  27.302  1.00  0.00     0.060 A 
ATOM     31  C   UNL A   1      40.855  25.372  28.698  1.00  0.00     0.016 A 
ATOM     32  C   UNL A   1      41.206  26.630  26.610  1.00  0.00     0.016 A 
ATOM     33  C   UNL A   1      41.027  26.527  29.419  1.00  0.00     0.010 A 
ATOM     34  C   UNL A   1      41.305  27.791  27.326  1.00  0.00     0.010 A 
ATOM     35  C   UNL A   1      41.169  27.730  28.717  1.00  0.00    -0.014 A 
BRANCH  35  36
ATOM     36  C   UNL A   1      41.277  28.973  29.468  1.00  0.00     0.031 A 
ATOM     37  C   UNL A   1      42.581  29.004  30.257  1.00  0.00     0.074 A 
ATOM     38  C   UNL A   1      40.221  29.832  29.327  1.00  0.00     0.049 A 
ATOM     39  N   UNL A   1      42.903  29.756  31.255  1.00  0.00    -0.248 NA
ATOM     40  C   UNL A   1      43.676  28.032  29.948  1.00  0.00     0.031 C 
ATOM     41  C   UNL A   1      39.026  29.581  28.477  1.00  0.00     0.029 A 
ATOM     42  N   UNL A   1      39.920  31.069  29.849  1.00  0.00    -0.354 N 
ATOM     43  C   UNL A   1      44.251  29.499  31.563  1.00  0.00     0.074 A 
ATOM     44  C   UNL A   1      44.653  28.370  30.787  1.00  0.00     0.031 C 
ATOM     45  C   UNL A   1      38.117  30.572  28.615  1.00  0.00     0.029 A 
ATOM     46  C   UNL A   1      38.638  31.578  29.517  1.00  0.00     0.049 A 
ATOM     47  H   UNL A   1      40.553  31.568  30.414  1.00  0.00     0.167 HD
ATOM     48  C   UNL A   1      44.985  30.323  32.357  1.00  0.00     0.031 A 
ATOM     49  C   UNL A   1      38.029  32.717  29.964  1.00  0.00     0.031 A 
ATOM     50  C   UNL A   1      44.159  31.365  32.869  1.00  0.00     0.049 A 
ATOM     51  C   UNL A   1      39.060  33.457  30.705  1.00  0.00     0.074 A 
ATOM     52  C   UNL A   1      43.142  31.342  33.790  1.00  0.00     0.029 A 
ATOM     53  N   UNL A   1      44.059  32.501  32.101  1.00  0.00    -0.354 N 
ATOM     54  N   UNL A   1      40.069  34.068  30.163  1.00  0.00    -0.248 NA
ATOM     55  C   UNL A   1      39.016  33.466  32.173  1.00  0.00     0.031 C 
ATOM     56  C   UNL A   1      42.185  32.210  33.229  1.00  0.00     0.029 A 
ATOM     57  C   UNL A   1      42.742  32.891  32.140  1.00  0.00     0.049 A 
ATOM     58  H   UNL A   1      44.790  32.950  31.616  1.00  0.00     0.167 HD
ATOM     59  C   UNL A   1      40.954  34.150  31.207  1.00  0.00     0.074 A 
ATOM     60  C   UNL A   1      40.162  34.097  32.419  1.00  0.00     0.031 C 
ATOM     61  C   UNL A   1      42.217  33.673  31.043  1.00  0.00     0.031 A 
BRANCH  48  62
ATOM     62  C   UNL A   1      46.461  30.430  32.568  1.00  0.00    -0.014 A 
ATOM     63  C   UNL A   1      47.240  30.713  31.422  1.00  0.00     0.010 A 
ATOM     64  C   UNL A   1      47.111  29.937  33.707  1.00  0.00     0.010 A 
ATOM     65  C   UNL A   1      48.588  30.370  31.359  1.00  0.00     0.020 A 
ATOM     66  C   UNL A   1      48.479  29.626  33.662  1.00  0.00     0.020 A 
ATOM     67  C   UNL A   1      49.190  29.790  32.471  1.00  0.00     0.054 A 
BRANCH  67  68
ATOM     68  S   UNL A   1      50.883  29.173  32.292  1.00  0.00     0.124 S 
ATOM     69  O   UNL A   1      51.041  29.131  30.841  1.00  0.00    -0.237 OA
ATOM     70  O   UNL A   1      51.667  30.199  32.978  1.00  0.00    -0.237 OA
ATOM     71  O   UNL A   1      50.847  27.876  32.961  1.00  0.00    -0.744 OA
ENDBRANCH  67  68
ENDBRANCH  48  62
BRANCH  49  72
ATOM     72  C   UNL A   1      36.646  33.324  29.986  1.00  0.00    -0.014 A 
ATOM     73  C   UNL A   1      36.003  33.888  31.094  1.00  0.00     0.010 A 
ATOM     74  C   UNL A   1      35.985  33.497  28.734  1.00  0.00     0.010 A 
ATOM     75  C   UNL A   1      34.865  34.715  30.929  1.00  0.00     0.020 A 
ATOM     76  C   UNL A   1      34.902  34.355  28.550  1.00  0.00     0.020 A 
ATOM     77  C   UNL A   1      34.363  34.993  29.652  1.00  0.00     0.054 A 
BRANCH  77  78
ATOM     78  S   UNL A   1      33.126  36.297  29.392  1.00  0.00     0.124 S 
ATOM     79  O   UNL A   1      32.630  36.532  30.744  1.00  0.00    -0.237 OA
ATOM     80  O   UNL A   1      33.916  37.380  28.810  1.00  0.00    -0.237 OA
ATOM     81  O   UNL A   1      32.170  35.679  28.473  1.00  0.00    -0.744 OA
ENDBRANCH  77  78
ENDBRANCH  49  72
BRANCH  61  82
ATOM     82  C   UNL A   1      42.727  33.659  29.604  1.00  0.00    -0.014 A 
ATOM     83  C   UNL A   1      43.284  32.477  29.077  1.00  0.00     0.010 A 
ATOM     84  C   UNL A   1      42.776  34.805  28.785  1.00  0.00     0.010 A 
ATOM     85  C   UNL A   1      43.883  32.440  27.808  1.00  0.00     0.020 A 
ATOM     86  C   UNL A   1      43.372  34.782  27.508  1.00  0.00     0.020 A 
ATOM     87  C   UNL A   1      43.927  33.595  27.028  1.00  0.00     0.054 A 
BRANCH  87  88
ATOM     88  S   UNL A   1      44.729  33.516  25.397  1.00  0.00     0.124 S 
ATOM     89  O   UNL A   1      45.061  32.099  25.266  1.00  0.00    -0.237 OA
ATOM     90  O   UNL A   1      43.676  33.994  24.504  1.00  0.00    -0.237 OA
ATOM     91  O   UNL A   1      45.881  34.406  25.527  1.00  0.00    -0.744 OA
ENDBRANCH  87  88
ENDBRANCH  61  82
ENDBRANCH  35  36
ENDBRANCH  28  30
ENDBRANCH  27  28
ENDBRANCH  26  27
ENDBRANCH  25  26
ENDBRANCH  24  25
ENDBRANCH  23  24
ENDBRANCH  22  23
ENDBRANCH   1  22
TORSDOF 27
ENDMDL
