MODEL 1
REMARK VINA RESULT:      -9.2      0.000      0.000
REMARK SMILES COC(=O)[C@@H]([NH2+]CC(C)(C)C(=O)OCCOCCOCCOC(=O)c1ccc(-c2c3nc(c(-c4ccc(S(=O)(=O)[O-])cc4)c4ccc([nH]4)c(-c4ccc(S(=O)(=O)[O-])cc4)c4nc(c(-c5ccc(S(=O)(=O)[O-])cc5)c5ccc2[nH]5)C=C4)C=C3)cc1)c1ccccc1
REMARK SMILES IDX 17 1 16 2 15 3 14 4 13 5 11 6 12 7 8 8 9 9 10 10 7 11 6 12
REMARK SMILES IDX 5 15 3 16 4 17 2 18 1 19 85 20 86 21 90 22 87 23 89 24 88 25
REMARK SMILES IDX 18 26 19 27 20 28 21 29 22 30 23 31 24 32 25 33 26 34 84 35
REMARK SMILES IDX 27 36 83 37 28 38 29 39 30 40 77 41 31 42 82 43 76 44 78 45
REMARK SMILES IDX 32 46 81 47 75 48 74 49 33 51 63 52 44 53 62 54 45 55 48 56
REMARK SMILES IDX 61 57 79 58 46 59 47 60 60 62 80 63 49 64 34 65 35 66 43 67
REMARK SMILES IDX 36 68 42 69 37 70 38 71 39 72 40 73 41 74 64 75 65 76 73 77
REMARK SMILES IDX 66 78 72 79 67 80 68 81 69 82 70 83 71 84 50 85 51 86 59 87
REMARK SMILES IDX 52 88 58 89 53 90 54 91 55 92 56 93 57 94
REMARK H PARENT 6 13 6 14 78 50 48 61
REMARK Flexibility Score: inf
ROOT
ATOM      1  C   UNL A   1      31.331  28.911  24.683  1.00  0.00     0.188 C 
ENDROOT
BRANCH   1   2
ATOM      2  O   UNL A   1      30.607  28.938  23.454  1.00  0.00    -0.376 OA
BRANCH   2   3
ATOM      3  C   UNL A   1      30.429  27.655  22.849  1.00  0.00     0.202 C 
BRANCH   3   4
ATOM      4  C   UNL A   1      30.136  26.604  23.912  1.00  0.00     0.261 C 
BRANCH   4   5
ATOM      5  O   UNL A   1      31.087  25.526  23.842  1.00  0.00    -0.463 OA
BRANCH   5   6
ATOM      6  C   UNL A   1      31.789  25.238  24.964  1.00  0.00     0.317 C 
ATOM      7  O   UNL A   1      31.281  25.149  26.074  1.00  0.00    -0.251 OA
BRANCH   6   8
ATOM      8  C   UNL A   1      33.281  25.024  24.681  1.00  0.00     0.111 C 
ATOM      9  C   UNL A   1      34.066  25.859  25.702  1.00  0.00     0.029 C 
ATOM     10  C   UNL A   1      33.675  25.555  23.269  1.00  0.00     0.029 C 
BRANCH   8  11
ATOM     11  C   UNL A   1      33.650  23.513  24.731  1.00  0.00     0.279 C 
BRANCH  11  12
ATOM     12  N   UNL A   1      34.678  22.904  23.878  1.00  0.00    -0.330 N 
ATOM     13  H   UNL A   1      34.196  22.466  23.093  1.00  0.00     0.347 HD
ATOM     14  H   UNL A   1      35.301  23.678  23.648  1.00  0.00     0.347 HD
BRANCH  12  15
ATOM     15  C   UNL A   1      35.579  21.875  24.471  1.00  0.00     0.324 C 
BRANCH  15  16
ATOM     16  C   UNL A   1      34.743  21.023  25.469  1.00  0.00     0.369 C 
ATOM     17  O   UNL A   1      34.610  21.315  26.654  1.00  0.00    -0.245 OA
BRANCH  16  18
ATOM     18  O   UNL A   1      34.193  19.926  24.877  1.00  0.00    -0.464 OA
ATOM     19  C   UNL A   1      32.798  19.747  25.144  1.00  0.00     0.282 C 
ENDBRANCH  16  18
ENDBRANCH  15  16
BRANCH  15  20
ATOM     20  C   UNL A   1      36.918  22.338  25.077  1.00  0.00     0.021 A 
ATOM     21  C   UNL A   1      38.012  21.488  25.245  1.00  0.00     0.010 A 
ATOM     22  C   UNL A   1      37.028  23.622  25.663  1.00  0.00     0.010 A 
ATOM     23  C   UNL A   1      39.094  21.857  26.050  1.00  0.00     0.001 A 
ATOM     24  C   UNL A   1      38.163  24.025  26.375  1.00  0.00     0.001 A 
ATOM     25  C   UNL A   1      39.189  23.126  26.598  1.00  0.00     0.000 A 
ENDBRANCH  15  20
ENDBRANCH  12  15
ENDBRANCH  11  12
ENDBRANCH   8  11
ENDBRANCH   6   8
ENDBRANCH   5   6
ENDBRANCH   4   5
ENDBRANCH   3   4
ENDBRANCH   2   3
ENDBRANCH   1   2
BRANCH   1  26
ATOM     26  C   UNL A   1      32.815  29.283  24.557  1.00  0.00     0.188 C 
BRANCH  26  27
ATOM     27  O   UNL A   1      33.671  29.234  25.693  1.00  0.00    -0.376 OA
BRANCH  27  28
ATOM     28  C   UNL A   1      33.484  30.202  26.709  1.00  0.00     0.202 C 
BRANCH  28  29
ATOM     29  C   UNL A   1      34.369  30.076  27.954  1.00  0.00     0.261 C 
BRANCH  29  30
ATOM     30  O   UNL A   1      35.454  31.011  28.025  1.00  0.00    -0.460 OA
BRANCH  30  31
ATOM     31  C   UNL A   1      36.062  31.097  29.236  1.00  0.00     0.338 C 
ATOM     32  O   UNL A   1      35.604  31.569  30.263  1.00  0.00    -0.246 OA
BRANCH  31  33
ATOM     33  C   UNL A   1      37.373  30.419  29.154  1.00  0.00     0.060 A 
ATOM     34  C   UNL A   1      38.090  30.167  30.332  1.00  0.00     0.016 A 
ATOM     35  C   UNL A   1      37.894  30.031  27.916  1.00  0.00     0.016 A 
ATOM     36  C   UNL A   1      39.326  29.510  30.279  1.00  0.00     0.010 A 
ATOM     37  C   UNL A   1      39.134  29.386  27.863  1.00  0.00     0.010 A 
ATOM     38  C   UNL A   1      39.865  29.127  29.041  1.00  0.00    -0.014 A 
BRANCH  38  39
ATOM     39  C   UNL A   1      41.274  28.671  28.909  1.00  0.00     0.031 A 
ATOM     40  C   UNL A   1      42.340  29.723  28.998  1.00  0.00     0.074 A 
ATOM     41  C   UNL A   1      41.619  27.396  28.641  1.00  0.00     0.049 A 
ATOM     42  N   UNL A   1      43.619  29.627  28.756  1.00  0.00    -0.248 NA
ATOM     43  C   UNL A   1      41.896  31.064  29.416  1.00  0.00     0.031 C 
ATOM     44  C   UNL A   1      40.713  26.257  28.613  1.00  0.00     0.029 A 
ATOM     45  N   UNL A   1      42.838  26.850  28.310  1.00  0.00    -0.354 N 
ATOM     46  C   UNL A   1      44.134  30.894  28.992  1.00  0.00     0.074 A 
ATOM     47  C   UNL A   1      43.026  31.748  29.357  1.00  0.00     0.031 C 
ATOM     48  C   UNL A   1      41.381  25.161  28.211  1.00  0.00     0.029 A 
ATOM     49  C   UNL A   1      42.771  25.520  27.955  1.00  0.00     0.049 A 
ATOM     50  H   UNL A   1      43.679  27.362  28.324  1.00  0.00     0.167 HD
ATOM     51  C   UNL A   1      45.418  31.309  28.924  1.00  0.00     0.031 A 
ATOM     52  C   UNL A   1      43.715  24.692  27.464  1.00  0.00     0.031 A 
ATOM     53  C   UNL A   1      46.517  30.475  28.532  1.00  0.00     0.049 A 
ATOM     54  C   UNL A   1      45.120  25.207  27.277  1.00  0.00     0.074 A 
ATOM     55  C   UNL A   1      47.854  30.810  28.428  1.00  0.00     0.029 A 
ATOM     56  N   UNL A   1      46.403  29.142  28.166  1.00  0.00    -0.354 N 
ATOM     57  N   UNL A   1      45.600  26.399  27.536  1.00  0.00    -0.248 NA
ATOM     58  C   UNL A   1      46.117  24.260  26.751  1.00  0.00     0.031 C 
ATOM     59  C   UNL A   1      48.545  29.692  27.951  1.00  0.00     0.029 A 
ATOM     60  C   UNL A   1      47.645  28.647  27.813  1.00  0.00     0.049 A 
ATOM     61  H   UNL A   1      45.565  28.626  28.160  1.00  0.00     0.167 HD
ATOM     62  C   UNL A   1      46.960  26.331  27.252  1.00  0.00     0.074 A 
ATOM     63  C   UNL A   1      47.227  24.985  26.791  1.00  0.00     0.031 C 
ATOM     64  C   UNL A   1      47.903  27.296  27.379  1.00  0.00     0.031 A 
BRANCH  51  65
ATOM     65  C   UNL A   1      45.677  32.750  29.250  1.00  0.00    -0.014 A 
ATOM     66  C   UNL A   1      45.986  33.147  30.564  1.00  0.00     0.010 A 
ATOM     67  C   UNL A   1      45.587  33.720  28.237  1.00  0.00     0.010 A 
ATOM     68  C   UNL A   1      46.153  34.499  30.868  1.00  0.00     0.020 A 
ATOM     69  C   UNL A   1      45.780  35.071  28.533  1.00  0.00     0.020 A 
ATOM     70  C   UNL A   1      46.041  35.452  29.852  1.00  0.00     0.054 A 
BRANCH  70  71
ATOM     71  S   UNL A   1      46.258  37.201  30.274  1.00  0.00     0.124 S 
ATOM     72  O   UNL A   1      46.825  37.117  31.617  1.00  0.00    -0.237 OA
ATOM     73  O   UNL A   1      47.169  37.672  29.235  1.00  0.00    -0.237 OA
ATOM     74  O   UNL A   1      44.903  37.744  30.203  1.00  0.00    -0.744 OA
ENDBRANCH  70  71
ENDBRANCH  51  65
BRANCH  52  75
ATOM     75  C   UNL A   1      43.375  23.287  27.105  1.00  0.00    -0.014 A 
ATOM     76  C   UNL A   1      43.458  22.848  25.771  1.00  0.00     0.010 A 
ATOM     77  C   UNL A   1      42.938  22.384  28.092  1.00  0.00     0.010 A 
ATOM     78  C   UNL A   1      43.089  21.543  25.428  1.00  0.00     0.020 A 
ATOM     79  C   UNL A   1      42.590  21.072  27.756  1.00  0.00     0.020 A 
ATOM     80  C   UNL A   1      42.657  20.662  26.424  1.00  0.00     0.054 A 
BRANCH  80  81
ATOM     81  S   UNL A   1      42.222  18.962  25.960  1.00  0.00     0.124 S 
ATOM     82  O   UNL A   1      40.778  19.054  25.780  1.00  0.00    -0.237 OA
ATOM     83  O   UNL A   1      43.003  18.761  24.741  1.00  0.00    -0.237 OA
ATOM     84  O   UNL A   1      42.663  18.172  27.107  1.00  0.00    -0.744 OA
ENDBRANCH  80  81
ENDBRANCH  52  75
BRANCH  64  85
ATOM     85  C   UNL A   1      49.332  26.937  27.078  1.00  0.00    -0.014 A 
ATOM     86  C   UNL A   1      50.163  26.365  28.055  1.00  0.00     0.010 A 
ATOM     87  C   UNL A   1      49.805  27.063  25.758  1.00  0.00     0.010 A 
ATOM     88  C   UNL A   1      51.444  25.920  27.715  1.00  0.00     0.020 A 
ATOM     89  C   UNL A   1      51.075  26.598  25.410  1.00  0.00     0.020 A 
ATOM     90  C   UNL A   1      51.888  26.031  26.394  1.00  0.00     0.054 A 
BRANCH  90  91
ATOM     91  S   UNL A   1      53.512  25.350  25.956  1.00  0.00     0.124 S 
ATOM     92  O   UNL A   1      53.161  24.021  25.463  1.00  0.00    -0.237 OA
ATOM     93  O   UNL A   1      53.992  26.288  24.944  1.00  0.00    -0.237 OA
ATOM     94  O   UNL A   1      54.249  25.373  27.217  1.00  0.00    -0.744 OA
ENDBRANCH  90  91
ENDBRANCH  64  85
ENDBRANCH  38  39
ENDBRANCH  31  33
ENDBRANCH  30  31
ENDBRANCH  29  30
ENDBRANCH  28  29
ENDBRANCH  27  28
ENDBRANCH  26  27
ENDBRANCH   1  26
TORSDOF 26
ENDMDL
MODEL 2
REMARK VINA RESULT:      -9.1      1.676      2.242
REMARK SMILES COC(=O)[C@@H]([NH2+]CC(C)(C)C(=O)OCCOCCOCCOC(=O)c1ccc(-c2c3nc(c(-c4ccc(S(=O)(=O)[O-])cc4)c4ccc([nH]4)c(-c4ccc(S(=O)(=O)[O-])cc4)c4nc(c(-c5ccc(S(=O)(=O)[O-])cc5)c5ccc2[nH]5)C=C4)C=C3)cc1)c1ccccc1
REMARK SMILES IDX 17 1 16 2 15 3 14 4 13 5 11 6 12 7 8 8 9 9 10 10 7 11 6 12
REMARK SMILES IDX 5 15 3 16 4 17 2 18 1 19 85 20 86 21 90 22 87 23 89 24 88 25
REMARK SMILES IDX 18 26 19 27 20 28 21 29 22 30 23 31 24 32 25 33 26 34 84 35
REMARK SMILES IDX 27 36 83 37 28 38 29 39 30 40 77 41 31 42 82 43 76 44 78 45
REMARK SMILES IDX 32 46 81 47 75 48 74 49 33 51 63 52 44 53 62 54 45 55 48 56
REMARK SMILES IDX 61 57 79 58 46 59 47 60 60 62 80 63 49 64 34 65 35 66 43 67
REMARK SMILES IDX 36 68 42 69 37 70 38 71 39 72 40 73 41 74 64 75 65 76 73 77
REMARK SMILES IDX 66 78 72 79 67 80 68 81 69 82 70 83 71 84 50 85 51 86 59 87
REMARK SMILES IDX 52 88 58 89 53 90 54 91 55 92 56 93 57 94
REMARK H PARENT 6 13 6 14 78 50 48 61
REMARK Flexibility Score: inf
ROOT
ATOM      1  C   UNL A   1      32.126  28.991  23.813  1.00  0.00     0.188 C 
ENDROOT
BRANCH   1   2
ATOM      2  O   UNL A   1      33.194  28.046  23.763  1.00  0.00    -0.376 OA
BRANCH   2   3
ATOM      3  C   UNL A   1      33.401  27.463  22.475  1.00  0.00     0.202 C 
BRANCH   3   4
ATOM      4  C   UNL A   1      32.354  26.391  22.203  1.00  0.00     0.261 C 
BRANCH   4   5
ATOM      5  O   UNL A   1      32.329  25.420  23.266  1.00  0.00    -0.463 OA
BRANCH   5   6
ATOM      6  C   UNL A   1      31.183  25.303  23.979  1.00  0.00     0.317 C 
ATOM      7  O   UNL A   1      30.079  25.583  23.530  1.00  0.00    -0.251 OA
BRANCH   6   8
ATOM      8  C   UNL A   1      31.427  24.771  25.396  1.00  0.00     0.111 C 
ATOM      9  C   UNL A   1      30.242  25.216  26.264  1.00  0.00     0.029 C 
ATOM     10  C   UNL A   1      32.707  25.398  26.027  1.00  0.00     0.029 C 
BRANCH   8  11
ATOM     11  C   UNL A   1      31.618  23.227  25.389  1.00  0.00     0.279 C 
BRANCH  11  12
ATOM     12  N   UNL A   1      31.591  22.415  24.166  1.00  0.00    -0.330 N 
ATOM     13  H   UNL A   1      30.825  21.748  24.266  1.00  0.00     0.347 HD
ATOM     14  H   UNL A   1      31.498  23.098  23.416  1.00  0.00     0.347 HD
BRANCH  12  15
ATOM     15  C   UNL A   1      32.808  21.635  23.801  1.00  0.00     0.324 C 
BRANCH  15  16
ATOM     16  C   UNL A   1      32.593  20.165  24.265  1.00  0.00     0.369 C 
ATOM     17  O   UNL A   1      31.945  19.864  25.263  1.00  0.00    -0.245 OA
BRANCH  16  18
ATOM     18  O   UNL A   1      33.211  19.268  23.446  1.00  0.00    -0.464 OA
ATOM     19  C   UNL A   1      32.459  18.076  23.200  1.00  0.00     0.282 C 
ENDBRANCH  16  18
ENDBRANCH  15  16
BRANCH  15  20
ATOM     20  C   UNL A   1      34.183  22.186  24.223  1.00  0.00     0.021 A 
ATOM     21  C   UNL A   1      34.982  22.962  23.383  1.00  0.00     0.010 A 
ATOM     22  C   UNL A   1      34.776  21.766  25.437  1.00  0.00     0.010 A 
ATOM     23  C   UNL A   1      36.327  23.199  23.684  1.00  0.00     0.001 A 
ATOM     24  C   UNL A   1      36.089  22.101  25.784  1.00  0.00     0.001 A 
ATOM     25  C   UNL A   1      36.881  22.794  24.888  1.00  0.00     0.000 A 
ENDBRANCH  15  20
ENDBRANCH  12  15
ENDBRANCH  11  12
ENDBRANCH   8  11
ENDBRANCH   6   8
ENDBRANCH   5   6
ENDBRANCH   4   5
ENDBRANCH   3   4
ENDBRANCH   2   3
ENDBRANCH   1   2
BRANCH   1  26
ATOM     26  C   UNL A   1      31.810  29.523  25.219  1.00  0.00     0.188 C 
BRANCH  26  27
ATOM     27  O   UNL A   1      32.568  29.090  26.343  1.00  0.00    -0.376 OA
BRANCH  27  28
ATOM     28  C   UNL A   1      33.724  29.828  26.691  1.00  0.00     0.202 C 
BRANCH  28  29
ATOM     29  C   UNL A   1      34.767  29.113  27.556  1.00  0.00     0.261 C 
BRANCH  29  30
ATOM     30  O   UNL A   1      36.058  29.736  27.591  1.00  0.00    -0.460 OA
BRANCH  30  31
ATOM     31  C   UNL A   1      36.688  29.688  28.793  1.00  0.00     0.338 C 
ATOM     32  O   UNL A   1      36.201  29.883  29.894  1.00  0.00    -0.246 OA
BRANCH  31  33
ATOM     33  C   UNL A   1      38.083  29.248  28.576  1.00  0.00     0.060 A 
ATOM     34  C   UNL A   1      38.794  28.676  29.640  1.00  0.00     0.016 A 
ATOM     35  C   UNL A   1      38.687  29.397  27.324  1.00  0.00     0.016 A 
ATOM     36  C   UNL A   1      40.111  28.235  29.452  1.00  0.00     0.010 A 
ATOM     37  C   UNL A   1      40.006  28.968  27.141  1.00  0.00     0.010 A 
ATOM     38  C   UNL A   1      40.732  28.391  28.204  1.00  0.00    -0.014 A 
BRANCH  38  39
ATOM     39  C   UNL A   1      42.194  28.187  28.026  1.00  0.00     0.031 A 
ATOM     40  C   UNL A   1      43.080  29.377  28.252  1.00  0.00     0.074 A 
ATOM     41  C   UNL A   1      42.735  27.027  27.605  1.00  0.00     0.049 A 
ATOM     42  N   UNL A   1      44.354  29.517  28.009  1.00  0.00    -0.248 NA
ATOM     43  C   UNL A   1      42.433  30.568  28.829  1.00  0.00     0.031 C 
ATOM     44  C   UNL A   1      42.022  25.769  27.430  1.00  0.00     0.029 A 
ATOM     45  N   UNL A   1      44.021  26.728  27.218  1.00  0.00    -0.354 N 
ATOM     46  C   UNL A   1      44.664  30.811  28.403  1.00  0.00     0.074 A 
ATOM     47  C   UNL A   1      43.438  31.426  28.863  1.00  0.00     0.031 C 
ATOM     48  C   UNL A   1      42.851  24.852  26.900  1.00  0.00     0.029 A 
ATOM     49  C   UNL A   1      44.162  25.458  26.700  1.00  0.00     0.049 A 
ATOM     50  H   UNL A   1      44.769  27.362  27.301  1.00  0.00     0.167 HD
ATOM     51  C   UNL A   1      45.864  31.432  28.396  1.00  0.00     0.031 A 
ATOM     52  C   UNL A   1      45.220  24.859  26.118  1.00  0.00     0.031 A 
ATOM     53  C   UNL A   1      47.077  30.838  27.912  1.00  0.00     0.049 A 
ATOM     54  C   UNL A   1      46.523  25.610  26.006  1.00  0.00     0.074 A 
ATOM     55  C   UNL A   1      48.342  31.394  27.860  1.00  0.00     0.029 A 
ATOM     56  N   UNL A   1      47.172  29.560  27.383  1.00  0.00    -0.354 N 
ATOM     57  N   UNL A   1      46.809  26.823  26.413  1.00  0.00    -0.248 NA
ATOM     58  C   UNL A   1      47.651  24.907  25.373  1.00  0.00     0.031 C 
ATOM     59  C   UNL A   1      49.196  30.468  27.253  1.00  0.00     0.029 A 
ATOM     60  C   UNL A   1      48.472  29.317  26.980  1.00  0.00     0.049 A 
ATOM     61  H   UNL A   1      46.427  28.922  27.307  1.00  0.00     0.167 HD
ATOM     62  C   UNL A   1      48.159  27.009  26.133  1.00  0.00     0.074 A 
ATOM     63  C   UNL A   1      48.631  25.790  25.511  1.00  0.00     0.031 C 
ATOM     64  C   UNL A   1      48.937  28.090  26.384  1.00  0.00     0.031 A 
BRANCH  51  65
ATOM     65  C   UNL A   1      45.894  32.845  28.899  1.00  0.00    -0.014 A 
ATOM     66  C   UNL A   1      46.095  33.118  30.265  1.00  0.00     0.010 A 
ATOM     67  C   UNL A   1      45.694  33.907  28.003  1.00  0.00     0.010 A 
ATOM     68  C   UNL A   1      46.049  34.433  30.732  1.00  0.00     0.020 A 
ATOM     69  C   UNL A   1      45.673  35.225  28.463  1.00  0.00     0.020 A 
ATOM     70  C   UNL A   1      45.830  35.477  29.828  1.00  0.00     0.054 A 
BRANCH  70  71
ATOM     71  S   UNL A   1      45.768  37.174  30.460  1.00  0.00     0.124 S 
ATOM     72  O   UNL A   1      44.978  37.011  31.678  1.00  0.00    -0.237 OA
ATOM     73  O   UNL A   1      47.179  37.492  30.664  1.00  0.00    -0.237 OA
ATOM     74  O   UNL A   1      45.113  37.919  29.388  1.00  0.00    -0.744 OA
ENDBRANCH  70  71
ENDBRANCH  51  65
BRANCH  52  75
ATOM     75  C   UNL A   1      45.105  23.472  25.585  1.00  0.00    -0.014 A 
ATOM     76  C   UNL A   1      45.470  22.368  26.374  1.00  0.00     0.010 A 
ATOM     77  C   UNL A   1      44.654  23.249  24.270  1.00  0.00     0.010 A 
ATOM     78  C   UNL A   1      45.410  21.070  25.854  1.00  0.00     0.020 A 
ATOM     79  C   UNL A   1      44.570  21.952  23.754  1.00  0.00     0.020 A 
ATOM     80  C   UNL A   1      44.959  20.871  24.546  1.00  0.00     0.054 A 
BRANCH  80  81
ATOM     81  S   UNL A   1      44.851  19.175  23.907  1.00  0.00     0.124 S 
ATOM     82  O   UNL A   1      43.750  18.624  24.690  1.00  0.00    -0.237 OA
ATOM     83  O   UNL A   1      44.576  19.392  22.488  1.00  0.00    -0.237 OA
ATOM     84  O   UNL A   1      46.169  18.616  24.197  1.00  0.00    -0.744 OA
ENDBRANCH  80  81
ENDBRANCH  52  75
BRANCH  64  85
ATOM     85  C   UNL A   1      50.402  28.003  26.052  1.00  0.00    -0.014 A 
ATOM     86  C   UNL A   1      51.337  27.528  26.986  1.00  0.00     0.010 A 
ATOM     87  C   UNL A   1      50.822  28.287  24.738  1.00  0.00     0.010 A 
ATOM     88  C   UNL A   1      52.669  27.335  26.610  1.00  0.00     0.020 A 
ATOM     89  C   UNL A   1      52.147  28.072  24.353  1.00  0.00     0.020 A 
ATOM     90  C   UNL A   1      53.064  27.598  25.294  1.00  0.00     0.054 A 
BRANCH  90  91
ATOM     91  S   UNL A   1      54.773  27.238  24.804  1.00  0.00     0.124 S 
ATOM     92  O   UNL A   1      55.139  28.445  24.068  1.00  0.00    -0.237 OA
ATOM     93  O   UNL A   1      55.444  27.057  26.088  1.00  0.00    -0.237 OA
ATOM     94  O   UNL A   1      54.653  26.027  23.995  1.00  0.00    -0.744 OA
ENDBRANCH  90  91
ENDBRANCH  64  85
ENDBRANCH  38  39
ENDBRANCH  31  33
ENDBRANCH  30  31
ENDBRANCH  29  30
ENDBRANCH  28  29
ENDBRANCH  27  28
ENDBRANCH  26  27
ENDBRANCH   1  26
TORSDOF 26
ENDMDL
MODEL 3
REMARK VINA RESULT:      -8.8      5.916     10.229
REMARK SMILES COC(=O)[C@@H]([NH2+]CC(C)(C)C(=O)OCCOCCOCCOC(=O)c1ccc(-c2c3nc(c(-c4ccc(S(=O)(=O)[O-])cc4)c4ccc([nH]4)c(-c4ccc(S(=O)(=O)[O-])cc4)c4nc(c(-c5ccc(S(=O)(=O)[O-])cc5)c5ccc2[nH]5)C=C4)C=C3)cc1)c1ccccc1
REMARK SMILES IDX 17 1 16 2 15 3 14 4 13 5 11 6 12 7 8 8 9 9 10 10 7 11 6 12
REMARK SMILES IDX 5 15 3 16 4 17 2 18 1 19 85 20 86 21 90 22 87 23 89 24 88 25
REMARK SMILES IDX 18 26 19 27 20 28 21 29 22 30 23 31 24 32 25 33 26 34 84 35
REMARK SMILES IDX 27 36 83 37 28 38 29 39 30 40 77 41 31 42 82 43 76 44 78 45
REMARK SMILES IDX 32 46 81 47 75 48 74 49 33 51 63 52 44 53 62 54 45 55 48 56
REMARK SMILES IDX 61 57 79 58 46 59 47 60 60 62 80 63 49 64 34 65 35 66 43 67
REMARK SMILES IDX 36 68 42 69 37 70 38 71 39 72 40 73 41 74 64 75 65 76 73 77
REMARK SMILES IDX 66 78 72 79 67 80 68 81 69 82 70 83 71 84 50 85 51 86 59 87
REMARK SMILES IDX 52 88 58 89 53 90 54 91 55 92 56 93 57 94
REMARK H PARENT 6 13 6 14 78 50 48 61
REMARK Flexibility Score: inf
ROOT
ATOM      1  C   UNL A   1      33.228  27.502  25.633  1.00  0.00     0.188 C 
ENDROOT
BRANCH   1   2
ATOM      2  O   UNL A   1      32.611  27.583  24.349  1.00  0.00    -0.376 OA
BRANCH   2   3
ATOM      3  C   UNL A   1      32.741  26.399  23.559  1.00  0.00     0.202 C 
BRANCH   3   4
ATOM      4  C   UNL A   1      32.731  25.164  24.450  1.00  0.00     0.261 C 
BRANCH   4   5
ATOM      5  O   UNL A   1      31.414  24.584  24.505  1.00  0.00    -0.463 OA
BRANCH   5   6
ATOM      6  C   UNL A   1      30.802  24.536  25.712  1.00  0.00     0.317 C 
ATOM      7  O   UNL A   1      30.193  25.481  26.198  1.00  0.00    -0.251 OA
BRANCH   6   8
ATOM      8  C   UNL A   1      30.948  23.168  26.389  1.00  0.00     0.111 C 
ATOM      9  C   UNL A   1      29.684  22.934  27.229  1.00  0.00     0.029 C 
ATOM     10  C   UNL A   1      32.154  23.147  27.377  1.00  0.00     0.029 C 
BRANCH   8  11
ATOM     11  C   UNL A   1      31.186  22.046  25.338  1.00  0.00     0.279 C 
BRANCH  11  12
ATOM     12  N   UNL A   1      32.000  20.853  25.602  1.00  0.00    -0.330 N 
ATOM     13  H   UNL A   1      32.416  20.971  26.526  1.00  0.00     0.347 HD
ATOM     14  H   UNL A   1      31.346  20.077  25.498  1.00  0.00     0.347 HD
BRANCH  12  15
ATOM     15  C   UNL A   1      33.109  20.523  24.660  1.00  0.00     0.324 C 
BRANCH  15  16
ATOM     16  C   UNL A   1      33.429  19.008  24.808  1.00  0.00     0.369 C 
ATOM     17  O   UNL A   1      34.420  18.480  24.312  1.00  0.00    -0.245 OA
BRANCH  16  18
ATOM     18  O   UNL A   1      32.485  18.349  25.536  1.00  0.00    -0.464 OA
ATOM     19  C   UNL A   1      32.555  16.922  25.442  1.00  0.00     0.282 C 
ENDBRANCH  16  18
ENDBRANCH  15  16
BRANCH  15  20
ATOM     20  C   UNL A   1      34.378  21.395  24.692  1.00  0.00     0.021 A 
ATOM     21  C   UNL A   1      34.735  22.258  23.656  1.00  0.00     0.010 A 
ATOM     22  C   UNL A   1      35.340  21.215  25.715  1.00  0.00     0.010 A 
ATOM     23  C   UNL A   1      36.020  22.808  23.586  1.00  0.00     0.001 A 
ATOM     24  C   UNL A   1      36.583  21.856  25.695  1.00  0.00     0.001 A 
ATOM     25  C   UNL A   1      36.938  22.633  24.608  1.00  0.00     0.000 A 
ENDBRANCH  15  20
ENDBRANCH  12  15
ENDBRANCH  11  12
ENDBRANCH   8  11
ENDBRANCH   6   8
ENDBRANCH   5   6
ENDBRANCH   4   5
ENDBRANCH   3   4
ENDBRANCH   2   3
ENDBRANCH   1   2
BRANCH   1  26
ATOM     26  C   UNL A   1      32.760  28.566  26.635  1.00  0.00     0.188 C 
BRANCH  26  27
ATOM     27  O   UNL A   1      32.970  29.948  26.373  1.00  0.00    -0.376 OA
BRANCH  27  28
ATOM     28  C   UNL A   1      31.882  30.834  26.559  1.00  0.00     0.202 C 
BRANCH  28  29
ATOM     29  C   UNL A   1      32.219  32.255  27.025  1.00  0.00     0.261 C 
BRANCH  29  30
ATOM     30  O   UNL A   1      33.498  32.400  27.654  1.00  0.00    -0.460 OA
BRANCH  30  31
ATOM     31  C   UNL A   1      33.643  33.516  28.416  1.00  0.00     0.338 C 
ATOM     32  O   UNL A   1      32.904  34.485  28.457  1.00  0.00    -0.246 OA
BRANCH  31  33
ATOM     33  C   UNL A   1      34.816  33.336  29.296  1.00  0.00     0.060 A 
ATOM     34  C   UNL A   1      36.019  33.982  28.975  1.00  0.00     0.016 A 
ATOM     35  C   UNL A   1      34.730  32.534  30.438  1.00  0.00     0.016 A 
ATOM     36  C   UNL A   1      37.139  33.839  29.806  1.00  0.00     0.010 A 
ATOM     37  C   UNL A   1      35.853  32.384  31.260  1.00  0.00     0.010 A 
ATOM     38  C   UNL A   1      37.068  33.027  30.947  1.00  0.00    -0.014 A 
BRANCH  38  39
ATOM     39  C   UNL A   1      38.285  32.636  31.706  1.00  0.00     0.031 A 
ATOM     40  C   UNL A   1      39.103  31.509  31.146  1.00  0.00     0.074 A 
ATOM     41  C   UNL A   1      38.633  33.186  32.886  1.00  0.00     0.049 A 
ATOM     42  N   UNL A   1      40.105  30.867  31.683  1.00  0.00    -0.248 NA
ATOM     43  C   UNL A   1      38.734  31.047  29.797  1.00  0.00     0.031 C 
ATOM     44  C   UNL A   1      37.995  34.337  33.510  1.00  0.00     0.029 A 
ATOM     45  N   UNL A   1      39.602  32.822  33.792  1.00  0.00    -0.354 N 
ATOM     46  C   UNL A   1      40.487  29.926  30.738  1.00  0.00     0.074 A 
ATOM     47  C   UNL A   1      39.586  30.053  29.614  1.00  0.00     0.031 C 
ATOM     48  C   UNL A   1      38.531  34.545  34.725  1.00  0.00     0.029 A 
ATOM     49  C   UNL A   1      39.558  33.538  34.968  1.00  0.00     0.049 A 
ATOM     50  H   UNL A   1      40.264  32.114  33.617  1.00  0.00     0.167 HD
ATOM     51  C   UNL A   1      41.506  29.040  30.794  1.00  0.00     0.031 A 
ATOM     52  C   UNL A   1      40.253  33.391  36.114  1.00  0.00     0.031 A 
ATOM     53  C   UNL A   1      42.383  28.887  31.919  1.00  0.00     0.049 A 
ATOM     54  C   UNL A   1      41.305  32.314  36.205  1.00  0.00     0.074 A 
ATOM     55  C   UNL A   1      43.442  28.010  32.068  1.00  0.00     0.029 A 
ATOM     56  N   UNL A   1      42.294  29.620  33.092  1.00  0.00    -0.354 N 
ATOM     57  N   UNL A   1      41.678  31.451  35.291  1.00  0.00    -0.248 NA
ATOM     58  C   UNL A   1      42.044  32.203  37.473  1.00  0.00     0.031 C 
ATOM     59  C   UNL A   1      43.963  28.179  33.354  1.00  0.00     0.029 A 
ATOM     60  C   UNL A   1      43.265  29.198  33.981  1.00  0.00     0.049 A 
ATOM     61  H   UNL A   1      41.638  30.333  33.266  1.00  0.00     0.167 HD
ATOM     62  C   UNL A   1      42.725  30.731  35.854  1.00  0.00     0.074 A 
ATOM     63  C   UNL A   1      42.921  31.248  37.191  1.00  0.00     0.031 C 
ATOM     64  C   UNL A   1      43.467  29.739  35.303  1.00  0.00     0.031 A 
BRANCH  51  65
ATOM     65  C   UNL A   1      41.686  28.146  29.602  1.00  0.00    -0.014 A 
ATOM     66  C   UNL A   1      42.432  28.573  28.489  1.00  0.00     0.010 A 
ATOM     67  C   UNL A   1      41.083  26.878  29.587  1.00  0.00     0.010 A 
ATOM     68  C   UNL A   1      42.532  27.761  27.357  1.00  0.00     0.020 A 
ATOM     69  C   UNL A   1      41.203  26.053  28.467  1.00  0.00     0.020 A 
ATOM     70  C   UNL A   1      41.909  26.510  27.352  1.00  0.00     0.054 A 
BRANCH  70  71
ATOM     71  S   UNL A   1      42.049  25.477  25.869  1.00  0.00     0.124 S 
ATOM     72  O   UNL A   1      41.015  26.048  25.009  1.00  0.00    -0.237 OA
ATOM     73  O   UNL A   1      43.424  25.715  25.440  1.00  0.00    -0.237 OA
ATOM     74  O   UNL A   1      41.776  24.129  26.359  1.00  0.00    -0.744 OA
ENDBRANCH  70  71
ENDBRANCH  51  65
BRANCH  52  75
ATOM     75  C   UNL A   1      39.982  34.276  37.282  1.00  0.00    -0.014 A 
ATOM     76  C   UNL A   1      39.126  33.857  38.316  1.00  0.00     0.010 A 
ATOM     77  C   UNL A   1      40.556  35.559  37.353  1.00  0.00     0.010 A 
ATOM     78  C   UNL A   1      38.832  34.709  39.386  1.00  0.00     0.020 A 
ATOM     79  C   UNL A   1      40.282  36.406  38.432  1.00  0.00     0.020 A 
ATOM     80  C   UNL A   1      39.413  35.980  39.436  1.00  0.00     0.054 A 
BRANCH  80  81
ATOM     81  S   UNL A   1      39.048  37.052  40.855  1.00  0.00     0.124 S 
ATOM     82  O   UNL A   1      40.373  37.263  41.427  1.00  0.00    -0.237 OA
ATOM     83  O   UNL A   1      38.438  38.218  40.218  1.00  0.00    -0.237 OA
ATOM     84  O   UNL A   1      38.135  36.249  41.664  1.00  0.00    -0.744 OA
ENDBRANCH  80  81
ENDBRANCH  52  75
BRANCH  64  85
ATOM     85  C   UNL A   1      44.607  29.174  36.105  1.00  0.00    -0.014 A 
ATOM     86  C   UNL A   1      45.900  29.715  36.018  1.00  0.00     0.010 A 
ATOM     87  C   UNL A   1      44.343  28.166  37.052  1.00  0.00     0.010 A 
ATOM     88  C   UNL A   1      46.912  29.258  36.868  1.00  0.00     0.020 A 
ATOM     89  C   UNL A   1      45.344  27.725  37.919  1.00  0.00     0.020 A 
ATOM     90  C   UNL A   1      46.625  28.274  37.820  1.00  0.00     0.054 A 
BRANCH  90  91
ATOM     91  S   UNL A   1      47.925  27.775  38.983  1.00  0.00     0.124 S 
ATOM     92  O   UNL A   1      47.630  28.608  40.145  1.00  0.00    -0.237 OA
ATOM     93  O   UNL A   1      47.673  26.347  39.154  1.00  0.00    -0.237 OA
ATOM     94  O   UNL A   1      49.164  28.102  38.280  1.00  0.00    -0.744 OA
ENDBRANCH  90  91
ENDBRANCH  64  85
ENDBRANCH  38  39
ENDBRANCH  31  33
ENDBRANCH  30  31
ENDBRANCH  29  30
ENDBRANCH  28  29
ENDBRANCH  27  28
ENDBRANCH  26  27
ENDBRANCH   1  26
TORSDOF 26
ENDMDL
