MODEL 1
REMARK VINA RESULT:      -8.7      0.000      0.000
REMARK SMILES [NH3+]CCOCC(=O)Nc1cc(C(=O)OCCOCCOCCOC(=O)c2ccc(-c3c4nc(c(-c5ccc(S(=O)(=O)[O-])cc5)c5ccc([nH]5)c(-c5ccc(S(=O)(=O)[O-])cc5)c5nc(c(-c6ccc(S(=O)(=O)[O-])cc6)c6ccc3[nH]6)C=C5)C=C4)cc2)ccc1Cl
REMARK SMILES IDX 17 1 16 2 15 3 14 4 12 5 13 6 11 7 9 8 10 9 88 10 87 11
REMARK SMILES IDX 89 12 86 13 8 14 6 15 7 16 5 18 4 19 3 20 2 21 1 22 18 26
REMARK SMILES IDX 19 27 20 28 21 29 22 30 23 31 24 32 25 33 26 34 27 35 85 36
REMARK SMILES IDX 28 37 84 38 29 39 30 40 31 41 78 42 32 43 83 44 77 45 79 46
REMARK SMILES IDX 33 47 82 48 76 49 75 50 34 52 64 53 45 54 63 55 46 56 49 57
REMARK SMILES IDX 62 58 80 59 47 60 48 61 61 63 81 64 50 65 35 66 36 67 44 68
REMARK SMILES IDX 37 69 43 70 38 71 39 72 40 73 41 74 42 75 65 76 66 77 74 78
REMARK SMILES IDX 67 79 73 80 68 81 69 82 70 83 71 84 72 85 51 86 52 87 60 88
REMARK SMILES IDX 53 89 59 90 54 91 55 92 56 93 57 94 58 95
REMARK H PARENT 8 17 1 23 1 24 1 25 79 51 49 62
REMARK Flexibility Score: inf
ROOT
ATOM      1  O   UNL A   1      44.366  21.388  26.036  1.00  0.00    -0.376 OA
ENDROOT
BRANCH   1   2
ATOM      2  C   UNL A   1      42.955  21.399  25.833  1.00  0.00     0.202 C 
BRANCH   2   3
ATOM      3  C   UNL A   1      42.202  20.063  25.879  1.00  0.00     0.261 C 
BRANCH   3   4
ATOM      4  O   UNL A   1      40.778  20.228  25.959  1.00  0.00    -0.460 OA
BRANCH   4   5
ATOM      5  C   UNL A   1      40.332  21.011  26.977  1.00  0.00     0.338 C 
ATOM      6  O   UNL A   1      40.774  21.091  28.099  1.00  0.00    -0.246 OA
BRANCH   5   7
ATOM      7  C   UNL A   1      39.323  21.947  26.428  1.00  0.00     0.062 A 
ATOM      8  C   UNL A   1      37.182  22.228  25.337  1.00  0.00     0.060 A 
ATOM      9  C   UNL A   1      38.210  21.395  25.779  1.00  0.00     0.043 A 
ATOM     10  C   UNL A   1      37.233  23.603  25.631  1.00  0.00     0.064 A 
ATOM     11  C   UNL A   1      38.362  24.152  26.247  1.00  0.00     0.023 A 
ATOM     12  Cl  UNL A   1      35.852  24.628  25.467  1.00  0.00    -0.082 Cl
ATOM     13  C   UNL A   1      39.417  23.327  26.634  1.00  0.00     0.017 A 
BRANCH   8  14
ATOM     14  N   UNL A   1      36.112  21.631  24.653  1.00  0.00    -0.323 N 
ATOM     15  C   UNL A   1      34.977  21.109  25.224  1.00  0.00     0.250 C 
ATOM     16  O   UNL A   1      34.168  20.493  24.527  1.00  0.00    -0.272 OA
ATOM     17  H   UNL A   1      36.181  21.581  23.672  1.00  0.00     0.170 HD
BRANCH  15  18
ATOM     18  C   UNL A   1      34.678  21.408  26.709  1.00  0.00     0.260 C 
BRANCH  18  19
ATOM     19  O   UNL A   1      33.764  22.424  27.060  1.00  0.00    -0.366 OA
BRANCH  19  20
ATOM     20  C   UNL A   1      32.776  22.719  26.071  1.00  0.00     0.222 C 
BRANCH  20  21
ATOM     21  C   UNL A   1      31.470  23.277  26.653  1.00  0.00     0.287 C 
BRANCH  21  22
ATOM     22  N   UNL A   1      30.286  23.072  25.821  1.00  0.00    -0.356 N 
ATOM     23  H   UNL A   1      30.534  22.502  25.011  1.00  0.00     0.344 HD
ATOM     24  H   UNL A   1      29.932  23.975  25.504  1.00  0.00     0.344 HD
ATOM     25  H   UNL A   1      29.567  22.596  26.365  1.00  0.00     0.344 HD
ENDBRANCH  21  22
ENDBRANCH  20  21
ENDBRANCH  19  20
ENDBRANCH  18  19
ENDBRANCH  15  18
ENDBRANCH   8  14
ENDBRANCH   5   7
ENDBRANCH   4   5
ENDBRANCH   3   4
ENDBRANCH   2   3
ENDBRANCH   1   2
BRANCH   1  26
ATOM     26  C   UNL A   1      45.238  21.637  24.938  1.00  0.00     0.188 C 
BRANCH  26  27
ATOM     27  C   UNL A   1      44.878  22.750  23.932  1.00  0.00     0.188 C 
BRANCH  27  28
ATOM     28  O   UNL A   1      45.513  23.979  24.204  1.00  0.00    -0.376 OA
BRANCH  28  29
ATOM     29  C   UNL A   1      46.037  24.197  25.501  1.00  0.00     0.202 C 
BRANCH  29  30
ATOM     30  C   UNL A   1      45.243  24.949  26.586  1.00  0.00     0.261 C 
BRANCH  30  31
ATOM     31  O   UNL A   1      43.827  24.744  26.643  1.00  0.00    -0.460 OA
BRANCH  31  32
ATOM     32  C   UNL A   1      43.040  25.707  26.108  1.00  0.00     0.338 C 
ATOM     33  O   UNL A   1      42.678  25.796  24.950  1.00  0.00    -0.246 OA
BRANCH  32  34
ATOM     34  C   UNL A   1      42.549  26.555  27.218  1.00  0.00     0.060 A 
ATOM     35  C   UNL A   1      43.082  27.840  27.378  1.00  0.00     0.016 A 
ATOM     36  C   UNL A   1      41.577  26.076  28.099  1.00  0.00     0.016 A 
ATOM     37  C   UNL A   1      42.657  28.643  28.441  1.00  0.00     0.010 A 
ATOM     38  C   UNL A   1      41.166  26.874  29.172  1.00  0.00     0.010 A 
ATOM     39  C   UNL A   1      41.723  28.151  29.364  1.00  0.00    -0.014 A 
BRANCH  39  40
ATOM     40  C   UNL A   1      41.452  28.892  30.622  1.00  0.00     0.031 A 
ATOM     41  C   UNL A   1      40.323  29.888  30.639  1.00  0.00     0.074 A 
ATOM     42  C   UNL A   1      42.185  28.684  31.732  1.00  0.00     0.049 A 
ATOM     43  N   UNL A   1      39.943  30.694  31.595  1.00  0.00    -0.248 NA
ATOM     44  C   UNL A   1      39.514  29.985  29.412  1.00  0.00     0.031 C 
ATOM     45  C   UNL A   1      43.274  27.716  31.863  1.00  0.00     0.029 A 
ATOM     46  N   UNL A   1      42.123  29.286  32.964  1.00  0.00    -0.354 N 
ATOM     47  C   UNL A   1      38.849  31.389  31.091  1.00  0.00     0.074 A 
ATOM     48  C   UNL A   1      38.647  30.934  29.732  1.00  0.00     0.031 C 
ATOM     49  C   UNL A   1      43.782  27.798  33.106  1.00  0.00     0.029 A 
ATOM     50  C   UNL A   1      43.081  28.845  33.846  1.00  0.00     0.049 A 
ATOM     51  H   UNL A   1      41.453  29.971  33.196  1.00  0.00     0.167 HD
ATOM     52  C   UNL A   1      38.077  32.317  31.703  1.00  0.00     0.031 A 
ATOM     53  C   UNL A   1      43.373  29.257  35.097  1.00  0.00     0.031 A 
ATOM     54  C   UNL A   1      38.291  32.790  33.044  1.00  0.00     0.049 A 
ATOM     55  C   UNL A   1      42.560  30.366  35.721  1.00  0.00     0.074 A 
ATOM     56  C   UNL A   1      37.574  33.745  33.743  1.00  0.00     0.029 A 
ATOM     57  N   UNL A   1      39.294  32.345  33.888  1.00  0.00    -0.354 N 
ATOM     58  N   UNL A   1      41.528  31.012  35.230  1.00  0.00    -0.248 NA
ATOM     59  C   UNL A   1      42.949  30.799  37.072  1.00  0.00     0.031 C 
ATOM     60  C   UNL A   1      38.171  33.909  34.997  1.00  0.00     0.029 A 
ATOM     61  C   UNL A   1      39.225  33.015  35.098  1.00  0.00     0.049 A 
ATOM     62  H   UNL A   1      39.958  31.653  33.663  1.00  0.00     0.167 HD
ATOM     63  C   UNL A   1      41.126  31.898  36.226  1.00  0.00     0.074 A 
ATOM     64  C   UNL A   1      42.017  31.699  37.349  1.00  0.00     0.031 C 
ATOM     65  C   UNL A   1      40.108  32.793  36.214  1.00  0.00     0.031 A 
BRANCH  52  66
ATOM     66  C   UNL A   1      36.933  32.897  30.918  1.00  0.00    -0.014 A 
ATOM     67  C   UNL A   1      37.155  33.892  29.949  1.00  0.00     0.010 A 
ATOM     68  C   UNL A   1      35.629  32.405  31.110  1.00  0.00     0.010 A 
ATOM     69  C   UNL A   1      36.091  34.400  29.200  1.00  0.00     0.020 A 
ATOM     70  C   UNL A   1      34.566  32.894  30.347  1.00  0.00     0.020 A 
ATOM     71  C   UNL A   1      34.803  33.897  29.404  1.00  0.00     0.054 A 
BRANCH  71  72
ATOM     72  S   UNL A   1      33.447  34.544  28.387  1.00  0.00     0.124 S 
ATOM     73  O   UNL A   1      34.150  35.473  27.505  1.00  0.00    -0.237 OA
ATOM     74  O   UNL A   1      32.925  33.341  27.746  1.00  0.00    -0.237 OA
ATOM     75  O   UNL A   1      32.551  35.167  29.358  1.00  0.00    -0.744 OA
ENDBRANCH  71  72
ENDBRANCH  52  66
BRANCH  53  76
ATOM     76  C   UNL A   1      44.508  28.653  35.851  1.00  0.00    -0.014 A 
ATOM     77  C   UNL A   1      45.742  29.319  35.946  1.00  0.00     0.010 A 
ATOM     78  C   UNL A   1      44.376  27.376  36.428  1.00  0.00     0.010 A 
ATOM     79  C   UNL A   1      46.834  28.706  36.568  1.00  0.00     0.020 A 
ATOM     80  C   UNL A   1      45.456  26.773  37.077  1.00  0.00     0.020 A 
ATOM     81  C   UNL A   1      46.685  27.432  37.124  1.00  0.00     0.054 A 
BRANCH  81  82
ATOM     82  S   UNL A   1      48.112  26.653  37.931  1.00  0.00     0.124 S 
ATOM     83  O   UNL A   1      47.863  26.952  39.339  1.00  0.00    -0.237 OA
ATOM     84  O   UNL A   1      47.970  25.252  37.545  1.00  0.00    -0.237 OA
ATOM     85  O   UNL A   1      49.257  27.342  37.337  1.00  0.00    -0.744 OA
ENDBRANCH  81  82
ENDBRANCH  53  76
BRANCH  65  86
ATOM     86  C   UNL A   1      39.859  33.589  37.468  1.00  0.00    -0.014 A 
ATOM     87  C   UNL A   1      40.339  34.903  37.610  1.00  0.00     0.010 A 
ATOM     88  C   UNL A   1      39.076  33.031  38.496  1.00  0.00     0.010 A 
ATOM     89  C   UNL A   1      40.064  35.633  38.770  1.00  0.00     0.020 A 
ATOM     90  C   UNL A   1      38.777  33.767  39.645  1.00  0.00     0.020 A 
ATOM     91  C   UNL A   1      39.284  35.060  39.780  1.00  0.00     0.054 A 
BRANCH  91  92
ATOM     92  S   UNL A   1      38.900  36.046  41.254  1.00  0.00     0.124 S 
ATOM     93  O   UNL A   1      40.100  35.860  42.065  1.00  0.00    -0.237 OA
ATOM     94  O   UNL A   1      38.714  37.386  40.705  1.00  0.00    -0.237 OA
ATOM     95  O   UNL A   1      37.688  35.422  41.782  1.00  0.00    -0.744 OA
ENDBRANCH  91  92
ENDBRANCH  65  86
ENDBRANCH  39  40
ENDBRANCH  32  34
ENDBRANCH  31  32
ENDBRANCH  30  31
ENDBRANCH  29  30
ENDBRANCH  28  29
ENDBRANCH  27  28
ENDBRANCH  26  27
ENDBRANCH   1  26
TORSDOF 26
ENDMDL
MODEL 2
REMARK VINA RESULT:      -8.7      1.645      2.825
REMARK SMILES [NH3+]CCOCC(=O)Nc1cc(C(=O)OCCOCCOCCOC(=O)c2ccc(-c3c4nc(c(-c5ccc(S(=O)(=O)[O-])cc5)c5ccc([nH]5)c(-c5ccc(S(=O)(=O)[O-])cc5)c5nc(c(-c6ccc(S(=O)(=O)[O-])cc6)c6ccc3[nH]6)C=C5)C=C4)cc2)ccc1Cl
REMARK SMILES IDX 17 1 16 2 15 3 14 4 12 5 13 6 11 7 9 8 10 9 88 10 87 11
REMARK SMILES IDX 89 12 86 13 8 14 6 15 7 16 5 18 4 19 3 20 2 21 1 22 18 26
REMARK SMILES IDX 19 27 20 28 21 29 22 30 23 31 24 32 25 33 26 34 27 35 85 36
REMARK SMILES IDX 28 37 84 38 29 39 30 40 31 41 78 42 32 43 83 44 77 45 79 46
REMARK SMILES IDX 33 47 82 48 76 49 75 50 34 52 64 53 45 54 63 55 46 56 49 57
REMARK SMILES IDX 62 58 80 59 47 60 48 61 61 63 81 64 50 65 35 66 36 67 44 68
REMARK SMILES IDX 37 69 43 70 38 71 39 72 40 73 41 74 42 75 65 76 66 77 74 78
REMARK SMILES IDX 67 79 73 80 68 81 69 82 70 83 71 84 72 85 51 86 52 87 60 88
REMARK SMILES IDX 53 89 59 90 54 91 55 92 56 93 57 94 58 95
REMARK H PARENT 8 17 1 23 1 24 1 25 79 51 49 62
REMARK Flexibility Score: inf
ROOT
ATOM      1  O   UNL A   1      40.444  23.510  26.484  1.00  0.00    -0.376 OA
ENDROOT
BRANCH   1   2
ATOM      2  C   UNL A   1      39.165  24.072  26.767  1.00  0.00     0.202 C 
BRANCH   2   3
ATOM      3  C   UNL A   1      37.916  23.262  26.395  1.00  0.00     0.261 C 
BRANCH   3   4
ATOM      4  O   UNL A   1      36.874  24.072  25.831  1.00  0.00    -0.460 OA
BRANCH   4   5
ATOM      5  C   UNL A   1      36.386  23.653  24.633  1.00  0.00     0.338 C 
ATOM      6  O   UNL A   1      37.009  23.327  23.651  1.00  0.00    -0.246 OA
BRANCH   5   7
ATOM      7  C   UNL A   1      34.927  23.439  24.783  1.00  0.00     0.062 A 
ATOM      8  C   UNL A   1      32.983  22.134  24.172  1.00  0.00     0.060 A 
ATOM      9  C   UNL A   1      34.331  22.445  23.993  1.00  0.00     0.043 A 
ATOM     10  C   UNL A   1      32.262  22.757  25.208  1.00  0.00     0.064 A 
ATOM     11  C   UNL A   1      32.852  23.771  25.968  1.00  0.00     0.023 A 
ATOM     12  Cl  UNL A   1      30.730  22.165  25.742  1.00  0.00    -0.082 Cl
ATOM     13  C   UNL A   1      34.183  24.125  25.748  1.00  0.00     0.017 A 
BRANCH   8  14
ATOM     14  N   UNL A   1      32.423  21.165  23.325  1.00  0.00    -0.323 N 
ATOM     15  C   UNL A   1      32.527  19.803  23.474  1.00  0.00     0.250 C 
ATOM     16  O   UNL A   1      32.101  19.056  22.590  1.00  0.00    -0.272 OA
ATOM     17  H   UNL A   1      31.909  21.491  22.552  1.00  0.00     0.170 HD
BRANCH  15  18
ATOM     18  C   UNL A   1      33.067  19.232  24.802  1.00  0.00     0.260 C 
BRANCH  18  19
ATOM     19  O   UNL A   1      32.252  18.406  25.605  1.00  0.00    -0.366 OA
BRANCH  19  20
ATOM     20  C   UNL A   1      32.713  17.063  25.758  1.00  0.00     0.222 C 
BRANCH  20  21
ATOM     21  C   UNL A   1      33.824  16.677  24.772  1.00  0.00     0.287 C 
BRANCH  21  22
ATOM     22  N   UNL A   1      35.160  16.583  25.355  1.00  0.00    -0.356 N 
ATOM     23  H   UNL A   1      35.789  16.126  24.693  1.00  0.00     0.344 HD
ATOM     24  H   UNL A   1      35.120  16.037  26.216  1.00  0.00     0.344 HD
ATOM     25  H   UNL A   1      35.508  17.520  25.562  1.00  0.00     0.344 HD
ENDBRANCH  21  22
ENDBRANCH  20  21
ENDBRANCH  19  20
ENDBRANCH  18  19
ENDBRANCH  15  18
ENDBRANCH   8  14
ENDBRANCH   5   7
ENDBRANCH   4   5
ENDBRANCH   3   4
ENDBRANCH   2   3
ENDBRANCH   1   2
BRANCH   1  26
ATOM     26  C   UNL A   1      40.989  22.524  27.356  1.00  0.00     0.188 C 
BRANCH  26  27
ATOM     27  C   UNL A   1      42.403  21.973  27.076  1.00  0.00     0.188 C 
BRANCH  27  28
ATOM     28  O   UNL A   1      43.393  22.516  27.919  1.00  0.00    -0.376 OA
BRANCH  28  29
ATOM     29  C   UNL A   1      44.596  22.985  27.336  1.00  0.00     0.202 C 
BRANCH  29  30
ATOM     30  C   UNL A   1      45.125  24.409  27.590  1.00  0.00     0.261 C 
BRANCH  30  31
ATOM     31  O   UNL A   1      44.850  25.411  26.604  1.00  0.00    -0.460 OA
BRANCH  31  32
ATOM     32  C   UNL A   1      43.551  25.649  26.309  1.00  0.00     0.338 C 
ATOM     33  O   UNL A   1      42.904  25.155  25.404  1.00  0.00    -0.246 OA
BRANCH  32  34
ATOM     34  C   UNL A   1      42.992  26.496  27.387  1.00  0.00     0.060 A 
ATOM     35  C   UNL A   1      43.479  27.799  27.549  1.00  0.00     0.016 A 
ATOM     36  C   UNL A   1      42.002  25.999  28.238  1.00  0.00     0.016 A 
ATOM     37  C   UNL A   1      42.990  28.601  28.584  1.00  0.00     0.010 A 
ATOM     38  C   UNL A   1      41.527  26.798  29.283  1.00  0.00     0.010 A 
ATOM     39  C   UNL A   1      42.036  28.093  29.478  1.00  0.00    -0.014 A 
BRANCH  39  40
ATOM     40  C   UNL A   1      41.696  28.842  30.714  1.00  0.00     0.031 A 
ATOM     41  C   UNL A   1      40.522  29.784  30.681  1.00  0.00     0.074 A 
ATOM     42  C   UNL A   1      42.404  28.687  31.848  1.00  0.00     0.049 A 
ATOM     43  N   UNL A   1      40.077  30.588  31.612  1.00  0.00    -0.248 NA
ATOM     44  C   UNL A   1      39.745  29.824  29.430  1.00  0.00     0.031 C 
ATOM     45  C   UNL A   1      43.533  27.773  32.027  1.00  0.00     0.029 A 
ATOM     46  N   UNL A   1      42.279  29.306  33.067  1.00  0.00    -0.354 N 
ATOM     47  C   UNL A   1      38.968  31.222  31.064  1.00  0.00     0.074 A 
ATOM     48  C   UNL A   1      38.826  30.736  29.709  1.00  0.00     0.031 C 
ATOM     49  C   UNL A   1      44.000  27.899  33.282  1.00  0.00     0.029 A 
ATOM     50  C   UNL A   1      43.230  28.924  33.984  1.00  0.00     0.049 A 
ATOM     51  H   UNL A   1      41.572  29.962  33.267  1.00  0.00     0.167 HD
ATOM     52  C   UNL A   1      38.137  32.124  31.637  1.00  0.00     0.031 A 
ATOM     53  C   UNL A   1      43.466  29.370  35.235  1.00  0.00     0.031 A 
ATOM     54  C   UNL A   1      38.289  32.628  32.975  1.00  0.00     0.049 A 
ATOM     55  C   UNL A   1      42.585  30.451  35.815  1.00  0.00     0.074 A 
ATOM     56  C   UNL A   1      37.509  33.562  33.636  1.00  0.00     0.029 A 
ATOM     57  N   UNL A   1      39.287  32.245  33.855  1.00  0.00    -0.354 N 
ATOM     58  N   UNL A   1      41.540  31.040  35.283  1.00  0.00    -0.248 NA
ATOM     59  C   UNL A   1      42.915  30.923  37.169  1.00  0.00     0.031 C 
ATOM     60  C   UNL A   1      38.062  33.774  34.903  1.00  0.00     0.029 A 
ATOM     61  C   UNL A   1      39.152  32.931  35.050  1.00  0.00     0.049 A 
ATOM     62  H   UNL A   1      39.988  31.581  33.661  1.00  0.00     0.167 HD
ATOM     63  C   UNL A   1      41.068  31.922  36.251  1.00  0.00     0.074 A 
ATOM     64  C   UNL A   1      41.934  31.784  37.403  1.00  0.00     0.031 C 
ATOM     65  C   UNL A   1      40.011  32.769  36.195  1.00  0.00     0.031 A 
BRANCH  52  66
ATOM     66  C   UNL A   1      36.990  32.638  30.810  1.00  0.00    -0.014 A 
ATOM     67  C   UNL A   1      35.690  32.132  30.988  1.00  0.00     0.010 A 
ATOM     68  C   UNL A   1      37.203  33.676  29.885  1.00  0.00     0.010 A 
ATOM     69  C   UNL A   1      34.626  32.641  30.240  1.00  0.00     0.020 A 
ATOM     70  C   UNL A   1      36.136  34.203  29.152  1.00  0.00     0.020 A 
ATOM     71  C   UNL A   1      34.856  33.673  29.327  1.00  0.00     0.054 A 
BRANCH  71  72
ATOM     72  S   UNL A   1      33.448  34.343  28.400  1.00  0.00     0.124 S 
ATOM     73  O   UNL A   1      34.077  35.411  27.627  1.00  0.00    -0.237 OA
ATOM     74  O   UNL A   1      32.996  33.190  27.626  1.00  0.00    -0.237 OA
ATOM     75  O   UNL A   1      32.527  34.790  29.442  1.00  0.00    -0.744 OA
ENDBRANCH  71  72
ENDBRANCH  52  66
BRANCH  53  76
ATOM     76  C   UNL A   1      44.605  28.832  36.031  1.00  0.00    -0.014 A 
ATOM     77  C   UNL A   1      45.914  29.302  35.820  1.00  0.00     0.010 A 
ATOM     78  C   UNL A   1      44.393  27.801  36.965  1.00  0.00     0.010 A 
ATOM     79  C   UNL A   1      46.993  28.725  36.498  1.00  0.00     0.020 A 
ATOM     80  C   UNL A   1      45.465  27.242  37.666  1.00  0.00     0.020 A 
ATOM     81  C   UNL A   1      46.761  27.693  37.412  1.00  0.00     0.054 A 
BRANCH  81  82
ATOM     82  S   UNL A   1      48.173  26.959  38.285  1.00  0.00     0.124 S 
ATOM     83  O   UNL A   1      49.303  27.639  37.658  1.00  0.00    -0.237 OA
ATOM     84  O   UNL A   1      47.909  27.318  39.675  1.00  0.00    -0.237 OA
ATOM     85  O   UNL A   1      48.055  25.533  37.985  1.00  0.00    -0.744 OA
ENDBRANCH  81  82
ENDBRANCH  53  76
BRANCH  65  86
ATOM     86  C   UNL A   1      39.690  33.574  37.427  1.00  0.00    -0.014 A 
ATOM     87  C   UNL A   1      38.877  33.055  38.449  1.00  0.00     0.010 A 
ATOM     88  C   UNL A   1      40.267  34.847  37.589  1.00  0.00     0.010 A 
ATOM     89  C   UNL A   1      38.623  33.809  39.599  1.00  0.00     0.020 A 
ATOM     90  C   UNL A   1      40.037  35.593  38.748  1.00  0.00     0.020 A 
ATOM     91  C   UNL A   1      39.204  35.073  39.742  1.00  0.00     0.054 A 
BRANCH  91  92
ATOM     92  S   UNL A   1      38.899  36.010  41.264  1.00  0.00     0.124 S 
ATOM     93  O   UNL A   1      40.134  35.789  42.011  1.00  0.00    -0.237 OA
ATOM     94  O   UNL A   1      38.698  37.370  40.770  1.00  0.00    -0.237 OA
ATOM     95  O   UNL A   1      37.708  35.378  41.829  1.00  0.00    -0.744 OA
ENDBRANCH  91  92
ENDBRANCH  65  86
ENDBRANCH  39  40
ENDBRANCH  32  34
ENDBRANCH  31  32
ENDBRANCH  30  31
ENDBRANCH  29  30
ENDBRANCH  28  29
ENDBRANCH  27  28
ENDBRANCH  26  27
ENDBRANCH   1  26
TORSDOF 26
ENDMDL
MODEL 3
REMARK VINA RESULT:      -8.6      1.518      8.095
REMARK SMILES [NH3+]CCOCC(=O)Nc1cc(C(=O)OCCOCCOCCOC(=O)c2ccc(-c3c4nc(c(-c5ccc(S(=O)(=O)[O-])cc5)c5ccc([nH]5)c(-c5ccc(S(=O)(=O)[O-])cc5)c5nc(c(-c6ccc(S(=O)(=O)[O-])cc6)c6ccc3[nH]6)C=C5)C=C4)cc2)ccc1Cl
REMARK SMILES IDX 17 1 16 2 15 3 14 4 12 5 13 6 11 7 9 8 10 9 88 10 87 11
REMARK SMILES IDX 89 12 86 13 8 14 6 15 7 16 5 18 4 19 3 20 2 21 1 22 18 26
REMARK SMILES IDX 19 27 20 28 21 29 22 30 23 31 24 32 25 33 26 34 27 35 85 36
REMARK SMILES IDX 28 37 84 38 29 39 30 40 31 41 78 42 32 43 83 44 77 45 79 46
REMARK SMILES IDX 33 47 82 48 76 49 75 50 34 52 64 53 45 54 63 55 46 56 49 57
REMARK SMILES IDX 62 58 80 59 47 60 48 61 61 63 81 64 50 65 35 66 36 67 44 68
REMARK SMILES IDX 37 69 43 70 38 71 39 72 40 73 41 74 42 75 65 76 66 77 74 78
REMARK SMILES IDX 67 79 73 80 68 81 69 82 70 83 71 84 72 85 51 86 52 87 60 88
REMARK SMILES IDX 53 89 59 90 54 91 55 92 56 93 57 94 58 95
REMARK H PARENT 8 17 1 23 1 24 1 25 79 51 49 62
REMARK Flexibility Score: inf
ROOT
ATOM      1  O   UNL A   1      44.810  22.566  26.834  1.00  0.00    -0.376 OA
ENDROOT
BRANCH   1   2
ATOM      2  C   UNL A   1      43.434  22.263  27.052  1.00  0.00     0.202 C 
BRANCH   2   3
ATOM      3  C   UNL A   1      42.825  21.067  26.308  1.00  0.00     0.261 C 
BRANCH   3   4
ATOM      4  O   UNL A   1      41.509  21.337  25.802  1.00  0.00    -0.460 OA
BRANCH   4   5
ATOM      5  C   UNL A   1      40.497  21.220  26.702  1.00  0.00     0.338 C 
ATOM      6  O   UNL A   1      40.523  20.676  27.780  1.00  0.00    -0.246 OA
BRANCH   5   7
ATOM      7  C   UNL A   1      39.377  22.077  26.246  1.00  0.00     0.062 A 
ATOM      8  C   UNL A   1      37.186  22.200  25.225  1.00  0.00     0.060 A 
ATOM      9  C   UNL A   1      38.311  21.455  25.582  1.00  0.00     0.043 A 
ATOM     10  C   UNL A   1      37.099  23.548  25.621  1.00  0.00     0.064 A 
ATOM     11  C   UNL A   1      38.179  24.172  26.251  1.00  0.00     0.023 A 
ATOM     12  Cl  UNL A   1      35.611  24.425  25.564  1.00  0.00    -0.082 Cl
ATOM     13  C   UNL A   1      39.328  23.441  26.553  1.00  0.00     0.017 A 
BRANCH   8  14
ATOM     14  N   UNL A   1      36.167  21.540  24.522  1.00  0.00    -0.323 N 
ATOM     15  C   UNL A   1      35.036  20.985  25.068  1.00  0.00     0.250 C 
ATOM     16  O   UNL A   1      34.278  20.318  24.361  1.00  0.00    -0.272 OA
ATOM     17  H   UNL A   1      36.273  21.469  23.546  1.00  0.00     0.170 HD
BRANCH  15  18
ATOM     18  C   UNL A   1      34.672  21.308  26.533  1.00  0.00     0.260 C 
BRANCH  18  19
ATOM     19  O   UNL A   1      33.321  21.442  26.918  1.00  0.00    -0.366 OA
BRANCH  19  20
ATOM     20  C   UNL A   1      32.606  22.493  26.267  1.00  0.00     0.222 C 
BRANCH  20  21
ATOM     21  C   UNL A   1      31.862  23.424  27.234  1.00  0.00     0.287 C 
BRANCH  21  22
ATOM     22  N   UNL A   1      31.144  24.527  26.600  1.00  0.00    -0.356 N 
ATOM     23  H   UNL A   1      30.691  24.193  25.749  1.00  0.00     0.344 HD
ATOM     24  H   UNL A   1      31.801  25.271  26.364  1.00  0.00     0.344 HD
ATOM     25  H   UNL A   1      30.438  24.887  27.243  1.00  0.00     0.344 HD
ENDBRANCH  21  22
ENDBRANCH  20  21
ENDBRANCH  19  20
ENDBRANCH  18  19
ENDBRANCH  15  18
ENDBRANCH   8  14
ENDBRANCH   5   7
ENDBRANCH   4   5
ENDBRANCH   3   4
ENDBRANCH   2   3
ENDBRANCH   1   2
BRANCH   1  26
ATOM     26  C   UNL A   1      45.217  23.143  25.597  1.00  0.00     0.188 C 
BRANCH  26  27
ATOM     27  C   UNL A   1      44.167  23.862  24.723  1.00  0.00     0.188 C 
BRANCH  27  28
ATOM     28  O   UNL A   1      44.139  25.258  24.914  1.00  0.00    -0.376 OA
BRANCH  28  29
ATOM     29  C   UNL A   1      44.578  25.781  26.155  1.00  0.00     0.202 C 
BRANCH  29  30
ATOM     30  C   UNL A   1      43.625  25.945  27.353  1.00  0.00     0.261 C 
BRANCH  30  31
ATOM     31  O   UNL A   1      42.249  25.593  27.169  1.00  0.00    -0.460 OA
BRANCH  31  32
ATOM     32  C   UNL A   1      41.416  26.565  26.730  1.00  0.00     0.338 C 
ATOM     33  O   UNL A   1      40.911  26.651  25.626  1.00  0.00    -0.246 OA
BRANCH  32  34
ATOM     34  C   UNL A   1      41.082  27.427  27.885  1.00  0.00     0.060 A 
ATOM     35  C   UNL A   1      41.505  28.762  27.881  1.00  0.00     0.016 A 
ATOM     36  C   UNL A   1      40.364  26.915  28.969  1.00  0.00     0.016 A 
ATOM     37  C   UNL A   1      41.230  29.583  28.978  1.00  0.00     0.010 A 
ATOM     38  C   UNL A   1      40.106  27.734  30.073  1.00  0.00     0.010 A 
ATOM     39  C   UNL A   1      40.560  29.064  30.095  1.00  0.00    -0.014 A 
BRANCH  39  40
ATOM     40  C   UNL A   1      40.482  29.849  31.353  1.00  0.00     0.031 A 
ATOM     41  C   UNL A   1      41.555  29.647  32.391  1.00  0.00     0.074 A 
ATOM     42  C   UNL A   1      39.488  30.729  31.573  1.00  0.00     0.049 A 
ATOM     43  N   UNL A   1      41.661  30.169  33.585  1.00  0.00    -0.248 NA
ATOM     44  C   UNL A   1      42.655  28.736  32.032  1.00  0.00     0.031 C 
ATOM     45  C   UNL A   1      38.415  31.052  30.632  1.00  0.00     0.029 A 
ATOM     46  N   UNL A   1      39.218  31.511  32.669  1.00  0.00    -0.354 N 
ATOM     47  C   UNL A   1      42.839  29.657  34.118  1.00  0.00     0.074 A 
ATOM     48  C   UNL A   1      43.395  28.757  33.130  1.00  0.00     0.031 C 
ATOM     49  C   UNL A   1      37.599  31.960  31.197  1.00  0.00     0.029 A 
ATOM     50  C   UNL A   1      38.069  32.256  32.550  1.00  0.00     0.049 A 
ATOM     51  H   UNL A   1      39.795  31.536  33.467  1.00  0.00     0.167 HD
ATOM     52  C   UNL A   1      43.412  29.915  35.317  1.00  0.00     0.031 A 
ATOM     53  C   UNL A   1      37.455  33.064  33.439  1.00  0.00     0.031 A 
ATOM     54  C   UNL A   1      42.849  30.789  36.310  1.00  0.00     0.049 A 
ATOM     55  C   UNL A   1      38.062  33.256  34.808  1.00  0.00     0.074 A 
ATOM     56  C   UNL A   1      43.346  31.096  37.566  1.00  0.00     0.029 A 
ATOM     57  N   UNL A   1      41.666  31.493  36.164  1.00  0.00    -0.354 N 
ATOM     58  N   UNL A   1      39.177  32.764  35.295  1.00  0.00    -0.248 NA
ATOM     59  C   UNL A   1      37.327  34.118  35.747  1.00  0.00     0.031 C 
ATOM     60  C   UNL A   1      42.439  31.954  38.196  1.00  0.00     0.029 A 
ATOM     61  C   UNL A   1      41.408  32.225  37.311  1.00  0.00     0.049 A 
ATOM     62  H   UNL A   1      41.093  31.478  35.363  1.00  0.00     0.167 HD
ATOM     63  C   UNL A   1      39.293  33.287  36.579  1.00  0.00     0.074 A 
ATOM     64  C   UNL A   1      38.143  34.139  36.792  1.00  0.00     0.031 C 
ATOM     65  C   UNL A   1      40.267  33.084  37.500  1.00  0.00     0.031 A 
BRANCH  52  66
ATOM     66  C   UNL A   1      44.713  29.229  35.628  1.00  0.00    -0.014 A 
ATOM     67  C   UNL A   1      45.942  29.824  35.287  1.00  0.00     0.010 A 
ATOM     68  C   UNL A   1      44.712  28.003  36.318  1.00  0.00     0.010 A 
ATOM     69  C   UNL A   1      47.146  29.196  35.613  1.00  0.00     0.020 A 
ATOM     70  C   UNL A   1      45.916  27.383  36.666  1.00  0.00     0.020 A 
ATOM     71  C   UNL A   1      47.125  27.979  36.301  1.00  0.00     0.054 A 
BRANCH  71  72
ATOM     72  S   UNL A   1      48.704  27.207  36.748  1.00  0.00     0.124 S 
ATOM     73  O   UNL A   1      48.269  26.103  37.601  1.00  0.00    -0.237 OA
ATOM     74  O   UNL A   1      49.250  26.820  35.450  1.00  0.00    -0.237 OA
ATOM     75  O   UNL A   1      49.431  28.273  37.432  1.00  0.00    -0.744 OA
ENDBRANCH  71  72
ENDBRANCH  52  66
BRANCH  53  76
ATOM     76  C   UNL A   1      36.171  33.737  33.093  1.00  0.00    -0.014 A 
ATOM     77  C   UNL A   1      36.163  35.041  32.566  1.00  0.00     0.010 A 
ATOM     78  C   UNL A   1      34.944  33.097  33.347  1.00  0.00     0.010 A 
ATOM     79  C   UNL A   1      34.954  35.706  32.336  1.00  0.00     0.020 A 
ATOM     80  C   UNL A   1      33.734  33.747  33.090  1.00  0.00     0.020 A 
ATOM     81  C   UNL A   1      33.746  35.056  32.606  1.00  0.00     0.054 A 
BRANCH  81  82
ATOM     82  S   UNL A   1      32.188  35.934  32.298  1.00  0.00     0.124 S 
ATOM     83  O   UNL A   1      32.284  36.228  30.872  1.00  0.00    -0.237 OA
ATOM     84  O   UNL A   1      31.185  34.942  32.675  1.00  0.00    -0.237 OA
ATOM     85  O   UNL A   1      32.270  37.093  33.184  1.00  0.00    -0.744 OA
ENDBRANCH  81  82
ENDBRANCH  53  76
BRANCH  65  86
ATOM     86  C   UNL A   1      40.169  33.835  38.803  1.00  0.00    -0.014 A 
ATOM     87  C   UNL A   1      39.344  33.385  39.847  1.00  0.00     0.010 A 
ATOM     88  C   UNL A   1      40.968  34.976  39.003  1.00  0.00     0.010 A 
ATOM     89  C   UNL A   1      39.297  34.081  41.059  1.00  0.00     0.020 A 
ATOM     90  C   UNL A   1      40.945  35.659  40.222  1.00  0.00     0.020 A 
ATOM     91  C   UNL A   1      40.099  35.213  41.239  1.00  0.00     0.054 A 
BRANCH  91  92
ATOM     92  S   UNL A   1      40.058  36.070  42.837  1.00  0.00     0.124 S 
ATOM     93  O   UNL A   1      38.666  35.892  43.243  1.00  0.00    -0.237 OA
ATOM     94  O   UNL A   1      41.042  35.331  43.623  1.00  0.00    -0.237 OA
ATOM     95  O   UNL A   1      40.439  37.442  42.506  1.00  0.00    -0.744 OA
ENDBRANCH  91  92
ENDBRANCH  65  86
ENDBRANCH  39  40
ENDBRANCH  32  34
ENDBRANCH  31  32
ENDBRANCH  30  31
ENDBRANCH  29  30
ENDBRANCH  28  29
ENDBRANCH  27  28
ENDBRANCH  26  27
ENDBRANCH   1  26
TORSDOF 26
ENDMDL
