MODEL 1
REMARK VINA RESULT:     -11.3      0.000      0.000
REMARK SMILES O=C(OCCOCCOCCOC(=O)c1ccc(-c2c3nc(c(-c4ccc(S(=O)(=O)[O-])cc4)c4ccc([nH]4)c(-c4ccc(S(=O)(=O)[O-])cc4)c4nc(c(-c5ccc(S(=O)(=O)[O-])cc5)c5ccc2[nH]5)C=C4)C=C3)cc1)C1=Cc2c(Cl)cc(Cl)cc2O[C@@H]1C(F)(F)F
REMARK SMILES IDX 8 1 7 2 6 3 5 4 4 5 3 6 2 7 1 8 75 9 76 10 86 11 77 12 85 13
REMARK SMILES IDX 78 14 84 15 79 16 80 17 83 18 81 19 82 20 87 21 88 22 89 23
REMARK SMILES IDX 90 24 9 25 10 26 11 27 12 28 13 29 14 30 15 31 16 32 74 33
REMARK SMILES IDX 17 34 73 35 18 36 19 37 20 38 67 39 21 40 72 41 66 42 68 43
REMARK SMILES IDX 22 44 71 45 65 46 64 47 23 49 53 50 34 51 52 52 35 53 38 54
REMARK SMILES IDX 51 55 69 56 36 57 37 58 50 60 70 61 39 62 24 63 25 64 33 65
REMARK SMILES IDX 26 66 32 67 27 68 28 69 29 70 30 71 31 72 54 73 55 74 63 75
REMARK SMILES IDX 56 76 62 77 57 78 58 79 59 80 60 81 61 82 40 83 41 84 49 85
REMARK SMILES IDX 42 86 48 87 43 88 44 89 45 90 46 91 47 92
REMARK H PARENT 68 48 38 59
REMARK Flexibility Score: inf
ROOT
ATOM      1  C   UNL A   1      35.577  34.021  29.770  1.00  0.00     0.188 C 
ENDROOT
BRANCH   1   2
ATOM      2  C   UNL A   1      34.071  34.016  29.463  1.00  0.00     0.188 C 
BRANCH   2   3
ATOM      3  O   UNL A   1      33.480  33.104  28.432  1.00  0.00    -0.376 OA
BRANCH   3   4
ATOM      4  C   UNL A   1      34.078  31.564  27.907  1.00  0.00     0.202 C 
BRANCH   4   5
ATOM      5  C   UNL A   1      32.807  29.932  27.242  1.00  0.00     0.261 C 
BRANCH   5   6
ATOM      6  O   UNL A   1      33.163  28.464  27.230  1.00  0.00    -0.460 OA
BRANCH   6   7
ATOM      7  C   UNL A   1      32.143  27.712  26.787  1.00  0.00     0.338 C 
ATOM      8  O   UNL A   1      31.422  27.007  27.448  1.00  0.00    -0.246 OA
BRANCH   7   9
ATOM      9  C   UNL A   1      32.592  27.590  25.404  1.00  0.00     0.087 C 
ATOM     10  C   UNL A   1      33.567  26.542  25.116  1.00  0.00     0.029 C 
ATOM     11  C   UNL A   1      30.792  27.603  24.753  1.00  0.00     0.316 C 
ATOM     12  C   UNL A   1      33.172  24.942  24.375  1.00  0.00     0.036 A 
ATOM     13  O   UNL A   1      30.271  25.831  24.118  1.00  0.00    -0.475 OA
ATOM     14  C   UNL A   1      34.118  23.960  24.227  1.00  0.00     0.053 A 
ATOM     15  C   UNL A   1      31.552  24.536  23.916  1.00  0.00     0.130 A 
ATOM     16  Cl  UNL A   1      35.750  24.142  24.714  1.00  0.00    -0.083 Cl
ATOM     17  C   UNL A   1      33.667  22.748  23.672  1.00  0.00     0.042 A 
ATOM     18  C   UNL A   1      31.187  23.338  23.371  1.00  0.00     0.067 A 
ATOM     19  C   UNL A   1      32.296  22.464  23.262  1.00  0.00     0.046 A 
ATOM     20  Cl  UNL A   1      32.028  20.891  22.577  1.00  0.00    -0.084 Cl
BRANCH  11  21
ATOM     21  C   UNL A   1      31.003  29.069  23.934  1.00  0.00     0.430 C 
ATOM     22  F   UNL A   1      31.404  30.168  24.578  1.00  0.00    -0.167 F 
ATOM     23  F   UNL A   1      31.853  28.881  22.896  1.00  0.00    -0.167 F 
ATOM     24  F   UNL A   1      29.827  29.475  23.360  1.00  0.00    -0.167 F 
ENDBRANCH  11  21
ENDBRANCH   7   9
ENDBRANCH   6   7
ENDBRANCH   5   6
ENDBRANCH   4   5
ENDBRANCH   3   4
ENDBRANCH   2   3
ENDBRANCH   1   2
BRANCH   1  25
ATOM     25  O   UNL A   1      36.014  33.450  30.980  1.00  0.00    -0.376 OA
BRANCH  25  26
ATOM     26  C   UNL A   1      35.261  32.326  31.417  1.00  0.00     0.202 C 
BRANCH  26  27
ATOM     27  C   UNL A   1      35.965  31.282  32.305  1.00  0.00     0.261 C 
BRANCH  27  28
ATOM     28  O   UNL A   1      36.426  30.101  31.605  1.00  0.00    -0.460 OA
BRANCH  28  29
ATOM     29  C   UNL A   1      37.361  29.325  32.214  1.00  0.00     0.338 C 
ATOM     30  O   UNL A   1      37.200  28.616  33.193  1.00  0.00    -0.246 OA
BRANCH  29  31
ATOM     31  C   UNL A   1      38.617  29.348  31.431  1.00  0.00     0.060 A 
ATOM     32  C   UNL A   1      38.609  29.734  30.080  1.00  0.00     0.016 A 
ATOM     33  C   UNL A   1      39.809  28.945  32.033  1.00  0.00     0.016 A 
ATOM     34  C   UNL A   1      39.804  29.781  29.350  1.00  0.00     0.010 A 
ATOM     35  C   UNL A   1      40.991  28.937  31.286  1.00  0.00     0.010 A 
ATOM     36  C   UNL A   1      41.000  29.356  29.944  1.00  0.00    -0.014 A 
BRANCH  36  37
ATOM     37  C   UNL A   1      42.228  29.148  29.133  1.00  0.00     0.031 A 
ATOM     38  C   UNL A   1      42.435  27.793  28.514  1.00  0.00     0.074 A 
ATOM     39  C   UNL A   1      43.173  30.100  29.012  1.00  0.00     0.049 A 
ATOM     40  N   UNL A   1      43.483  27.315  27.897  1.00  0.00    -0.248 NA
ATOM     41  C   UNL A   1      41.312  26.846  28.620  1.00  0.00     0.031 C 
ATOM     42  C   UNL A   1      43.073  31.461  29.533  1.00  0.00     0.029 A 
ATOM     43  N   UNL A   1      44.420  30.056  28.429  1.00  0.00    -0.354 N 
ATOM     44  C   UNL A   1      43.160  26.004  27.571  1.00  0.00     0.074 A 
ATOM     45  C   UNL A   1      41.821  25.760  28.056  1.00  0.00     0.031 C 
ATOM     46  C   UNL A   1      44.217  32.117  29.267  1.00  0.00     0.029 A 
ATOM     47  C   UNL A   1      45.152  31.209  28.602  1.00  0.00     0.049 A 
ATOM     48  H   UNL A   1      44.755  29.273  27.935  1.00  0.00     0.167 HD
ATOM     49  C   UNL A   1      43.921  25.080  26.941  1.00  0.00     0.031 A 
ATOM     50  C   UNL A   1      46.441  31.484  28.300  1.00  0.00     0.031 A 
ATOM     51  C   UNL A   1      45.263  25.323  26.484  1.00  0.00     0.049 A 
ATOM     52  C   UNL A   1      47.289  30.410  27.656  1.00  0.00     0.074 A 
ATOM     53  C   UNL A   1      46.100  24.462  25.797  1.00  0.00     0.029 A 
ATOM     54  N   UNL A   1      45.970  26.498  26.685  1.00  0.00    -0.354 N 
ATOM     55  N   UNL A   1      46.949  29.196  27.293  1.00  0.00    -0.248 NA
ATOM     56  C   UNL A   1      48.698  30.740  27.385  1.00  0.00     0.031 C 
ATOM     57  C   UNL A   1      47.345  25.081  25.664  1.00  0.00     0.029 A 
ATOM     58  C   UNL A   1      47.254  26.364  26.183  1.00  0.00     0.049 A 
ATOM     59  H   UNL A   1      45.614  27.305  27.120  1.00  0.00     0.167 HD
ATOM     60  C   UNL A   1      48.092  28.630  26.733  1.00  0.00     0.074 A 
ATOM     61  C   UNL A   1      49.126  29.641  26.780  1.00  0.00     0.031 C 
ATOM     62  C   UNL A   1      48.272  27.383  26.230  1.00  0.00     0.031 A 
BRANCH  49  63
ATOM     63  C   UNL A   1      43.353  23.698  26.762  1.00  0.00    -0.014 A 
ATOM     64  C   UNL A   1      42.822  23.271  25.532  1.00  0.00     0.010 A 
ATOM     65  C   UNL A   1      43.423  22.785  27.831  1.00  0.00     0.010 A 
ATOM     66  C   UNL A   1      42.358  21.962  25.381  1.00  0.00     0.020 A 
ATOM     67  C   UNL A   1      42.991  21.467  27.675  1.00  0.00     0.020 A 
ATOM     68  C   UNL A   1      42.455  21.065  26.451  1.00  0.00     0.054 A 
BRANCH  68  69
ATOM     69  S   UNL A   1      41.910  19.354  26.201  1.00  0.00     0.124 S 
ATOM     70  O   UNL A   1      42.703  18.950  25.043  1.00  0.00    -0.237 OA
ATOM     71  O   UNL A   1      42.274  18.718  27.465  1.00  0.00    -0.237 OA
ATOM     72  O   UNL A   1      40.475  19.478  25.958  1.00  0.00    -0.744 OA
ENDBRANCH  68  69
ENDBRANCH  49  63
BRANCH  50  73
ATOM     73  C   UNL A   1      47.043  32.805  28.657  1.00  0.00    -0.014 A 
ATOM     74  C   UNL A   1      46.908  33.920  27.811  1.00  0.00     0.010 A 
ATOM     75  C   UNL A   1      47.804  32.940  29.834  1.00  0.00     0.010 A 
ATOM     76  C   UNL A   1      47.545  35.130  28.117  1.00  0.00     0.020 A 
ATOM     77  C   UNL A   1      48.409  34.157  30.165  1.00  0.00     0.020 A 
ATOM     78  C   UNL A   1      48.289  35.241  29.295  1.00  0.00     0.054 A 
BRANCH  78  79
ATOM     79  S   UNL A   1      49.082  36.825  29.688  1.00  0.00     0.124 S 
ATOM     80  O   UNL A   1      49.455  37.317  28.365  1.00  0.00    -0.237 OA
ATOM     81  O   UNL A   1      48.008  37.557  30.356  1.00  0.00    -0.237 OA
ATOM     82  O   UNL A   1      50.198  36.446  30.551  1.00  0.00    -0.744 OA
ENDBRANCH  78  79
ENDBRANCH  50  73
BRANCH  62  83
ATOM     83  C   UNL A   1      49.622  27.038  25.655  1.00  0.00    -0.014 A 
ATOM     84  C   UNL A   1      49.924  27.273  24.302  1.00  0.00     0.010 A 
ATOM     85  C   UNL A   1      50.636  26.564  26.509  1.00  0.00     0.010 A 
ATOM     86  C   UNL A   1      51.210  27.027  23.813  1.00  0.00     0.020 A 
ATOM     87  C   UNL A   1      51.932  26.352  26.032  1.00  0.00     0.020 A 
ATOM     88  C   UNL A   1      52.208  26.579  24.683  1.00  0.00     0.054 A 
BRANCH  88  89
ATOM     89  S   UNL A   1      53.888  26.347  24.037  1.00  0.00     0.124 S 
ATOM     90  O   UNL A   1      54.310  25.124  24.714  1.00  0.00    -0.237 OA
ATOM     91  O   UNL A   1      53.659  26.224  22.599  1.00  0.00    -0.237 OA
ATOM     92  O   UNL A   1      54.590  27.560  24.448  1.00  0.00    -0.744 OA
ENDBRANCH  88  89
ENDBRANCH  62  83
ENDBRANCH  36  37
ENDBRANCH  29  31
ENDBRANCH  28  29
ENDBRANCH  27  28
ENDBRANCH  26  27
ENDBRANCH  25  26
ENDBRANCH   1  25
TORSDOF 21
ENDMDL
MODEL 2
REMARK VINA RESULT:     -10.8      6.077     12.082
REMARK SMILES O=C(OCCOCCOCCOC(=O)c1ccc(-c2c3nc(c(-c4ccc(S(=O)(=O)[O-])cc4)c4ccc([nH]4)c(-c4ccc(S(=O)(=O)[O-])cc4)c4nc(c(-c5ccc(S(=O)(=O)[O-])cc5)c5ccc2[nH]5)C=C4)C=C3)cc1)C1=Cc2c(Cl)cc(Cl)cc2O[C@@H]1C(F)(F)F
REMARK SMILES IDX 8 1 7 2 6 3 5 4 4 5 3 6 2 7 1 8 75 9 76 10 86 11 77 12 85 13
REMARK SMILES IDX 78 14 84 15 79 16 80 17 83 18 81 19 82 20 87 21 88 22 89 23
REMARK SMILES IDX 90 24 9 25 10 26 11 27 12 28 13 29 14 30 15 31 16 32 74 33
REMARK SMILES IDX 17 34 73 35 18 36 19 37 20 38 67 39 21 40 72 41 66 42 68 43
REMARK SMILES IDX 22 44 71 45 65 46 64 47 23 49 53 50 34 51 52 52 35 53 38 54
REMARK SMILES IDX 51 55 69 56 36 57 37 58 50 60 70 61 39 62 24 63 25 64 33 65
REMARK SMILES IDX 26 66 32 67 27 68 28 69 29 70 30 71 31 72 54 73 55 74 63 75
REMARK SMILES IDX 56 76 62 77 57 78 58 79 59 80 60 81 61 82 40 83 41 84 49 85
REMARK SMILES IDX 42 86 48 87 43 88 44 89 45 90 46 91 47 92
REMARK H PARENT 68 48 38 59
REMARK Flexibility Score: inf
ROOT
ATOM      1  C   UNL A   1      42.624  21.975  25.767  1.00  0.00     0.188 C 
ENDROOT
BRANCH   1   2
ATOM      2  C   UNL A   1      41.328  22.204  26.561  1.00  0.00     0.188 C 
BRANCH   2   3
ATOM      3  O   UNL A   1      40.133  21.316  26.393  1.00  0.00    -0.376 OA
BRANCH   3   4
ATOM      4  C   UNL A   1      38.554  21.756  25.830  1.00  0.00     0.202 C 
BRANCH   4   5
ATOM      5  C   UNL A   1      37.704  23.745  26.035  1.00  0.00     0.261 C 
BRANCH   5   6
ATOM      6  O   UNL A   1      36.282  24.150  25.723  1.00  0.00    -0.460 OA
BRANCH   6   7
ATOM      7  C   UNL A   1      35.728  23.342  24.806  1.00  0.00     0.338 C 
ATOM      8  O   UNL A   1      36.141  23.114  23.696  1.00  0.00    -0.246 OA
BRANCH   7   9
ATOM      9  C   UNL A   1      34.366  23.375  25.329  1.00  0.00     0.087 C 
ATOM     10  C   UNL A   1      33.869  24.666  25.796  1.00  0.00     0.029 C 
ATOM     11  C   UNL A   1      33.690  22.441  23.801  1.00  0.00     0.316 C 
ATOM     12  C   UNL A   1      32.767  25.747  24.856  1.00  0.00     0.036 A 
ATOM     13  O   UNL A   1      32.649  23.639  22.662  1.00  0.00    -0.475 OA
ATOM     14  C   UNL A   1      32.421  26.995  25.307  1.00  0.00     0.053 A 
ATOM     15  C   UNL A   1      32.185  25.298  23.287  1.00  0.00     0.130 A 
ATOM     16  Cl  UNL A   1      32.979  27.652  26.787  1.00  0.00    -0.083 Cl
ATOM     17  C   UNL A   1      31.589  27.749  24.458  1.00  0.00     0.042 A 
ATOM     18  C   UNL A   1      31.368  26.079  22.521  1.00  0.00     0.067 A 
ATOM     19  C   UNL A   1      31.088  27.311  23.159  1.00  0.00     0.046 A 
ATOM     20  Cl  UNL A   1      30.051  28.436  22.337  1.00  0.00    -0.084 Cl
BRANCH  11  21
ATOM     21  C   UNL A   1      33.238  21.090  24.714  1.00  0.00     0.430 C 
ATOM     22  F   UNL A   1      33.476  21.033  26.027  1.00  0.00    -0.167 F 
ATOM     23  F   UNL A   1      31.916  20.853  24.537  1.00  0.00    -0.167 F 
ATOM     24  F   UNL A   1      33.866  19.963  24.251  1.00  0.00    -0.167 F 
ENDBRANCH  11  21
ENDBRANCH   7   9
ENDBRANCH   6   7
ENDBRANCH   5   6
ENDBRANCH   4   5
ENDBRANCH   3   4
ENDBRANCH   2   3
ENDBRANCH   1   2
BRANCH   1  25
ATOM     25  O   UNL A   1      43.816  22.539  26.258  1.00  0.00    -0.376 OA
BRANCH  25  26
ATOM     26  C   UNL A   1      43.796  23.955  26.396  1.00  0.00     0.202 C 
BRANCH  26  27
ATOM     27  C   UNL A   1      43.400  24.797  25.168  1.00  0.00     0.261 C 
BRANCH  27  28
ATOM     28  O   UNL A   1      42.226  25.625  25.352  1.00  0.00    -0.460 OA
BRANCH  28  29
ATOM     29  C   UNL A   1      42.406  26.969  25.452  1.00  0.00     0.338 C 
ATOM     30  O   UNL A   1      42.591  27.754  24.538  1.00  0.00    -0.246 OA
BRANCH  29  31
ATOM     31  C   UNL A   1      42.209  27.397  26.856  1.00  0.00     0.060 A 
ATOM     32  C   UNL A   1      41.278  26.740  27.678  1.00  0.00     0.016 A 
ATOM     33  C   UNL A   1      42.927  28.485  27.349  1.00  0.00     0.016 A 
ATOM     34  C   UNL A   1      41.114  27.130  29.013  1.00  0.00     0.010 A 
ATOM     35  C   UNL A   1      42.721  28.909  28.666  1.00  0.00     0.010 A 
ATOM     36  C   UNL A   1      41.817  28.236  29.508  1.00  0.00    -0.014 A 
BRANCH  36  37
ATOM     37  C   UNL A   1      41.483  28.833  30.827  1.00  0.00     0.031 A 
ATOM     38  C   UNL A   1      40.315  29.777  30.890  1.00  0.00     0.074 A 
ATOM     39  C   UNL A   1      42.234  28.611  31.922  1.00  0.00     0.049 A 
ATOM     40  N   UNL A   1      39.916  30.538  31.875  1.00  0.00    -0.248 NA
ATOM     41  C   UNL A   1      39.496  29.890  29.670  1.00  0.00     0.031 C 
ATOM     42  C   UNL A   1      43.366  27.691  31.998  1.00  0.00     0.029 A 
ATOM     43  N   UNL A   1      42.171  29.167  33.180  1.00  0.00    -0.354 N 
ATOM     44  C   UNL A   1      38.823  31.242  31.385  1.00  0.00     0.074 A 
ATOM     45  C   UNL A   1      38.620  30.820  30.018  1.00  0.00     0.031 C 
ATOM     46  C   UNL A   1      43.905  27.760  33.229  1.00  0.00     0.029 A 
ATOM     47  C   UNL A   1      43.191  28.766  34.014  1.00  0.00     0.049 A 
ATOM     48  H   UNL A   1      41.462  29.791  33.457  1.00  0.00     0.167 HD
ATOM     49  C   UNL A   1      38.070  32.173  32.014  1.00  0.00     0.031 A 
ATOM     50  C   UNL A   1      43.534  29.194  35.250  1.00  0.00     0.031 A 
ATOM     51  C   UNL A   1      38.294  32.606  33.367  1.00  0.00     0.049 A 
ATOM     52  C   UNL A   1      42.714  30.284  35.903  1.00  0.00     0.074 A 
ATOM     53  C   UNL A   1      37.558  33.515  34.106  1.00  0.00     0.029 A 
ATOM     54  N   UNL A   1      39.339  32.184  34.173  1.00  0.00    -0.354 N 
ATOM     55  N   UNL A   1      41.642  30.893  35.454  1.00  0.00    -0.248 NA
ATOM     56  C   UNL A   1      43.151  30.749  37.230  1.00  0.00     0.031 C 
ATOM     57  C   UNL A   1      38.210  33.711  35.326  1.00  0.00     0.029 A 
ATOM     58  C   UNL A   1      39.299  32.855  35.383  1.00  0.00     0.049 A 
ATOM     59  H   UNL A   1      40.010  31.509  33.923  1.00  0.00     0.167 HD
ATOM     60  C   UNL A   1      41.267  31.793  36.449  1.00  0.00     0.074 A 
ATOM     61  C   UNL A   1      42.209  31.631  37.535  1.00  0.00     0.031 C 
ATOM     62  C   UNL A   1      40.240  32.677  36.461  1.00  0.00     0.031 A 
BRANCH  49  63
ATOM     63  C   UNL A   1      36.969  32.839  31.233  1.00  0.00    -0.014 A 
ATOM     64  C   UNL A   1      37.236  33.852  30.296  1.00  0.00     0.010 A 
ATOM     65  C   UNL A   1      35.646  32.384  31.391  1.00  0.00     0.010 A 
ATOM     66  C   UNL A   1      36.198  34.408  29.543  1.00  0.00     0.020 A 
ATOM     67  C   UNL A   1      34.611  32.913  30.618  1.00  0.00     0.020 A 
ATOM     68  C   UNL A   1      34.893  33.927  29.702  1.00  0.00     0.054 A 
BRANCH  68  69
ATOM     69  S   UNL A   1      33.581  34.619  28.660  1.00  0.00     0.124 S 
ATOM     70  O   UNL A   1      33.376  33.552  27.683  1.00  0.00    -0.237 OA
ATOM     71  O   UNL A   1      32.492  34.817  29.612  1.00  0.00    -0.237 OA
ATOM     72  O   UNL A   1      34.170  35.844  28.125  1.00  0.00    -0.744 OA
ENDBRANCH  68  69
ENDBRANCH  49  63
BRANCH  50  73
ATOM     73  C   UNL A   1      44.747  28.652  35.936  1.00  0.00    -0.014 A 
ATOM     74  C   UNL A   1      44.661  27.547  36.802  1.00  0.00     0.010 A 
ATOM     75  C   UNL A   1      45.997  29.276  35.761  1.00  0.00     0.010 A 
ATOM     76  C   UNL A   1      45.789  27.099  37.501  1.00  0.00     0.020 A 
ATOM     77  C   UNL A   1      47.134  28.807  36.426  1.00  0.00     0.020 A 
ATOM     78  C   UNL A   1      47.020  27.730  37.306  1.00  0.00     0.054 A 
BRANCH  78  79
ATOM     79  S   UNL A   1      48.475  27.116  38.199  1.00  0.00     0.124 S 
ATOM     80  O   UNL A   1      49.548  27.926  37.630  1.00  0.00    -0.237 OA
ATOM     81  O   UNL A   1      48.135  27.405  39.590  1.00  0.00    -0.237 OA
ATOM     82  O   UNL A   1      48.515  25.697  37.857  1.00  0.00    -0.744 OA
ENDBRANCH  78  79
ENDBRANCH  50  73
BRANCH  62  83
ATOM     83  C   UNL A   1      40.046  33.523  37.694  1.00  0.00    -0.014 A 
ATOM     84  C   UNL A   1      40.547  34.834  37.770  1.00  0.00     0.010 A 
ATOM     85  C   UNL A   1      39.261  33.029  38.754  1.00  0.00     0.010 A 
ATOM     86  C   UNL A   1      40.279  35.629  38.888  1.00  0.00     0.020 A 
ATOM     87  C   UNL A   1      38.960  33.833  39.856  1.00  0.00     0.020 A 
ATOM     88  C   UNL A   1      39.478  35.128  39.918  1.00  0.00     0.054 A 
BRANCH  88  89
ATOM     89  S   UNL A   1      39.079  36.212  41.317  1.00  0.00     0.124 S 
ATOM     90  O   UNL A   1      37.822  35.642  41.796  1.00  0.00    -0.237 OA
ATOM     91  O   UNL A   1      40.229  36.027  42.199  1.00  0.00    -0.237 OA
ATOM     92  O   UNL A   1      38.970  37.537  40.713  1.00  0.00    -0.744 OA
ENDBRANCH  88  89
ENDBRANCH  62  83
ENDBRANCH  36  37
ENDBRANCH  29  31
ENDBRANCH  28  29
ENDBRANCH  27  28
ENDBRANCH  26  27
ENDBRANCH  25  26
ENDBRANCH   1  25
TORSDOF 21
ENDMDL
MODEL 3
REMARK VINA RESULT:     -10.6      1.509      2.173
REMARK SMILES O=C(OCCOCCOCCOC(=O)c1ccc(-c2c3nc(c(-c4ccc(S(=O)(=O)[O-])cc4)c4ccc([nH]4)c(-c4ccc(S(=O)(=O)[O-])cc4)c4nc(c(-c5ccc(S(=O)(=O)[O-])cc5)c5ccc2[nH]5)C=C4)C=C3)cc1)C1=Cc2c(Cl)cc(Cl)cc2O[C@@H]1C(F)(F)F
REMARK SMILES IDX 8 1 7 2 6 3 5 4 4 5 3 6 2 7 1 8 75 9 76 10 86 11 77 12 85 13
REMARK SMILES IDX 78 14 84 15 79 16 80 17 83 18 81 19 82 20 87 21 88 22 89 23
REMARK SMILES IDX 90 24 9 25 10 26 11 27 12 28 13 29 14 30 15 31 16 32 74 33
REMARK SMILES IDX 17 34 73 35 18 36 19 37 20 38 67 39 21 40 72 41 66 42 68 43
REMARK SMILES IDX 22 44 71 45 65 46 64 47 23 49 53 50 34 51 52 52 35 53 38 54
REMARK SMILES IDX 51 55 69 56 36 57 37 58 50 60 70 61 39 62 24 63 25 64 33 65
REMARK SMILES IDX 26 66 32 67 27 68 28 69 29 70 30 71 31 72 54 73 55 74 63 75
REMARK SMILES IDX 56 76 62 77 57 78 58 79 59 80 60 81 61 82 40 83 41 84 49 85
REMARK SMILES IDX 42 86 48 87 43 88 44 89 45 90 46 91 47 92
REMARK H PARENT 68 48 38 59
REMARK Flexibility Score: inf
ROOT
ATOM      1  C   UNL A   1      36.258  30.296  28.025  1.00  0.00     0.188 C 
ENDROOT
BRANCH   1   2
ATOM      2  C   UNL A   1      34.942  29.843  27.371  1.00  0.00     0.188 C 
BRANCH   2   3
ATOM      3  O   UNL A   1      33.725  30.716  27.362  1.00  0.00    -0.376 OA
BRANCH   3   4
ATOM      4  C   UNL A   1      32.192  30.393  26.622  1.00  0.00     0.202 C 
BRANCH   4   5
ATOM      5  C   UNL A   1      31.392  28.396  26.312  1.00  0.00     0.261 C 
BRANCH   5   6
ATOM      6  O   UNL A   1      32.018  27.098  26.765  1.00  0.00    -0.460 OA
BRANCH   6   7
ATOM      7  C   UNL A   1      31.503  26.046  26.108  1.00  0.00     0.338 C 
ATOM      8  O   UNL A   1      30.461  25.485  26.341  1.00  0.00    -0.246 OA
BRANCH   7   9
ATOM      9  C   UNL A   1      32.756  25.541  25.557  1.00  0.00     0.087 C 
ATOM     10  C   UNL A   1      33.268  24.293  26.114  1.00  0.00     0.029 C 
ATOM     11  C   UNL A   1      32.122  25.747  23.762  1.00  0.00     0.316 C 
ATOM     12  C   UNL A   1      33.105  22.672  25.333  1.00  0.00     0.036 A 
ATOM     13  O   UNL A   1      31.754  24.008  22.954  1.00  0.00    -0.475 OA
ATOM     14  C   UNL A   1      33.516  21.523  25.960  1.00  0.00     0.053 A 
ATOM     15  C   UNL A   1      32.321  22.484  23.800  1.00  0.00     0.130 A 
ATOM     16  Cl  UNL A   1      34.222  21.499  27.520  1.00  0.00    -0.083 Cl
ATOM     17  C   UNL A   1      33.294  20.324  25.256  1.00  0.00     0.042 A 
ATOM     18  C   UNL A   1      32.149  21.285  23.169  1.00  0.00     0.067 A 
ATOM     19  C   UNL A   1      32.664  20.218  23.944  1.00  0.00     0.046 A 
ATOM     20  Cl  UNL A   1      32.545  18.611  23.296  1.00  0.00    -0.084 Cl
BRANCH  11  21
ATOM     21  C   UNL A   1      33.273  26.931  23.395  1.00  0.00     0.430 C 
ATOM     22  F   UNL A   1      34.291  27.185  24.221  1.00  0.00    -0.167 F 
ATOM     23  F   UNL A   1      33.803  26.676  22.175  1.00  0.00    -0.167 F 
ATOM     24  F   UNL A   1      32.679  28.161  23.273  1.00  0.00    -0.167 F 
ENDBRANCH  11  21
ENDBRANCH   7   9
ENDBRANCH   6   7
ENDBRANCH   5   6
ENDBRANCH   4   5
ENDBRANCH   3   4
ENDBRANCH   2   3
ENDBRANCH   1   2
BRANCH   1  25
ATOM     25  O   UNL A   1      36.219  30.756  29.354  1.00  0.00    -0.376 OA
BRANCH  25  26
ATOM     26  C   UNL A   1      36.285  29.736  30.343  1.00  0.00     0.202 C 
BRANCH  26  27
ATOM     27  C   UNL A   1      36.569  30.154  31.798  1.00  0.00     0.261 C 
BRANCH  27  28
ATOM     28  O   UNL A   1      37.130  31.480  31.951  1.00  0.00    -0.460 OA
BRANCH  28  29
ATOM     29  C   UNL A   1      38.312  31.599  32.611  1.00  0.00     0.338 C 
ATOM     30  O   UNL A   1      38.477  31.974  33.759  1.00  0.00    -0.246 OA
BRANCH  29  31
ATOM     31  C   UNL A   1      39.409  31.067  31.770  1.00  0.00     0.060 A 
ATOM     32  C   UNL A   1      40.387  30.223  32.323  1.00  0.00     0.016 A 
ATOM     33  C   UNL A   1      39.489  31.442  30.430  1.00  0.00     0.016 A 
ATOM     34  C   UNL A   1      41.407  29.700  31.518  1.00  0.00     0.010 A 
ATOM     35  C   UNL A   1      40.542  30.964  29.642  1.00  0.00     0.010 A 
ATOM     36  C   UNL A   1      41.506  30.090  30.176  1.00  0.00    -0.014 A 
BRANCH  36  37
ATOM     37  C   UNL A   1      42.709  29.765  29.367  1.00  0.00     0.031 A 
ATOM     38  C   UNL A   1      42.796  28.389  28.767  1.00  0.00     0.074 A 
ATOM     39  C   UNL A   1      43.732  30.630  29.230  1.00  0.00     0.049 A 
ATOM     40  N   UNL A   1      43.797  27.814  28.156  1.00  0.00    -0.248 NA
ATOM     41  C   UNL A   1      41.596  27.543  28.890  1.00  0.00     0.031 C 
ATOM     42  C   UNL A   1      43.752  32.002  29.731  1.00  0.00     0.029 A 
ATOM     43  N   UNL A   1      44.968  30.470  28.646  1.00  0.00    -0.354 N 
ATOM     44  C   UNL A   1      43.361  26.530  27.849  1.00  0.00     0.074 A 
ATOM     45  C   UNL A   1      42.007  26.410  28.341  1.00  0.00     0.031 C 
ATOM     46  C   UNL A   1      44.947  32.553  29.453  1.00  0.00     0.029 A 
ATOM     47  C   UNL A   1      45.798  31.558  28.801  1.00  0.00     0.049 A 
ATOM     48  H   UNL A   1      45.233  29.655  28.162  1.00  0.00     0.167 HD
ATOM     49  C   UNL A   1      44.038  25.535  27.232  1.00  0.00     0.031 A 
ATOM     50  C   UNL A   1      47.105  31.717  28.492  1.00  0.00     0.031 A 
ATOM     51  C   UNL A   1      45.394  25.655  26.768  1.00  0.00     0.049 A 
ATOM     52  C   UNL A   1      47.856  30.564  27.862  1.00  0.00     0.074 A 
ATOM     53  C   UNL A   1      46.152  24.715  26.093  1.00  0.00     0.029 A 
ATOM     54  N   UNL A   1      46.201  26.767  26.951  1.00  0.00    -0.354 N 
ATOM     55  N   UNL A   1      47.411  29.379  27.518  1.00  0.00    -0.248 NA
ATOM     56  C   UNL A   1      49.286  30.768  27.584  1.00  0.00     0.031 C 
ATOM     57  C   UNL A   1      47.445  25.222  25.949  1.00  0.00     0.029 A 
ATOM     58  C   UNL A   1      47.466  26.515  26.449  1.00  0.00     0.049 A 
ATOM     59  H   UNL A   1      45.917  27.608  27.374  1.00  0.00     0.167 HD
ATOM     60  C   UNL A   1      48.499  28.708  26.964  1.00  0.00     0.074 A 
ATOM     61  C   UNL A   1      49.616  29.626  26.994  1.00  0.00     0.031 C 
ATOM     62  C   UNL A   1      48.569  27.444  26.479  1.00  0.00     0.031 A 
BRANCH  49  63
ATOM     63  C   UNL A   1      43.352  24.205  27.074  1.00  0.00    -0.014 A 
ATOM     64  C   UNL A   1      43.236  23.301  28.145  1.00  0.00     0.010 A 
ATOM     65  C   UNL A   1      42.748  23.889  25.843  1.00  0.00     0.010 A 
ATOM     66  C   UNL A   1      42.540  22.100  27.982  1.00  0.00     0.020 A 
ATOM     67  C   UNL A   1      42.024  22.705  25.685  1.00  0.00     0.020 A 
ATOM     68  C   UNL A   1      41.930  21.815  26.755  1.00  0.00     0.054 A 
BRANCH  68  69
ATOM     69  S   UNL A   1      40.975  20.282  26.598  1.00  0.00     0.124 S 
ATOM     70  O   UNL A   1      40.900  19.828  27.984  1.00  0.00    -0.237 OA
ATOM     71  O   UNL A   1      39.717  20.751  26.022  1.00  0.00    -0.237 OA
ATOM     72  O   UNL A   1      41.791  19.452  25.715  1.00  0.00    -0.744 OA
ENDBRANCH  68  69
ENDBRANCH  49  63
BRANCH  50  73
ATOM     73  C   UNL A   1      47.820  32.986  28.829  1.00  0.00    -0.014 A 
ATOM     74  C   UNL A   1      48.531  33.123  30.035  1.00  0.00     0.010 A 
ATOM     75  C   UNL A   1      47.751  34.089  27.957  1.00  0.00     0.010 A 
ATOM     76  C   UNL A   1      49.129  34.343  30.376  1.00  0.00     0.020 A 
ATOM     77  C   UNL A   1      48.381  35.297  28.275  1.00  0.00     0.020 A 
ATOM     78  C   UNL A   1      49.053  35.422  29.491  1.00  0.00     0.054 A 
BRANCH  78  79
ATOM     79  S   UNL A   1      49.859  36.985  29.939  1.00  0.00     0.124 S 
ATOM     80  O   UNL A   1      49.577  37.076  31.368  1.00  0.00    -0.237 OA
ATOM     81  O   UNL A   1      51.254  36.732  29.584  1.00  0.00    -0.237 OA
ATOM     82  O   UNL A   1      49.180  37.973  29.104  1.00  0.00    -0.744 OA
ENDBRANCH  78  79
ENDBRANCH  50  73
BRANCH  62  83
ATOM     83  C   UNL A   1      49.883  26.975  25.906  1.00  0.00    -0.014 A 
ATOM     84  C   UNL A   1      50.244  27.254  24.577  1.00  0.00     0.010 A 
ATOM     85  C   UNL A   1      50.811  26.331  26.747  1.00  0.00     0.010 A 
ATOM     86  C   UNL A   1      51.503  26.886  24.095  1.00  0.00     0.020 A 
ATOM     87  C   UNL A   1      52.084  25.995  26.280  1.00  0.00     0.020 A 
ATOM     88  C   UNL A   1      52.419  26.269  24.952  1.00  0.00     0.054 A 
BRANCH  88  89
ATOM     89  S   UNL A   1      54.075  25.878  24.322  1.00  0.00     0.124 S 
ATOM     90  O   UNL A   1      53.891  26.006  22.879  1.00  0.00    -0.237 OA
ATOM     91  O   UNL A   1      54.902  26.909  24.945  1.00  0.00    -0.237 OA
ATOM     92  O   UNL A   1      54.318  24.519  24.799  1.00  0.00    -0.744 OA
ENDBRANCH  88  89
ENDBRANCH  62  83
ENDBRANCH  36  37
ENDBRANCH  29  31
ENDBRANCH  28  29
ENDBRANCH  27  28
ENDBRANCH  26  27
ENDBRANCH  25  26
ENDBRANCH   1  25
TORSDOF 21
ENDMDL
