MODEL 1
REMARK VINA RESULT:      -9.9      0.000      0.000
REMARK SMILES O=C(Cc1ccccc1-c1ccn(C(F)F)c(=O)c1)OCCOCCOCCOC(=O)c1ccc(-c2c3nc(c(-c4ccc(S(=O)(=O)[O-])cc4)c4ccc([nH]4)c(-c4ccc(S(=O)(=O)[O-])cc4)c4nc(c(-c5ccc(S(=O)(=O)[O-])cc5)c5ccc2[nH]5)C=C4)C=C3)cc1
REMARK SMILES IDX 24 1 23 2 22 3 21 4 20 5 2 6 1 7 3 8 4 9 5 10 9 11 6 12 8 13
REMARK SMILES IDX 7 14 10 15 11 16 19 17 12 18 17 19 13 20 18 21 14 22 15 23
REMARK SMILES IDX 16 24 25 25 26 26 27 27 28 28 29 29 30 30 31 31 32 32 33 33
REMARK SMILES IDX 91 34 34 35 90 36 35 37 36 38 37 39 84 40 38 41 89 42 83 43
REMARK SMILES IDX 85 44 39 45 88 46 82 47 81 48 40 50 70 51 51 52 69 53 52 54
REMARK SMILES IDX 55 55 68 56 86 57 53 58 54 59 67 61 87 62 56 63 41 64 42 65
REMARK SMILES IDX 50 66 43 67 49 68 44 69 45 70 46 71 47 72 48 73 71 74 72 75
REMARK SMILES IDX 80 76 73 77 79 78 74 79 75 80 76 81 77 82 78 83 57 84 58 85
REMARK SMILES IDX 66 86 59 87 65 88 60 89 61 90 62 91 63 92 64 93
REMARK H PARENT 85 49 55 60
REMARK Flexibility Score: inf
ROOT
ATOM      1  C   UNL A   1      33.839  33.012  28.323  1.00  0.00     0.188 C 
ENDROOT
BRANCH   1   2
ATOM      2  O   UNL A   1      34.092  31.629  28.124  1.00  0.00    -0.376 OA
BRANCH   2   3
ATOM      3  C   UNL A   1      33.351  30.980  27.096  1.00  0.00     0.202 C 
BRANCH   3   4
ATOM      4  C   UNL A   1      33.416  29.462  27.117  1.00  0.00     0.261 C 
BRANCH   4   5
ATOM      5  O   UNL A   1      32.136  28.993  26.616  1.00  0.00    -0.463 OA
BRANCH   5   6
ATOM      6  C   UNL A   1      31.531  27.833  26.962  1.00  0.00     0.310 C 
ATOM      7  O   UNL A   1      31.632  27.392  28.104  1.00  0.00    -0.252 OA
BRANCH   6   8
ATOM      8  C   UNL A   1      30.748  27.111  25.911  1.00  0.00     0.158 C 
BRANCH   8   9
ATOM      9  C   UNL A   1      31.552  26.603  24.735  1.00  0.00    -0.029 A 
ATOM     10  C   UNL A   1      32.604  25.718  25.051  1.00  0.00     0.005 A 
ATOM     11  C   UNL A   1      31.357  27.008  23.387  1.00  0.00    -0.014 A 
ATOM     12  C   UNL A   1      33.491  25.288  24.073  1.00  0.00     0.000 A 
ATOM     13  C   UNL A   1      32.262  26.554  22.417  1.00  0.00     0.009 A 
ATOM     14  C   UNL A   1      33.324  25.711  22.759  1.00  0.00     0.001 A 
BRANCH  11  15
ATOM     15  C   UNL A   1      30.338  28.000  22.942  1.00  0.00    -0.011 A 
ATOM     16  C   UNL A   1      30.689  29.171  22.149  1.00  0.00     0.027 A 
ATOM     17  C   UNL A   1      29.056  27.847  23.315  1.00  0.00     0.080 A 
ATOM     18  C   UNL A   1      29.814  30.168  21.973  1.00  0.00     0.095 A 
ATOM     19  C   UNL A   1      28.028  28.878  22.968  1.00  0.00     0.255 A 
ATOM     20  N   UNL A   1      28.511  30.050  22.409  1.00  0.00    -0.258 N 
ATOM     21  O   UNL A   1      26.848  28.633  23.204  1.00  0.00    -0.269 OA
BRANCH  20  22
ATOM     22  C   UNL A   1      27.580  31.127  22.182  1.00  0.00     0.451 C 
ATOM     23  F   UNL A   1      27.909  32.208  22.935  1.00  0.00    -0.185 F 
ATOM     24  F   UNL A   1      27.555  31.520  20.885  1.00  0.00    -0.185 F 
ENDBRANCH  20  22
ENDBRANCH  11  15
ENDBRANCH   8   9
ENDBRANCH   6   8
ENDBRANCH   5   6
ENDBRANCH   4   5
ENDBRANCH   3   4
ENDBRANCH   2   3
ENDBRANCH   1   2
BRANCH   1  25
ATOM     25  C   UNL A   1      34.444  33.721  29.555  1.00  0.00     0.188 C 
BRANCH  25  26
ATOM     26  O   UNL A   1      34.785  32.965  30.706  1.00  0.00    -0.376 OA
BRANCH  26  27
ATOM     27  C   UNL A   1      36.068  33.153  31.292  1.00  0.00     0.202 C 
BRANCH  27  28
ATOM     28  C   UNL A   1      37.109  32.025  31.250  1.00  0.00     0.261 C 
BRANCH  28  29
ATOM     29  O   UNL A   1      37.260  31.433  29.946  1.00  0.00    -0.460 OA
BRANCH  29  30
ATOM     30  C   UNL A   1      37.210  30.076  29.898  1.00  0.00     0.338 C 
ATOM     31  O   UNL A   1      36.221  29.377  30.053  1.00  0.00    -0.246 OA
BRANCH  30  32
ATOM     32  C   UNL A   1      38.491  29.555  29.364  1.00  0.00     0.060 A 
ATOM     33  C   UNL A   1      39.326  28.837  30.239  1.00  0.00     0.016 A 
ATOM     34  C   UNL A   1      38.830  29.669  28.012  1.00  0.00     0.016 A 
ATOM     35  C   UNL A   1      40.517  28.272  29.776  1.00  0.00     0.010 A 
ATOM     36  C   UNL A   1      40.038  29.128  27.556  1.00  0.00     0.010 A 
ATOM     37  C   UNL A   1      40.907  28.464  28.444  1.00  0.00    -0.014 A 
BRANCH  37  38
ATOM     38  C   UNL A   1      42.334  28.281  28.074  1.00  0.00     0.031 A 
ATOM     39  C   UNL A   1      43.248  29.461  28.294  1.00  0.00     0.074 A 
ATOM     40  C   UNL A   1      42.829  27.134  27.574  1.00  0.00     0.049 A 
ATOM     41  N   UNL A   1      44.522  29.590  28.032  1.00  0.00    -0.248 NA
ATOM     42  C   UNL A   1      42.629  30.658  28.891  1.00  0.00     0.031 C 
ATOM     43  C   UNL A   1      42.075  25.902  27.356  1.00  0.00     0.029 A 
ATOM     44  N   UNL A   1      44.102  26.829  27.154  1.00  0.00    -0.354 N 
ATOM     45  C   UNL A   1      44.852  30.881  28.426  1.00  0.00     0.074 A 
ATOM     46  C   UNL A   1      43.643  31.505  28.912  1.00  0.00     0.031 C 
ATOM     47  C   UNL A   1      42.900  24.974  26.833  1.00  0.00     0.029 A 
ATOM     48  C   UNL A   1      44.232  25.555  26.652  1.00  0.00     0.049 A 
ATOM     49  H   UNL A   1      44.852  27.464  27.209  1.00  0.00     0.167 HD
ATOM     50  C   UNL A   1      46.055  31.500  28.393  1.00  0.00     0.031 A 
ATOM     51  C   UNL A   1      45.297  24.939  26.098  1.00  0.00     0.031 A 
ATOM     52  C   UNL A   1      47.254  30.900  27.880  1.00  0.00     0.049 A 
ATOM     53  C   UNL A   1      46.611  25.676  25.987  1.00  0.00     0.074 A 
ATOM     54  C   UNL A   1      48.523  31.445  27.803  1.00  0.00     0.029 A 
ATOM     55  N   UNL A   1      47.329  29.626  27.341  1.00  0.00    -0.354 N 
ATOM     56  N   UNL A   1      46.917  26.887  26.387  1.00  0.00    -0.248 NA
ATOM     57  C   UNL A   1      47.727  24.957  25.352  1.00  0.00     0.031 C 
ATOM     58  C   UNL A   1      49.353  30.521  27.162  1.00  0.00     0.029 A 
ATOM     59  C   UNL A   1      48.617  29.375  26.903  1.00  0.00     0.049 A 
ATOM     60  H   UNL A   1      46.578  28.992  27.280  1.00  0.00     0.167 HD
ATOM     61  C   UNL A   1      48.265  27.063  26.082  1.00  0.00     0.074 A 
ATOM     62  C   UNL A   1      48.718  25.831  25.472  1.00  0.00     0.031 C 
ATOM     63  C   UNL A   1      49.056  28.143  26.296  1.00  0.00     0.031 A 
BRANCH  50  64
ATOM     64  C   UNL A   1      46.104  32.921  28.884  1.00  0.00    -0.014 A 
ATOM     65  C   UNL A   1      45.724  33.993  28.056  1.00  0.00     0.010 A 
ATOM     66  C   UNL A   1      46.550  33.188  30.191  1.00  0.00     0.010 A 
ATOM     67  C   UNL A   1      45.839  35.309  28.508  1.00  0.00     0.020 A 
ATOM     68  C   UNL A   1      46.636  34.501  30.658  1.00  0.00     0.020 A 
ATOM     69  C   UNL A   1      46.300  35.554  29.806  1.00  0.00     0.054 A 
BRANCH  69  70
ATOM     70  S   UNL A   1      46.439  37.272  30.369  1.00  0.00     0.124 S 
ATOM     71  O   UNL A   1      45.720  37.231  31.640  1.00  0.00    -0.237 OA
ATOM     72  O   UNL A   1      47.884  37.460  30.471  1.00  0.00    -0.237 OA
ATOM     73  O   UNL A   1      45.786  38.038  29.310  1.00  0.00    -0.744 OA
ENDBRANCH  69  70
ENDBRANCH  50  64
BRANCH  51  74
ATOM     74  C   UNL A   1      45.172  23.543  25.586  1.00  0.00    -0.014 A 
ATOM     75  C   UNL A   1      44.854  23.297  24.238  1.00  0.00     0.010 A 
ATOM     76  C   UNL A   1      45.363  22.450  26.452  1.00  0.00     0.010 A 
ATOM     77  C   UNL A   1      44.726  21.986  23.768  1.00  0.00     0.020 A 
ATOM     78  C   UNL A   1      45.262  21.139  25.979  1.00  0.00     0.020 A 
ATOM     79  C   UNL A   1      44.938  20.914  24.639  1.00  0.00     0.054 A 
BRANCH  79  80
ATOM     80  S   UNL A   1      44.846  19.222  23.989  1.00  0.00     0.124 S 
ATOM     81  O   UNL A   1      46.204  18.736  24.210  1.00  0.00    -0.237 OA
ATOM     82  O   UNL A   1      43.811  18.620  24.825  1.00  0.00    -0.237 OA
ATOM     83  O   UNL A   1      44.469  19.415  22.590  1.00  0.00    -0.744 OA
ENDBRANCH  79  80
ENDBRANCH  51  74
BRANCH  63  84
ATOM     84  C   UNL A   1      50.509  28.042  25.905  1.00  0.00    -0.014 A 
ATOM     85  C   UNL A   1      51.491  27.639  26.827  1.00  0.00     0.010 A 
ATOM     86  C   UNL A   1      50.882  28.280  24.568  1.00  0.00     0.010 A 
ATOM     87  C   UNL A   1      52.824  27.505  26.426  1.00  0.00     0.020 A 
ATOM     88  C   UNL A   1      52.207  28.118  24.158  1.00  0.00     0.020 A 
ATOM     89  C   UNL A   1      53.173  27.744  25.093  1.00  0.00     0.054 A 
BRANCH  89  90
ATOM     90  S   UNL A   1      54.901  27.517  24.588  1.00  0.00     0.124 S 
ATOM     91  O   UNL A   1      55.269  28.860  24.148  1.00  0.00    -0.237 OA
ATOM     92  O   UNL A   1      55.539  27.062  25.821  1.00  0.00    -0.237 OA
ATOM     93  O   UNL A   1      54.823  26.513  23.528  1.00  0.00    -0.744 OA
ENDBRANCH  89  90
ENDBRANCH  63  84
ENDBRANCH  37  38
ENDBRANCH  30  32
ENDBRANCH  29  30
ENDBRANCH  28  29
ENDBRANCH  27  28
ENDBRANCH  26  27
ENDBRANCH  25  26
ENDBRANCH   1  25
TORSDOF 23
ENDMDL
MODEL 2
REMARK VINA RESULT:      -9.4      6.319      9.157
REMARK SMILES O=C(Cc1ccccc1-c1ccn(C(F)F)c(=O)c1)OCCOCCOCCOC(=O)c1ccc(-c2c3nc(c(-c4ccc(S(=O)(=O)[O-])cc4)c4ccc([nH]4)c(-c4ccc(S(=O)(=O)[O-])cc4)c4nc(c(-c5ccc(S(=O)(=O)[O-])cc5)c5ccc2[nH]5)C=C4)C=C3)cc1
REMARK SMILES IDX 24 1 23 2 22 3 21 4 20 5 2 6 1 7 3 8 4 9 5 10 9 11 6 12 8 13
REMARK SMILES IDX 7 14 10 15 11 16 19 17 12 18 17 19 13 20 18 21 14 22 15 23
REMARK SMILES IDX 16 24 25 25 26 26 27 27 28 28 29 29 30 30 31 31 32 32 33 33
REMARK SMILES IDX 91 34 34 35 90 36 35 37 36 38 37 39 84 40 38 41 89 42 83 43
REMARK SMILES IDX 85 44 39 45 88 46 82 47 81 48 40 50 70 51 51 52 69 53 52 54
REMARK SMILES IDX 55 55 68 56 86 57 53 58 54 59 67 61 87 62 56 63 41 64 42 65
REMARK SMILES IDX 50 66 43 67 49 68 44 69 45 70 46 71 47 72 48 73 71 74 72 75
REMARK SMILES IDX 80 76 73 77 79 78 74 79 75 80 76 81 77 82 78 83 57 84 58 85
REMARK SMILES IDX 66 86 59 87 65 88 60 89 61 90 62 91 63 92 64 93
REMARK H PARENT 85 49 55 60
REMARK Flexibility Score: inf
ROOT
ATOM      1  C   UNL A   1      32.524  27.506  25.985  1.00  0.00     0.188 C 
ENDROOT
BRANCH   1   2
ATOM      2  O   UNL A   1      31.403  27.451  25.113  1.00  0.00    -0.376 OA
BRANCH   2   3
ATOM      3  C   UNL A   1      31.613  27.864  23.768  1.00  0.00     0.202 C 
BRANCH   3   4
ATOM      4  C   UNL A   1      32.958  27.475  23.177  1.00  0.00     0.261 C 
BRANCH   4   5
ATOM      5  O   UNL A   1      32.682  26.479  22.157  1.00  0.00    -0.463 OA
BRANCH   5   6
ATOM      6  C   UNL A   1      33.250  25.252  22.080  1.00  0.00     0.310 C 
ATOM      7  O   UNL A   1      33.140  24.576  21.060  1.00  0.00    -0.252 OA
BRANCH   6   8
ATOM      8  C   UNL A   1      34.005  24.754  23.271  1.00  0.00     0.158 C 
BRANCH   8   9
ATOM      9  C   UNL A   1      33.264  23.763  24.142  1.00  0.00    -0.029 A 
ATOM     10  C   UNL A   1      31.859  23.886  24.146  1.00  0.00     0.005 A 
ATOM     11  C   UNL A   1      33.887  22.798  24.979  1.00  0.00    -0.014 A 
ATOM     12  C   UNL A   1      31.079  23.120  25.003  1.00  0.00     0.000 A 
ATOM     13  C   UNL A   1      33.076  22.033  25.830  1.00  0.00     0.009 A 
ATOM     14  C   UNL A   1      31.689  22.201  25.849  1.00  0.00     0.001 A 
BRANCH  11  15
ATOM     15  C   UNL A   1      35.359  22.632  25.125  1.00  0.00    -0.011 A 
ATOM     16  C   UNL A   1      36.051  21.423  24.697  1.00  0.00     0.027 A 
ATOM     17  C   UNL A   1      36.082  23.601  25.712  1.00  0.00     0.080 A 
ATOM     18  C   UNL A   1      37.317  21.191  25.059  1.00  0.00     0.095 A 
ATOM     19  C   UNL A   1      37.546  23.421  25.964  1.00  0.00     0.255 A 
ATOM     20  N   UNL A   1      38.051  22.153  25.721  1.00  0.00    -0.258 N 
ATOM     21  O   UNL A   1      38.195  24.380  26.372  1.00  0.00    -0.269 OA
BRANCH  20  22
ATOM     22  C   UNL A   1      39.424  21.890  26.074  1.00  0.00     0.451 C 
ATOM     23  F   UNL A   1      39.617  22.078  27.404  1.00  0.00    -0.185 F 
ATOM     24  F   UNL A   1      39.796  20.621  25.777  1.00  0.00    -0.185 F 
ENDBRANCH  20  22
ENDBRANCH  11  15
ENDBRANCH   8   9
ENDBRANCH   6   8
ENDBRANCH   5   6
ENDBRANCH   4   5
ENDBRANCH   3   4
ENDBRANCH   2   3
ENDBRANCH   1   2
BRANCH   1  25
ATOM     25  C   UNL A   1      32.855  28.831  26.707  1.00  0.00     0.188 C 
BRANCH  25  26
ATOM     26  O   UNL A   1      32.623  30.068  26.052  1.00  0.00    -0.376 OA
BRANCH  26  27
ATOM     27  C   UNL A   1      32.368  31.223  26.842  1.00  0.00     0.202 C 
BRANCH  27  28
ATOM     28  C   UNL A   1      33.471  31.800  27.743  1.00  0.00     0.261 C 
BRANCH  28  29
ATOM     29  O   UNL A   1      33.657  33.218  27.583  1.00  0.00    -0.460 OA
BRANCH  29  30
ATOM     30  C   UNL A   1      33.612  33.957  28.723  1.00  0.00     0.338 C 
ATOM     31  O   UNL A   1      32.667  34.616  29.128  1.00  0.00    -0.246 OA
BRANCH  30  32
ATOM     32  C   UNL A   1      34.796  33.644  29.559  1.00  0.00     0.060 A 
ATOM     33  C   UNL A   1      36.038  34.175  29.167  1.00  0.00     0.016 A 
ATOM     34  C   UNL A   1      34.686  32.935  30.760  1.00  0.00     0.016 A 
ATOM     35  C   UNL A   1      37.176  33.963  29.949  1.00  0.00     0.010 A 
ATOM     36  C   UNL A   1      35.833  32.697  31.527  1.00  0.00     0.010 A 
ATOM     37  C   UNL A   1      37.090  33.173  31.103  1.00  0.00    -0.014 A 
BRANCH  37  38
ATOM     38  C   UNL A   1      38.328  32.572  31.663  1.00  0.00     0.031 A 
ATOM     39  C   UNL A   1      38.804  33.114  32.988  1.00  0.00     0.074 A 
ATOM     40  C   UNL A   1      39.013  31.585  31.058  1.00  0.00     0.049 A 
ATOM     41  N   UNL A   1      39.863  32.800  33.687  1.00  0.00    -0.248 NA
ATOM     42  C   UNL A   1      37.964  34.159  33.602  1.00  0.00     0.031 C 
ATOM     43  C   UNL A   1      38.643  30.934  29.804  1.00  0.00     0.029 A 
ATOM     44  N   UNL A   1      40.181  30.962  31.430  1.00  0.00    -0.354 N 
ATOM     45  C   UNL A   1      39.817  33.610  34.815  1.00  0.00     0.074 A 
ATOM     46  C   UNL A   1      38.650  34.451  34.693  1.00  0.00     0.031 C 
ATOM     47  C   UNL A   1      39.573  30.006  29.505  1.00  0.00     0.029 A 
ATOM     48  C   UNL A   1      40.618  30.018  30.531  1.00  0.00     0.049 A 
ATOM     49  H   UNL A   1      40.659  31.172  32.264  1.00  0.00     0.167 HD
ATOM     50  C   UNL A   1      40.668  33.654  35.867  1.00  0.00     0.031 A 
ATOM     51  C   UNL A   1      41.739  29.266  30.529  1.00  0.00     0.031 A 
ATOM     52  C   UNL A   1      41.849  32.846  35.980  1.00  0.00     0.049 A 
ATOM     53  C   UNL A   1      42.723  29.391  31.668  1.00  0.00     0.074 A 
ATOM     54  C   UNL A   1      42.775  32.817  37.007  1.00  0.00     0.029 A 
ATOM     55  N   UNL A   1      42.276  31.936  35.026  1.00  0.00    -0.354 N 
ATOM     56  N   UNL A   1      42.655  30.143  32.741  1.00  0.00    -0.248 NA
ATOM     57  C   UNL A   1      43.936  28.561  31.596  1.00  0.00     0.031 C 
ATOM     58  C   UNL A   1      43.794  31.931  36.646  1.00  0.00     0.029 A 
ATOM     59  C   UNL A   1      43.468  31.360  35.426  1.00  0.00     0.049 A 
ATOM     60  H   UNL A   1      41.802  31.730  34.188  1.00  0.00     0.167 HD
ATOM     61  C   UNL A   1      43.797  29.852  33.486  1.00  0.00     0.074 A 
ATOM     62  C   UNL A   1      44.533  28.850  32.744  1.00  0.00     0.031 C 
ATOM     63  C   UNL A   1      44.193  30.363  34.678  1.00  0.00     0.031 A 
BRANCH  50  64
ATOM     64  C   UNL A   1      40.361  34.652  36.949  1.00  0.00    -0.014 A 
ATOM     65  C   UNL A   1      39.445  34.358  37.975  1.00  0.00     0.010 A 
ATOM     66  C   UNL A   1      40.992  35.910  36.931  1.00  0.00     0.010 A 
ATOM     67  C   UNL A   1      39.125  35.323  38.933  1.00  0.00     0.020 A 
ATOM     68  C   UNL A   1      40.698  36.866  37.906  1.00  0.00     0.020 A 
ATOM     69  C   UNL A   1      39.751  36.573  38.888  1.00  0.00     0.054 A 
BRANCH  69  70
ATOM     70  S   UNL A   1      39.318  37.807  40.144  1.00  0.00     0.124 S 
ATOM     71  O   UNL A   1      38.121  38.415  39.569  1.00  0.00    -0.237 OA
ATOM     72  O   UNL A   1      39.097  36.989  41.335  1.00  0.00    -0.237 OA
ATOM     73  O   UNL A   1      40.493  38.674  40.197  1.00  0.00    -0.744 OA
ENDBRANCH  69  70
ENDBRANCH  50  64
BRANCH  51  74
ATOM     74  C   UNL A   1      42.008  28.326  29.403  1.00  0.00    -0.014 A 
ATOM     75  C   UNL A   1      42.509  28.799  28.176  1.00  0.00     0.010 A 
ATOM     76  C   UNL A   1      41.756  26.950  29.550  1.00  0.00     0.010 A 
ATOM     77  C   UNL A   1      42.748  27.915  27.119  1.00  0.00     0.020 A 
ATOM     78  C   UNL A   1      42.019  26.060  28.505  1.00  0.00     0.020 A 
ATOM     79  C   UNL A   1      42.509  26.549  27.292  1.00  0.00     0.054 A 
BRANCH  79  80
ATOM     80  S   UNL A   1      42.902  25.409  25.935  1.00  0.00     0.124 S 
ATOM     81  O   UNL A   1      42.081  24.248  26.263  1.00  0.00    -0.237 OA
ATOM     82  O   UNL A   1      42.487  26.168  24.758  1.00  0.00    -0.237 OA
ATOM     83  O   UNL A   1      44.344  25.213  26.062  1.00  0.00    -0.744 OA
ENDBRANCH  79  80
ENDBRANCH  51  74
BRANCH  63  84
ATOM     84  C   UNL A   1      45.464  29.828  35.287  1.00  0.00    -0.014 A 
ATOM     85  C   UNL A   1      46.723  30.346  34.934  1.00  0.00     0.010 A 
ATOM     86  C   UNL A   1      45.388  28.840  36.287  1.00  0.00     0.010 A 
ATOM     87  C   UNL A   1      47.882  29.867  35.550  1.00  0.00     0.020 A 
ATOM     88  C   UNL A   1      46.542  28.379  36.925  1.00  0.00     0.020 A 
ATOM     89  C   UNL A   1      47.785  28.886  36.543  1.00  0.00     0.054 A 
BRANCH  89  90
ATOM     90  S   UNL A   1      49.300  28.315  37.361  1.00  0.00     0.124 S 
ATOM     91  O   UNL A   1      48.857  28.152  38.742  1.00  0.00    -0.237 OA
ATOM     92  O   UNL A   1      49.603  27.077  36.647  1.00  0.00    -0.237 OA
ATOM     93  O   UNL A   1      50.248  29.404  37.135  1.00  0.00    -0.744 OA
ENDBRANCH  89  90
ENDBRANCH  63  84
ENDBRANCH  37  38
ENDBRANCH  30  32
ENDBRANCH  29  30
ENDBRANCH  28  29
ENDBRANCH  27  28
ENDBRANCH  26  27
ENDBRANCH  25  26
ENDBRANCH   1  25
TORSDOF 23
ENDMDL
MODEL 3
REMARK VINA RESULT:      -8.9      6.411     12.054
REMARK SMILES O=C(Cc1ccccc1-c1ccn(C(F)F)c(=O)c1)OCCOCCOCCOC(=O)c1ccc(-c2c3nc(c(-c4ccc(S(=O)(=O)[O-])cc4)c4ccc([nH]4)c(-c4ccc(S(=O)(=O)[O-])cc4)c4nc(c(-c5ccc(S(=O)(=O)[O-])cc5)c5ccc2[nH]5)C=C4)C=C3)cc1
REMARK SMILES IDX 24 1 23 2 22 3 21 4 20 5 2 6 1 7 3 8 4 9 5 10 9 11 6 12 8 13
REMARK SMILES IDX 7 14 10 15 11 16 19 17 12 18 17 19 13 20 18 21 14 22 15 23
REMARK SMILES IDX 16 24 25 25 26 26 27 27 28 28 29 29 30 30 31 31 32 32 33 33
REMARK SMILES IDX 91 34 34 35 90 36 35 37 36 38 37 39 84 40 38 41 89 42 83 43
REMARK SMILES IDX 85 44 39 45 88 46 82 47 81 48 40 50 70 51 51 52 69 53 52 54
REMARK SMILES IDX 55 55 68 56 86 57 53 58 54 59 67 61 87 62 56 63 41 64 42 65
REMARK SMILES IDX 50 66 43 67 49 68 44 69 45 70 46 71 47 72 48 73 71 74 72 75
REMARK SMILES IDX 80 76 73 77 79 78 74 79 75 80 76 81 77 82 78 83 57 84 58 85
REMARK SMILES IDX 66 86 59 87 65 88 60 89 61 90 62 91 63 92 64 93
REMARK H PARENT 85 49 55 60
REMARK Flexibility Score: inf
ROOT
ATOM      1  C   UNL A   1      39.698  20.307  26.207  1.00  0.00     0.188 C 
ENDROOT
BRANCH   1   2
ATOM      2  O   UNL A   1      39.302  19.621  25.028  1.00  0.00    -0.376 OA
BRANCH   2   3
ATOM      3  C   UNL A   1      37.929  19.707  24.663  1.00  0.00     0.202 C 
BRANCH   3   4
ATOM      4  C   UNL A   1      37.104  20.682  25.487  1.00  0.00     0.261 C 
BRANCH   4   5
ATOM      5  O   UNL A   1      37.224  21.972  24.831  1.00  0.00    -0.463 OA
BRANCH   5   6
ATOM      6  C   UNL A   1      37.193  23.176  25.449  1.00  0.00     0.310 C 
ATOM      7  O   UNL A   1      38.131  23.540  26.154  1.00  0.00    -0.252 OA
BRANCH   6   8
ATOM      8  C   UNL A   1      35.986  24.036  25.247  1.00  0.00     0.158 C 
BRANCH   8   9
ATOM      9  C   UNL A   1      34.777  23.663  26.076  1.00  0.00    -0.029 A 
ATOM     10  C   UNL A   1      34.959  22.590  26.972  1.00  0.00     0.005 A 
ATOM     11  C   UNL A   1      33.497  24.268  25.956  1.00  0.00    -0.014 A 
ATOM     12  C   UNL A   1      33.889  22.072  27.691  1.00  0.00     0.000 A 
ATOM     13  C   UNL A   1      32.435  23.732  26.699  1.00  0.00     0.009 A 
ATOM     14  C   UNL A   1      32.627  22.639  27.549  1.00  0.00     0.001 A 
BRANCH  11  15
ATOM     15  C   UNL A   1      33.160  25.349  24.988  1.00  0.00    -0.011 A 
ATOM     16  C   UNL A   1      32.405  26.532  25.377  1.00  0.00     0.027 A 
ATOM     17  C   UNL A   1      33.519  25.221  23.699  1.00  0.00     0.080 A 
ATOM     18  C   UNL A   1      31.903  27.360  24.454  1.00  0.00     0.095 A 
ATOM     19  C   UNL A   1      33.109  26.241  22.683  1.00  0.00     0.255 A 
ATOM     20  N   UNL A   1      32.211  27.202  23.119  1.00  0.00    -0.258 N 
ATOM     21  O   UNL A   1      33.574  26.161  21.550  1.00  0.00    -0.269 OA
BRANCH  20  22
ATOM     22  C   UNL A   1      31.681  28.125  22.147  1.00  0.00     0.451 C 
ATOM     23  F   UNL A   1      30.328  28.183  22.234  1.00  0.00    -0.185 F 
ATOM     24  F   UNL A   1      32.159  29.382  22.318  1.00  0.00    -0.185 F 
ENDBRANCH  20  22
ENDBRANCH  11  15
ENDBRANCH   8   9
ENDBRANCH   6   8
ENDBRANCH   5   6
ENDBRANCH   4   5
ENDBRANCH   3   4
ENDBRANCH   2   3
ENDBRANCH   1   2
BRANCH   1  25
ATOM     25  C   UNL A   1      41.203  20.475  26.514  1.00  0.00     0.188 C 
BRANCH  25  26
ATOM     26  O   UNL A   1      41.611  21.193  27.668  1.00  0.00    -0.376 OA
BRANCH  26  27
ATOM     27  C   UNL A   1      41.664  22.613  27.605  1.00  0.00     0.202 C 
BRANCH  27  28
ATOM     28  C   UNL A   1      41.812  23.321  26.250  1.00  0.00     0.261 C 
BRANCH  28  29
ATOM     29  O   UNL A   1      42.471  24.598  26.341  1.00  0.00    -0.460 OA
BRANCH  29  30
ATOM     30  C   UNL A   1      41.663  25.690  26.303  1.00  0.00     0.338 C 
ATOM     31  O   UNL A   1      40.864  25.974  25.424  1.00  0.00    -0.246 OA
BRANCH  30  32
ATOM     32  C   UNL A   1      41.691  26.369  27.620  1.00  0.00     0.060 A 
ATOM     33  C   UNL A   1      40.615  26.147  28.498  1.00  0.00     0.016 A 
ATOM     34  C   UNL A   1      42.791  27.124  28.040  1.00  0.00     0.016 A 
ATOM     35  C   UNL A   1      40.616  26.713  29.775  1.00  0.00     0.010 A 
ATOM     36  C   UNL A   1      42.777  27.715  29.309  1.00  0.00     0.010 A 
ATOM     37  C   UNL A   1      41.672  27.547  30.165  1.00  0.00    -0.014 A 
BRANCH  37  38
ATOM     38  C   UNL A   1      41.468  28.494  31.292  1.00  0.00     0.031 A 
ATOM     39  C   UNL A   1      40.346  29.492  31.143  1.00  0.00     0.074 A 
ATOM     40  C   UNL A   1      42.215  28.488  32.410  1.00  0.00     0.049 A 
ATOM     41  N   UNL A   1      39.967  30.448  31.950  1.00  0.00    -0.248 NA
ATOM     42  C   UNL A   1      39.549  29.393  29.908  1.00  0.00     0.031 C 
ATOM     43  C   UNL A   1      43.296  27.552  32.711  1.00  0.00     0.029 A 
ATOM     44  N   UNL A   1      42.172  29.316  33.508  1.00  0.00    -0.354 N 
ATOM     45  C   UNL A   1      38.894  31.064  31.317  1.00  0.00     0.074 A 
ATOM     46  C   UNL A   1      38.703  30.399  30.049  1.00  0.00     0.031 C 
ATOM     47  C   UNL A   1      43.820  27.864  33.912  1.00  0.00     0.029 A 
ATOM     48  C   UNL A   1      43.132  29.038  34.453  1.00  0.00     0.049 A 
ATOM     49  H   UNL A   1      41.512  30.040  33.609  1.00  0.00     0.167 HD
ATOM     50  C   UNL A   1      38.126  32.092  31.748  1.00  0.00     0.031 A 
ATOM     51  C   UNL A   1      43.429  29.669  35.608  1.00  0.00     0.031 A 
ATOM     52  C   UNL A   1      38.329  32.781  32.990  1.00  0.00     0.049 A 
ATOM     53  C   UNL A   1      42.619  30.871  36.032  1.00  0.00     0.074 A 
ATOM     54  C   UNL A   1      37.605  33.835  33.517  1.00  0.00     0.029 A 
ATOM     55  N   UNL A   1      39.340  32.495  33.894  1.00  0.00    -0.354 N 
ATOM     56  N   UNL A   1      41.590  31.427  35.436  1.00  0.00    -0.248 NA
ATOM     57  C   UNL A   1      43.008  31.528  37.290  1.00  0.00     0.031 C 
ATOM     58  C   UNL A   1      38.215  34.225  34.712  1.00  0.00     0.029 A 
ATOM     59  C   UNL A   1      39.278  33.371  34.963  1.00  0.00     0.049 A 
ATOM     60  H   UNL A   1      40.005  31.775  33.791  1.00  0.00     0.167 HD
ATOM     61  C   UNL A   1      41.191  32.476  36.261  1.00  0.00     0.074 A 
ATOM     62  C   UNL A   1      42.083  32.472  37.402  1.00  0.00     0.031 C 
ATOM     63  C   UNL A   1      40.173  33.357  36.093  1.00  0.00     0.031 A 
BRANCH  50  64
ATOM     64  C   UNL A   1      37.029  32.554  30.829  1.00  0.00    -0.014 A 
ATOM     65  C   UNL A   1      37.244  33.585  29.896  1.00  0.00     0.010 A 
ATOM     66  C   UNL A   1      35.758  31.957  30.910  1.00  0.00     0.010 A 
ATOM     67  C   UNL A   1      36.195  34.046  29.098  1.00  0.00     0.020 A 
ATOM     68  C   UNL A   1      34.715  32.393  30.091  1.00  0.00     0.020 A 
ATOM     69  C   UNL A   1      34.935  33.449  29.205  1.00  0.00     0.054 A 
BRANCH  69  70
ATOM     70  S   UNL A   1      33.590  34.064  28.157  1.00  0.00     0.124 S 
ATOM     71  O   UNL A   1      34.318  34.846  27.160  1.00  0.00    -0.237 OA
ATOM     72  O   UNL A   1      32.978  32.832  27.663  1.00  0.00    -0.237 OA
ATOM     73  O   UNL A   1      32.762  34.842  29.075  1.00  0.00    -0.744 OA
ENDBRANCH  69  70
ENDBRANCH  50  64
BRANCH  51  74
ATOM     74  C   UNL A   1      44.561  29.189  36.453  1.00  0.00    -0.014 A 
ATOM     75  C   UNL A   1      44.382  28.126  37.357  1.00  0.00     0.010 A 
ATOM     76  C   UNL A   1      45.824  29.802  36.363  1.00  0.00     0.010 A 
ATOM     77  C   UNL A   1      45.444  27.688  38.156  1.00  0.00     0.020 A 
ATOM     78  C   UNL A   1      46.894  29.349  37.140  1.00  0.00     0.020 A 
ATOM     79  C   UNL A   1      46.696  28.297  38.037  1.00  0.00     0.054 A 
BRANCH  79  80
ATOM     80  S   UNL A   1      48.080  27.660  39.024  1.00  0.00     0.124 S 
ATOM     81  O   UNL A   1      48.536  26.532  38.218  1.00  0.00    -0.237 OA
ATOM     82  O   UNL A   1      48.981  28.808  39.078  1.00  0.00    -0.237 OA
ATOM     83  O   UNL A   1      47.456  27.309  40.298  1.00  0.00    -0.744 OA
ENDBRANCH  79  80
ENDBRANCH  51  74
BRANCH  63  84
ATOM     84  C   UNL A   1      39.934  34.374  37.180  1.00  0.00    -0.014 A 
ATOM     85  C   UNL A   1      39.102  34.093  38.278  1.00  0.00     0.010 A 
ATOM     86  C   UNL A   1      40.618  35.604  37.136  1.00  0.00     0.010 A 
ATOM     87  C   UNL A   1      38.937  35.036  39.298  1.00  0.00     0.020 A 
ATOM     88  C   UNL A   1      40.477  36.536  38.167  1.00  0.00     0.020 A 
ATOM     89  C   UNL A   1      39.626  36.251  39.237  1.00  0.00     0.054 A 
BRANCH  89  90
ATOM     90  S   UNL A   1      39.432  37.437  40.596  1.00  0.00     0.124 S 
ATOM     91  O   UNL A   1      39.247  36.555  41.745  1.00  0.00    -0.237 OA
ATOM     92  O   UNL A   1      40.694  38.172  40.564  1.00  0.00    -0.237 OA
ATOM     93  O   UNL A   1      38.256  38.215  40.212  1.00  0.00    -0.744 OA
ENDBRANCH  89  90
ENDBRANCH  63  84
ENDBRANCH  37  38
ENDBRANCH  30  32
ENDBRANCH  29  30
ENDBRANCH  28  29
ENDBRANCH  27  28
ENDBRANCH  26  27
ENDBRANCH  25  26
ENDBRANCH   1  25
TORSDOF 23
ENDMDL
