MODEL 1
REMARK VINA RESULT:      -9.4      0.000      0.000
REMARK SMILES [NH3+][C@@]1(C(=O)OCCOCCOCCOC(=O)c2ccc(-c3c4nc(c(-c5ccc(S(=O)(=O)[O-])cc5)c5ccc([nH]5)c(-c5ccc(S(=O)(=O)[O-])cc5)c5nc(c(-c6ccc(S(=O)(=O)[O-])cc6)c6ccc3[nH]6)C=C5)C=C4)cc2)CCC[C@@H](Oc2ccccc2[N+](=O)[O-])C1
REMARK SMILES IDX 9 1 8 2 7 3 6 4 5 5 3 6 4 7 2 8 77 9 91 10 78 11 80 12 79 13
REMARK SMILES IDX 1 14 81 18 82 19 83 20 87 21 84 22 86 23 85 24 88 25 89 26
REMARK SMILES IDX 90 27 10 28 11 29 12 30 13 31 14 32 15 33 16 34 17 35 18 36
REMARK SMILES IDX 76 37 19 38 75 39 20 40 21 41 22 42 69 43 23 44 74 45 68 46
REMARK SMILES IDX 70 47 24 48 73 49 67 50 66 51 25 53 55 54 36 55 54 56 37 57
REMARK SMILES IDX 40 58 53 59 71 60 38 61 39 62 52 64 72 65 41 66 26 67 27 68
REMARK SMILES IDX 35 69 28 70 34 71 29 72 30 73 31 74 32 75 33 76 56 77 57 78
REMARK SMILES IDX 65 79 58 80 64 81 59 82 60 83 61 84 62 85 63 86 42 87 43 88
REMARK SMILES IDX 51 89 44 90 50 91 45 92 46 93 47 94 48 95 49 96
REMARK H PARENT 1 15 1 16 1 17 70 52 40 63
REMARK Flexibility Score: inf
ROOT
ATOM      1  C   UNL A   1      34.137  29.585  26.810  1.00  0.00     0.188 C 
ENDROOT
BRANCH   1   2
ATOM      2  O   UNL A   1      33.270  28.785  27.603  1.00  0.00    -0.376 OA
BRANCH   2   3
ATOM      3  C   UNL A   1      31.947  28.532  27.173  1.00  0.00     0.202 C 
BRANCH   3   4
ATOM      4  C   UNL A   1      31.695  28.330  25.676  1.00  0.00     0.261 C 
BRANCH   4   5
ATOM      5  O   UNL A   1      31.993  27.023  25.178  1.00  0.00    -0.459 OA
BRANCH   5   6
ATOM      6  C   UNL A   1      33.094  26.874  24.371  1.00  0.00     0.368 C 
ATOM      7  O   UNL A   1      33.786  27.792  23.959  1.00  0.00    -0.245 OA
BRANCH   6   8
ATOM      8  C   UNL A   1      33.334  25.356  24.066  1.00  0.00     0.196 C 
ATOM      9  C   UNL A   1      33.369  25.023  22.564  1.00  0.00     0.081 C 
ATOM     10  C   UNL A   1      32.174  24.587  24.720  1.00  0.00     0.126 C 
ATOM     11  C   UNL A   1      33.534  23.516  22.317  1.00  0.00     0.011 C 
ATOM     12  C   UNL A   1      32.161  23.071  24.478  1.00  0.00     0.180 C 
ATOM     13  C   UNL A   1      32.473  22.673  23.024  1.00  0.00     0.046 C 
BRANCH   8  14
ATOM     14  N   UNL A   1      34.640  24.954  24.633  1.00  0.00    -0.343 N 
ATOM     15  H   UNL A   1      35.358  25.021  23.913  1.00  0.00     0.345 HD
ATOM     16  H   UNL A   1      34.583  23.993  24.970  1.00  0.00     0.345 HD
ATOM     17  H   UNL A   1      34.879  25.572  25.409  1.00  0.00     0.345 HD
ENDBRANCH   8  14
BRANCH  12  18
ATOM     18  O   UNL A   1      32.752  22.260  25.521  1.00  0.00    -0.483 OA
BRANCH  18  19
ATOM     19  C   UNL A   1      33.226  21.022  25.210  1.00  0.00     0.197 A 
ATOM     20  C   UNL A   1      32.303  19.984  25.064  1.00  0.00     0.054 A 
ATOM     21  C   UNL A   1      34.593  20.718  25.104  1.00  0.00     0.310 A 
ATOM     22  C   UNL A   1      32.721  18.704  24.682  1.00  0.00     0.004 A 
ATOM     23  C   UNL A   1      35.018  19.436  24.706  1.00  0.00     0.090 A 
ATOM     24  C   UNL A   1      34.074  18.437  24.474  1.00  0.00     0.007 A 
BRANCH  21  25
ATOM     25  N   UNL A   1      35.617  21.743  25.270  1.00  0.00     0.066 N 
ATOM     26  O   UNL A   1      36.543  21.764  24.439  1.00  0.00    -0.258 OA
ATOM     27  O   UNL A   1      35.541  22.497  26.250  1.00  0.00    -0.258 OA
ENDBRANCH  21  25
ENDBRANCH  18  19
ENDBRANCH  12  18
ENDBRANCH   6   8
ENDBRANCH   5   6
ENDBRANCH   4   5
ENDBRANCH   3   4
ENDBRANCH   2   3
ENDBRANCH   1   2
BRANCH   1  28
ATOM     28  C   UNL A   1      34.906  30.765  27.434  1.00  0.00     0.188 C 
BRANCH  28  29
ATOM     29  O   UNL A   1      34.124  31.554  28.314  1.00  0.00    -0.376 OA
BRANCH  29  30
ATOM     30  C   UNL A   1      34.676  32.824  28.616  1.00  0.00     0.202 C 
BRANCH  30  31
ATOM     31  C   UNL A   1      35.368  32.886  29.984  1.00  0.00     0.261 C 
BRANCH  31  32
ATOM     32  O   UNL A   1      35.823  31.630  30.535  1.00  0.00    -0.460 OA
BRANCH  32  33
ATOM     33  C   UNL A   1      36.843  31.648  31.430  1.00  0.00     0.338 C 
ATOM     34  O   UNL A   1      36.762  31.975  32.596  1.00  0.00    -0.246 OA
BRANCH  33  35
ATOM     35  C   UNL A   1      38.034  30.988  30.815  1.00  0.00     0.060 A 
ATOM     36  C   UNL A   1      38.996  30.412  31.658  1.00  0.00     0.016 A 
ATOM     37  C   UNL A   1      38.204  30.912  29.430  1.00  0.00     0.016 A 
ATOM     38  C   UNL A   1      40.134  29.790  31.121  1.00  0.00     0.010 A 
ATOM     39  C   UNL A   1      39.355  30.306  28.895  1.00  0.00     0.010 A 
ATOM     40  C   UNL A   1      40.345  29.761  29.734  1.00  0.00    -0.014 A 
BRANCH  40  41
ATOM     41  C   UNL A   1      41.658  29.306  29.181  1.00  0.00     0.031 A 
ATOM     42  C   UNL A   1      42.796  30.294  29.082  1.00  0.00     0.074 A 
ATOM     43  C   UNL A   1      41.871  28.031  28.797  1.00  0.00     0.049 A 
ATOM     44  N   UNL A   1      44.020  30.118  28.645  1.00  0.00    -0.248 NA
ATOM     45  C   UNL A   1      42.517  31.663  29.541  1.00  0.00     0.031 C 
ATOM     46  C   UNL A   1      40.890  26.949  28.860  1.00  0.00     0.029 A 
ATOM     47  N   UNL A   1      42.994  27.431  28.273  1.00  0.00    -0.354 N 
ATOM     48  C   UNL A   1      44.653  31.350  28.772  1.00  0.00     0.074 A 
ATOM     49  C   UNL A   1      43.668  32.273  29.299  1.00  0.00     0.031 C 
ATOM     50  C   UNL A   1      41.454  25.820  28.393  1.00  0.00     0.029 A 
ATOM     51  C   UNL A   1      42.825  26.099  27.966  1.00  0.00     0.049 A 
ATOM     52  H   UNL A   1      43.842  27.910  28.130  1.00  0.00     0.167 HD
ATOM     53  C   UNL A   1      45.934  31.691  28.486  1.00  0.00     0.031 A 
ATOM     54  C   UNL A   1      43.665  25.210  27.395  1.00  0.00     0.031 A 
ATOM     55  C   UNL A   1      46.919  30.792  27.940  1.00  0.00     0.049 A 
ATOM     56  C   UNL A   1      45.065  25.632  27.012  1.00  0.00     0.074 A 
ATOM     57  C   UNL A   1      48.246  31.053  27.636  1.00  0.00     0.029 A 
ATOM     58  N   UNL A   1      46.690  29.468  27.602  1.00  0.00    -0.354 N 
ATOM     59  N   UNL A   1      45.654  26.793  27.174  1.00  0.00    -0.248 NA
ATOM     60  C   UNL A   1      45.917  24.611  26.381  1.00  0.00     0.031 C 
ATOM     61  C   UNL A   1      48.798  29.908  27.053  1.00  0.00     0.029 A 
ATOM     62  C   UNL A   1      47.839  28.909  27.062  1.00  0.00     0.049 A 
ATOM     63  H   UNL A   1      45.836  28.994  27.727  1.00  0.00     0.167 HD
ATOM     64  C   UNL A   1      46.951  26.633  26.689  1.00  0.00     0.074 A 
ATOM     65  C   UNL A   1      47.068  25.258  26.253  1.00  0.00     0.031 C 
ATOM     66  C   UNL A   1      47.954  27.544  26.612  1.00  0.00     0.031 A 
BRANCH  53  67
ATOM     67  C   UNL A   1      46.341  33.124  28.726  1.00  0.00    -0.014 A 
ATOM     68  C   UNL A   1      46.860  33.540  29.966  1.00  0.00     0.010 A 
ATOM     69  C   UNL A   1      46.242  34.059  27.680  1.00  0.00     0.010 A 
ATOM     70  C   UNL A   1      47.230  34.872  30.168  1.00  0.00     0.020 A 
ATOM     71  C   UNL A   1      46.640  35.386  27.868  1.00  0.00     0.020 A 
ATOM     72  C   UNL A   1      47.116  35.788  29.116  1.00  0.00     0.054 A 
BRANCH  72  73
ATOM     73  S   UNL A   1      47.621  37.507  29.402  1.00  0.00     0.124 S 
ATOM     74  O   UNL A   1      49.073  37.418  29.284  1.00  0.00    -0.237 OA
ATOM     75  O   UNL A   1      46.945  38.222  28.323  1.00  0.00    -0.237 OA
ATOM     76  O   UNL A   1      47.123  37.797  30.745  1.00  0.00    -0.744 OA
ENDBRANCH  72  73
ENDBRANCH  53  67
BRANCH  54  77
ATOM     77  C   UNL A   1      43.208  23.814  27.122  1.00  0.00    -0.014 A 
ATOM     78  C   UNL A   1      43.156  22.856  28.151  1.00  0.00     0.010 A 
ATOM     79  C   UNL A   1      42.851  23.429  25.817  1.00  0.00     0.010 A 
ATOM     80  C   UNL A   1      42.771  21.539  27.878  1.00  0.00     0.020 A 
ATOM     81  C   UNL A   1      42.434  22.122  25.545  1.00  0.00     0.020 A 
ATOM     82  C   UNL A   1      42.407  21.182  26.576  1.00  0.00     0.054 A 
BRANCH  82  83
ATOM     83  S   UNL A   1      41.858  19.482  26.255  1.00  0.00     0.124 S 
ATOM     84  O   UNL A   1      42.589  19.151  25.035  1.00  0.00    -0.237 OA
ATOM     85  O   UNL A   1      42.291  18.781  27.462  1.00  0.00    -0.237 OA
ATOM     86  O   UNL A   1      40.411  19.612  26.102  1.00  0.00    -0.744 OA
ENDBRANCH  82  83
ENDBRANCH  54  77
BRANCH  66  87
ATOM     87  C   UNL A   1      49.284  27.076  26.067  1.00  0.00    -0.014 A 
ATOM     88  C   UNL A   1      50.257  26.492  26.898  1.00  0.00     0.010 A 
ATOM     89  C   UNL A   1      49.560  27.213  24.693  1.00  0.00     0.010 A 
ATOM     90  C   UNL A   1      51.501  26.115  26.380  1.00  0.00     0.020 A 
ATOM     91  C   UNL A   1      50.789  26.806  24.164  1.00  0.00     0.020 A 
ATOM     92  C   UNL A   1      51.762  26.282  25.017  1.00  0.00     0.054 A 
BRANCH  92  93
ATOM     93  S   UNL A   1      53.385  25.794  24.369  1.00  0.00     0.124 S 
ATOM     94  O   UNL A   1      54.257  26.824  24.926  1.00  0.00    -0.237 OA
ATOM     95  O   UNL A   1      53.562  24.454  24.922  1.00  0.00    -0.237 OA
ATOM     96  O   UNL A   1      53.210  25.845  22.919  1.00  0.00    -0.744 OA
ENDBRANCH  92  93
ENDBRANCH  66  87
ENDBRANCH  40  41
ENDBRANCH  33  35
ENDBRANCH  32  33
ENDBRANCH  31  32
ENDBRANCH  30  31
ENDBRANCH  29  30
ENDBRANCH  28  29
ENDBRANCH   1  28
TORSDOF 24
ENDMDL
MODEL 2
REMARK VINA RESULT:      -9.3      6.355      8.693
REMARK SMILES [NH3+][C@@]1(C(=O)OCCOCCOCCOC(=O)c2ccc(-c3c4nc(c(-c5ccc(S(=O)(=O)[O-])cc5)c5ccc([nH]5)c(-c5ccc(S(=O)(=O)[O-])cc5)c5nc(c(-c6ccc(S(=O)(=O)[O-])cc6)c6ccc3[nH]6)C=C5)C=C4)cc2)CCC[C@@H](Oc2ccccc2[N+](=O)[O-])C1
REMARK SMILES IDX 9 1 8 2 7 3 6 4 5 5 3 6 4 7 2 8 77 9 91 10 78 11 80 12 79 13
REMARK SMILES IDX 1 14 81 18 82 19 83 20 87 21 84 22 86 23 85 24 88 25 89 26
REMARK SMILES IDX 90 27 10 28 11 29 12 30 13 31 14 32 15 33 16 34 17 35 18 36
REMARK SMILES IDX 76 37 19 38 75 39 20 40 21 41 22 42 69 43 23 44 74 45 68 46
REMARK SMILES IDX 70 47 24 48 73 49 67 50 66 51 25 53 55 54 36 55 54 56 37 57
REMARK SMILES IDX 40 58 53 59 71 60 38 61 39 62 52 64 72 65 41 66 26 67 27 68
REMARK SMILES IDX 35 69 28 70 34 71 29 72 30 73 31 74 32 75 33 76 56 77 57 78
REMARK SMILES IDX 65 79 58 80 64 81 59 82 60 83 61 84 62 85 63 86 42 87 43 88
REMARK SMILES IDX 51 89 44 90 50 91 45 92 46 93 47 94 48 95 49 96
REMARK H PARENT 1 15 1 16 1 17 70 52 40 63
REMARK Flexibility Score: inf
ROOT
ATOM      1  C   UNL A   1      35.883  31.962  28.563  1.00  0.00     0.188 C 
ENDROOT
BRANCH   1   2
ATOM      2  O   UNL A   1      36.203  30.601  28.308  1.00  0.00    -0.376 OA
BRANCH   2   3
ATOM      3  C   UNL A   1      35.514  29.886  27.301  1.00  0.00     0.202 C 
BRANCH   3   4
ATOM      4  C   UNL A   1      34.006  30.108  27.155  1.00  0.00     0.261 C 
BRANCH   4   5
ATOM      5  O   UNL A   1      33.381  29.374  26.099  1.00  0.00    -0.459 OA
BRANCH   5   6
ATOM      6  C   UNL A   1      32.180  29.833  25.616  1.00  0.00     0.368 C 
ATOM      7  O   UNL A   1      31.668  30.899  25.920  1.00  0.00    -0.245 OA
BRANCH   6   8
ATOM      8  C   UNL A   1      31.572  28.794  24.614  1.00  0.00     0.196 C 
ATOM      9  C   UNL A   1      30.393  29.342  23.791  1.00  0.00     0.081 C 
ATOM     10  C   UNL A   1      31.081  27.604  25.457  1.00  0.00     0.126 C 
ATOM     11  C   UNL A   1      29.786  28.266  22.877  1.00  0.00     0.011 C 
ATOM     12  C   UNL A   1      30.368  26.489  24.682  1.00  0.00     0.180 C 
ATOM     13  C   UNL A   1      29.366  27.005  23.632  1.00  0.00     0.046 C 
BRANCH   8  14
ATOM     14  N   UNL A   1      32.621  28.383  23.655  1.00  0.00    -0.343 N 
ATOM     15  H   UNL A   1      32.653  27.365  23.602  1.00  0.00     0.345 HD
ATOM     16  H   UNL A   1      33.525  28.736  23.969  1.00  0.00     0.345 HD
ATOM     17  H   UNL A   1      32.408  28.764  22.733  1.00  0.00     0.345 HD
ENDBRANCH   8  14
BRANCH  12  18
ATOM     18  O   UNL A   1      31.190  25.359  24.303  1.00  0.00    -0.483 OA
BRANCH  18  19
ATOM     19  C   UNL A   1      31.719  24.568  25.276  1.00  0.00     0.197 A 
ATOM     20  C   UNL A   1      30.839  23.920  26.146  1.00  0.00     0.054 A 
ATOM     21  C   UNL A   1      33.098  24.430  25.500  1.00  0.00     0.310 A 
ATOM     22  C   UNL A   1      31.318  23.043  27.126  1.00  0.00     0.004 A 
ATOM     23  C   UNL A   1      33.586  23.539  26.477  1.00  0.00     0.090 A 
ATOM     24  C   UNL A   1      32.688  22.830  27.273  1.00  0.00     0.007 A 
BRANCH  21  25
ATOM     25  N   UNL A   1      34.079  25.098  24.653  1.00  0.00     0.066 N 
ATOM     26  O   UNL A   1      34.203  26.329  24.784  1.00  0.00    -0.258 OA
ATOM     27  O   UNL A   1      34.694  24.419  23.819  1.00  0.00    -0.258 OA
ENDBRANCH  21  25
ENDBRANCH  18  19
ENDBRANCH  12  18
ENDBRANCH   6   8
ENDBRANCH   5   6
ENDBRANCH   4   5
ENDBRANCH   3   4
ENDBRANCH   2   3
ENDBRANCH   1   2
BRANCH   1  28
ATOM     28  C   UNL A   1      35.015  32.351  29.775  1.00  0.00     0.188 C 
BRANCH  28  29
ATOM     29  O   UNL A   1      33.795  32.982  29.423  1.00  0.00    -0.376 OA
BRANCH  29  30
ATOM     30  C   UNL A   1      33.942  34.268  28.845  1.00  0.00     0.202 C 
BRANCH  30  31
ATOM     31  C   UNL A   1      33.148  35.364  29.570  1.00  0.00     0.261 C 
BRANCH  31  32
ATOM     32  O   UNL A   1      32.542  34.996  30.829  1.00  0.00    -0.460 OA
BRANCH  32  33
ATOM     33  C   UNL A   1      32.925  35.660  31.948  1.00  0.00     0.338 C 
ATOM     34  O   UNL A   1      32.311  36.555  32.492  1.00  0.00    -0.246 OA
BRANCH  33  35
ATOM     35  C   UNL A   1      34.110  34.967  32.538  1.00  0.00     0.060 A 
ATOM     36  C   UNL A   1      35.374  35.562  32.409  1.00  0.00     0.016 A 
ATOM     37  C   UNL A   1      33.990  33.759  33.230  1.00  0.00     0.016 A 
ATOM     38  C   UNL A   1      36.514  34.939  32.940  1.00  0.00     0.010 A 
ATOM     39  C   UNL A   1      35.137  33.126  33.745  1.00  0.00     0.010 A 
ATOM     40  C   UNL A   1      36.414  33.696  33.584  1.00  0.00    -0.014 A 
BRANCH  40  41
ATOM     41  C   UNL A   1      37.649  32.932  33.943  1.00  0.00     0.031 A 
ATOM     42  C   UNL A   1      38.375  33.271  35.223  1.00  0.00     0.074 A 
ATOM     43  C   UNL A   1      38.118  31.926  33.177  1.00  0.00     0.049 A 
ATOM     44  N   UNL A   1      39.456  32.735  35.736  1.00  0.00    -0.248 NA
ATOM     45  C   UNL A   1      37.803  34.356  36.034  1.00  0.00     0.031 C 
ATOM     46  C   UNL A   1      37.516  31.453  31.932  1.00  0.00     0.029 A 
ATOM     47  N   UNL A   1      39.221  31.119  33.340  1.00  0.00    -0.354 N 
ATOM     48  C   UNL A   1      39.695  33.419  36.924  1.00  0.00     0.074 A 
ATOM     49  C   UNL A   1      38.663  34.428  37.039  1.00  0.00     0.031 C 
ATOM     50  C   UNL A   1      38.256  30.440  31.445  1.00  0.00     0.029 A 
ATOM     51  C   UNL A   1      39.404  30.210  32.322  1.00  0.00     0.049 A 
ATOM     52  H   UNL A   1      39.825  31.185  34.114  1.00  0.00     0.167 HD
ATOM     53  C   UNL A   1      40.675  33.228  37.843  1.00  0.00     0.031 A 
ATOM     54  C   UNL A   1      40.385  29.307  32.108  1.00  0.00     0.031 A 
ATOM     55  C   UNL A   1      41.722  32.244  37.732  1.00  0.00     0.049 A 
ATOM     56  C   UNL A   1      41.511  29.165  33.106  1.00  0.00     0.074 A 
ATOM     57  C   UNL A   1      42.745  31.974  38.627  1.00  0.00     0.029 A 
ATOM     58  N   UNL A   1      41.894  31.380  36.663  1.00  0.00    -0.354 N 
ATOM     59  N   UNL A   1      41.698  29.798  34.240  1.00  0.00    -0.248 NA
ATOM     60  C   UNL A   1      42.551  28.171  32.798  1.00  0.00     0.031 C 
ATOM     61  C   UNL A   1      43.573  30.995  38.069  1.00  0.00     0.029 A 
ATOM     62  C   UNL A   1      43.024  30.599  36.860  1.00  0.00     0.049 A 
ATOM     63  H   UNL A   1      41.301  31.327  35.879  1.00  0.00     0.167 HD
ATOM     64  C   UNL A   1      42.861  29.260  34.789  1.00  0.00     0.074 A 
ATOM     65  C   UNL A   1      43.318  28.233  33.878  1.00  0.00     0.031 C 
ATOM     66  C   UNL A   1      43.492  29.587  35.946  1.00  0.00     0.031 A 
BRANCH  53  67
ATOM     67  C   UNL A   1      40.683  34.138  39.046  1.00  0.00    -0.014 A 
ATOM     68  C   UNL A   1      40.053  33.768  40.248  1.00  0.00     0.010 A 
ATOM     69  C   UNL A   1      41.370  35.364  38.986  1.00  0.00     0.010 A 
ATOM     70  C   UNL A   1      40.073  34.625  41.352  1.00  0.00     0.020 A 
ATOM     71  C   UNL A   1      41.419  36.212  40.097  1.00  0.00     0.020 A 
ATOM     72  C   UNL A   1      40.755  35.844  41.268  1.00  0.00     0.054 A 
BRANCH  72  73
ATOM     73  S   UNL A   1      40.778  36.929  42.721  1.00  0.00     0.124 S 
ATOM     74  O   UNL A   1      41.988  37.714  42.492  1.00  0.00    -0.237 OA
ATOM     75  O   UNL A   1      39.521  37.662  42.593  1.00  0.00    -0.237 OA
ATOM     76  O   UNL A   1      40.843  36.001  43.847  1.00  0.00    -0.744 OA
ENDBRANCH  72  73
ENDBRANCH  53  67
BRANCH  54  77
ATOM     77  C   UNL A   1      40.372  28.462  30.876  1.00  0.00    -0.014 A 
ATOM     78  C   UNL A   1      41.210  28.760  29.786  1.00  0.00     0.010 A 
ATOM     79  C   UNL A   1      39.492  27.369  30.778  1.00  0.00     0.010 A 
ATOM     80  C   UNL A   1      41.158  27.990  28.619  1.00  0.00     0.020 A 
ATOM     81  C   UNL A   1      39.460  26.577  29.625  1.00  0.00     0.020 A 
ATOM     82  C   UNL A   1      40.286  26.900  28.548  1.00  0.00     0.054 A 
BRANCH  82  83
ATOM     83  S   UNL A   1      40.274  25.884  27.044  1.00  0.00     0.124 S 
ATOM     84  O   UNL A   1      38.894  25.410  27.007  1.00  0.00    -0.237 OA
ATOM     85  O   UNL A   1      40.640  26.850  26.011  1.00  0.00    -0.237 OA
ATOM     86  O   UNL A   1      41.280  24.859  27.316  1.00  0.00    -0.744 OA
ENDBRANCH  82  83
ENDBRANCH  54  77
BRANCH  66  87
ATOM     87  C   UNL A   1      44.730  28.803  36.312  1.00  0.00    -0.014 A 
ATOM     88  C   UNL A   1      44.653  27.595  37.031  1.00  0.00     0.010 A 
ATOM     89  C   UNL A   1      45.997  29.278  35.921  1.00  0.00     0.010 A 
ATOM     90  C   UNL A   1      45.816  26.914  37.405  1.00  0.00     0.020 A 
ATOM     91  C   UNL A   1      47.161  28.583  36.263  1.00  0.00     0.020 A 
ATOM     92  C   UNL A   1      47.064  27.417  37.025  1.00  0.00     0.054 A 
BRANCH  92  93
ATOM     93  S   UNL A   1      48.560  26.523  37.529  1.00  0.00     0.124 S 
ATOM     94  O   UNL A   1      49.617  27.343  36.945  1.00  0.00    -0.237 OA
ATOM     95  O   UNL A   1      48.476  26.551  38.987  1.00  0.00    -0.237 OA
ATOM     96  O   UNL A   1      48.394  25.202  36.928  1.00  0.00    -0.744 OA
ENDBRANCH  92  93
ENDBRANCH  66  87
ENDBRANCH  40  41
ENDBRANCH  33  35
ENDBRANCH  32  33
ENDBRANCH  31  32
ENDBRANCH  30  31
ENDBRANCH  29  30
ENDBRANCH  28  29
ENDBRANCH   1  28
TORSDOF 24
ENDMDL
MODEL 3
REMARK VINA RESULT:      -9.1      1.523      2.067
REMARK SMILES [NH3+][C@@]1(C(=O)OCCOCCOCCOC(=O)c2ccc(-c3c4nc(c(-c5ccc(S(=O)(=O)[O-])cc5)c5ccc([nH]5)c(-c5ccc(S(=O)(=O)[O-])cc5)c5nc(c(-c6ccc(S(=O)(=O)[O-])cc6)c6ccc3[nH]6)C=C5)C=C4)cc2)CCC[C@@H](Oc2ccccc2[N+](=O)[O-])C1
REMARK SMILES IDX 9 1 8 2 7 3 6 4 5 5 3 6 4 7 2 8 77 9 91 10 78 11 80 12 79 13
REMARK SMILES IDX 1 14 81 18 82 19 83 20 87 21 84 22 86 23 85 24 88 25 89 26
REMARK SMILES IDX 90 27 10 28 11 29 12 30 13 31 14 32 15 33 16 34 17 35 18 36
REMARK SMILES IDX 76 37 19 38 75 39 20 40 21 41 22 42 69 43 23 44 74 45 68 46
REMARK SMILES IDX 70 47 24 48 73 49 67 50 66 51 25 53 55 54 36 55 54 56 37 57
REMARK SMILES IDX 40 58 53 59 71 60 38 61 39 62 52 64 72 65 41 66 26 67 27 68
REMARK SMILES IDX 35 69 28 70 34 71 29 72 30 73 31 74 32 75 33 76 56 77 57 78
REMARK SMILES IDX 65 79 58 80 64 81 59 82 60 83 61 84 62 85 63 86 42 87 43 88
REMARK SMILES IDX 51 89 44 90 50 91 45 92 46 93 47 94 48 95 49 96
REMARK H PARENT 1 15 1 16 1 17 70 52 40 63
REMARK Flexibility Score: inf
ROOT
ATOM      1  C   UNL A   1      34.401  29.343  26.879  1.00  0.00     0.188 C 
ENDROOT
BRANCH   1   2
ATOM      2  O   UNL A   1      33.318  28.714  27.552  1.00  0.00    -0.376 OA
BRANCH   2   3
ATOM      3  C   UNL A   1      31.997  29.182  27.361  1.00  0.00     0.202 C 
BRANCH   3   4
ATOM      4  C   UNL A   1      31.708  30.069  26.147  1.00  0.00     0.261 C 
BRANCH   4   5
ATOM      5  O   UNL A   1      32.188  29.568  24.897  1.00  0.00    -0.459 OA
BRANCH   5   6
ATOM      6  C   UNL A   1      31.327  28.830  24.123  1.00  0.00     0.368 C 
ATOM      7  O   UNL A   1      30.197  29.176  23.814  1.00  0.00    -0.245 OA
BRANCH   6   8
ATOM      8  C   UNL A   1      32.009  27.489  23.689  1.00  0.00     0.196 C 
ATOM      9  C   UNL A   1      32.896  27.620  22.438  1.00  0.00     0.081 C 
ATOM     10  C   UNL A   1      30.875  26.492  23.394  1.00  0.00     0.126 C 
ATOM     11  C   UNL A   1      33.485  26.266  22.011  1.00  0.00     0.011 C 
ATOM     12  C   UNL A   1      31.316  25.119  22.869  1.00  0.00     0.180 C 
ATOM     13  C   UNL A   1      32.420  25.190  21.798  1.00  0.00     0.046 C 
BRANCH   8  14
ATOM     14  N   UNL A   1      32.876  27.014  24.791  1.00  0.00    -0.343 N 
ATOM     15  H   UNL A   1      32.364  26.340  25.359  1.00  0.00     0.345 HD
ATOM     16  H   UNL A   1      33.154  27.807  25.370  1.00  0.00     0.345 HD
ATOM     17  H   UNL A   1      33.707  26.569  24.402  1.00  0.00     0.345 HD
ENDBRANCH   8  14
BRANCH  12  18
ATOM     18  O   UNL A   1      31.431  24.071  23.861  1.00  0.00    -0.483 OA
BRANCH  18  19
ATOM     19  C   UNL A   1      32.634  23.857  24.462  1.00  0.00     0.197 A 
ATOM     20  C   UNL A   1      33.700  23.434  23.663  1.00  0.00     0.054 A 
ATOM     21  C   UNL A   1      32.840  23.962  25.847  1.00  0.00     0.310 A 
ATOM     22  C   UNL A   1      34.976  23.259  24.210  1.00  0.00     0.004 A 
ATOM     23  C   UNL A   1      34.125  23.800  26.400  1.00  0.00     0.090 A 
ATOM     24  C   UNL A   1      35.196  23.470  25.571  1.00  0.00     0.007 A 
BRANCH  21  25
ATOM     25  N   UNL A   1      31.769  24.370  26.748  1.00  0.00     0.066 N 
ATOM     26  O   UNL A   1      31.190  23.474  27.389  1.00  0.00    -0.258 OA
ATOM     27  O   UNL A   1      31.460  25.569  26.790  1.00  0.00    -0.258 OA
ENDBRANCH  21  25
ENDBRANCH  18  19
ENDBRANCH  12  18
ENDBRANCH   6   8
ENDBRANCH   5   6
ENDBRANCH   4   5
ENDBRANCH   3   4
ENDBRANCH   2   3
ENDBRANCH   1   2
BRANCH   1  28
ATOM     28  C   UNL A   1      35.284  30.375  27.607  1.00  0.00     0.188 C 
BRANCH  28  29
ATOM     29  O   UNL A   1      34.605  31.575  27.936  1.00  0.00    -0.376 OA
BRANCH  29  30
ATOM     30  C   UNL A   1      35.422  32.733  27.937  1.00  0.00     0.202 C 
BRANCH  30  31
ATOM     31  C   UNL A   1      36.249  32.902  29.219  1.00  0.00     0.261 C 
BRANCH  31  32
ATOM     32  O   UNL A   1      36.066  31.899  30.243  1.00  0.00    -0.460 OA
BRANCH  32  33
ATOM     33  C   UNL A   1      36.998  31.799  31.223  1.00  0.00     0.338 C 
ATOM     34  O   UNL A   1      36.831  32.060  32.397  1.00  0.00    -0.246 OA
BRANCH  33  35
ATOM     35  C   UNL A   1      38.201  31.102  30.675  1.00  0.00     0.060 A 
ATOM     36  C   UNL A   1      39.291  30.865  31.525  1.00  0.00     0.016 A 
ATOM     37  C   UNL A   1      38.260  30.664  29.349  1.00  0.00     0.016 A 
ATOM     38  C   UNL A   1      40.443  30.221  31.047  1.00  0.00     0.010 A 
ATOM     39  C   UNL A   1      39.423  30.036  28.866  1.00  0.00     0.010 A 
ATOM     40  C   UNL A   1      40.537  29.831  29.702  1.00  0.00    -0.014 A 
BRANCH  40  41
ATOM     41  C   UNL A   1      41.841  29.358  29.144  1.00  0.00     0.031 A 
ATOM     42  C   UNL A   1      42.990  30.333  29.032  1.00  0.00     0.074 A 
ATOM     43  C   UNL A   1      42.038  28.078  28.768  1.00  0.00     0.049 A 
ATOM     44  N   UNL A   1      44.208  30.140  28.589  1.00  0.00    -0.248 NA
ATOM     45  C   UNL A   1      42.728  31.707  29.484  1.00  0.00     0.031 C 
ATOM     46  C   UNL A   1      41.045  27.007  28.844  1.00  0.00     0.029 A 
ATOM     47  N   UNL A   1      43.151  27.462  28.241  1.00  0.00    -0.354 N 
ATOM     48  C   UNL A   1      44.856  31.365  28.704  1.00  0.00     0.074 A 
ATOM     49  C   UNL A   1      43.885  32.302  29.231  1.00  0.00     0.031 C 
ATOM     50  C   UNL A   1      41.594  25.869  28.382  1.00  0.00     0.029 A 
ATOM     51  C   UNL A   1      42.965  26.130  27.945  1.00  0.00     0.049 A 
ATOM     52  H   UNL A   1      44.003  27.931  28.090  1.00  0.00     0.167 HD
ATOM     53  C   UNL A   1      46.139  31.690  28.409  1.00  0.00     0.031 A 
ATOM     54  C   UNL A   1      43.792  25.227  27.375  1.00  0.00     0.031 A 
ATOM     55  C   UNL A   1      47.111  30.776  27.863  1.00  0.00     0.049 A 
ATOM     56  C   UNL A   1      45.194  25.631  26.981  1.00  0.00     0.074 A 
ATOM     57  C   UNL A   1      48.438  31.021  27.549  1.00  0.00     0.029 A 
ATOM     58  N   UNL A   1      46.865  29.453  27.535  1.00  0.00    -0.354 N 
ATOM     59  N   UNL A   1      45.796  26.786  27.131  1.00  0.00    -0.248 NA
ATOM     60  C   UNL A   1      46.031  24.597  26.352  1.00  0.00     0.031 C 
ATOM     61  C   UNL A   1      48.975  29.866  26.970  1.00  0.00     0.029 A 
ATOM     62  C   UNL A   1      48.004  28.877  26.992  1.00  0.00     0.049 A 
ATOM     63  H   UNL A   1      46.007  28.989  27.668  1.00  0.00     0.167 HD
ATOM     64  C   UNL A   1      47.088  26.609  26.639  1.00  0.00     0.074 A 
ATOM     65  C   UNL A   1      47.188  25.229  26.212  1.00  0.00     0.031 C 
ATOM     66  C   UNL A   1      48.102  27.508  26.551  1.00  0.00     0.031 A 
BRANCH  53  67
ATOM     67  C   UNL A   1      46.563  33.120  28.636  1.00  0.00    -0.014 A 
ATOM     68  C   UNL A   1      46.507  34.073  27.603  1.00  0.00     0.010 A 
ATOM     69  C   UNL A   1      46.983  33.525  29.916  1.00  0.00     0.010 A 
ATOM     70  C   UNL A   1      46.905  35.393  27.836  1.00  0.00     0.020 A 
ATOM     71  C   UNL A   1      47.352  34.851  30.161  1.00  0.00     0.020 A 
ATOM     72  C   UNL A   1      47.327  35.773  29.114  1.00  0.00     0.054 A 
BRANCH  72  73
ATOM     73  S   UNL A   1      47.821  37.497  29.390  1.00  0.00     0.124 S 
ATOM     74  O   UNL A   1      46.703  38.228  28.802  1.00  0.00    -0.237 OA
ATOM     75  O   UNL A   1      47.925  37.571  30.845  1.00  0.00    -0.237 OA
ATOM     76  O   UNL A   1      49.087  37.614  28.671  1.00  0.00    -0.744 OA
ENDBRANCH  72  73
ENDBRANCH  53  67
BRANCH  54  77
ATOM     77  C   UNL A   1      43.318  23.835  27.114  1.00  0.00    -0.014 A 
ATOM     78  C   UNL A   1      42.867  23.452  25.838  1.00  0.00     0.010 A 
ATOM     79  C   UNL A   1      43.286  22.891  28.157  1.00  0.00     0.010 A 
ATOM     80  C   UNL A   1      42.381  22.159  25.614  1.00  0.00     0.020 A 
ATOM     81  C   UNL A   1      42.832  21.588  27.930  1.00  0.00     0.020 A 
ATOM     82  C   UNL A   1      42.372  21.233  26.661  1.00  0.00     0.054 A 
BRANCH  82  83
ATOM     83  S   UNL A   1      41.788  19.546  26.335  1.00  0.00     0.124 S 
ATOM     84  O   UNL A   1      42.533  19.194  25.130  1.00  0.00    -0.237 OA
ATOM     85  O   UNL A   1      42.181  18.838  27.551  1.00  0.00    -0.237 OA
ATOM     86  O   UNL A   1      40.348  19.710  26.154  1.00  0.00    -0.744 OA
ENDBRANCH  82  83
ENDBRANCH  54  77
BRANCH  66  87
ATOM     87  C   UNL A   1      49.422  27.022  26.000  1.00  0.00    -0.014 A 
ATOM     88  C   UNL A   1      50.410  26.468  26.836  1.00  0.00     0.010 A 
ATOM     89  C   UNL A   1      49.676  27.110  24.618  1.00  0.00     0.010 A 
ATOM     90  C   UNL A   1      51.646  26.073  26.312  1.00  0.00     0.020 A 
ATOM     91  C   UNL A   1      50.897  26.685  24.084  1.00  0.00     0.020 A 
ATOM     92  C   UNL A   1      51.885  26.192  24.939  1.00  0.00     0.054 A 
BRANCH  92  93
ATOM     93  S   UNL A   1      53.497  25.682  24.283  1.00  0.00     0.124 S 
ATOM     94  O   UNL A   1      53.347  25.961  22.858  1.00  0.00    -0.237 OA
ATOM     95  O   UNL A   1      54.426  26.553  25.000  1.00  0.00    -0.237 OA
ATOM     96  O   UNL A   1      53.584  24.267  24.634  1.00  0.00    -0.744 OA
ENDBRANCH  92  93
ENDBRANCH  66  87
ENDBRANCH  40  41
ENDBRANCH  33  35
ENDBRANCH  32  33
ENDBRANCH  31  32
ENDBRANCH  30  31
ENDBRANCH  29  30
ENDBRANCH  28  29
ENDBRANCH   1  28
TORSDOF 24
ENDMDL
