MODEL 1
REMARK VINA RESULT:      -9.7      0.000      0.000
REMARK SMILES C[C@H]([NH3+])c1ccc(F)cc1OCC(C)(C)C(=O)OCCOCCOCCOC(=O)c1ccc(-c2c3nc(c(-c4ccc(S(=O)(=O)[O-])cc4)c4ccc([nH]4)c(-c4ccc(S(=O)(=O)[O-])cc4)c4nc(c(-c5ccc(S(=O)(=O)[O-])cc5)c5ccc2[nH]5)C=C4)C=C3)cc1
REMARK SMILES IDX 22 1 21 2 20 3 19 4 18 5 16 6 17 7 13 8 14 9 15 10 12 11
REMARK SMILES IDX 11 12 10 13 4 14 5 15 6 16 9 17 7 18 8 19 2 20 1 21 3 22
REMARK SMILES IDX 23 26 24 27 25 28 26 29 27 30 28 31 29 32 30 33 31 34 89 35
REMARK SMILES IDX 32 36 88 37 33 38 34 39 35 40 82 41 36 42 87 43 81 44 83 45
REMARK SMILES IDX 37 46 86 47 80 48 79 49 38 51 68 52 49 53 67 54 50 55 53 56
REMARK SMILES IDX 66 57 84 58 51 59 52 60 65 62 85 63 54 64 39 65 40 66 48 67
REMARK SMILES IDX 41 68 47 69 42 70 43 71 44 72 45 73 46 74 69 75 70 76 78 77
REMARK SMILES IDX 71 78 77 79 72 80 73 81 74 82 75 83 76 84 55 85 56 86 64 87
REMARK SMILES IDX 57 88 63 89 58 90 59 91 60 92 61 93 62 94
REMARK H PARENT 3 23 3 24 3 25 83 50 53 61
REMARK Flexibility Score: inf
ROOT
ATOM      1  C   UNL A   1      31.333  29.243  24.022  1.00  0.00     0.188 C 
ENDROOT
BRANCH   1   2
ATOM      2  O   UNL A   1      31.317  28.021  23.325  1.00  0.00    -0.376 OA
BRANCH   2   3
ATOM      3  C   UNL A   1      30.156  27.217  23.418  1.00  0.00     0.202 C 
BRANCH   3   4
ATOM      4  C   UNL A   1      29.783  26.351  24.641  1.00  0.00     0.261 C 
BRANCH   4   5
ATOM      5  O   UNL A   1      30.357  25.047  24.789  1.00  0.00    -0.463 OA
BRANCH   5   6
ATOM      6  C   UNL A   1      30.914  24.788  26.005  1.00  0.00     0.315 C 
ATOM      7  O   UNL A   1      31.405  25.658  26.713  1.00  0.00    -0.251 OA
BRANCH   6   8
ATOM      8  C   UNL A   1      30.966  23.290  26.341  1.00  0.00     0.096 C 
ATOM      9  C   UNL A   1      29.672  23.089  27.143  1.00  0.00     0.027 C 
ATOM     10  C   UNL A   1      32.105  22.804  27.275  1.00  0.00     0.027 C 
BRANCH   8  11
ATOM     11  C   UNL A   1      31.194  22.523  24.997  1.00  0.00     0.247 C 
BRANCH  11  12
ATOM     12  O   UNL A   1      32.396  22.677  24.265  1.00  0.00    -0.492 OA
BRANCH  12  13
ATOM     13  C   UNL A   1      33.538  22.001  24.542  1.00  0.00     0.131 A 
ATOM     14  C   UNL A   1      33.742  20.610  24.631  1.00  0.00     0.051 A 
ATOM     15  C   UNL A   1      35.057  20.166  24.907  1.00  0.00     0.017 A 
ATOM     16  C   UNL A   1      36.117  21.058  25.086  1.00  0.00     0.040 A 
ATOM     17  C   UNL A   1      34.601  22.891  24.787  1.00  0.00     0.086 A 
ATOM     18  C   UNL A   1      35.875  22.417  25.040  1.00  0.00     0.126 A 
ATOM     19  F   UNL A   1      36.884  23.277  25.225  1.00  0.00    -0.207 F 
BRANCH  14  20
ATOM     20  C   UNL A   1      32.640  19.574  24.480  1.00  0.00     0.212 C 
ATOM     21  C   UNL A   1      32.854  18.349  25.359  1.00  0.00     0.081 C 
BRANCH  20  22
ATOM     22  N   UNL A   1      32.414  19.167  23.081  1.00  0.00    -0.351 N 
ATOM     23  H   UNL A   1      31.905  18.283  23.062  1.00  0.00     0.345 HD
ATOM     24  H   UNL A   1      33.312  19.050  22.612  1.00  0.00     0.345 HD
ATOM     25  H   UNL A   1      31.870  19.884  22.603  1.00  0.00     0.345 HD
ENDBRANCH  20  22
ENDBRANCH  14  20
ENDBRANCH  12  13
ENDBRANCH  11  12
ENDBRANCH   8  11
ENDBRANCH   6   8
ENDBRANCH   5   6
ENDBRANCH   4   5
ENDBRANCH   3   4
ENDBRANCH   2   3
ENDBRANCH   1   2
BRANCH   1  26
ATOM     26  C   UNL A   1      32.519  29.319  24.980  1.00  0.00     0.188 C 
BRANCH  26  27
ATOM     27  O   UNL A   1      32.347  29.719  26.326  1.00  0.00    -0.376 OA
BRANCH  27  28
ATOM     28  C   UNL A   1      33.453  29.658  27.212  1.00  0.00     0.202 C 
BRANCH  28  29
ATOM     29  C   UNL A   1      34.216  30.915  27.693  1.00  0.00     0.261 C 
BRANCH  29  30
ATOM     30  O   UNL A   1      35.650  30.870  27.727  1.00  0.00    -0.460 OA
BRANCH  30  31
ATOM     31  C   UNL A   1      36.230  30.858  28.958  1.00  0.00     0.338 C 
ATOM     32  O   UNL A   1      35.686  31.066  30.022  1.00  0.00    -0.246 OA
BRANCH  31  33
ATOM     33  C   UNL A   1      37.597  30.282  28.803  1.00  0.00     0.060 A 
ATOM     34  C   UNL A   1      38.390  30.104  29.951  1.00  0.00     0.016 A 
ATOM     35  C   UNL A   1      38.060  29.850  27.561  1.00  0.00     0.016 A 
ATOM     36  C   UNL A   1      39.636  29.477  29.860  1.00  0.00     0.010 A 
ATOM     37  C   UNL A   1      39.328  29.265  27.467  1.00  0.00     0.010 A 
ATOM     38  C   UNL A   1      40.128  29.083  28.611  1.00  0.00    -0.014 A 
BRANCH  38  39
ATOM     39  C   UNL A   1      41.531  28.618  28.462  1.00  0.00     0.031 A 
ATOM     40  C   UNL A   1      42.636  29.637  28.534  1.00  0.00     0.074 A 
ATOM     41  C   UNL A   1      41.827  27.324  28.243  1.00  0.00     0.049 A 
ATOM     42  N   UNL A   1      43.915  29.489  28.313  1.00  0.00    -0.248 NA
ATOM     43  C   UNL A   1      42.240  31.005  28.905  1.00  0.00     0.031 C 
ATOM     44  C   UNL A   1      40.864  26.224  28.216  1.00  0.00     0.029 A 
ATOM     45  N   UNL A   1      43.035  26.721  27.983  1.00  0.00    -0.354 N 
ATOM     46  C   UNL A   1      44.478  30.746  28.502  1.00  0.00     0.074 A 
ATOM     47  C   UNL A   1      43.397  31.647  28.840  1.00  0.00     0.031 C 
ATOM     48  C   UNL A   1      41.517  25.083  27.930  1.00  0.00     0.029 A 
ATOM     49  C   UNL A   1      42.933  25.377  27.709  1.00  0.00     0.049 A 
ATOM     50  H   UNL A   1      43.891  27.205  27.991  1.00  0.00     0.167 HD
ATOM     51  C   UNL A   1      45.777  31.118  28.402  1.00  0.00     0.031 A 
ATOM     52  C   UNL A   1      43.863  24.494  27.292  1.00  0.00     0.031 A 
ATOM     53  C   UNL A   1      46.849  30.227  28.042  1.00  0.00     0.049 A 
ATOM     54  C   UNL A   1      45.284  24.956  27.076  1.00  0.00     0.074 A 
ATOM     55  C   UNL A   1      48.198  30.513  27.925  1.00  0.00     0.029 A 
ATOM     56  N   UNL A   1      46.696  28.887  27.723  1.00  0.00    -0.354 N 
ATOM     57  N   UNL A   1      45.808  26.142  27.278  1.00  0.00    -0.248 NA
ATOM     58  C   UNL A   1      46.240  23.957  26.573  1.00  0.00     0.031 C 
ATOM     59  C   UNL A   1      48.851  29.363  27.469  1.00  0.00     0.029 A 
ATOM     60  C   UNL A   1      47.920  28.342  27.371  1.00  0.00     0.049 A 
ATOM     61  H   UNL A   1      45.843  28.395  27.745  1.00  0.00     0.167 HD
ATOM     62  C   UNL A   1      47.156  26.024  26.948  1.00  0.00     0.074 A 
ATOM     63  C   UNL A   1      47.372  24.649  26.554  1.00  0.00     0.031 C 
ATOM     64  C   UNL A   1      48.127  26.972  26.970  1.00  0.00     0.031 A 
BRANCH  51  65
ATOM     65  C   UNL A   1      46.104  32.568  28.641  1.00  0.00    -0.014 A 
ATOM     66  C   UNL A   1      46.476  33.035  29.914  1.00  0.00     0.010 A 
ATOM     67  C   UNL A   1      46.079  33.471  27.562  1.00  0.00     0.010 A 
ATOM     68  C   UNL A   1      46.782  34.385  30.110  1.00  0.00     0.020 A 
ATOM     69  C   UNL A   1      46.414  34.814  27.747  1.00  0.00     0.020 A 
ATOM     70  C   UNL A   1      46.747  35.266  29.025  1.00  0.00     0.054 A 
BRANCH  70  71
ATOM     71  S   UNL A   1      47.171  37.007  29.307  1.00  0.00     0.124 S 
ATOM     72  O   UNL A   1      48.408  36.895  30.076  1.00  0.00    -0.237 OA
ATOM     73  O   UNL A   1      47.321  37.523  27.949  1.00  0.00    -0.237 OA
ATOM     74  O   UNL A   1      46.024  37.529  30.046  1.00  0.00    -0.744 OA
ENDBRANCH  70  71
ENDBRANCH  51  65
BRANCH  52  75
ATOM     75  C   UNL A   1      43.479  23.083  27.001  1.00  0.00    -0.014 A 
ATOM     76  C   UNL A   1      42.895  22.277  27.995  1.00  0.00     0.010 A 
ATOM     77  C   UNL A   1      43.713  22.532  25.728  1.00  0.00     0.010 A 
ATOM     78  C   UNL A   1      42.568  20.944  27.726  1.00  0.00     0.020 A 
ATOM     79  C   UNL A   1      43.360  21.209  25.446  1.00  0.00     0.020 A 
ATOM     80  C   UNL A   1      42.799  20.419  26.451  1.00  0.00     0.054 A 
BRANCH  80  81
ATOM     81  S   UNL A   1      42.326  18.701  26.111  1.00  0.00     0.124 S 
ATOM     82  O   UNL A   1      40.921  18.838  25.743  1.00  0.00    -0.237 OA
ATOM     83  O   UNL A   1      43.232  18.334  25.025  1.00  0.00    -0.237 OA
ATOM     84  O   UNL A   1      42.576  18.019  27.380  1.00  0.00    -0.744 OA
ENDBRANCH  80  81
ENDBRANCH  52  75
BRANCH  64  85
ATOM     85  C   UNL A   1      49.523  26.557  26.576  1.00  0.00    -0.014 A 
ATOM     86  C   UNL A   1      50.385  25.932  27.495  1.00  0.00     0.010 A 
ATOM     87  C   UNL A   1      49.957  26.738  25.249  1.00  0.00     0.010 A 
ATOM     88  C   UNL A   1      51.662  25.520  27.102  1.00  0.00     0.020 A 
ATOM     89  C   UNL A   1      51.222  26.301  24.844  1.00  0.00     0.020 A 
ATOM     90  C   UNL A   1      52.072  25.705  25.777  1.00  0.00     0.054 A 
BRANCH  90  91
ATOM     91  S   UNL A   1      53.715  25.117  25.283  1.00  0.00     0.124 S 
ATOM     92  O   UNL A   1      53.887  25.750  23.978  1.00  0.00    -0.237 OA
ATOM     93  O   UNL A   1      54.573  25.630  26.348  1.00  0.00    -0.237 OA
ATOM     94  O   UNL A   1      53.570  23.664  25.253  1.00  0.00    -0.744 OA
ENDBRANCH  90  91
ENDBRANCH  64  85
ENDBRANCH  38  39
ENDBRANCH  31  33
ENDBRANCH  30  31
ENDBRANCH  29  30
ENDBRANCH  28  29
ENDBRANCH  27  28
ENDBRANCH  26  27
ENDBRANCH   1  26
TORSDOF 25
ENDMDL
MODEL 2
REMARK VINA RESULT:      -9.4      4.596      5.665
REMARK SMILES C[C@H]([NH3+])c1ccc(F)cc1OCC(C)(C)C(=O)OCCOCCOCCOC(=O)c1ccc(-c2c3nc(c(-c4ccc(S(=O)(=O)[O-])cc4)c4ccc([nH]4)c(-c4ccc(S(=O)(=O)[O-])cc4)c4nc(c(-c5ccc(S(=O)(=O)[O-])cc5)c5ccc2[nH]5)C=C4)C=C3)cc1
REMARK SMILES IDX 22 1 21 2 20 3 19 4 18 5 16 6 17 7 13 8 14 9 15 10 12 11
REMARK SMILES IDX 11 12 10 13 4 14 5 15 6 16 9 17 7 18 8 19 2 20 1 21 3 22
REMARK SMILES IDX 23 26 24 27 25 28 26 29 27 30 28 31 29 32 30 33 31 34 89 35
REMARK SMILES IDX 32 36 88 37 33 38 34 39 35 40 82 41 36 42 87 43 81 44 83 45
REMARK SMILES IDX 37 46 86 47 80 48 79 49 38 51 68 52 49 53 67 54 50 55 53 56
REMARK SMILES IDX 66 57 84 58 51 59 52 60 65 62 85 63 54 64 39 65 40 66 48 67
REMARK SMILES IDX 41 68 47 69 42 70 43 71 44 72 45 73 46 74 69 75 70 76 78 77
REMARK SMILES IDX 71 78 77 79 72 80 73 81 74 82 75 83 76 84 55 85 56 86 64 87
REMARK SMILES IDX 57 88 63 89 58 90 59 91 60 92 61 93 62 94
REMARK H PARENT 3 23 3 24 3 25 83 50 53 61
REMARK Flexibility Score: inf
ROOT
ATOM      1  C   UNL A   1      30.012  27.883  23.994  1.00  0.00     0.188 C 
ENDROOT
BRANCH   1   2
ATOM      2  O   UNL A   1      30.452  27.225  25.157  1.00  0.00    -0.376 OA
BRANCH   2   3
ATOM      3  C   UNL A   1      30.024  25.892  25.369  1.00  0.00     0.202 C 
BRANCH   3   4
ATOM      4  C   UNL A   1      30.941  24.737  25.828  1.00  0.00     0.261 C 
BRANCH   4   5
ATOM      5  O   UNL A   1      31.987  24.276  24.964  1.00  0.00    -0.463 OA
BRANCH   5   6
ATOM      6  C   UNL A   1      33.152  24.978  25.030  1.00  0.00     0.315 C 
ATOM      7  O   UNL A   1      33.764  25.160  26.076  1.00  0.00    -0.251 OA
BRANCH   6   8
ATOM      8  C   UNL A   1      33.556  25.609  23.689  1.00  0.00     0.096 C 
ATOM      9  C   UNL A   1      33.772  27.081  24.070  1.00  0.00     0.027 C 
ATOM     10  C   UNL A   1      32.492  25.633  22.560  1.00  0.00     0.027 C 
BRANCH   8  11
ATOM     11  C   UNL A   1      34.733  24.756  23.113  1.00  0.00     0.247 C 
BRANCH  11  12
ATOM     12  O   UNL A   1      34.567  23.379  22.832  1.00  0.00    -0.492 OA
BRANCH  12  13
ATOM     13  C   UNL A   1      35.030  22.387  23.633  1.00  0.00     0.131 A 
ATOM     14  C   UNL A   1      34.327  21.299  24.189  1.00  0.00     0.051 A 
ATOM     15  C   UNL A   1      35.069  20.383  24.972  1.00  0.00     0.017 A 
ATOM     16  C   UNL A   1      36.439  20.538  25.193  1.00  0.00     0.040 A 
ATOM     17  C   UNL A   1      36.397  22.566  23.915  1.00  0.00     0.086 A 
ATOM     18  C   UNL A   1      37.089  21.640  24.673  1.00  0.00     0.126 A 
ATOM     19  F   UNL A   1      38.400  21.801  24.893  1.00  0.00    -0.207 F 
BRANCH  14  20
ATOM     20  C   UNL A   1      32.833  21.074  24.024  1.00  0.00     0.212 C 
ATOM     21  C   UNL A   1      32.482  19.623  23.723  1.00  0.00     0.081 C 
BRANCH  20  22
ATOM     22  N   UNL A   1      32.219  21.966  23.024  1.00  0.00    -0.351 N 
ATOM     23  H   UNL A   1      31.556  21.437  22.457  1.00  0.00     0.345 HD
ATOM     24  H   UNL A   1      32.946  22.353  22.422  1.00  0.00     0.345 HD
ATOM     25  H   UNL A   1      31.731  22.725  23.499  1.00  0.00     0.345 HD
ENDBRANCH  20  22
ENDBRANCH  14  20
ENDBRANCH  12  13
ENDBRANCH  11  12
ENDBRANCH   8  11
ENDBRANCH   6   8
ENDBRANCH   5   6
ENDBRANCH   4   5
ENDBRANCH   3   4
ENDBRANCH   2   3
ENDBRANCH   1   2
BRANCH   1  26
ATOM     26  C   UNL A   1      30.613  29.281  23.888  1.00  0.00     0.188 C 
BRANCH  26  27
ATOM     27  O   UNL A   1      31.790  29.627  24.592  1.00  0.00    -0.376 OA
BRANCH  27  28
ATOM     28  C   UNL A   1      31.682  30.340  25.814  1.00  0.00     0.202 C 
BRANCH  28  29
ATOM     29  C   UNL A   1      32.465  29.947  27.089  1.00  0.00     0.261 C 
BRANCH  29  30
ATOM     30  O   UNL A   1      33.897  30.039  27.064  1.00  0.00    -0.460 OA
BRANCH  30  31
ATOM     31  C   UNL A   1      34.445  31.159  27.609  1.00  0.00     0.338 C 
ATOM     32  O   UNL A   1      33.932  32.255  27.693  1.00  0.00    -0.246 OA
BRANCH  31  33
ATOM     33  C   UNL A   1      35.684  30.747  28.328  1.00  0.00     0.060 A 
ATOM     34  C   UNL A   1      36.870  31.469  28.102  1.00  0.00     0.016 A 
ATOM     35  C   UNL A   1      35.662  29.720  29.270  1.00  0.00     0.016 A 
ATOM     36  C   UNL A   1      38.027  31.177  28.830  1.00  0.00     0.010 A 
ATOM     37  C   UNL A   1      36.836  29.399  29.964  1.00  0.00     0.010 A 
ATOM     38  C   UNL A   1      38.026  30.117  29.743  1.00  0.00    -0.014 A 
BRANCH  38  39
ATOM     39  C   UNL A   1      39.292  29.650  30.363  1.00  0.00     0.031 A 
ATOM     40  C   UNL A   1      39.835  30.409  31.545  1.00  0.00     0.074 A 
ATOM     41  C   UNL A   1      39.967  28.592  29.881  1.00  0.00     0.049 A 
ATOM     42  N   UNL A   1      40.973  30.266  32.169  1.00  0.00    -0.248 NA
ATOM     43  C   UNL A   1      38.973  31.471  32.090  1.00  0.00     0.031 C 
ATOM     44  C   UNL A   1      39.526  27.727  28.788  1.00  0.00     0.029 A 
ATOM     45  N   UNL A   1      41.188  28.074  30.247  1.00  0.00    -0.354 N 
ATOM     46  C   UNL A   1      40.976  31.229  33.173  1.00  0.00     0.074 A 
ATOM     47  C   UNL A   1      39.731  31.958  33.062  1.00  0.00     0.031 C 
ATOM     48  C   UNL A   1      40.474  26.801  28.556  1.00  0.00     0.029 A 
ATOM     49  C   UNL A   1      41.607  27.034  29.452  1.00  0.00     0.049 A 
ATOM     50  H   UNL A   1      41.712  28.416  31.006  1.00  0.00     0.167 HD
ATOM     51  C   UNL A   1      41.928  31.483  34.101  1.00  0.00     0.031 A 
ATOM     52  C   UNL A   1      42.781  26.370  29.422  1.00  0.00     0.031 A 
ATOM     53  C   UNL A   1      43.177  30.774  34.197  1.00  0.00     0.049 A 
ATOM     54  C   UNL A   1      43.874  26.747  30.394  1.00  0.00     0.074 A 
ATOM     55  C   UNL A   1      44.199  30.955  35.113  1.00  0.00     0.029 A 
ATOM     56  N   UNL A   1      43.584  29.762  33.341  1.00  0.00    -0.354 N 
ATOM     57  N   UNL A   1      43.856  27.644  31.351  1.00  0.00    -0.248 NA
ATOM     58  C   UNL A   1      45.148  26.020  30.277  1.00  0.00     0.031 C 
ATOM     59  C   UNL A   1      45.252  30.102  34.769  1.00  0.00     0.029 A 
ATOM     60  C   UNL A   1      44.858  29.338  33.682  1.00  0.00     0.049 A 
ATOM     61  H   UNL A   1      43.046  29.398  32.602  1.00  0.00     0.167 HD
ATOM     62  C   UNL A   1      45.106  27.573  31.963  1.00  0.00     0.074 A 
ATOM     63  C   UNL A   1      45.846  26.533  31.282  1.00  0.00     0.031 C 
ATOM     64  C   UNL A   1      45.594  28.306  32.995  1.00  0.00     0.031 A 
BRANCH  51  65
ATOM     65  C   UNL A   1      41.675  32.613  35.064  1.00  0.00    -0.014 A 
ATOM     66  C   UNL A   1      40.874  32.436  36.207  1.00  0.00     0.010 A 
ATOM     67  C   UNL A   1      42.283  33.862  34.842  1.00  0.00     0.010 A 
ATOM     68  C   UNL A   1      40.658  33.498  37.090  1.00  0.00     0.020 A 
ATOM     69  C   UNL A   1      42.095  34.917  35.739  1.00  0.00     0.020 A 
ATOM     70  C   UNL A   1      41.269  34.733  36.849  1.00  0.00     0.054 A 
BRANCH  70  71
ATOM     71  S   UNL A   1      40.988  36.085  38.025  1.00  0.00     0.124 S 
ATOM     72  O   UNL A   1      40.988  35.377  39.302  1.00  0.00    -0.237 OA
ATOM     73  O   UNL A   1      42.137  36.956  37.790  1.00  0.00    -0.237 OA
ATOM     74  O   UNL A   1      39.697  36.636  37.618  1.00  0.00    -0.744 OA
ENDBRANCH  70  71
ENDBRANCH  51  65
BRANCH  52  75
ATOM     75  C   UNL A   1      43.014  25.304  28.406  1.00  0.00    -0.014 A 
ATOM     76  C   UNL A   1      43.655  25.598  27.189  1.00  0.00     0.010 A 
ATOM     77  C   UNL A   1      42.577  23.988  28.645  1.00  0.00     0.010 A 
ATOM     78  C   UNL A   1      43.840  24.601  26.225  1.00  0.00     0.020 A 
ATOM     79  C   UNL A   1      42.788  22.982  27.697  1.00  0.00     0.020 A 
ATOM     80  C   UNL A   1      43.408  23.298  26.488  1.00  0.00     0.054 A 
BRANCH  80  81
ATOM     81  S   UNL A   1      43.699  22.011  25.243  1.00  0.00     0.124 S 
ATOM     82  O   UNL A   1      45.081  21.628  25.515  1.00  0.00    -0.237 OA
ATOM     83  O   UNL A   1      42.689  21.012  25.581  1.00  0.00    -0.237 OA
ATOM     84  O   UNL A   1      43.481  22.704  23.975  1.00  0.00    -0.744 OA
ENDBRANCH  80  81
ENDBRANCH  52  75
BRANCH  64  85
ATOM     85  C   UNL A   1      46.992  28.000  33.474  1.00  0.00    -0.014 A 
ATOM     86  C   UNL A   1      47.235  26.976  34.407  1.00  0.00     0.010 A 
ATOM     87  C   UNL A   1      48.084  28.705  32.936  1.00  0.00     0.010 A 
ATOM     88  C   UNL A   1      48.540  26.681  34.812  1.00  0.00     0.020 A 
ATOM     89  C   UNL A   1      49.394  28.394  33.316  1.00  0.00     0.020 A 
ATOM     90  C   UNL A   1      49.613  27.391  34.261  1.00  0.00     0.054 A 
BRANCH  90  91
ATOM     91  S   UNL A   1      51.299  26.954  34.767  1.00  0.00     0.124 S 
ATOM     92  O   UNL A   1      51.794  28.218  35.305  1.00  0.00    -0.237 OA
ATOM     93  O   UNL A   1      51.075  25.899  35.751  1.00  0.00    -0.237 OA
ATOM     94  O   UNL A   1      51.933  26.516  33.526  1.00  0.00    -0.744 OA
ENDBRANCH  90  91
ENDBRANCH  64  85
ENDBRANCH  38  39
ENDBRANCH  31  33
ENDBRANCH  30  31
ENDBRANCH  29  30
ENDBRANCH  28  29
ENDBRANCH  27  28
ENDBRANCH  26  27
ENDBRANCH   1  26
TORSDOF 25
ENDMDL
MODEL 3
REMARK VINA RESULT:      -9.2      2.452      9.096
REMARK SMILES C[C@H]([NH3+])c1ccc(F)cc1OCC(C)(C)C(=O)OCCOCCOCCOC(=O)c1ccc(-c2c3nc(c(-c4ccc(S(=O)(=O)[O-])cc4)c4ccc([nH]4)c(-c4ccc(S(=O)(=O)[O-])cc4)c4nc(c(-c5ccc(S(=O)(=O)[O-])cc5)c5ccc2[nH]5)C=C4)C=C3)cc1
REMARK SMILES IDX 22 1 21 2 20 3 19 4 18 5 16 6 17 7 13 8 14 9 15 10 12 11
REMARK SMILES IDX 11 12 10 13 4 14 5 15 6 16 9 17 7 18 8 19 2 20 1 21 3 22
REMARK SMILES IDX 23 26 24 27 25 28 26 29 27 30 28 31 29 32 30 33 31 34 89 35
REMARK SMILES IDX 32 36 88 37 33 38 34 39 35 40 82 41 36 42 87 43 81 44 83 45
REMARK SMILES IDX 37 46 86 47 80 48 79 49 38 51 68 52 49 53 67 54 50 55 53 56
REMARK SMILES IDX 66 57 84 58 51 59 52 60 65 62 85 63 54 64 39 65 40 66 48 67
REMARK SMILES IDX 41 68 47 69 42 70 43 71 44 72 45 73 46 74 69 75 70 76 78 77
REMARK SMILES IDX 71 78 77 79 72 80 73 81 74 82 75 83 76 84 55 85 56 86 64 87
REMARK SMILES IDX 57 88 63 89 58 90 59 91 60 92 61 93 62 94
REMARK H PARENT 3 23 3 24 3 25 83 50 53 61
REMARK Flexibility Score: inf
ROOT
ATOM      1  C   UNL A   1      38.816  22.345  26.096  1.00  0.00     0.188 C 
ENDROOT
BRANCH   1   2
ATOM      2  O   UNL A   1      38.160  21.423  25.260  1.00  0.00    -0.376 OA
BRANCH   2   3
ATOM      3  C   UNL A   1      36.752  21.321  25.358  1.00  0.00     0.202 C 
BRANCH   3   4
ATOM      4  C   UNL A   1      35.940  20.042  25.060  1.00  0.00     0.261 C 
BRANCH   4   5
ATOM      5  O   UNL A   1      34.517  20.121  24.922  1.00  0.00    -0.463 OA
BRANCH   5   6
ATOM      6  C   UNL A   1      33.908  21.076  25.679  1.00  0.00     0.315 C 
ATOM      7  O   UNL A   1      33.983  21.107  26.901  1.00  0.00    -0.251 OA
BRANCH   6   8
ATOM      8  C   UNL A   1      33.033  22.035  24.857  1.00  0.00     0.096 C 
ATOM      9  C   UNL A   1      31.646  21.830  25.481  1.00  0.00     0.027 C 
ATOM     10  C   UNL A   1      32.852  21.722  23.348  1.00  0.00     0.027 C 
BRANCH   8  11
ATOM     11  C   UNL A   1      33.723  23.437  24.895  1.00  0.00     0.247 C 
BRANCH  11  12
ATOM     12  O   UNL A   1      32.985  24.606  25.203  1.00  0.00    -0.492 OA
BRANCH  12  13
ATOM     13  C   UNL A   1      33.203  25.810  24.617  1.00  0.00     0.131 A 
ATOM     14  C   UNL A   1      33.009  26.186  23.274  1.00  0.00     0.051 A 
ATOM     15  C   UNL A   1      33.289  27.531  22.933  1.00  0.00     0.017 A 
ATOM     16  C   UNL A   1      33.741  28.456  23.878  1.00  0.00     0.040 A 
ATOM     17  C   UNL A   1      33.719  26.733  25.546  1.00  0.00     0.086 A 
ATOM     18  C   UNL A   1      33.966  28.042  25.176  1.00  0.00     0.126 A 
ATOM     19  F   UNL A   1      34.413  28.920  26.083  1.00  0.00    -0.207 F 
BRANCH  14  20
ATOM     20  C   UNL A   1      32.550  25.238  22.178  1.00  0.00     0.212 C 
ATOM     21  C   UNL A   1      32.535  25.886  20.801  1.00  0.00     0.081 C 
BRANCH  20  22
ATOM     22  N   UNL A   1      31.247  24.611  22.462  1.00  0.00    -0.351 N 
ATOM     23  H   UNL A   1      31.113  23.810  21.844  1.00  0.00     0.345 HD
ATOM     24  H   UNL A   1      30.501  25.289  22.304  1.00  0.00     0.345 HD
ATOM     25  H   UNL A   1      31.224  24.299  23.433  1.00  0.00     0.345 HD
ENDBRANCH  20  22
ENDBRANCH  14  20
ENDBRANCH  12  13
ENDBRANCH  11  12
ENDBRANCH   8  11
ENDBRANCH   6   8
ENDBRANCH   5   6
ENDBRANCH   4   5
ENDBRANCH   3   4
ENDBRANCH   2   3
ENDBRANCH   1   2
BRANCH   1  26
ATOM     26  C   UNL A   1      40.226  21.874  26.442  1.00  0.00     0.188 C 
BRANCH  26  27
ATOM     27  O   UNL A   1      40.455  20.972  27.507  1.00  0.00    -0.376 OA
BRANCH  27  28
ATOM     28  C   UNL A   1      41.496  20.015  27.390  1.00  0.00     0.202 C 
BRANCH  28  29
ATOM     29  C   UNL A   1      42.027  19.512  26.027  1.00  0.00     0.261 C 
BRANCH  29  30
ATOM     30  O   UNL A   1      43.430  19.235  25.903  1.00  0.00    -0.460 OA
BRANCH  30  31
ATOM     31  C   UNL A   1      44.056  19.744  24.807  1.00  0.00     0.338 C 
ATOM     32  O   UNL A   1      44.161  19.220  23.718  1.00  0.00    -0.246 OA
BRANCH  31  33
ATOM     33  C   UNL A   1      44.364  21.175  25.091  1.00  0.00     0.060 A 
ATOM     34  C   UNL A   1      44.852  21.522  26.363  1.00  0.00     0.016 A 
ATOM     35  C   UNL A   1      44.253  22.147  24.098  1.00  0.00     0.016 A 
ATOM     36  C   UNL A   1      45.247  22.835  26.637  1.00  0.00     0.010 A 
ATOM     37  C   UNL A   1      44.605  23.470  24.390  1.00  0.00     0.010 A 
ATOM     38  C   UNL A   1      45.094  23.825  25.660  1.00  0.00    -0.014 A 
BRANCH  38  39
ATOM     39  C   UNL A   1      45.298  25.258  25.996  1.00  0.00     0.031 A 
ATOM     40  C   UNL A   1      46.683  25.834  25.869  1.00  0.00     0.074 A 
ATOM     41  C   UNL A   1      44.288  26.034  26.429  1.00  0.00     0.049 A 
ATOM     42  N   UNL A   1      47.126  27.013  26.219  1.00  0.00    -0.248 NA
ATOM     43  C   UNL A   1      47.702  24.958  25.268  1.00  0.00     0.031 C 
ATOM     44  C   UNL A   1      42.888  25.627  26.535  1.00  0.00     0.029 A 
ATOM     45  N   UNL A   1      44.295  27.334  26.878  1.00  0.00    -0.354 N 
ATOM     46  C   UNL A   1      48.478  27.019  25.895  1.00  0.00     0.074 A 
ATOM     47  C   UNL A   1      48.784  25.720  25.336  1.00  0.00     0.031 C 
ATOM     48  C   UNL A   1      42.175  26.650  27.042  1.00  0.00     0.029 A 
ATOM     49  C   UNL A   1      43.074  27.766  27.337  1.00  0.00     0.049 A 
ATOM     50  H   UNL A   1      45.099  27.901  26.871  1.00  0.00     0.167 HD
ATOM     51  C   UNL A   1      49.383  28.014  26.051  1.00  0.00     0.031 A 
ATOM     52  C   UNL A   1      42.725  28.911  27.958  1.00  0.00     0.031 A 
ATOM     53  C   UNL A   1      49.084  29.298  26.629  1.00  0.00     0.049 A 
ATOM     54  C   UNL A   1      43.776  29.963  28.225  1.00  0.00     0.074 A 
ATOM     55  C   UNL A   1      49.935  30.373  26.817  1.00  0.00     0.029 A 
ATOM     56  N   UNL A   1      47.847  29.676  27.127  1.00  0.00    -0.354 N 
ATOM     57  N   UNL A   1      45.046  29.965  27.895  1.00  0.00    -0.248 NA
ATOM     58  C   UNL A   1      43.342  31.168  28.950  1.00  0.00     0.031 C 
ATOM     59  C   UNL A   1      49.231  31.375  27.492  1.00  0.00     0.029 A 
ATOM     60  C   UNL A   1      47.923  30.953  27.660  1.00  0.00     0.049 A 
ATOM     61  H   UNL A   1      47.035  29.120  27.105  1.00  0.00     0.167 HD
ATOM     62  C   UNL A   1      45.556  31.178  28.353  1.00  0.00     0.074 A 
ATOM     63  C   UNL A   1      44.454  31.891  28.964  1.00  0.00     0.031 C 
ATOM     64  C   UNL A   1      46.823  31.655  28.276  1.00  0.00     0.031 A 
BRANCH  51  65
ATOM     65  C   UNL A   1      50.801  27.735  25.629  1.00  0.00    -0.014 A 
ATOM     66  C   UNL A   1      51.224  27.934  24.302  1.00  0.00     0.010 A 
ATOM     67  C   UNL A   1      51.737  27.305  26.588  1.00  0.00     0.010 A 
ATOM     68  C   UNL A   1      52.548  27.675  23.936  1.00  0.00     0.020 A 
ATOM     69  C   UNL A   1      53.068  27.074  26.232  1.00  0.00     0.020 A 
ATOM     70  C   UNL A   1      53.461  27.244  24.904  1.00  0.00     0.054 A 
BRANCH  70  71
ATOM     71  S   UNL A   1      55.177  26.937  24.402  1.00  0.00     0.124 S 
ATOM     72  O   UNL A   1      55.086  27.033  22.948  1.00  0.00    -0.237 OA
ATOM     73  O   UNL A   1      55.901  28.023  25.059  1.00  0.00    -0.237 OA
ATOM     74  O   UNL A   1      55.457  25.601  24.922  1.00  0.00    -0.744 OA
ENDBRANCH  70  71
ENDBRANCH  51  65
BRANCH  52  75
ATOM     75  C   UNL A   1      41.322  29.116  28.420  1.00  0.00    -0.014 A 
ATOM     76  C   UNL A   1      40.274  29.264  27.494  1.00  0.00     0.010 A 
ATOM     77  C   UNL A   1      41.030  29.181  29.795  1.00  0.00     0.010 A 
ATOM     78  C   UNL A   1      38.965  29.490  27.934  1.00  0.00     0.020 A 
ATOM     79  C   UNL A   1      39.719  29.376  30.239  1.00  0.00     0.020 A 
ATOM     80  C   UNL A   1      38.696  29.540  29.304  1.00  0.00     0.054 A 
BRANCH  80  81
ATOM     81  S   UNL A   1      36.984  29.789  29.852  1.00  0.00     0.124 S 
ATOM     82  O   UNL A   1      36.904  28.909  31.013  1.00  0.00    -0.237 OA
ATOM     83  O   UNL A   1      36.952  31.221  30.142  1.00  0.00    -0.237 OA
ATOM     84  O   UNL A   1      36.190  29.375  28.697  1.00  0.00    -0.744 OA
ENDBRANCH  80  81
ENDBRANCH  52  75
BRANCH  64  85
ATOM     85  C   UNL A   1      47.094  33.026  28.845  1.00  0.00    -0.014 A 
ATOM     86  C   UNL A   1      47.525  33.192  30.173  1.00  0.00     0.010 A 
ATOM     87  C   UNL A   1      46.976  34.160  28.019  1.00  0.00     0.010 A 
ATOM     88  C   UNL A   1      47.808  34.467  30.672  1.00  0.00     0.020 A 
ATOM     89  C   UNL A   1      47.286  35.434  28.506  1.00  0.00     0.020 A 
ATOM     90  C   UNL A   1      47.689  35.581  29.834  1.00  0.00     0.054 A 
BRANCH  90  91
ATOM     91  S   UNL A   1      48.109  37.218  30.494  1.00  0.00     0.124 S 
ATOM     92  O   UNL A   1      49.374  36.957  31.175  1.00  0.00    -0.237 OA
ATOM     93  O   UNL A   1      48.203  38.035  29.287  1.00  0.00    -0.237 OA
ATOM     94  O   UNL A   1      46.985  37.538  31.371  1.00  0.00    -0.744 OA
ENDBRANCH  90  91
ENDBRANCH  64  85
ENDBRANCH  38  39
ENDBRANCH  31  33
ENDBRANCH  30  31
ENDBRANCH  29  30
ENDBRANCH  28  29
ENDBRANCH  27  28
ENDBRANCH  26  27
ENDBRANCH   1  26
TORSDOF 25
ENDMDL
