MODEL 1
REMARK VINA RESULT:      -8.8      0.000      0.000
REMARK SMILES Cn1cc(CCC(=O)N2CCCC2)cc1C(=O)OCCOCCOCCOC(=O)c1ccc(-c2c3nc(c(-c4ccc(S(=O)(=O)[O-])cc4)c4ccc([nH]4)c(-c4ccc(S(=O)(=O)[O-])cc4)c4nc(c(-c5ccc(S(=O)(=O)[O-])cc5)c5ccc2[nH]5)C=C4)C=C3)cc1
REMARK SMILES IDX 22 1 21 2 20 3 19 4 18 5 16 6 17 7 15 8 1 9 2 10 3 11 4 12
REMARK SMILES IDX 14 13 5 14 6 15 7 16 8 17 9 18 10 19 13 20 11 21 12 22 23 23
REMARK SMILES IDX 24 24 25 25 26 26 27 27 28 28 29 29 30 30 31 31 89 32 32 33
REMARK SMILES IDX 88 34 33 35 34 36 35 37 82 38 36 39 87 40 81 41 83 42 37 43
REMARK SMILES IDX 86 44 80 45 79 46 38 48 68 49 49 50 67 51 50 52 53 53 66 54
REMARK SMILES IDX 84 55 51 56 52 57 65 59 85 60 54 61 39 62 40 63 48 64 41 65
REMARK SMILES IDX 47 66 42 67 43 68 44 69 45 70 46 71 69 72 70 73 78 74 71 75
REMARK SMILES IDX 77 76 72 77 73 78 74 79 75 80 76 81 55 82 56 83 64 84 57 85
REMARK SMILES IDX 63 86 58 87 59 88 60 89 61 90 62 91
REMARK H PARENT 83 47 53 58
REMARK Flexibility Score: inf
ROOT
ATOM      1  C   UNL A   1      31.907  29.056  26.971  1.00  0.00     0.188 C 
ENDROOT
BRANCH   1   2
ATOM      2  O   UNL A   1      31.328  27.771  26.933  1.00  0.00    -0.376 OA
BRANCH   2   3
ATOM      3  C   UNL A   1      32.150  26.649  26.681  1.00  0.00     0.202 C 
BRANCH   3   4
ATOM      4  C   UNL A   1      33.365  26.747  25.746  1.00  0.00     0.261 C 
BRANCH   4   5
ATOM      5  O   UNL A   1      33.119  26.876  24.342  1.00  0.00    -0.459 OA
BRANCH   5   6
ATOM      6  C   UNL A   1      32.044  26.227  23.823  1.00  0.00     0.355 C 
ATOM      7  O   UNL A   1      30.940  26.733  23.668  1.00  0.00    -0.244 OA
BRANCH   6   8
ATOM      8  C   UNL A   1      32.451  24.905  23.394  1.00  0.00     0.127 A 
ATOM      9  C   UNL A   1      32.750  25.325  20.911  1.00  0.00     0.150 C 
ATOM     10  N   UNL A   1      32.792  24.520  22.111  1.00  0.00    -0.345 N 
ATOM     11  C   UNL A   1      33.190  23.207  22.108  1.00  0.00     0.089 A 
ATOM     12  C   UNL A   1      32.950  22.673  23.355  1.00  0.00    -0.029 A 
ATOM     13  C   UNL A   1      32.557  23.764  24.180  1.00  0.00     0.039 A 
BRANCH  12  14
ATOM     14  C   UNL A   1      33.078  21.232  23.737  1.00  0.00     0.047 C 
BRANCH  14  15
ATOM     15  C   UNL A   1      33.670  21.034  25.132  1.00  0.00     0.105 C 
BRANCH  15  16
ATOM     16  C   UNL A   1      35.164  20.749  25.121  1.00  0.00     0.222 C 
ATOM     17  O   UNL A   1      35.575  19.628  24.804  1.00  0.00    -0.275 OA
ATOM     18  N   UNL A   1      36.038  21.769  25.429  1.00  0.00    -0.343 N 
ATOM     19  C   UNL A   1      35.736  23.078  25.984  1.00  0.00     0.119 C 
ATOM     20  C   UNL A   1      37.471  21.604  25.247  1.00  0.00     0.119 C 
ATOM     21  C   UNL A   1      37.024  23.872  25.838  1.00  0.00     0.023 C 
ATOM     22  C   UNL A   1      38.097  22.796  25.956  1.00  0.00     0.023 C 
ENDBRANCH  15  16
ENDBRANCH  14  15
ENDBRANCH  12  14
ENDBRANCH   6   8
ENDBRANCH   5   6
ENDBRANCH   4   5
ENDBRANCH   3   4
ENDBRANCH   2   3
ENDBRANCH   1   2
BRANCH   1  23
ATOM     23  C   UNL A   1      31.578  29.893  25.718  1.00  0.00     0.188 C 
BRANCH  23  24
ATOM     24  O   UNL A   1      31.383  31.302  25.821  1.00  0.00    -0.376 OA
BRANCH  24  25
ATOM     25  C   UNL A   1      31.609  31.964  27.061  1.00  0.00     0.202 C 
BRANCH  25  26
ATOM     26  C   UNL A   1      33.035  32.380  27.444  1.00  0.00     0.261 C 
BRANCH  26  27
ATOM     27  O   UNL A   1      33.807  31.366  28.104  1.00  0.00    -0.460 OA
BRANCH  27  28
ATOM     28  C   UNL A   1      34.537  31.797  29.162  1.00  0.00     0.338 C 
ATOM     29  O   UNL A   1      34.155  32.497  30.085  1.00  0.00    -0.246 OA
BRANCH  28  30
ATOM     30  C   UNL A   1      35.862  31.147  29.147  1.00  0.00     0.060 A 
ATOM     31  C   UNL A   1      36.459  30.848  30.379  1.00  0.00     0.016 A 
ATOM     32  C   UNL A   1      36.531  30.881  27.951  1.00  0.00     0.016 A 
ATOM     33  C   UNL A   1      37.740  30.303  30.419  1.00  0.00     0.010 A 
ATOM     34  C   UNL A   1      37.825  30.351  27.994  1.00  0.00     0.010 A 
ATOM     35  C   UNL A   1      38.444  30.085  29.228  1.00  0.00    -0.014 A 
BRANCH  35  36
ATOM     36  C   UNL A   1      39.883  29.729  29.282  1.00  0.00     0.031 A 
ATOM     37  C   UNL A   1      40.874  30.784  29.691  1.00  0.00     0.074 A 
ATOM     38  C   UNL A   1      40.300  28.484  28.989  1.00  0.00     0.049 A 
ATOM     39  N   UNL A   1      42.174  30.699  29.802  1.00  0.00    -0.248 NA
ATOM     40  C   UNL A   1      40.324  32.110  30.020  1.00  0.00     0.031 C 
ATOM     41  C   UNL A   1      39.435  27.366  28.618  1.00  0.00     0.029 A 
ATOM     42  N   UNL A   1      41.566  27.958  28.958  1.00  0.00    -0.354 N 
ATOM     43  C   UNL A   1      42.600  31.957  30.210  1.00  0.00     0.074 A 
ATOM     44  C   UNL A   1      41.422  32.794  30.303  1.00  0.00     0.031 C 
ATOM     45  C   UNL A   1      40.199  26.283  28.390  1.00  0.00     0.029 A 
ATOM     46  C   UNL A   1      41.606  26.640  28.571  1.00  0.00     0.049 A 
ATOM     47  H   UNL A   1      42.372  28.475  29.191  1.00  0.00     0.167 HD
ATOM     48  C   UNL A   1      43.856  32.380  30.483  1.00  0.00     0.031 A 
ATOM     49  C   UNL A   1      42.657  25.821  28.371  1.00  0.00     0.031 A 
ATOM     50  C   UNL A   1      45.030  31.558  30.366  1.00  0.00     0.049 A 
ATOM     51  C   UNL A   1      44.054  26.337  28.605  1.00  0.00     0.074 A 
ATOM     52  C   UNL A   1      46.346  31.892  30.636  1.00  0.00     0.029 A 
ATOM     53  N   UNL A   1      45.032  30.241  29.930  1.00  0.00    -0.354 N 
ATOM     54  N   UNL A   1      44.437  27.519  29.023  1.00  0.00    -0.248 NA
ATOM     55  C   UNL A   1      45.159  25.402  28.345  1.00  0.00     0.031 C 
ATOM     56  C   UNL A   1      47.150  30.792  30.311  1.00  0.00     0.029 A 
ATOM     57  C   UNL A   1      46.328  29.758  29.893  1.00  0.00     0.049 A 
ATOM     58  H   UNL A   1      44.229  29.728  29.682  1.00  0.00     0.167 HD
ATOM     59  C   UNL A   1      45.825  27.462  29.102  1.00  0.00     0.074 A 
ATOM     60  C   UNL A   1      46.214  26.127  28.697  1.00  0.00     0.031 C 
ATOM     61  C   UNL A   1      46.700  28.427  29.483  1.00  0.00     0.031 A 
BRANCH  48  62
ATOM     62  C   UNL A   1      44.023  33.817  30.897  1.00  0.00    -0.014 A 
ATOM     63  C   UNL A   1      44.421  34.799  29.971  1.00  0.00     0.010 A 
ATOM     64  C   UNL A   1      43.768  34.193  32.227  1.00  0.00     0.010 A 
ATOM     65  C   UNL A   1      44.606  36.122  30.381  1.00  0.00     0.020 A 
ATOM     66  C   UNL A   1      43.929  35.519  32.635  1.00  0.00     0.020 A 
ATOM     67  C   UNL A   1      44.367  36.471  31.713  1.00  0.00     0.054 A 
BRANCH  67  68
ATOM     68  S   UNL A   1      44.615  38.195  32.222  1.00  0.00     0.124 S 
ATOM     69  O   UNL A   1      44.206  38.922  31.023  1.00  0.00    -0.237 OA
ATOM     70  O   UNL A   1      43.720  38.324  33.370  1.00  0.00    -0.237 OA
ATOM     71  O   UNL A   1      46.040  38.262  32.537  1.00  0.00    -0.744 OA
ENDBRANCH  67  68
ENDBRANCH  48  62
BRANCH  49  72
ATOM     72  C   UNL A   1      42.433  24.424  27.911  1.00  0.00    -0.014 A 
ATOM     73  C   UNL A   1      42.230  24.143  26.549  1.00  0.00     0.010 A 
ATOM     74  C   UNL A   1      42.424  23.365  28.838  1.00  0.00     0.010 A 
ATOM     75  C   UNL A   1      42.012  22.829  26.122  1.00  0.00     0.020 A 
ATOM     76  C   UNL A   1      42.229  22.048  28.411  1.00  0.00     0.020 A 
ATOM     77  C   UNL A   1      42.014  21.790  27.056  1.00  0.00     0.054 A 
BRANCH  77  78
ATOM     78  S   UNL A   1      41.784  20.086  26.473  1.00  0.00     0.124 S 
ATOM     79  O   UNL A   1      40.361  20.065  26.153  1.00  0.00    -0.237 OA
ATOM     80  O   UNL A   1      42.692  20.017  25.331  1.00  0.00    -0.237 OA
ATOM     81  O   UNL A   1      42.180  19.277  27.623  1.00  0.00    -0.744 OA
ENDBRANCH  77  78
ENDBRANCH  49  72
BRANCH  61  82
ATOM     82  C   UNL A   1      48.163  28.070  29.512  1.00  0.00    -0.014 A 
ATOM     83  C   UNL A   1      48.696  27.259  30.530  1.00  0.00     0.010 A 
ATOM     84  C   UNL A   1      49.002  28.500  28.467  1.00  0.00     0.010 A 
ATOM     85  C   UNL A   1      50.048  26.908  30.517  1.00  0.00     0.020 A 
ATOM     86  C   UNL A   1      50.349  28.131  28.438  1.00  0.00     0.020 A 
ATOM     87  C   UNL A   1      50.867  27.348  29.471  1.00  0.00     0.054 A 
BRANCH  87  88
ATOM     88  S   UNL A   1      52.609  26.838  29.449  1.00  0.00     0.124 S 
ATOM     89  O   UNL A   1      52.763  26.227  30.766  1.00  0.00    -0.237 OA
ATOM     90  O   UNL A   1      52.661  25.916  28.318  1.00  0.00    -0.237 OA
ATOM     91  O   UNL A   1      53.333  28.092  29.255  1.00  0.00    -0.744 OA
ENDBRANCH  87  88
ENDBRANCH  61  82
ENDBRANCH  35  36
ENDBRANCH  28  30
ENDBRANCH  27  28
ENDBRANCH  26  27
ENDBRANCH  25  26
ENDBRANCH  24  25
ENDBRANCH  23  24
ENDBRANCH   1  23
TORSDOF 23
ENDMDL
MODEL 2
REMARK VINA RESULT:      -8.6      2.613      8.742
REMARK SMILES Cn1cc(CCC(=O)N2CCCC2)cc1C(=O)OCCOCCOCCOC(=O)c1ccc(-c2c3nc(c(-c4ccc(S(=O)(=O)[O-])cc4)c4ccc([nH]4)c(-c4ccc(S(=O)(=O)[O-])cc4)c4nc(c(-c5ccc(S(=O)(=O)[O-])cc5)c5ccc2[nH]5)C=C4)C=C3)cc1
REMARK SMILES IDX 22 1 21 2 20 3 19 4 18 5 16 6 17 7 15 8 1 9 2 10 3 11 4 12
REMARK SMILES IDX 14 13 5 14 6 15 7 16 8 17 9 18 10 19 13 20 11 21 12 22 23 23
REMARK SMILES IDX 24 24 25 25 26 26 27 27 28 28 29 29 30 30 31 31 89 32 32 33
REMARK SMILES IDX 88 34 33 35 34 36 35 37 82 38 36 39 87 40 81 41 83 42 37 43
REMARK SMILES IDX 86 44 80 45 79 46 38 48 68 49 49 50 67 51 50 52 53 53 66 54
REMARK SMILES IDX 84 55 51 56 52 57 65 59 85 60 54 61 39 62 40 63 48 64 41 65
REMARK SMILES IDX 47 66 42 67 43 68 44 69 45 70 46 71 69 72 70 73 78 74 71 75
REMARK SMILES IDX 77 76 72 77 73 78 74 79 75 80 76 81 55 82 56 83 64 84 57 85
REMARK SMILES IDX 63 86 58 87 59 88 60 89 61 90 62 91
REMARK H PARENT 83 47 53 58
REMARK Flexibility Score: inf
ROOT
ATOM      1  C   UNL A   1      32.497  28.368  27.636  1.00  0.00     0.188 C 
ENDROOT
BRANCH   1   2
ATOM      2  O   UNL A   1      31.347  27.575  27.437  1.00  0.00    -0.376 OA
BRANCH   2   3
ATOM      3  C   UNL A   1      31.335  26.623  26.393  1.00  0.00     0.202 C 
BRANCH   3   4
ATOM      4  C   UNL A   1      30.194  26.583  25.365  1.00  0.00     0.261 C 
BRANCH   4   5
ATOM      5  O   UNL A   1      30.351  25.730  24.226  1.00  0.00    -0.459 OA
BRANCH   5   6
ATOM      6  C   UNL A   1      31.518  25.803  23.535  1.00  0.00     0.355 C 
ATOM      7  O   UNL A   1      32.090  26.847  23.254  1.00  0.00    -0.244 OA
BRANCH   6   8
ATOM      8  C   UNL A   1      32.010  24.462  23.295  1.00  0.00     0.127 A 
ATOM      9  C   UNL A   1      33.026  24.775  20.993  1.00  0.00     0.150 C 
ATOM     10  N   UNL A   1      32.704  24.021  22.184  1.00  0.00    -0.345 N 
ATOM     11  C   UNL A   1      33.063  22.707  22.348  1.00  0.00     0.089 A 
ATOM     12  C   UNL A   1      32.462  22.228  23.491  1.00  0.00    -0.029 A 
ATOM     13  C   UNL A   1      31.864  23.354  24.122  1.00  0.00     0.039 A 
BRANCH  12  14
ATOM     14  C   UNL A   1      32.449  20.803  23.950  1.00  0.00     0.047 C 
BRANCH  14  15
ATOM     15  C   UNL A   1      33.237  20.584  25.240  1.00  0.00     0.105 C 
BRANCH  15  16
ATOM     16  C   UNL A   1      34.734  20.436  25.018  1.00  0.00     0.222 C 
ATOM     17  O   UNL A   1      35.193  19.361  24.617  1.00  0.00    -0.275 OA
ATOM     18  N   UNL A   1      35.550  21.525  25.233  1.00  0.00    -0.343 N 
ATOM     19  C   UNL A   1      35.214  22.793  25.861  1.00  0.00     0.119 C 
ATOM     20  C   UNL A   1      36.953  21.493  24.854  1.00  0.00     0.119 C 
ATOM     21  C   UNL A   1      36.396  23.701  25.563  1.00  0.00     0.023 C 
ATOM     22  C   UNL A   1      37.564  22.725  25.505  1.00  0.00     0.023 C 
ENDBRANCH  15  16
ENDBRANCH  14  15
ENDBRANCH  12  14
ENDBRANCH   6   8
ENDBRANCH   5   6
ENDBRANCH   4   5
ENDBRANCH   3   4
ENDBRANCH   2   3
ENDBRANCH   1   2
BRANCH   1  23
ATOM     23  C   UNL A   1      33.109  28.869  26.312  1.00  0.00     0.188 C 
BRANCH  23  24
ATOM     24  O   UNL A   1      33.843  30.092  26.273  1.00  0.00    -0.376 OA
BRANCH  24  25
ATOM     25  C   UNL A   1      34.349  30.658  27.477  1.00  0.00     0.202 C 
BRANCH  25  26
ATOM     26  C   UNL A   1      35.861  30.649  27.737  1.00  0.00     0.261 C 
BRANCH  26  27
ATOM     27  O   UNL A   1      36.439  29.348  27.915  1.00  0.00    -0.460 OA
BRANCH  27  28
ATOM     28  C   UNL A   1      37.215  29.209  29.017  1.00  0.00     0.338 C 
ATOM     29  O   UNL A   1      36.843  29.153  30.177  1.00  0.00    -0.246 OA
BRANCH  28  30
ATOM     30  C   UNL A   1      38.611  28.952  28.612  1.00  0.00     0.060 A 
ATOM     31  C   UNL A   1      39.502  28.490  29.589  1.00  0.00     0.016 A 
ATOM     32  C   UNL A   1      39.052  29.206  27.312  1.00  0.00     0.016 A 
ATOM     33  C   UNL A   1      40.846  28.303  29.275  1.00  0.00     0.010 A 
ATOM     34  C   UNL A   1      40.406  29.036  27.004  1.00  0.00     0.010 A 
ATOM     35  C   UNL A   1      41.312  28.610  27.990  1.00  0.00    -0.014 A 
BRANCH  35  36
ATOM     36  C   UNL A   1      42.771  28.635  27.727  1.00  0.00     0.031 A 
ATOM     37  C   UNL A   1      43.429  27.397  27.183  1.00  0.00     0.074 A 
ATOM     38  C   UNL A   1      43.497  29.746  27.950  1.00  0.00     0.049 A 
ATOM     39  N   UNL A   1      44.686  27.191  26.883  1.00  0.00    -0.248 NA
ATOM     40  C   UNL A   1      42.552  26.239  26.943  1.00  0.00     0.031 C 
ATOM     41  C   UNL A   1      42.969  31.019  28.437  1.00  0.00     0.029 A 
ATOM     42  N   UNL A   1      44.840  29.973  27.795  1.00  0.00    -0.354 N 
ATOM     43  C   UNL A   1      44.753  25.882  26.424  1.00  0.00     0.074 A 
ATOM     44  C   UNL A   1      43.416  25.334  26.507  1.00  0.00     0.031 C 
ATOM     45  C   UNL A   1      43.983  31.895  28.548  1.00  0.00     0.029 A 
ATOM     46  C   UNL A   1      45.231  31.238  28.166  1.00  0.00     0.049 A 
ATOM     47  H   UNL A   1      45.466  29.295  27.450  1.00  0.00     0.167 HD
ATOM     48  C   UNL A   1      45.829  25.195  25.973  1.00  0.00     0.031 A 
ATOM     49  C   UNL A   1      46.459  31.794  28.208  1.00  0.00     0.031 A 
ATOM     50  C   UNL A   1      47.163  25.729  25.914  1.00  0.00     0.049 A 
ATOM     51  C   UNL A   1      47.654  30.984  27.775  1.00  0.00     0.074 A 
ATOM     52  C   UNL A   1      48.317  25.117  25.458  1.00  0.00     0.029 A 
ATOM     53  N   UNL A   1      47.525  26.999  26.340  1.00  0.00    -0.354 N 
ATOM     54  N   UNL A   1      47.696  29.758  27.311  1.00  0.00    -0.248 NA
ATOM     55  C   UNL A   1      48.968  31.639  27.868  1.00  0.00     0.031 C 
ATOM     56  C   UNL A   1      49.386  25.998  25.658  1.00  0.00     0.029 A 
ATOM     57  C   UNL A   1      48.889  27.178  26.186  1.00  0.00     0.049 A 
ATOM     58  H   UNL A   1      46.903  27.672  26.699  1.00  0.00     0.167 HD
ATOM     59  C   UNL A   1      49.036  29.505  27.031  1.00  0.00     0.074 A 
ATOM     60  C   UNL A   1      49.770  30.706  27.370  1.00  0.00     0.031 C 
ATOM     61  C   UNL A   1      49.606  28.380  26.532  1.00  0.00     0.031 A 
BRANCH  48  62
ATOM     62  C   UNL A   1      45.606  23.770  25.546  1.00  0.00    -0.014 A 
ATOM     63  C   UNL A   1      45.585  23.412  24.185  1.00  0.00     0.010 A 
ATOM     64  C   UNL A   1      45.424  22.773  26.520  1.00  0.00     0.010 A 
ATOM     65  C   UNL A   1      45.339  22.090  23.806  1.00  0.00     0.020 A 
ATOM     66  C   UNL A   1      45.202  21.445  26.146  1.00  0.00     0.020 A 
ATOM     67  C   UNL A   1      45.141  21.116  24.790  1.00  0.00     0.054 A 
BRANCH  67  68
ATOM     68  S   UNL A   1      44.823  19.406  24.275  1.00  0.00     0.124 S 
ATOM     69  O   UNL A   1      43.774  19.002  25.208  1.00  0.00    -0.237 OA
ATOM     70  O   UNL A   1      44.401  19.562  22.884  1.00  0.00    -0.237 OA
ATOM     71  O   UNL A   1      46.112  18.743  24.460  1.00  0.00    -0.744 OA
ENDBRANCH  67  68
ENDBRANCH  48  62
BRANCH  49  72
ATOM     72  C   UNL A   1      46.624  33.191  28.689  1.00  0.00    -0.014 A 
ATOM     73  C   UNL A   1      46.829  33.459  30.053  1.00  0.00     0.010 A 
ATOM     74  C   UNL A   1      46.580  34.264  27.779  1.00  0.00     0.010 A 
ATOM     75  C   UNL A   1      46.976  34.775  30.503  1.00  0.00     0.020 A 
ATOM     76  C   UNL A   1      46.750  35.579  28.222  1.00  0.00     0.020 A 
ATOM     77  C   UNL A   1      46.937  35.827  29.583  1.00  0.00     0.054 A 
BRANCH  77  78
ATOM     78  S   UNL A   1      47.185  37.523  30.181  1.00  0.00     0.124 S 
ATOM     79  O   UNL A   1      46.259  37.586  31.306  1.00  0.00    -0.237 OA
ATOM     80  O   UNL A   1      48.604  37.532  30.526  1.00  0.00    -0.237 OA
ATOM     81  O   UNL A   1      46.828  38.346  29.027  1.00  0.00    -0.744 OA
ENDBRANCH  77  78
ENDBRANCH  49  72
BRANCH  61  82
ATOM     82  C   UNL A   1      51.092  28.400  26.289  1.00  0.00    -0.014 A 
ATOM     83  C   UNL A   1      51.626  28.854  25.071  1.00  0.00     0.010 A 
ATOM     84  C   UNL A   1      51.969  28.018  27.322  1.00  0.00     0.010 A 
ATOM     85  C   UNL A   1      53.010  28.901  24.881  1.00  0.00     0.020 A 
ATOM     86  C   UNL A   1      53.353  28.086  27.144  1.00  0.00     0.020 A 
ATOM     87  C   UNL A   1      53.865  28.515  25.918  1.00  0.00     0.054 A 
BRANCH  87  88
ATOM     88  S   UNL A   1      55.659  28.631  25.665  1.00  0.00     0.124 S 
ATOM     89  O   UNL A   1      55.911  30.044  25.931  1.00  0.00    -0.237 OA
ATOM     90  O   UNL A   1      56.186  27.701  26.661  1.00  0.00    -0.237 OA
ATOM     91  O   UNL A   1      55.839  28.214  24.277  1.00  0.00    -0.744 OA
ENDBRANCH  87  88
ENDBRANCH  61  82
ENDBRANCH  35  36
ENDBRANCH  28  30
ENDBRANCH  27  28
ENDBRANCH  26  27
ENDBRANCH  25  26
ENDBRANCH  24  25
ENDBRANCH  23  24
ENDBRANCH   1  23
TORSDOF 23
ENDMDL
MODEL 3
REMARK VINA RESULT:      -8.6      1.415      8.225
REMARK SMILES Cn1cc(CCC(=O)N2CCCC2)cc1C(=O)OCCOCCOCCOC(=O)c1ccc(-c2c3nc(c(-c4ccc(S(=O)(=O)[O-])cc4)c4ccc([nH]4)c(-c4ccc(S(=O)(=O)[O-])cc4)c4nc(c(-c5ccc(S(=O)(=O)[O-])cc5)c5ccc2[nH]5)C=C4)C=C3)cc1
REMARK SMILES IDX 22 1 21 2 20 3 19 4 18 5 16 6 17 7 15 8 1 9 2 10 3 11 4 12
REMARK SMILES IDX 14 13 5 14 6 15 7 16 8 17 9 18 10 19 13 20 11 21 12 22 23 23
REMARK SMILES IDX 24 24 25 25 26 26 27 27 28 28 29 29 30 30 31 31 89 32 32 33
REMARK SMILES IDX 88 34 33 35 34 36 35 37 82 38 36 39 87 40 81 41 83 42 37 43
REMARK SMILES IDX 86 44 80 45 79 46 38 48 68 49 49 50 67 51 50 52 53 53 66 54
REMARK SMILES IDX 84 55 51 56 52 57 65 59 85 60 54 61 39 62 40 63 48 64 41 65
REMARK SMILES IDX 47 66 42 67 43 68 44 69 45 70 46 71 69 72 70 73 78 74 71 75
REMARK SMILES IDX 77 76 72 77 73 78 74 79 75 80 76 81 55 82 56 83 64 84 57 85
REMARK SMILES IDX 63 86 58 87 59 88 60 89 61 90 62 91
REMARK H PARENT 83 47 53 58
REMARK Flexibility Score: inf
ROOT
ATOM      1  C   UNL A   1      32.148  28.240  27.494  1.00  0.00     0.188 C 
ENDROOT
BRANCH   1   2
ATOM      2  O   UNL A   1      31.083  27.326  27.356  1.00  0.00    -0.376 OA
BRANCH   2   3
ATOM      3  C   UNL A   1      31.088  26.415  26.276  1.00  0.00     0.202 C 
BRANCH   3   4
ATOM      4  C   UNL A   1      29.906  26.332  25.299  1.00  0.00     0.261 C 
BRANCH   4   5
ATOM      5  O   UNL A   1      30.088  25.582  24.093  1.00  0.00    -0.459 OA
BRANCH   5   6
ATOM      6  C   UNL A   1      31.235  25.774  23.393  1.00  0.00     0.355 C 
ATOM      7  O   UNL A   1      31.693  26.872  23.104  1.00  0.00    -0.244 OA
BRANCH   6   8
ATOM      8  C   UNL A   1      31.864  24.492  23.153  1.00  0.00     0.127 A 
ATOM      9  C   UNL A   1      33.037  24.983  20.959  1.00  0.00     0.150 C 
ATOM     10  N   UNL A   1      32.685  24.157  22.092  1.00  0.00    -0.345 N 
ATOM     11  C   UNL A   1      33.145  22.874  22.244  1.00  0.00     0.089 A 
ATOM     12  C   UNL A   1      32.496  22.299  23.314  1.00  0.00    -0.029 A 
ATOM     13  C   UNL A   1      31.749  23.343  23.927  1.00  0.00     0.039 A 
BRANCH  12  14
ATOM     14  C   UNL A   1      32.573  20.861  23.724  1.00  0.00     0.047 C 
BRANCH  14  15
ATOM     15  C   UNL A   1      33.236  20.663  25.086  1.00  0.00     0.105 C 
BRANCH  15  16
ATOM     16  C   UNL A   1      34.746  20.504  25.007  1.00  0.00     0.222 C 
ATOM     17  O   UNL A   1      35.234  19.427  24.651  1.00  0.00    -0.275 OA
ATOM     18  N   UNL A   1      35.545  21.588  25.297  1.00  0.00    -0.343 N 
ATOM     19  C   UNL A   1      35.160  22.859  25.891  1.00  0.00     0.119 C 
ATOM     20  C   UNL A   1      36.977  21.547  25.053  1.00  0.00     0.119 C 
ATOM     21  C   UNL A   1      36.370  23.759  25.706  1.00  0.00     0.023 C 
ATOM     22  C   UNL A   1      37.532  22.775  25.759  1.00  0.00     0.023 C 
ENDBRANCH  15  16
ENDBRANCH  14  15
ENDBRANCH  12  14
ENDBRANCH   6   8
ENDBRANCH   5   6
ENDBRANCH   4   5
ENDBRANCH   3   4
ENDBRANCH   2   3
ENDBRANCH   1   2
BRANCH   1  23
ATOM     23  C   UNL A   1      32.596  28.839  26.146  1.00  0.00     0.188 C 
BRANCH  23  24
ATOM     24  O   UNL A   1      32.923  30.224  26.043  1.00  0.00    -0.376 OA
BRANCH  24  25
ATOM     25  C   UNL A   1      33.004  31.025  27.216  1.00  0.00     0.202 C 
BRANCH  25  26
ATOM     26  C   UNL A   1      34.371  31.538  27.687  1.00  0.00     0.261 C 
BRANCH  26  27
ATOM     27  O   UNL A   1      35.310  30.517  28.054  1.00  0.00    -0.460 OA
BRANCH  27  28
ATOM     28  C   UNL A   1      35.980  30.741  29.211  1.00  0.00     0.338 C 
ATOM     29  O   UNL A   1      35.532  31.205  30.245  1.00  0.00    -0.246 OA
BRANCH  28  30
ATOM     30  C   UNL A   1      37.339  30.171  29.114  1.00  0.00     0.060 A 
ATOM     31  C   UNL A   1      38.067  30.009  30.299  1.00  0.00     0.016 A 
ATOM     32  C   UNL A   1      37.909  29.848  27.881  1.00  0.00     0.016 A 
ATOM     33  C   UNL A   1      39.380  29.545  30.254  1.00  0.00     0.010 A 
ATOM     34  C   UNL A   1      39.233  29.401  27.836  1.00  0.00     0.010 A 
ATOM     35  C   UNL A   1      39.982  29.273  29.019  1.00  0.00    -0.014 A 
BRANCH  35  36
ATOM     36  C   UNL A   1      41.440  29.008  28.957  1.00  0.00     0.031 A 
ATOM     37  C   UNL A   1      41.909  27.635  28.561  1.00  0.00     0.074 A 
ATOM     38  C   UNL A   1      42.333  29.977  29.229  1.00  0.00     0.049 A 
ATOM     39  N   UNL A   1      43.129  27.179  28.445  1.00  0.00    -0.248 NA
ATOM     40  C   UNL A   1      40.862  26.647  28.252  1.00  0.00     0.031 C 
ATOM     41  C   UNL A   1      42.004  31.356  29.586  1.00  0.00     0.029 A 
ATOM     42  N   UNL A   1      43.704  29.939  29.250  1.00  0.00    -0.354 N 
ATOM     43  C   UNL A   1      42.999  25.852  28.055  1.00  0.00     0.074 A 
ATOM     44  C   UNL A   1      41.582  25.570  27.977  1.00  0.00     0.031 C 
ATOM     45  C   UNL A   1      43.146  32.034  29.797  1.00  0.00     0.029 A 
ATOM     46  C   UNL A   1      44.282  31.130  29.618  1.00  0.00     0.049 A 
ATOM     47  H   UNL A   1      44.225  29.134  29.024  1.00  0.00     0.167 HD
ATOM     48  C   UNL A   1      43.970  24.948  27.785  1.00  0.00     0.031 A 
ATOM     49  C   UNL A   1      45.579  31.449  29.804  1.00  0.00     0.031 A 
ATOM     50  C   UNL A   1      45.378  25.219  27.888  1.00  0.00     0.049 A 
ATOM     51  C   UNL A   1      46.639  30.404  29.574  1.00  0.00     0.074 A 
ATOM     52  C   UNL A   1      46.440  24.373  27.620  1.00  0.00     0.029 A 
ATOM     53  N   UNL A   1      45.923  26.425  28.305  1.00  0.00    -0.354 N 
ATOM     54  N   UNL A   1      46.502  29.163  29.172  1.00  0.00    -0.248 NA
ATOM     55  C   UNL A   1      48.033  30.807  29.818  1.00  0.00     0.031 C 
ATOM     56  C   UNL A   1      47.626  25.050  27.927  1.00  0.00     0.029 A 
ATOM     57  C   UNL A   1      47.304  26.336  28.331  1.00  0.00     0.049 A 
ATOM     58  H   UNL A   1      45.403  27.225  28.546  1.00  0.00     0.167 HD
ATOM     59  C   UNL A   1      47.791  28.646  29.090  1.00  0.00     0.074 A 
ATOM     60  C   UNL A   1      48.695  29.710  29.475  1.00  0.00     0.031 C 
ATOM     61  C   UNL A   1      48.191  27.403  28.721  1.00  0.00     0.031 A 
BRANCH  48  62
ATOM     62  C   UNL A   1      43.531  23.564  27.393  1.00  0.00    -0.014 A 
ATOM     63  C   UNL A   1      43.921  22.996  26.166  1.00  0.00     0.010 A 
ATOM     64  C   UNL A   1      42.723  22.816  28.268  1.00  0.00     0.010 A 
ATOM     65  C   UNL A   1      43.474  21.724  25.802  1.00  0.00     0.020 A 
ATOM     66  C   UNL A   1      42.293  21.534  27.918  1.00  0.00     0.020 A 
ATOM     67  C   UNL A   1      42.654  21.004  26.677  1.00  0.00     0.054 A 
BRANCH  67  68
ATOM     68  S   UNL A   1      42.085  19.355  26.183  1.00  0.00     0.124 S 
ATOM     69  O   UNL A   1      40.633  19.519  26.211  1.00  0.00    -0.237 OA
ATOM     70  O   UNL A   1      42.673  19.195  24.855  1.00  0.00    -0.237 OA
ATOM     71  O   UNL A   1      42.632  18.476  27.213  1.00  0.00    -0.744 OA
ENDBRANCH  67  68
ENDBRANCH  48  62
BRANCH  49  72
ATOM     72  C   UNL A   1      45.949  32.821  30.243  1.00  0.00    -0.014 A 
ATOM     73  C   UNL A   1      46.048  33.132  31.610  1.00  0.00     0.010 A 
ATOM     74  C   UNL A   1      46.209  33.825  29.292  1.00  0.00     0.010 A 
ATOM     75  C   UNL A   1      46.389  34.425  32.020  1.00  0.00     0.020 A 
ATOM     76  C   UNL A   1      46.573  35.112  29.697  1.00  0.00     0.020 A 
ATOM     77  C   UNL A   1      46.651  35.407  31.059  1.00  0.00     0.054 A 
BRANCH  77  78
ATOM     78  S   UNL A   1      47.146  37.063  31.612  1.00  0.00     0.124 S 
ATOM     79  O   UNL A   1      46.135  37.361  32.620  1.00  0.00    -0.237 OA
ATOM     80  O   UNL A   1      48.498  36.838  32.118  1.00  0.00    -0.237 OA
ATOM     81  O   UNL A   1      47.072  37.865  30.393  1.00  0.00    -0.744 OA
ENDBRANCH  77  78
ENDBRANCH  49  72
BRANCH  61  82
ATOM     82  C   UNL A   1      49.671  27.130  28.684  1.00  0.00    -0.014 A 
ATOM     83  C   UNL A   1      50.409  27.268  27.495  1.00  0.00     0.010 A 
ATOM     84  C   UNL A   1      50.344  26.791  29.873  1.00  0.00     0.010 A 
ATOM     85  C   UNL A   1      51.789  27.046  27.491  1.00  0.00     0.020 A 
ATOM     86  C   UNL A   1      51.727  26.592  29.877  1.00  0.00     0.020 A 
ATOM     87  C   UNL A   1      52.439  26.708  28.682  1.00  0.00     0.054 A 
BRANCH  87  88
ATOM     88  S   UNL A   1      54.239  26.474  28.662  1.00  0.00     0.124 S 
ATOM     89  O   UNL A   1      54.722  27.849  28.579  1.00  0.00    -0.237 OA
ATOM     90  O   UNL A   1      54.490  25.795  29.931  1.00  0.00    -0.237 OA
ATOM     91  O   UNL A   1      54.468  25.659  27.472  1.00  0.00    -0.744 OA
ENDBRANCH  87  88
ENDBRANCH  61  82
ENDBRANCH  35  36
ENDBRANCH  28  30
ENDBRANCH  27  28
ENDBRANCH  26  27
ENDBRANCH  25  26
ENDBRANCH  24  25
ENDBRANCH  23  24
ENDBRANCH   1  23
TORSDOF 23
ENDMDL
