MODEL 1
REMARK VINA RESULT:      -7.5      0.000      0.000
REMARK SMILES O=C(OCCOCCOCCOC(=O)c1ccc(N2C(=O)/C(=C/C3=c4ccccc4=NC3)SC2=S)cc1O)c1ccc(-c2c3nc(c(-c4ccc(S(=O)(=O)[O-])cc4)c4ccc([nH]4)c(-c4ccc(S(=O)(=O)[O-])cc4)c4nc(c(-c5ccc(S(=O)(=O)[O-])cc5)c5ccc2[nH]5)C=C4)C=C3)cc1
REMARK SMILES IDX 7 1 6 2 5 3 4 4 3 5 2 6 1 7 39 8 40 9 98 10 41 11 97 12
REMARK SMILES IDX 42 13 43 14 44 15 91 16 45 17 96 18 90 19 92 20 46 21 95 22
REMARK SMILES IDX 89 23 88 24 47 26 77 27 58 28 76 29 59 30 62 31 75 32 93 33
REMARK SMILES IDX 60 34 61 35 74 37 94 38 63 39 48 40 49 41 57 42 50 43 56 44
REMARK SMILES IDX 51 45 52 46 53 47 54 48 55 49 78 50 79 51 87 52 80 53 86 54
REMARK SMILES IDX 81 55 82 56 83 57 84 58 85 59 64 60 65 61 73 62 66 63 72 64
REMARK SMILES IDX 67 65 68 66 69 67 70 68 71 69 8 70 9 71 10 72 11 73 12 74
REMARK SMILES IDX 13 75 14 76 15 77 16 78 37 79 17 80 36 81 18 82 38 83 19 85
REMARK SMILES IDX 20 86 34 87 21 88 22 89 33 90 35 91 23 92 24 93 25 94 32 95
REMARK SMILES IDX 26 96 30 97 31 98 27 99 29 100 28 101
REMARK H PARENT 92 25 62 36 38 84
REMARK Flexibility Score: inf
ROOT
ATOM      1  C   UNL A   1      35.563  34.131  31.719  1.00  0.00     0.188 C 
ENDROOT
BRANCH   1   2
ATOM      2  O   UNL A   1      35.551  33.553  30.430  1.00  0.00    -0.376 OA
BRANCH   2   3
ATOM      3  C   UNL A   1      34.398  32.916  29.921  1.00  0.00     0.202 C 
BRANCH   3   4
ATOM      4  C   UNL A   1      34.050  32.979  28.429  1.00  0.00     0.261 C 
BRANCH   4   5
ATOM      5  O   UNL A   1      34.815  32.150  27.552  1.00  0.00    -0.460 OA
BRANCH   5   6
ATOM      6  C   UNL A   1      34.779  30.800  27.705  1.00  0.00     0.338 C 
ATOM      7  O   UNL A   1      33.733  30.174  27.791  1.00  0.00    -0.246 OA
BRANCH   6   8
ATOM      8  C   UNL A   1      36.066  30.229  28.165  1.00  0.00     0.060 A 
ATOM      9  C   UNL A   1      37.154  30.250  27.279  1.00  0.00     0.016 A 
ATOM     10  C   UNL A   1      36.202  29.666  29.433  1.00  0.00     0.016 A 
ATOM     11  C   UNL A   1      38.373  29.681  27.655  1.00  0.00     0.010 A 
ATOM     12  C   UNL A   1      37.401  29.057  29.791  1.00  0.00     0.010 A 
ATOM     13  C   UNL A   1      38.503  29.089  28.919  1.00  0.00    -0.014 A 
BRANCH  13  14
ATOM     14  C   UNL A   1      39.837  28.785  29.478  1.00  0.00     0.031 A 
ATOM     15  C   UNL A   1      40.694  27.664  28.995  1.00  0.00     0.074 A 
ATOM     16  C   UNL A   1      40.210  29.519  30.544  1.00  0.00     0.049 A 
ATOM     17  N   UNL A   1      41.903  27.346  29.384  1.00  0.00    -0.248 NA
ATOM     18  C   UNL A   1      40.139  26.780  27.960  1.00  0.00     0.031 C 
ATOM     19  C   UNL A   1      39.417  30.609  31.121  1.00  0.00     0.029 A 
ATOM     20  N   UNL A   1      41.308  29.435  31.355  1.00  0.00    -0.354 N 
ATOM     21  C   UNL A   1      42.283  26.266  28.603  1.00  0.00     0.074 A 
ATOM     22  C   UNL A   1      41.146  25.931  27.772  1.00  0.00     0.031 C 
ATOM     23  C   UNL A   1      40.026  31.051  32.227  1.00  0.00     0.029 A 
ATOM     24  C   UNL A   1      41.260  30.297  32.420  1.00  0.00     0.049 A 
ATOM     25  H   UNL A   1      42.058  28.817  31.190  1.00  0.00     0.167 HD
ATOM     26  C   UNL A   1      43.485  25.643  28.575  1.00  0.00     0.031 A 
ATOM     27  C   UNL A   1      42.115  30.477  33.442  1.00  0.00     0.031 A 
ATOM     28  C   UNL A   1      44.569  25.936  29.478  1.00  0.00     0.049 A 
ATOM     29  C   UNL A   1      43.406  29.724  33.440  1.00  0.00     0.074 A 
ATOM     30  C   UNL A   1      45.842  25.392  29.497  1.00  0.00     0.029 A 
ATOM     31  N   UNL A   1      44.494  26.811  30.552  1.00  0.00    -0.354 N 
ATOM     32  N   UNL A   1      43.821  28.816  32.588  1.00  0.00    -0.248 NA
ATOM     33  C   UNL A   1      44.365  30.049  34.500  1.00  0.00     0.031 C 
ATOM     34  C   UNL A   1      46.510  25.885  30.622  1.00  0.00     0.029 A 
ATOM     35  C   UNL A   1      45.681  26.789  31.267  1.00  0.00     0.049 A 
ATOM     36  H   UNL A   1      43.712  27.368  30.772  1.00  0.00     0.167 HD
ATOM     37  C   UNL A   1      45.099  28.468  33.001  1.00  0.00     0.074 A 
ATOM     38  C   UNL A   1      45.394  29.281  34.166  1.00  0.00     0.031 C 
ATOM     39  C   UNL A   1      45.949  27.564  32.456  1.00  0.00     0.031 A 
BRANCH  26  40
ATOM     40  C   UNL A   1      43.728  24.613  27.504  1.00  0.00    -0.014 A 
ATOM     41  C   UNL A   1      43.362  23.271  27.698  1.00  0.00     0.010 A 
ATOM     42  C   UNL A   1      44.465  24.965  26.359  1.00  0.00     0.010 A 
ATOM     43  C   UNL A   1      43.734  22.295  26.767  1.00  0.00     0.020 A 
ATOM     44  C   UNL A   1      44.821  23.998  25.415  1.00  0.00     0.020 A 
ATOM     45  C   UNL A   1      44.467  22.665  25.636  1.00  0.00     0.054 A 
BRANCH  45  46
ATOM     46  S   UNL A   1      44.940  21.392  24.433  1.00  0.00     0.124 S 
ATOM     47  O   UNL A   1      46.375  21.272  24.662  1.00  0.00    -0.237 OA
ATOM     48  O   UNL A   1      44.129  20.249  24.849  1.00  0.00    -0.237 OA
ATOM     49  O   UNL A   1      44.548  21.985  23.156  1.00  0.00    -0.744 OA
ENDBRANCH  45  46
ENDBRANCH  26  40
BRANCH  27  50
ATOM     50  C   UNL A   1      41.769  31.496  34.464  1.00  0.00    -0.014 A 
ATOM     51  C   UNL A   1      41.275  31.095  35.721  1.00  0.00     0.010 A 
ATOM     52  C   UNL A   1      41.737  32.855  34.110  1.00  0.00     0.010 A 
ATOM     53  C   UNL A   1      40.689  32.029  36.577  1.00  0.00     0.020 A 
ATOM     54  C   UNL A   1      41.171  33.795  34.975  1.00  0.00     0.020 A 
ATOM     55  C   UNL A   1      40.618  33.369  36.186  1.00  0.00     0.054 A 
BRANCH  55  56
ATOM     56  S   UNL A   1      39.744  34.544  37.256  1.00  0.00     0.124 S 
ATOM     57  O   UNL A   1      39.814  35.772  36.468  1.00  0.00    -0.237 OA
ATOM     58  O   UNL A   1      38.418  33.944  37.373  1.00  0.00    -0.237 OA
ATOM     59  O   UNL A   1      40.536  34.542  38.483  1.00  0.00    -0.744 OA
ENDBRANCH  55  56
ENDBRANCH  27  50
BRANCH  39  60
ATOM     60  C   UNL A   1      47.274  27.363  33.140  1.00  0.00    -0.014 A 
ATOM     61  C   UNL A   1      47.395  26.428  34.182  1.00  0.00     0.010 A 
ATOM     62  C   UNL A   1      48.387  28.151  32.792  1.00  0.00     0.010 A 
ATOM     63  C   UNL A   1      48.598  26.293  34.877  1.00  0.00     0.020 A 
ATOM     64  C   UNL A   1      49.603  27.995  33.462  1.00  0.00     0.020 A 
ATOM     65  C   UNL A   1      49.695  27.080  34.513  1.00  0.00     0.054 A 
BRANCH  65  66
ATOM     66  S   UNL A   1      51.257  26.878  35.411  1.00  0.00     0.124 S 
ATOM     67  O   UNL A   1      51.949  28.126  35.103  1.00  0.00    -0.237 OA
ATOM     68  O   UNL A   1      50.815  26.729  36.796  1.00  0.00    -0.237 OA
ATOM     69  O   UNL A   1      51.837  25.676  34.817  1.00  0.00    -0.744 OA
ENDBRANCH  65  66
ENDBRANCH  39  60
ENDBRANCH  13  14
ENDBRANCH   6   8
ENDBRANCH   5   6
ENDBRANCH   4   5
ENDBRANCH   3   4
ENDBRANCH   2   3
ENDBRANCH   1   2
BRANCH   1  70
ATOM     70  C   UNL A   1      36.875  34.379  32.468  1.00  0.00     0.188 C 
BRANCH  70  71
ATOM     71  O   UNL A   1      38.111  33.944  31.935  1.00  0.00    -0.376 OA
BRANCH  71  72
ATOM     72  C   UNL A   1      38.805  34.751  30.997  1.00  0.00     0.202 C 
BRANCH  72  73
ATOM     73  C   UNL A   1      39.929  34.165  30.144  1.00  0.00     0.261 C 
BRANCH  73  74
ATOM     74  O   UNL A   1      41.024  35.057  29.903  1.00  0.00    -0.460 OA
BRANCH  74  75
ATOM     75  C   UNL A   1      42.153  34.767  30.592  1.00  0.00     0.341 C 
ATOM     76  O   UNL A   1      42.511  35.251  31.658  1.00  0.00    -0.246 OA
BRANCH  75  77
ATOM     77  C   UNL A   1      42.883  33.667  29.950  1.00  0.00     0.101 A 
ATOM     78  C   UNL A   1      43.319  32.592  30.739  1.00  0.00     0.022 A 
ATOM     79  C   UNL A   1      43.293  33.777  28.624  1.00  0.00     0.132 A 
ATOM     80  C   UNL A   1      44.182  31.632  30.203  1.00  0.00     0.028 A 
ATOM     81  C   UNL A   1      44.205  32.860  28.114  1.00  0.00     0.073 A 
ATOM     82  C   UNL A   1      44.682  31.801  28.908  1.00  0.00     0.054 A 
BRANCH  79  83
ATOM     83  O   UNL A   1      42.840  34.800  27.843  1.00  0.00    -0.507 OA
ATOM     84  H   UNL A   1      43.363  35.114  27.131  1.00  0.00     0.293 HD
ENDBRANCH  79  83
BRANCH  82  85
ATOM     85  N   UNL A   1      45.733  30.981  28.417  1.00  0.00    -0.261 N 
ATOM     86  C   UNL A   1      45.499  29.662  28.032  1.00  0.00     0.270 C 
ATOM     87  C   UNL A   1      47.051  31.420  28.362  1.00  0.00     0.152 C 
ATOM     88  O   UNL A   1      44.471  29.022  28.168  1.00  0.00    -0.268 OA
ATOM     89  C   UNL A   1      46.743  29.096  27.422  1.00  0.00     0.081 C 
ATOM     90  S   UNL A   1      48.034  30.228  27.538  1.00  0.00    -0.054 SA
ATOM     91  S   UNL A   1      47.745  32.771  29.065  1.00  0.00    -0.051 S 
ATOM     92  C   UNL A   1      46.802  27.892  26.837  1.00  0.00     0.027 C 
BRANCH  92  93
ATOM     93  C   UNL A   1      47.974  27.339  26.194  1.00  0.00    -0.016 C 
ATOM     94  C   UNL A   1      49.015  26.773  26.797  1.00  0.00     0.005 A 
ATOM     95  C   UNL A   1      48.128  27.264  24.701  1.00  0.00     0.179 C 
ATOM     96  C   UNL A   1      49.408  26.546  28.152  1.00  0.00     0.011 A 
ATOM     97  C   UNL A   1      49.831  26.299  25.664  1.00  0.00     0.065 A 
ATOM     98  N   UNL A   1      49.410  26.551  24.460  1.00  0.00    -0.280 NA
ATOM     99  C   UNL A   1      50.551  25.879  28.388  1.00  0.00     0.001 A 
ATOM    100  C   UNL A   1      51.065  25.558  26.006  1.00  0.00     0.028 A 
ATOM    101  C   UNL A   1      51.376  25.375  27.301  1.00  0.00     0.002 A 
ENDBRANCH  92  93
ENDBRANCH  82  85
ENDBRANCH  75  77
ENDBRANCH  74  75
ENDBRANCH  73  74
ENDBRANCH  72  73
ENDBRANCH  71  72
ENDBRANCH  70  71
ENDBRANCH   1  70
TORSDOF 23
ENDMDL
MODEL 2
REMARK VINA RESULT:      -6.8      3.394     10.702
REMARK SMILES O=C(OCCOCCOCCOC(=O)c1ccc(N2C(=O)/C(=C/C3=c4ccccc4=NC3)SC2=S)cc1O)c1ccc(-c2c3nc(c(-c4ccc(S(=O)(=O)[O-])cc4)c4ccc([nH]4)c(-c4ccc(S(=O)(=O)[O-])cc4)c4nc(c(-c5ccc(S(=O)(=O)[O-])cc5)c5ccc2[nH]5)C=C4)C=C3)cc1
REMARK SMILES IDX 7 1 6 2 5 3 4 4 3 5 2 6 1 7 39 8 40 9 98 10 41 11 97 12
REMARK SMILES IDX 42 13 43 14 44 15 91 16 45 17 96 18 90 19 92 20 46 21 95 22
REMARK SMILES IDX 89 23 88 24 47 26 77 27 58 28 76 29 59 30 62 31 75 32 93 33
REMARK SMILES IDX 60 34 61 35 74 37 94 38 63 39 48 40 49 41 57 42 50 43 56 44
REMARK SMILES IDX 51 45 52 46 53 47 54 48 55 49 78 50 79 51 87 52 80 53 86 54
REMARK SMILES IDX 81 55 82 56 83 57 84 58 85 59 64 60 65 61 73 62 66 63 72 64
REMARK SMILES IDX 67 65 68 66 69 67 70 68 71 69 8 70 9 71 10 72 11 73 12 74
REMARK SMILES IDX 13 75 14 76 15 77 16 78 37 79 17 80 36 81 18 82 38 83 19 85
REMARK SMILES IDX 20 86 34 87 21 88 22 89 33 90 35 91 23 92 24 93 25 94 32 95
REMARK SMILES IDX 26 96 30 97 31 98 27 99 29 100 28 101
REMARK H PARENT 92 25 62 36 38 84
REMARK Flexibility Score: inf
ROOT
ATOM      1  C   UNL A   1      44.322  24.391  28.657  1.00  0.00     0.188 C 
ENDROOT
BRANCH   1   2
ATOM      2  O   UNL A   1      43.031  24.196  29.200  1.00  0.00    -0.376 OA
BRANCH   2   3
ATOM      3  C   UNL A   1      41.991  23.624  28.435  1.00  0.00     0.202 C 
BRANCH   3   4
ATOM      4  C   UNL A   1      40.765  24.447  28.023  1.00  0.00     0.261 C 
BRANCH   4   5
ATOM      5  O   UNL A   1      40.689  24.849  26.654  1.00  0.00    -0.460 OA
BRANCH   5   6
ATOM      6  C   UNL A   1      40.773  26.169  26.338  1.00  0.00     0.338 C 
ATOM      7  O   UNL A   1      41.275  26.567  25.298  1.00  0.00    -0.246 OA
BRANCH   6   8
ATOM      8  C   UNL A   1      40.594  27.062  27.506  1.00  0.00     0.060 A 
ATOM      9  C   UNL A   1      39.553  26.778  28.403  1.00  0.00     0.016 A 
ATOM     10  C   UNL A   1      41.417  28.168  27.710  1.00  0.00     0.016 A 
ATOM     11  C   UNL A   1      39.321  27.620  29.493  1.00  0.00     0.010 A 
ATOM     12  C   UNL A   1      41.156  29.035  28.768  1.00  0.00     0.010 A 
ATOM     13  C   UNL A   1      40.129  28.749  29.684  1.00  0.00    -0.014 A 
BRANCH  13  14
ATOM     14  C   UNL A   1      40.138  29.463  30.978  1.00  0.00     0.031 A 
ATOM     15  C   UNL A   1      39.175  30.549  31.324  1.00  0.00     0.074 A 
ATOM     16  C   UNL A   1      41.148  29.155  31.813  1.00  0.00     0.049 A 
ATOM     17  N   UNL A   1      39.066  31.202  32.453  1.00  0.00    -0.248 NA
ATOM     18  C   UNL A   1      38.222  30.969  30.287  1.00  0.00     0.031 C 
ATOM     19  C   UNL A   1      42.170  28.139  31.543  1.00  0.00     0.029 A 
ATOM     20  N   UNL A   1      41.512  29.687  33.020  1.00  0.00    -0.354 N 
ATOM     21  C   UNL A   1      37.996  32.067  32.291  1.00  0.00     0.074 A 
ATOM     22  C   UNL A   1      37.538  31.914  30.926  1.00  0.00     0.031 C 
ATOM     23  C   UNL A   1      43.078  28.163  32.526  1.00  0.00     0.029 A 
ATOM     24  C   UNL A   1      42.689  29.174  33.503  1.00  0.00     0.049 A 
ATOM     25  H   UNL A   1      40.983  30.370  33.493  1.00  0.00     0.167 HD
ATOM     26  C   UNL A   1      37.441  32.885  33.216  1.00  0.00     0.031 A 
ATOM     27  C   UNL A   1      43.383  29.470  34.616  1.00  0.00     0.031 A 
ATOM     28  C   UNL A   1      37.974  33.088  34.540  1.00  0.00     0.049 A 
ATOM     29  C   UNL A   1      42.796  30.435  35.594  1.00  0.00     0.074 A 
ATOM     30  C   UNL A   1      37.456  33.859  35.566  1.00  0.00     0.029 A 
ATOM     31  N   UNL A   1      39.170  32.559  35.005  1.00  0.00    -0.354 N 
ATOM     32  N   UNL A   1      41.685  31.126  35.493  1.00  0.00    -0.248 NA
ATOM     33  C   UNL A   1      43.522  30.627  36.853  1.00  0.00     0.031 C 
ATOM     34  C   UNL A   1      38.373  33.853  36.622  1.00  0.00     0.029 A 
ATOM     35  C   UNL A   1      39.429  33.024  36.284  1.00  0.00     0.049 A 
ATOM     36  H   UNL A   1      39.748  31.943  34.499  1.00  0.00     0.167 HD
ATOM     37  C   UNL A   1      41.569  31.829  36.684  1.00  0.00     0.074 A 
ATOM     38  C   UNL A   1      42.712  31.459  37.497  1.00  0.00     0.031 C 
ATOM     39  C   UNL A   1      40.596  32.692  37.067  1.00  0.00     0.031 A 
BRANCH  26  40
ATOM     40  C   UNL A   1      36.160  33.593  32.864  1.00  0.00    -0.014 A 
ATOM     41  C   UNL A   1      36.169  34.735  32.046  1.00  0.00     0.010 A 
ATOM     42  C   UNL A   1      34.959  33.200  33.481  1.00  0.00     0.010 A 
ATOM     43  C   UNL A   1      34.998  35.477  31.856  1.00  0.00     0.020 A 
ATOM     44  C   UNL A   1      33.782  33.925  33.277  1.00  0.00     0.020 A 
ATOM     45  C   UNL A   1      33.814  35.069  32.477  1.00  0.00     0.054 A 
BRANCH  45  46
ATOM     46  S   UNL A   1      32.301  36.036  32.219  1.00  0.00     0.124 S 
ATOM     47  O   UNL A   1      31.261  35.085  32.594  1.00  0.00    -0.237 OA
ATOM     48  O   UNL A   1      32.490  37.167  33.125  1.00  0.00    -0.237 OA
ATOM     49  O   UNL A   1      32.367  36.375  30.799  1.00  0.00    -0.744 OA
ENDBRANCH  45  46
ENDBRANCH  26  40
BRANCH  27  50
ATOM     50  C   UNL A   1      44.651  28.737  34.856  1.00  0.00    -0.014 A 
ATOM     51  C   UNL A   1      45.869  29.258  34.376  1.00  0.00     0.010 A 
ATOM     52  C   UNL A   1      44.615  27.433  35.377  1.00  0.00     0.010 A 
ATOM     53  C   UNL A   1      47.014  28.459  34.348  1.00  0.00     0.020 A 
ATOM     54  C   UNL A   1      45.764  26.640  35.371  1.00  0.00     0.020 A 
ATOM     55  C   UNL A   1      46.945  27.146  34.822  1.00  0.00     0.054 A 
BRANCH  55  56
ATOM     56  S   UNL A   1      48.408  26.085  34.664  1.00  0.00     0.124 S 
ATOM     57  O   UNL A   1      48.659  25.715  36.054  1.00  0.00    -0.237 OA
ATOM     58  O   UNL A   1      47.930  25.008  33.801  1.00  0.00    -0.237 OA
ATOM     59  O   UNL A   1      49.405  26.966  34.060  1.00  0.00    -0.744 OA
ENDBRANCH  55  56
ENDBRANCH  27  50
BRANCH  39  60
ATOM     60  C   UNL A   1      40.744  33.342  38.416  1.00  0.00    -0.014 A 
ATOM     61  C   UNL A   1      41.234  34.656  38.515  1.00  0.00     0.010 A 
ATOM     62  C   UNL A   1      40.458  32.626  39.593  1.00  0.00     0.010 A 
ATOM     63  C   UNL A   1      41.452  35.239  39.765  1.00  0.00     0.020 A 
ATOM     64  C   UNL A   1      40.642  33.218  40.845  1.00  0.00     0.020 A 
ATOM     65  C   UNL A   1      41.156  34.514  40.923  1.00  0.00     0.054 A 
BRANCH  65  66
ATOM     66  S   UNL A   1      41.425  35.292  42.538  1.00  0.00     0.124 S 
ATOM     67  O   UNL A   1      42.101  36.533  42.170  1.00  0.00    -0.237 OA
ATOM     68  O   UNL A   1      40.065  35.445  43.052  1.00  0.00    -0.237 OA
ATOM     69  O   UNL A   1      42.247  34.318  43.252  1.00  0.00    -0.744 OA
ENDBRANCH  65  66
ENDBRANCH  39  60
ENDBRANCH  13  14
ENDBRANCH   6   8
ENDBRANCH   5   6
ENDBRANCH   4   5
ENDBRANCH   3   4
ENDBRANCH   2   3
ENDBRANCH   1   2
BRANCH   1  70
ATOM     70  C   UNL A   1      44.546  25.290  27.438  1.00  0.00     0.188 C 
BRANCH  70  71
ATOM     71  O   UNL A   1      45.826  25.411  26.848  1.00  0.00    -0.376 OA
BRANCH  71  72
ATOM     72  C   UNL A   1      46.255  26.660  26.329  1.00  0.00     0.202 C 
BRANCH  72  73
ATOM     73  C   UNL A   1      45.370  27.452  25.369  1.00  0.00     0.261 C 
BRANCH  73  74
ATOM     74  O   UNL A   1      44.674  28.552  25.967  1.00  0.00    -0.460 OA
BRANCH  74  75
ATOM     75  C   UNL A   1      45.440  29.640  26.215  1.00  0.00     0.341 C 
ATOM     76  O   UNL A   1      46.369  30.058  25.536  1.00  0.00    -0.246 OA
BRANCH  75  77
ATOM     77  C   UNL A   1      44.938  30.370  27.385  1.00  0.00     0.101 A 
ATOM     78  C   UNL A   1      44.144  31.508  27.184  1.00  0.00     0.022 A 
ATOM     79  C   UNL A   1      45.393  30.047  28.661  1.00  0.00     0.132 A 
ATOM     80  C   UNL A   1      43.817  32.337  28.261  1.00  0.00     0.028 A 
ATOM     81  C   UNL A   1      45.124  30.908  29.719  1.00  0.00     0.073 A 
ATOM     82  C   UNL A   1      44.363  32.076  29.521  1.00  0.00     0.054 A 
BRANCH  79  83
ATOM     83  O   UNL A   1      46.134  28.920  28.867  1.00  0.00    -0.507 OA
ATOM     84  H   UNL A   1      47.067  28.953  28.800  1.00  0.00     0.293 HD
ENDBRANCH  79  83
BRANCH  82  85
ATOM     85  N   UNL A   1      44.246  33.017  30.579  1.00  0.00    -0.261 N 
ATOM     86  C   UNL A   1      43.173  32.970  31.469  1.00  0.00     0.270 C 
ATOM     87  C   UNL A   1      45.140  34.068  30.739  1.00  0.00     0.152 C 
ATOM     88  O   UNL A   1      42.188  32.256  31.406  1.00  0.00    -0.268 OA
ATOM     89  C   UNL A   1      43.388  33.978  32.555  1.00  0.00     0.081 C 
ATOM     90  S   UNL A   1      44.801  34.907  32.239  1.00  0.00    -0.054 SA
ATOM     91  S   UNL A   1      46.300  34.640  29.676  1.00  0.00    -0.051 S 
ATOM     92  C   UNL A   1      42.598  34.088  33.632  1.00  0.00     0.027 C 
BRANCH  92  93
ATOM     93  C   UNL A   1      42.808  35.015  34.723  1.00  0.00    -0.016 C 
ATOM     94  C   UNL A   1      43.717  34.908  35.688  1.00  0.00     0.005 A 
ATOM     95  C   UNL A   1      42.047  36.304  34.859  1.00  0.00     0.179 C 
ATOM     96  C   UNL A   1      44.703  33.943  36.057  1.00  0.00     0.011 A 
ATOM     97  C   UNL A   1      43.552  36.170  36.433  1.00  0.00     0.065 A 
ATOM     98  N   UNL A   1      42.626  36.994  36.041  1.00  0.00    -0.280 NA
ATOM     99  C   UNL A   1      45.498  34.204  37.109  1.00  0.00     0.001 A 
ATOM    100  C   UNL A   1      44.476  36.392  37.567  1.00  0.00     0.028 A 
ATOM    101  C   UNL A   1      45.384  35.445  37.859  1.00  0.00     0.002 A 
ENDBRANCH  92  93
ENDBRANCH  82  85
ENDBRANCH  75  77
ENDBRANCH  74  75
ENDBRANCH  73  74
ENDBRANCH  72  73
ENDBRANCH  71  72
ENDBRANCH  70  71
ENDBRANCH   1  70
TORSDOF 23
ENDMDL
MODEL 3
REMARK VINA RESULT:      -6.8      3.195     10.421
REMARK SMILES O=C(OCCOCCOCCOC(=O)c1ccc(N2C(=O)/C(=C/C3=c4ccccc4=NC3)SC2=S)cc1O)c1ccc(-c2c3nc(c(-c4ccc(S(=O)(=O)[O-])cc4)c4ccc([nH]4)c(-c4ccc(S(=O)(=O)[O-])cc4)c4nc(c(-c5ccc(S(=O)(=O)[O-])cc5)c5ccc2[nH]5)C=C4)C=C3)cc1
REMARK SMILES IDX 7 1 6 2 5 3 4 4 3 5 2 6 1 7 39 8 40 9 98 10 41 11 97 12
REMARK SMILES IDX 42 13 43 14 44 15 91 16 45 17 96 18 90 19 92 20 46 21 95 22
REMARK SMILES IDX 89 23 88 24 47 26 77 27 58 28 76 29 59 30 62 31 75 32 93 33
REMARK SMILES IDX 60 34 61 35 74 37 94 38 63 39 48 40 49 41 57 42 50 43 56 44
REMARK SMILES IDX 51 45 52 46 53 47 54 48 55 49 78 50 79 51 87 52 80 53 86 54
REMARK SMILES IDX 81 55 82 56 83 57 84 58 85 59 64 60 65 61 73 62 66 63 72 64
REMARK SMILES IDX 67 65 68 66 69 67 70 68 71 69 8 70 9 71 10 72 11 73 12 74
REMARK SMILES IDX 13 75 14 76 15 77 16 78 37 79 17 80 36 81 18 82 38 83 19 85
REMARK SMILES IDX 20 86 34 87 21 88 22 89 33 90 35 91 23 92 24 93 25 94 32 95
REMARK SMILES IDX 26 96 30 97 31 98 27 99 29 100 28 101
REMARK H PARENT 92 25 62 36 38 84
REMARK Flexibility Score: inf
ROOT
ATOM      1  C   UNL A   1      45.286  24.005  28.737  1.00  0.00     0.188 C 
ENDROOT
BRANCH   1   2
ATOM      2  O   UNL A   1      43.953  23.824  29.171  1.00  0.00    -0.376 OA
BRANCH   2   3
ATOM      3  C   UNL A   1      43.098  22.888  28.549  1.00  0.00     0.202 C 
BRANCH   3   4
ATOM      4  C   UNL A   1      41.597  23.159  28.402  1.00  0.00     0.261 C 
BRANCH   4   5
ATOM      5  O   UNL A   1      41.134  23.546  27.106  1.00  0.00    -0.460 OA
BRANCH   5   6
ATOM      6  C   UNL A   1      41.438  24.782  26.628  1.00  0.00     0.338 C 
ATOM      7  O   UNL A   1      42.138  24.954  25.642  1.00  0.00    -0.246 OA
BRANCH   6   8
ATOM      8  C   UNL A   1      41.205  25.863  27.613  1.00  0.00     0.060 A 
ATOM      9  C   UNL A   1      39.965  25.907  28.268  1.00  0.00     0.016 A 
ATOM     10  C   UNL A   1      42.176  26.828  27.879  1.00  0.00     0.016 A 
ATOM     11  C   UNL A   1      39.688  26.936  29.170  1.00  0.00     0.010 A 
ATOM     12  C   UNL A   1      41.883  27.880  28.742  1.00  0.00     0.010 A 
ATOM     13  C   UNL A   1      40.651  27.923  29.417  1.00  0.00    -0.014 A 
BRANCH  13  14
ATOM     14  C   UNL A   1      40.536  28.818  30.588  1.00  0.00     0.031 A 
ATOM     15  C   UNL A   1      39.637  30.008  30.628  1.00  0.00     0.074 A 
ATOM     16  C   UNL A   1      41.378  28.564  31.607  1.00  0.00     0.049 A 
ATOM     17  N   UNL A   1      39.425  30.826  31.627  1.00  0.00    -0.248 NA
ATOM     18  C   UNL A   1      38.892  30.339  29.406  1.00  0.00     0.031 C 
ATOM     19  C   UNL A   1      42.329  27.449  31.643  1.00  0.00     0.029 A 
ATOM     20  N   UNL A   1      41.609  29.241  32.774  1.00  0.00    -0.354 N 
ATOM     21  C   UNL A   1      38.476  31.733  31.182  1.00  0.00     0.074 A 
ATOM     22  C   UNL A   1      38.212  31.414  29.795  1.00  0.00     0.031 C 
ATOM     23  C   UNL A   1      43.081  27.552  32.745  1.00  0.00     0.029 A 
ATOM     24  C   UNL A   1      42.648  28.721  33.503  1.00  0.00     0.049 A 
ATOM     25  H   UNL A   1      41.082  30.021  33.061  1.00  0.00     0.167 HD
ATOM     26  C   UNL A   1      37.869  32.716  31.889  1.00  0.00     0.031 A 
ATOM     27  C   UNL A   1      43.195  29.127  34.662  1.00  0.00     0.031 A 
ATOM     28  C   UNL A   1      38.218  33.072  33.241  1.00  0.00     0.049 A 
ATOM     29  C   UNL A   1      42.563  30.265  35.396  1.00  0.00     0.074 A 
ATOM     30  C   UNL A   1      37.628  34.021  34.059  1.00  0.00     0.029 A 
ATOM     31  N   UNL A   1      39.277  32.533  33.957  1.00  0.00    -0.354 N 
ATOM     32  N   UNL A   1      41.548  31.012  35.027  1.00  0.00    -0.248 NA
ATOM     33  C   UNL A   1      43.110  30.588  36.718  1.00  0.00     0.031 C 
ATOM     34  C   UNL A   1      38.375  34.105  35.238  1.00  0.00     0.029 A 
ATOM     35  C   UNL A   1      39.387  33.161  35.187  1.00  0.00     0.049 A 
ATOM     36  H   UNL A   1      39.864  31.809  33.638  1.00  0.00     0.167 HD
ATOM     37  C   UNL A   1      41.324  31.888  36.079  1.00  0.00     0.074 A 
ATOM     38  C   UNL A   1      42.295  31.562  37.106  1.00  0.00     0.031 C 
ATOM     39  C   UNL A   1      40.390  32.865  36.184  1.00  0.00     0.031 A 
BRANCH  26  40
ATOM     40  C   UNL A   1      36.726  33.454  31.245  1.00  0.00    -0.014 A 
ATOM     41  C   UNL A   1      35.521  33.661  31.937  1.00  0.00     0.010 A 
ATOM     42  C   UNL A   1      36.807  33.809  29.887  1.00  0.00     0.010 A 
ATOM     43  C   UNL A   1      34.413  34.206  31.279  1.00  0.00     0.020 A 
ATOM     44  C   UNL A   1      35.710  34.372  29.230  1.00  0.00     0.020 A 
ATOM     45  C   UNL A   1      34.514  34.551  29.929  1.00  0.00     0.054 A 
BRANCH  45  46
ATOM     46  S   UNL A   1      33.072  35.261  29.087  1.00  0.00     0.124 S 
ATOM     47  O   UNL A   1      32.146  35.475  30.193  1.00  0.00    -0.237 OA
ATOM     48  O   UNL A   1      33.626  36.467  28.475  1.00  0.00    -0.237 OA
ATOM     49  O   UNL A   1      32.697  34.213  28.140  1.00  0.00    -0.744 OA
ENDBRANCH  45  46
ENDBRANCH  26  40
BRANCH  27  50
ATOM     50  C   UNL A   1      44.340  28.349  35.198  1.00  0.00    -0.014 A 
ATOM     51  C   UNL A   1      44.112  27.281  36.087  1.00  0.00     0.010 A 
ATOM     52  C   UNL A   1      45.652  28.803  34.984  1.00  0.00     0.010 A 
ATOM     53  C   UNL A   1      45.172  26.727  36.808  1.00  0.00     0.020 A 
ATOM     54  C   UNL A   1      46.717  28.236  35.688  1.00  0.00     0.020 A 
ATOM     55  C   UNL A   1      46.464  27.228  36.622  1.00  0.00     0.054 A 
BRANCH  55  56
ATOM     56  S   UNL A   1      47.807  26.581  37.656  1.00  0.00     0.124 S 
ATOM     57  O   UNL A   1      47.238  26.706  38.995  1.00  0.00    -0.237 OA
ATOM     58  O   UNL A   1      47.961  25.215  37.161  1.00  0.00    -0.237 OA
ATOM     59  O   UNL A   1      48.923  27.476  37.364  1.00  0.00    -0.744 OA
ENDBRANCH  55  56
ENDBRANCH  27  50
BRANCH  39  60
ATOM     60  C   UNL A   1      40.397  33.695  37.439  1.00  0.00    -0.014 A 
ATOM     61  C   UNL A   1      39.569  33.345  38.520  1.00  0.00     0.010 A 
ATOM     62  C   UNL A   1      41.180  34.861  37.523  1.00  0.00     0.010 A 
ATOM     63  C   UNL A   1      39.508  34.153  39.657  1.00  0.00     0.020 A 
ATOM     64  C   UNL A   1      41.148  35.654  38.673  1.00  0.00     0.020 A 
ATOM     65  C   UNL A   1      40.297  35.305  39.724  1.00  0.00     0.054 A 
BRANCH  65  66
ATOM     66  S   UNL A   1      40.223  36.333  41.216  1.00  0.00     0.124 S 
ATOM     67  O   UNL A   1      41.086  35.597  42.136  1.00  0.00    -0.237 OA
ATOM     68  O   UNL A   1      40.747  37.615  40.750  1.00  0.00    -0.237 OA
ATOM     69  O   UNL A   1      38.802  36.336  41.556  1.00  0.00    -0.744 OA
ENDBRANCH  65  66
ENDBRANCH  39  60
ENDBRANCH  13  14
ENDBRANCH   6   8
ENDBRANCH   5   6
ENDBRANCH   4   5
ENDBRANCH   3   4
ENDBRANCH   2   3
ENDBRANCH   1   2
BRANCH   1  70
ATOM     70  C   UNL A   1      45.622  24.199  27.256  1.00  0.00     0.188 C 
BRANCH  70  71
ATOM     71  O   UNL A   1      46.931  23.967  26.771  1.00  0.00    -0.376 OA
BRANCH  71  72
ATOM     72  C   UNL A   1      47.619  24.988  26.064  1.00  0.00     0.202 C 
BRANCH  72  73
ATOM     73  C   UNL A   1      47.192  25.381  24.650  1.00  0.00     0.261 C 
BRANCH  73  74
ATOM     74  O   UNL A   1      46.188  26.401  24.591  1.00  0.00    -0.460 OA
BRANCH  74  75
ATOM     75  C   UNL A   1      46.667  27.667  24.571  1.00  0.00     0.341 C 
ATOM     76  O   UNL A   1      47.168  28.250  23.619  1.00  0.00    -0.246 OA
BRANCH  75  77
ATOM     77  C   UNL A   1      46.400  28.342  25.846  1.00  0.00     0.101 A 
ATOM     78  C   UNL A   1      45.069  28.521  26.253  1.00  0.00     0.022 A 
ATOM     79  C   UNL A   1      47.436  28.953  26.547  1.00  0.00     0.132 A 
ATOM     80  C   UNL A   1      44.773  29.330  27.355  1.00  0.00     0.028 A 
ATOM     81  C   UNL A   1      47.136  29.810  27.600  1.00  0.00     0.073 A 
ATOM     82  C   UNL A   1      45.802  30.031  27.990  1.00  0.00     0.054 A 
BRANCH  79  83
ATOM     83  O   UNL A   1      48.734  28.750  26.178  1.00  0.00    -0.507 OA
ATOM     84  H   UNL A   1      49.301  28.238  26.720  1.00  0.00     0.293 HD
ENDBRANCH  79  83
BRANCH  82  85
ATOM     85  N   UNL A   1      45.517  31.034  28.955  1.00  0.00    -0.261 N 
ATOM     86  C   UNL A   1      45.174  30.698  30.264  1.00  0.00     0.270 C 
ATOM     87  C   UNL A   1      45.491  32.385  28.633  1.00  0.00     0.152 C 
ATOM     88  O   UNL A   1      44.958  29.585  30.711  1.00  0.00    -0.268 OA
ATOM     89  C   UNL A   1      45.076  31.946  31.085  1.00  0.00     0.081 C 
ATOM     90  S   UNL A   1      45.291  33.334  30.092  1.00  0.00    -0.054 SA
ATOM     91  S   UNL A   1      45.486  33.114  27.126  1.00  0.00    -0.051 S 
ATOM     92  C   UNL A   1      44.889  31.948  32.412  1.00  0.00     0.027 C 
BRANCH  92  93
ATOM     93  C   UNL A   1      44.842  33.133  33.241  1.00  0.00    -0.016 C 
ATOM     94  C   UNL A   1      43.805  33.951  33.394  1.00  0.00     0.005 A 
ATOM     95  C   UNL A   1      45.980  33.558  34.125  1.00  0.00     0.179 C 
ATOM     96  C   UNL A   1      42.489  34.042  32.845  1.00  0.00     0.011 A 
ATOM     97  C   UNL A   1      44.282  34.894  34.422  1.00  0.00     0.065 A 
ATOM     98  N   UNL A   1      45.495  34.751  34.867  1.00  0.00    -0.280 NA
ATOM     99  C   UNL A   1      41.673  35.015  33.286  1.00  0.00     0.001 A 
ATOM    100  C   UNL A   1      43.319  35.925  34.867  1.00  0.00     0.028 A 
ATOM    101  C   UNL A   1      42.095  35.954  34.312  1.00  0.00     0.002 A 
ENDBRANCH  92  93
ENDBRANCH  82  85
ENDBRANCH  75  77
ENDBRANCH  74  75
ENDBRANCH  73  74
ENDBRANCH  72  73
ENDBRANCH  71  72
ENDBRANCH  70  71
ENDBRANCH   1  70
TORSDOF 23
ENDMDL
