MODEL 1
REMARK VINA RESULT:     -10.6      0.000      0.000
REMARK SMILES Cc1ccc(S(=O)(=O)N2c3ccc(C(=O)OCCOCCOCCOC(=O)c4ccc(-c5c6nc(c(-c7ccc(S(=O)(=O)[O-])cc7)c7ccc([nH]7)c(-c7ccc(S(=O)(=O)[O-])cc7)c7nc(c(-c8ccc(S(=O)(=O)[O-])cc8)c8ccc5[nH]8)C=C7)C=C6)cc4)cc3C[C@H]2C)cc1
REMARK SMILES IDX 21 1 20 2 19 3 18 4 17 5 16 6 14 7 15 8 13 9 9 10 10 11
REMARK SMILES IDX 91 12 11 13 89 14 90 15 92 16 12 17 88 18 6 19 7 20 8 21
REMARK SMILES IDX 5 22 1 23 2 24 3 25 94 26 4 27 93 28 22 29 23 30 24 31 25 32
REMARK SMILES IDX 26 33 27 34 28 35 29 36 87 37 30 38 86 39 31 40 32 41 33 42
REMARK SMILES IDX 80 43 34 44 85 45 79 46 81 47 35 48 84 49 78 50 77 51 36 53
REMARK SMILES IDX 66 54 47 55 65 56 48 57 51 58 64 59 82 60 49 61 50 62 63 64
REMARK SMILES IDX 83 65 52 66 37 67 38 68 46 69 39 70 45 71 40 72 41 73 42 74
REMARK SMILES IDX 43 75 44 76 67 77 68 78 76 79 69 80 75 81 70 82 71 83 72 84
REMARK SMILES IDX 73 85 74 86 53 87 54 88 62 89 55 90 61 91 56 92 57 93 58 94
REMARK SMILES IDX 59 95 60 96
REMARK H PARENT 81 52 51 63
REMARK Flexibility Score: inf
ROOT
ATOM      1  C   UNL A   1      41.808  22.128  26.643  1.00  0.00     0.188 C 
ENDROOT
BRANCH   1   2
ATOM      2  C   UNL A   1      40.500  21.399  26.963  1.00  0.00     0.188 C 
BRANCH   2   3
ATOM      3  O   UNL A   1      39.502  21.148  25.945  1.00  0.00    -0.376 OA
BRANCH   3   4
ATOM      4  C   UNL A   1      38.335  21.968  25.724  1.00  0.00     0.202 C 
BRANCH   4   5
ATOM      5  C   UNL A   1      37.096  21.435  24.749  1.00  0.00     0.261 C 
BRANCH   5   6
ATOM      6  O   UNL A   1      35.599  20.732  25.179  1.00  0.00    -0.460 OA
BRANCH   6   7
ATOM      7  C   UNL A   1      34.208  21.046  25.040  1.00  0.00     0.338 C 
ATOM      8  O   UNL A   1      33.281  20.769  25.794  1.00  0.00    -0.246 OA
BRANCH   7   9
ATOM      9  C   UNL A   1      33.526  21.866  23.988  1.00  0.00     0.060 A 
ATOM     10  N   UNL A   1      31.356  25.275  22.559  1.00  0.00    -0.263 N 
ATOM     11  C   UNL A   1      31.976  24.057  23.052  1.00  0.00     0.055 A 
ATOM     12  C   UNL A   1      32.528  26.042  21.932  1.00  0.00     0.101 C 
ATOM     13  C   UNL A   1      31.350  22.902  23.502  1.00  0.00     0.028 A 
ATOM     14  C   UNL A   1      33.354  24.171  23.091  1.00  0.00    -0.021 A 
ATOM     15  C   UNL A   1      33.786  25.557  22.694  1.00  0.00     0.063 C 
ATOM     16  C   UNL A   1      32.611  25.669  20.445  1.00  0.00     0.032 C 
ATOM     17  C   UNL A   1      32.124  21.814  23.972  1.00  0.00     0.018 A 
ATOM     18  C   UNL A   1      34.114  23.118  23.602  1.00  0.00     0.021 A 
BRANCH  10  19
ATOM     19  S   UNL A   1      30.554  26.170  23.820  1.00  0.00     0.264 S 
ATOM     20  O   UNL A   1      30.047  25.238  24.806  1.00  0.00    -0.201 OA
ATOM     21  O   UNL A   1      29.704  27.172  23.207  1.00  0.00    -0.201 OA
BRANCH  19  22
ATOM     22  C   UNL A   1      31.823  27.112  24.660  1.00  0.00     0.088 A 
ATOM     23  C   UNL A   1      34.888  29.173  26.882  1.00  0.00     0.044 C 
ATOM     24  C   UNL A   1      33.824  28.460  26.102  1.00  0.00    -0.051 A 
ATOM     25  C   UNL A   1      33.475  27.147  26.438  1.00  0.00     0.005 A 
ATOM     26  C   UNL A   1      33.144  29.097  25.055  1.00  0.00     0.005 A 
ATOM     27  C   UNL A   1      32.485  26.476  25.720  1.00  0.00     0.022 A 
ATOM     28  C   UNL A   1      32.141  28.430  24.338  1.00  0.00     0.022 A 
ENDBRANCH  19  22
ENDBRANCH  10  19
ENDBRANCH   7   9
ENDBRANCH   6   7
ENDBRANCH   5   6
ENDBRANCH   4   5
ENDBRANCH   3   4
ENDBRANCH   2   3
ENDBRANCH   1   2
BRANCH   1  29
ATOM     29  O   UNL A   1      41.510  23.354  26.002  1.00  0.00    -0.376 OA
BRANCH  29  30
ATOM     30  C   UNL A   1      42.568  24.277  25.862  1.00  0.00     0.202 C 
BRANCH  30  31
ATOM     31  C   UNL A   1      42.292  25.579  26.629  1.00  0.00     0.261 C 
BRANCH  31  32
ATOM     32  O   UNL A   1      41.037  26.173  26.207  1.00  0.00    -0.460 OA
BRANCH  32  33
ATOM     33  C   UNL A   1      40.042  26.292  27.156  1.00  0.00     0.338 C 
ATOM     34  O   UNL A   1      39.154  25.461  27.270  1.00  0.00    -0.246 OA
BRANCH  33  35
ATOM     35  C   UNL A   1      40.264  27.513  28.017  1.00  0.00     0.060 A 
ATOM     36  C   UNL A   1      40.990  28.683  27.753  1.00  0.00     0.016 A 
ATOM     37  C   UNL A   1      39.895  27.385  29.309  1.00  0.00     0.016 A 
ATOM     38  C   UNL A   1      41.422  29.624  28.820  1.00  0.00     0.010 A 
ATOM     39  C   UNL A   1      40.564  28.183  30.246  1.00  0.00     0.010 A 
ATOM     40  C   UNL A   1      41.224  29.396  30.191  1.00  0.00    -0.014 A 
BRANCH  40  41
ATOM     41  C   UNL A   1      41.856  30.088  31.503  1.00  0.00     0.031 A 
ATOM     42  C   UNL A   1      42.538  29.527  32.922  1.00  0.00     0.074 A 
ATOM     43  C   UNL A   1      41.729  31.434  31.564  1.00  0.00     0.049 A 
ATOM     44  N   UNL A   1      42.154  29.913  34.132  1.00  0.00    -0.248 NA
ATOM     45  C   UNL A   1      43.677  28.571  33.139  1.00  0.00     0.031 C 
ATOM     46  C   UNL A   1      42.323  32.339  32.546  1.00  0.00     0.029 A 
ATOM     47  N   UNL A   1      40.899  32.261  30.829  1.00  0.00    -0.354 N 
ATOM     48  C   UNL A   1      42.973  29.286  35.096  1.00  0.00     0.074 A 
ATOM     49  C   UNL A   1      43.774  28.344  34.432  1.00  0.00     0.031 C 
ATOM     50  C   UNL A   1      41.656  33.504  32.518  1.00  0.00     0.029 A 
ATOM     51  C   UNL A   1      40.542  33.359  31.597  1.00  0.00     0.049 A 
ATOM     52  H   UNL A   1      40.607  32.095  29.904  1.00  0.00     0.167 HD
ATOM     53  C   UNL A   1      43.202  29.654  36.386  1.00  0.00     0.031 A 
ATOM     54  C   UNL A   1      39.241  33.671  31.854  1.00  0.00     0.031 A 
ATOM     55  C   UNL A   1      42.684  30.963  36.612  1.00  0.00     0.049 A 
ATOM     56  C   UNL A   1      38.906  33.701  33.329  1.00  0.00     0.074 A 
ATOM     57  C   UNL A   1      43.252  32.215  36.474  1.00  0.00     0.029 A 
ATOM     58  N   UNL A   1      41.320  31.121  36.625  1.00  0.00    -0.354 N 
ATOM     59  N   UNL A   1      39.702  33.287  34.277  1.00  0.00    -0.248 NA
ATOM     60  C   UNL A   1      37.629  34.172  33.858  1.00  0.00     0.031 C 
ATOM     61  C   UNL A   1      42.192  33.149  36.374  1.00  0.00     0.029 A 
ATOM     62  C   UNL A   1      41.005  32.454  36.511  1.00  0.00     0.049 A 
ATOM     63  H   UNL A   1      40.666  30.389  36.706  1.00  0.00     0.167 HD
ATOM     64  C   UNL A   1      39.054  33.339  35.486  1.00  0.00     0.074 A 
ATOM     65  C   UNL A   1      37.778  33.949  35.176  1.00  0.00     0.031 C 
ATOM     66  C   UNL A   1      39.613  32.834  36.624  1.00  0.00     0.031 A 
BRANCH  53  67
ATOM     67  C   UNL A   1      44.251  28.938  37.231  1.00  0.00    -0.014 A 
ATOM     68  C   UNL A   1      45.531  29.492  37.407  1.00  0.00     0.010 A 
ATOM     69  C   UNL A   1      44.039  27.648  37.781  1.00  0.00     0.010 A 
ATOM     70  C   UNL A   1      46.580  28.755  37.986  1.00  0.00     0.020 A 
ATOM     71  C   UNL A   1      45.093  26.884  38.323  1.00  0.00     0.020 A 
ATOM     72  C   UNL A   1      46.367  27.442  38.409  1.00  0.00     0.054 A 
BRANCH  72  73
ATOM     73  S   UNL A   1      47.785  26.457  38.985  1.00  0.00     0.124 S 
ATOM     74  O   UNL A   1      48.571  27.431  39.740  1.00  0.00    -0.237 OA
ATOM     75  O   UNL A   1      47.144  25.416  39.783  1.00  0.00    -0.237 OA
ATOM     76  O   UNL A   1      48.416  25.997  37.749  1.00  0.00    -0.744 OA
ENDBRANCH  72  73
ENDBRANCH  53  67
BRANCH  54  77
ATOM     77  C   UNL A   1      38.298  33.340  30.742  1.00  0.00    -0.014 A 
ATOM     78  C   UNL A   1      37.256  32.432  31.037  1.00  0.00     0.010 A 
ATOM     79  C   UNL A   1      38.182  34.139  29.591  1.00  0.00     0.010 A 
ATOM     80  C   UNL A   1      36.072  32.426  30.296  1.00  0.00     0.020 A 
ATOM     81  C   UNL A   1      36.996  34.121  28.828  1.00  0.00     0.020 A 
ATOM     82  C   UNL A   1      35.931  33.305  29.224  1.00  0.00     0.054 A 
BRANCH  82  83
ATOM     83  S   UNL A   1      34.263  33.502  28.519  1.00  0.00     0.124 S 
ATOM     84  O   UNL A   1      33.910  32.134  28.155  1.00  0.00    -0.237 OA
ATOM     85  O   UNL A   1      33.530  34.059  29.656  1.00  0.00    -0.237 OA
ATOM     86  O   UNL A   1      34.472  34.418  27.401  1.00  0.00    -0.744 OA
ENDBRANCH  82  83
ENDBRANCH  54  77
BRANCH  66  87
ATOM     87  C   UNL A   1      38.964  32.604  37.977  1.00  0.00    -0.014 A 
ATOM     88  C   UNL A   1      39.457  33.087  39.193  1.00  0.00     0.010 A 
ATOM     89  C   UNL A   1      37.693  31.962  38.021  1.00  0.00     0.010 A 
ATOM     90  C   UNL A   1      38.748  32.900  40.391  1.00  0.00     0.020 A 
ATOM     91  C   UNL A   1      36.952  31.823  39.194  1.00  0.00     0.020 A 
ATOM     92  C   UNL A   1      37.502  32.268  40.384  1.00  0.00     0.054 A 
BRANCH  92  93
ATOM     93  S   UNL A   1      36.577  32.067  41.924  1.00  0.00     0.124 S 
ATOM     94  O   UNL A   1      36.992  30.733  42.351  1.00  0.00    -0.237 OA
ATOM     95  O   UNL A   1      37.068  33.167  42.752  1.00  0.00    -0.237 OA
ATOM     96  O   UNL A   1      35.183  32.187  41.506  1.00  0.00    -0.744 OA
ENDBRANCH  92  93
ENDBRANCH  66  87
ENDBRANCH  40  41
ENDBRANCH  33  35
ENDBRANCH  32  33
ENDBRANCH  31  32
ENDBRANCH  30  31
ENDBRANCH  29  30
ENDBRANCH   1  29
TORSDOF 22
ENDMDL
MODEL 2
REMARK VINA RESULT:     -10.5      6.238     14.102
REMARK SMILES Cc1ccc(S(=O)(=O)N2c3ccc(C(=O)OCCOCCOCCOC(=O)c4ccc(-c5c6nc(c(-c7ccc(S(=O)(=O)[O-])cc7)c7ccc([nH]7)c(-c7ccc(S(=O)(=O)[O-])cc7)c7nc(c(-c8ccc(S(=O)(=O)[O-])cc8)c8ccc5[nH]8)C=C7)C=C6)cc4)cc3C[C@H]2C)cc1
REMARK SMILES IDX 21 1 20 2 19 3 18 4 17 5 16 6 14 7 15 8 13 9 9 10 10 11
REMARK SMILES IDX 91 12 11 13 89 14 90 15 92 16 12 17 88 18 6 19 7 20 8 21
REMARK SMILES IDX 5 22 1 23 2 24 3 25 94 26 4 27 93 28 22 29 23 30 24 31 25 32
REMARK SMILES IDX 26 33 27 34 28 35 29 36 87 37 30 38 86 39 31 40 32 41 33 42
REMARK SMILES IDX 80 43 34 44 85 45 79 46 81 47 35 48 84 49 78 50 77 51 36 53
REMARK SMILES IDX 66 54 47 55 65 56 48 57 51 58 64 59 82 60 49 61 50 62 63 64
REMARK SMILES IDX 83 65 52 66 37 67 38 68 46 69 39 70 45 71 40 72 41 73 42 74
REMARK SMILES IDX 43 75 44 76 67 77 68 78 76 79 69 80 75 81 70 82 71 83 72 84
REMARK SMILES IDX 73 85 74 86 53 87 54 88 62 89 55 90 61 91 56 92 57 93 58 94
REMARK SMILES IDX 59 95 60 96
REMARK H PARENT 81 52 51 63
REMARK Flexibility Score: inf
ROOT
ATOM      1  C   UNL A   1      46.765  24.528  26.919  1.00  0.00     0.188 C 
ENDROOT
BRANCH   1   2
ATOM      2  C   UNL A   1      48.281  24.721  27.000  1.00  0.00     0.188 C 
BRANCH   2   3
ATOM      3  O   UNL A   1      48.999  24.578  28.249  1.00  0.00    -0.376 OA
BRANCH   3   4
ATOM      4  C   UNL A   1      50.277  25.185  28.532  1.00  0.00     0.202 C 
BRANCH   4   5
ATOM      5  C   UNL A   1      50.616  25.779  30.050  1.00  0.00     0.261 C 
BRANCH   5   6
ATOM      6  O   UNL A   1      50.007  25.292  31.570  1.00  0.00    -0.460 OA
BRANCH   6   7
ATOM      7  C   UNL A   1      50.264  25.579  32.950  1.00  0.00     0.338 C 
ATOM      8  O   UNL A   1      51.117  26.315  33.434  1.00  0.00    -0.246 OA
BRANCH   7   9
ATOM      9  C   UNL A   1      49.510  25.127  34.164  1.00  0.00     0.060 A 
ATOM     10  N   UNL A   1      48.002  22.187  36.894  1.00  0.00    -0.263 N 
ATOM     11  C   UNL A   1      48.396  23.181  35.910  1.00  0.00     0.055 A 
ATOM     12  C   UNL A   1      49.045  22.357  38.007  1.00  0.00     0.101 C 
ATOM     13  C   UNL A   1      47.674  23.625  34.809  1.00  0.00     0.028 A 
ATOM     14  C   UNL A   1      49.676  23.648  36.147  1.00  0.00    -0.021 A 
ATOM     15  C   UNL A   1      50.305  22.918  37.302  1.00  0.00     0.063 C 
ATOM     16  C   UNL A   1      48.499  23.362  39.034  1.00  0.00     0.032 C 
ATOM     17  C   UNL A   1      48.233  24.591  33.938  1.00  0.00     0.018 A 
ATOM     18  C   UNL A   1      50.246  24.562  35.260  1.00  0.00     0.021 A 
BRANCH  10  19
ATOM     19  S   UNL A   1      47.967  20.576  36.235  1.00  0.00     0.264 S 
ATOM     20  O   UNL A   1      46.916  20.499  35.242  1.00  0.00    -0.201 OA
ATOM     21  O   UNL A   1      48.058  19.627  37.328  1.00  0.00    -0.201 OA
BRANCH  19  22
ATOM     22  C   UNL A   1      49.497  20.363  35.330  1.00  0.00     0.088 A 
ATOM     23  C   UNL A   1      53.307  19.785  33.400  1.00  0.00     0.044 C 
ATOM     24  C   UNL A   1      51.977  19.985  34.065  1.00  0.00    -0.051 A 
ATOM     25  C   UNL A   1      51.804  19.613  35.402  1.00  0.00     0.005 A 
ATOM     26  C   UNL A   1      50.905  20.570  33.377  1.00  0.00     0.005 A 
ATOM     27  C   UNL A   1      50.571  19.796  36.030  1.00  0.00     0.022 A 
ATOM     28  C   UNL A   1      49.669  20.766  34.007  1.00  0.00     0.022 A 
ENDBRANCH  19  22
ENDBRANCH  10  19
ENDBRANCH   7   9
ENDBRANCH   6   7
ENDBRANCH   5   6
ENDBRANCH   4   5
ENDBRANCH   3   4
ENDBRANCH   2   3
ENDBRANCH   1   2
BRANCH   1  29
ATOM     29  O   UNL A   1      46.488  23.294  26.284  1.00  0.00    -0.376 OA
BRANCH  29  30
ATOM     30  C   UNL A   1      45.260  22.674  26.596  1.00  0.00     0.202 C 
BRANCH  30  31
ATOM     31  C   UNL A   1      44.385  23.564  27.491  1.00  0.00     0.261 C 
BRANCH  31  32
ATOM     32  O   UNL A   1      42.995  23.152  27.432  1.00  0.00    -0.460 OA
BRANCH  32  33
ATOM     33  C   UNL A   1      42.228  23.658  26.403  1.00  0.00     0.338 C 
ATOM     34  O   UNL A   1      42.195  23.132  25.300  1.00  0.00    -0.246 OA
BRANCH  33  35
ATOM     35  C   UNL A   1      41.436  24.860  26.862  1.00  0.00     0.060 A 
ATOM     36  C   UNL A   1      41.162  26.066  26.200  1.00  0.00     0.016 A 
ATOM     37  C   UNL A   1      41.121  24.879  28.174  1.00  0.00     0.016 A 
ATOM     38  C   UNL A   1      40.692  27.286  26.907  1.00  0.00     0.010 A 
ATOM     39  C   UNL A   1      40.932  26.134  28.767  1.00  0.00     0.010 A 
ATOM     40  C   UNL A   1      40.559  27.380  28.301  1.00  0.00    -0.014 A 
BRANCH  40  41
ATOM     41  C   UNL A   1      40.376  28.644  29.285  1.00  0.00     0.031 A 
ATOM     42  C   UNL A   1      39.202  29.813  29.502  1.00  0.00     0.074 A 
ATOM     43  C   UNL A   1      41.447  28.931  30.062  1.00  0.00     0.049 A 
ATOM     44  N   UNL A   1      39.447  31.118  29.509  1.00  0.00    -0.248 NA
ATOM     45  C   UNL A   1      37.728  29.672  29.759  1.00  0.00     0.031 C 
ATOM     46  C   UNL A   1      41.525  29.913  31.141  1.00  0.00     0.029 A 
ATOM     47  N   UNL A   1      42.753  28.493  29.934  1.00  0.00    -0.354 N 
ATOM     48  C   UNL A   1      38.243  31.810  29.769  1.00  0.00     0.074 A 
ATOM     49  C   UNL A   1      37.197  30.876  29.741  1.00  0.00     0.031 C 
ATOM     50  C   UNL A   1      42.817  30.184  31.386  1.00  0.00     0.029 A 
ATOM     51  C   UNL A   1      43.617  29.471  30.405  1.00  0.00     0.049 A 
ATOM     52  H   UNL A   1      43.027  27.623  29.566  1.00  0.00     0.167 HD
ATOM     53  C   UNL A   1      38.075  33.076  30.235  1.00  0.00     0.031 A 
ATOM     54  C   UNL A   1      44.599  30.005  29.627  1.00  0.00     0.031 A 
ATOM     55  C   UNL A   1      39.323  33.589  30.697  1.00  0.00     0.049 A 
ATOM     56  C   UNL A   1      44.485  31.504  29.453  1.00  0.00     0.074 A 
ATOM     57  C   UNL A   1      39.938  33.541  31.934  1.00  0.00     0.029 A 
ATOM     58  N   UNL A   1      40.286  33.875  29.761  1.00  0.00    -0.354 N 
ATOM     59  N   UNL A   1      43.460  32.217  29.832  1.00  0.00    -0.248 NA
ATOM     60  C   UNL A   1      45.509  32.322  28.808  1.00  0.00     0.031 C 
ATOM     61  C   UNL A   1      41.318  33.778  31.726  1.00  0.00     0.029 A 
ATOM     62  C   UNL A   1      41.505  34.023  30.379  1.00  0.00     0.049 A 
ATOM     63  H   UNL A   1      40.128  33.961  28.793  1.00  0.00     0.167 HD
ATOM     64  C   UNL A   1      43.620  33.518  29.423  1.00  0.00     0.074 A 
ATOM     65  C   UNL A   1      44.942  33.542  28.833  1.00  0.00     0.031 C 
ATOM     66  C   UNL A   1      42.629  34.445  29.570  1.00  0.00     0.031 A 
BRANCH  53  67
ATOM     67  C   UNL A   1      36.690  33.598  30.607  1.00  0.00    -0.014 A 
ATOM     68  C   UNL A   1      35.738  33.881  29.611  1.00  0.00     0.010 A 
ATOM     69  C   UNL A   1      36.331  33.929  31.938  1.00  0.00     0.010 A 
ATOM     70  C   UNL A   1      34.547  34.569  29.905  1.00  0.00     0.020 A 
ATOM     71  C   UNL A   1      35.161  34.657  32.237  1.00  0.00     0.020 A 
ATOM     72  C   UNL A   1      34.279  34.986  31.210  1.00  0.00     0.054 A 
BRANCH  72  73
ATOM     73  S   UNL A   1      32.821  36.029  31.523  1.00  0.00     0.124 S 
ATOM     74  O   UNL A   1      33.370  37.120  32.326  1.00  0.00    -0.237 OA
ATOM     75  O   UNL A   1      32.399  36.395  30.175  1.00  0.00    -0.237 OA
ATOM     76  O   UNL A   1      31.908  35.144  32.246  1.00  0.00    -0.744 OA
ENDBRANCH  72  73
ENDBRANCH  53  67
BRANCH  54  77
ATOM     77  C   UNL A   1      45.198  29.047  28.648  1.00  0.00    -0.014 A 
ATOM     78  C   UNL A   1      44.421  28.726  27.512  1.00  0.00     0.010 A 
ATOM     79  C   UNL A   1      46.574  28.764  28.619  1.00  0.00     0.010 A 
ATOM     80  C   UNL A   1      45.019  28.279  26.332  1.00  0.00     0.020 A 
ATOM     81  C   UNL A   1      47.179  28.293  27.435  1.00  0.00     0.020 A 
ATOM     82  C   UNL A   1      46.402  28.110  26.286  1.00  0.00     0.054 A 
BRANCH  82  83
ATOM     83  S   UNL A   1      47.160  27.866  24.648  1.00  0.00     0.124 S 
ATOM     84  O   UNL A   1      48.585  27.852  24.957  1.00  0.00    -0.237 OA
ATOM     85  O   UNL A   1      46.590  26.578  24.252  1.00  0.00    -0.237 OA
ATOM     86  O   UNL A   1      46.692  29.018  23.882  1.00  0.00    -0.744 OA
ENDBRANCH  82  83
ENDBRANCH  54  77
BRANCH  66  87
ATOM     87  C   UNL A   1      42.545  35.843  28.984  1.00  0.00    -0.014 A 
ATOM     88  C   UNL A   1      43.122  36.983  29.551  1.00  0.00     0.010 A 
ATOM     89  C   UNL A   1      41.951  36.007  27.700  1.00  0.00     0.010 A 
ATOM     90  C   UNL A   1      43.068  38.226  28.898  1.00  0.00     0.020 A 
ATOM     91  C   UNL A   1      41.944  37.222  27.015  1.00  0.00     0.020 A 
ATOM     92  C   UNL A   1      42.479  38.337  27.636  1.00  0.00     0.054 A 
BRANCH  92  93
ATOM     93  S   UNL A   1      42.450  39.932  26.785  1.00  0.00     0.124 S 
ATOM     94  O   UNL A   1      43.615  39.827  25.912  1.00  0.00    -0.237 OA
ATOM     95  O   UNL A   1      41.157  39.920  26.104  1.00  0.00    -0.237 OA
ATOM     96  O   UNL A   1      42.563  40.902  27.870  1.00  0.00    -0.744 OA
ENDBRANCH  92  93
ENDBRANCH  66  87
ENDBRANCH  40  41
ENDBRANCH  33  35
ENDBRANCH  32  33
ENDBRANCH  31  32
ENDBRANCH  30  31
ENDBRANCH  29  30
ENDBRANCH   1  29
TORSDOF 22
ENDMDL
MODEL 3
REMARK VINA RESULT:     -10.4      2.030      3.003
REMARK SMILES Cc1ccc(S(=O)(=O)N2c3ccc(C(=O)OCCOCCOCCOC(=O)c4ccc(-c5c6nc(c(-c7ccc(S(=O)(=O)[O-])cc7)c7ccc([nH]7)c(-c7ccc(S(=O)(=O)[O-])cc7)c7nc(c(-c8ccc(S(=O)(=O)[O-])cc8)c8ccc5[nH]8)C=C7)C=C6)cc4)cc3C[C@H]2C)cc1
REMARK SMILES IDX 21 1 20 2 19 3 18 4 17 5 16 6 14 7 15 8 13 9 9 10 10 11
REMARK SMILES IDX 91 12 11 13 89 14 90 15 92 16 12 17 88 18 6 19 7 20 8 21
REMARK SMILES IDX 5 22 1 23 2 24 3 25 94 26 4 27 93 28 22 29 23 30 24 31 25 32
REMARK SMILES IDX 26 33 27 34 28 35 29 36 87 37 30 38 86 39 31 40 32 41 33 42
REMARK SMILES IDX 80 43 34 44 85 45 79 46 81 47 35 48 84 49 78 50 77 51 36 53
REMARK SMILES IDX 66 54 47 55 65 56 48 57 51 58 64 59 82 60 49 61 50 62 63 64
REMARK SMILES IDX 83 65 52 66 37 67 38 68 46 69 39 70 45 71 40 72 41 73 42 74
REMARK SMILES IDX 43 75 44 76 67 77 68 78 76 79 69 80 75 81 70 82 71 83 72 84
REMARK SMILES IDX 73 85 74 86 53 87 54 88 62 89 55 90 61 91 56 92 57 93 58 94
REMARK SMILES IDX 59 95 60 96
REMARK H PARENT 81 52 51 63
REMARK Flexibility Score: inf
ROOT
ATOM      1  C   UNL A   1      41.774  22.445  27.280  1.00  0.00     0.188 C 
ENDROOT
BRANCH   1   2
ATOM      2  C   UNL A   1      40.621  21.493  26.954  1.00  0.00     0.188 C 
BRANCH   2   3
ATOM      3  O   UNL A   1      39.679  21.776  25.891  1.00  0.00    -0.376 OA
BRANCH   3   4
ATOM      4  C   UNL A   1      38.301  22.148  26.098  1.00  0.00     0.202 C 
BRANCH   4   5
ATOM      5  C   UNL A   1      37.084  21.407  25.237  1.00  0.00     0.261 C 
BRANCH   5   6
ATOM      6  O   UNL A   1      35.480  21.051  25.706  1.00  0.00    -0.460 OA
BRANCH   6   7
ATOM      7  C   UNL A   1      34.286  21.779  26.016  1.00  0.00     0.338 C 
ATOM      8  O   UNL A   1      33.165  21.345  26.258  1.00  0.00    -0.246 OA
BRANCH   7   9
ATOM      9  C   UNL A   1      34.104  23.254  26.214  1.00  0.00     0.060 A 
ATOM     10  N   UNL A   1      32.618  27.131  25.154  1.00  0.00    -0.263 N 
ATOM     11  C   UNL A   1      33.235  25.851  25.455  1.00  0.00     0.055 A 
ATOM     12  C   UNL A   1      31.424  27.187  26.117  1.00  0.00     0.101 C 
ATOM     13  C   UNL A   1      34.479  25.385  25.049  1.00  0.00     0.028 A 
ATOM     14  C   UNL A   1      32.390  25.045  26.198  1.00  0.00    -0.021 A 
ATOM     15  C   UNL A   1      31.054  25.708  26.391  1.00  0.00     0.063 C 
ATOM     16  C   UNL A   1      31.875  27.886  27.408  1.00  0.00     0.032 C 
ATOM     17  C   UNL A   1      34.907  24.089  25.424  1.00  0.00     0.018 A 
ATOM     18  C   UNL A   1      32.793  23.749  26.524  1.00  0.00     0.021 A 
BRANCH  10  19
ATOM     19  S   UNL A   1      32.149  27.266  23.481  1.00  0.00     0.264 S 
ATOM     20  O   UNL A   1      31.597  25.999  23.047  1.00  0.00    -0.201 OA
ATOM     21  O   UNL A   1      33.216  27.925  22.754  1.00  0.00    -0.201 OA
BRANCH  19  22
ATOM     22  C   UNL A   1      30.787  28.426  23.427  1.00  0.00     0.088 A 
ATOM     23  C   UNL A   1      27.638  31.368  23.504  1.00  0.00     0.044 C 
ATOM     24  C   UNL A   1      28.732  30.342  23.469  1.00  0.00    -0.051 A 
ATOM     25  C   UNL A   1      29.917  30.564  24.179  1.00  0.00     0.005 A 
ATOM     26  C   UNL A   1      28.578  29.143  22.761  1.00  0.00     0.005 A 
ATOM     27  C   UNL A   1      30.940  29.614  24.155  1.00  0.00     0.022 A 
ATOM     28  C   UNL A   1      29.598  28.182  22.743  1.00  0.00     0.022 A 
ENDBRANCH  19  22
ENDBRANCH  10  19
ENDBRANCH   7   9
ENDBRANCH   6   7
ENDBRANCH   5   6
ENDBRANCH   4   5
ENDBRANCH   3   4
ENDBRANCH   2   3
ENDBRANCH   1   2
BRANCH   1  29
ATOM     29  O   UNL A   1      41.343  23.779  27.084  1.00  0.00    -0.376 OA
BRANCH  29  30
ATOM     30  C   UNL A   1      42.344  24.769  26.994  1.00  0.00     0.202 C 
BRANCH  30  31
ATOM     31  C   UNL A   1      42.170  25.853  28.069  1.00  0.00     0.261 C 
BRANCH  31  32
ATOM     32  O   UNL A   1      41.041  26.711  27.762  1.00  0.00    -0.460 OA
BRANCH  32  33
ATOM     33  C   UNL A   1      40.013  26.758  28.682  1.00  0.00     0.338 C 
ATOM     34  O   UNL A   1      39.283  25.799  28.887  1.00  0.00    -0.246 OA
BRANCH  33  35
ATOM     35  C   UNL A   1      39.989  28.089  29.395  1.00  0.00     0.060 A 
ATOM     36  C   UNL A   1      40.494  29.335  28.994  1.00  0.00     0.016 A 
ATOM     37  C   UNL A   1      39.624  28.045  30.693  1.00  0.00     0.016 A 
ATOM     38  C   UNL A   1      40.724  30.456  29.944  1.00  0.00     0.010 A 
ATOM     39  C   UNL A   1      40.116  29.056  31.530  1.00  0.00     0.010 A 
ATOM     40  C   UNL A   1      40.544  30.355  31.332  1.00  0.00    -0.014 A 
BRANCH  40  41
ATOM     41  C   UNL A   1      41.011  31.298  32.553  1.00  0.00     0.031 A 
ATOM     42  C   UNL A   1      41.957  31.086  33.914  1.00  0.00     0.074 A 
ATOM     43  C   UNL A   1      40.443  32.527  32.585  1.00  0.00     0.049 A 
ATOM     44  N   UNL A   1      41.566  31.396  35.144  1.00  0.00    -0.248 NA
ATOM     45  C   UNL A   1      43.365  30.579  34.048  1.00  0.00     0.031 C 
ATOM     46  C   UNL A   1      40.775  33.637  33.475  1.00  0.00     0.029 A 
ATOM     47  N   UNL A   1      39.325  32.982  31.910  1.00  0.00    -0.354 N 
ATOM     48  C   UNL A   1      42.626  31.140  36.042  1.00  0.00     0.074 A 
ATOM     49  C   UNL A   1      43.639  30.479  35.332  1.00  0.00     0.031 C 
ATOM     50  C   UNL A   1      39.755  34.509  33.476  1.00  0.00     0.029 A 
ATOM     51  C   UNL A   1      38.683  33.944  32.675  1.00  0.00     0.049 A 
ATOM     52  H   UNL A   1      39.031  32.672  31.024  1.00  0.00     0.167 HD
ATOM     53  C   UNL A   1      42.822  31.642  37.290  1.00  0.00     0.031 A 
ATOM     54  C   UNL A   1      37.379  33.821  33.049  1.00  0.00     0.031 A 
ATOM     55  C   UNL A   1      41.914  32.716  37.526  1.00  0.00     0.049 A 
ATOM     56  C   UNL A   1      37.176  33.829  34.549  1.00  0.00     0.074 A 
ATOM     57  C   UNL A   1      42.013  34.074  37.294  1.00  0.00     0.029 A 
ATOM     58  N   UNL A   1      40.583  32.410  37.669  1.00  0.00    -0.354 N 
ATOM     59  N   UNL A   1      38.141  33.764  35.426  1.00  0.00    -0.248 NA
ATOM     60  C   UNL A   1      35.863  33.880  35.186  1.00  0.00     0.031 C 
ATOM     61  C   UNL A   1      40.695  34.593  37.270  1.00  0.00     0.029 A 
ATOM     62  C   UNL A   1      39.828  33.553  37.545  1.00  0.00     0.049 A 
ATOM     63  H   UNL A   1      40.223  31.509  37.836  1.00  0.00     0.167 HD
ATOM     64  C   UNL A   1      37.615  33.672  36.691  1.00  0.00     0.074 A 
ATOM     65  C   UNL A   1      36.187  33.802  36.490  1.00  0.00     0.031 C 
ATOM     66  C   UNL A   1      38.404  33.454  37.784  1.00  0.00     0.031 A 
BRANCH  53  67
ATOM     67  C   UNL A   1      44.118  31.371  38.050  1.00  0.00    -0.014 A 
ATOM     68  C   UNL A   1      44.795  32.412  38.708  1.00  0.00     0.010 A 
ATOM     69  C   UNL A   1      44.758  30.106  38.040  1.00  0.00     0.010 A 
ATOM     70  C   UNL A   1      46.095  32.238  39.219  1.00  0.00     0.020 A 
ATOM     71  C   UNL A   1      46.077  29.932  38.509  1.00  0.00     0.020 A 
ATOM     72  C   UNL A   1      46.745  31.010  39.086  1.00  0.00     0.054 A 
BRANCH  72  73
ATOM     73  S   UNL A   1      48.487  30.872  39.593  1.00  0.00     0.124 S 
ATOM     74  O   UNL A   1      48.613  29.456  39.937  1.00  0.00    -0.237 OA
ATOM     75  O   UNL A   1      49.201  31.289  38.390  1.00  0.00    -0.237 OA
ATOM     76  O   UNL A   1      48.592  31.784  40.731  1.00  0.00    -0.744 OA
ENDBRANCH  72  73
ENDBRANCH  53  67
BRANCH  54  77
ATOM     77  C   UNL A   1      36.515  33.126  32.046  1.00  0.00    -0.014 A 
ATOM     78  C   UNL A   1      36.233  33.827  30.852  1.00  0.00     0.010 A 
ATOM     79  C   UNL A   1      36.298  31.737  32.074  1.00  0.00     0.010 A 
ATOM     80  C   UNL A   1      35.891  33.147  29.680  1.00  0.00     0.020 A 
ATOM     81  C   UNL A   1      35.934  31.050  30.897  1.00  0.00     0.020 A 
ATOM     82  C   UNL A   1      35.790  31.757  29.699  1.00  0.00     0.054 A 
BRANCH  82  83
ATOM     83  S   UNL A   1      35.688  30.905  28.092  1.00  0.00     0.124 S 
ATOM     84  O   UNL A   1      37.092  30.726  27.740  1.00  0.00    -0.237 OA
ATOM     85  O   UNL A   1      34.970  29.684  28.455  1.00  0.00    -0.237 OA
ATOM     86  O   UNL A   1      34.943  31.843  27.257  1.00  0.00    -0.744 OA
ENDBRANCH  82  83
ENDBRANCH  54  77
BRANCH  66  87
ATOM     87  C   UNL A   1      37.984  33.106  39.200  1.00  0.00    -0.014 A 
ATOM     88  C   UNL A   1      37.007  32.164  39.536  1.00  0.00     0.010 A 
ATOM     89  C   UNL A   1      38.715  33.673  40.284  1.00  0.00     0.010 A 
ATOM     90  C   UNL A   1      36.739  31.841  40.876  1.00  0.00     0.020 A 
ATOM     91  C   UNL A   1      38.499  33.315  41.615  1.00  0.00     0.020 A 
ATOM     92  C   UNL A   1      37.485  32.419  41.906  1.00  0.00     0.054 A 
BRANCH  92  93
ATOM     93  S   UNL A   1      37.162  31.967  43.627  1.00  0.00     0.124 S 
ATOM     94  O   UNL A   1      38.514  31.788  44.149  1.00  0.00    -0.237 OA
ATOM     95  O   UNL A   1      36.442  33.129  44.144  1.00  0.00    -0.237 OA
ATOM     96  O   UNL A   1      36.364  30.749  43.518  1.00  0.00    -0.744 OA
ENDBRANCH  92  93
ENDBRANCH  66  87
ENDBRANCH  40  41
ENDBRANCH  33  35
ENDBRANCH  32  33
ENDBRANCH  31  32
ENDBRANCH  30  31
ENDBRANCH  29  30
ENDBRANCH   1  29
TORSDOF 22
ENDMDL
