MODEL 1
REMARK VINA RESULT:     -10.2      0.000      0.000
REMARK SMILES COc1ccccc1-n1nnc(C(=O)OCCOCCOCCOC(=O)c2ccc(-c3c4nc(c(-c5ccc(S(=O)(=O)[O-])cc5)c5ccc([nH]5)c(-c5ccc(S(=O)(=O)[O-])cc5)c5nc(c(-c6ccc(S(=O)(=O)[O-])cc6)c6ccc3[nH]6)C=C5)C=C4)cc2)c1-c1ccc(Cl)cc1
REMARK SMILES IDX 20 1 19 2 18 3 17 4 16 5 15 6 13 7 14 8 12 9 9 10 10 11
REMARK SMILES IDX 87 12 11 13 8 14 3 15 4 16 5 17 7 18 6 19 2 20 1 21 88 22
REMARK SMILES IDX 89 23 94 24 90 25 93 26 91 27 92 28 21 29 22 30 23 31 24 32
REMARK SMILES IDX 25 33 26 34 27 35 28 36 86 37 29 38 85 39 30 40 31 41 32 42
REMARK SMILES IDX 79 43 33 44 84 45 78 46 80 47 34 48 83 49 77 50 76 51 35 53
REMARK SMILES IDX 65 54 46 55 64 56 47 57 50 58 63 59 81 60 48 61 49 62 62 64
REMARK SMILES IDX 82 65 51 66 36 67 37 68 45 69 38 70 44 71 39 72 40 73 41 74
REMARK SMILES IDX 42 75 43 76 66 77 67 78 75 79 68 80 74 81 69 82 70 83 71 84
REMARK SMILES IDX 72 85 73 86 52 87 53 88 61 89 54 90 60 91 55 92 56 93 57 94
REMARK SMILES IDX 58 95 59 96
REMARK H PARENT 80 52 50 63
REMARK Flexibility Score: inf
ROOT
ATOM      1  C   UNL A   1      39.730  21.913  26.460  1.00  0.00     0.188 C 
ENDROOT
BRANCH   1   2
ATOM      2  C   UNL A   1      39.254  23.386  26.430  1.00  0.00     0.188 C 
BRANCH   2   3
ATOM      3  O   UNL A   1      37.876  23.693  26.248  1.00  0.00    -0.376 OA
BRANCH   3   4
ATOM      4  C   UNL A   1      36.896  22.665  26.345  1.00  0.00     0.202 C 
BRANCH   4   5
ATOM      5  C   UNL A   1      35.396  23.016  26.358  1.00  0.00     0.261 C 
BRANCH   5   6
ATOM      6  O   UNL A   1      34.599  22.168  27.192  1.00  0.00    -0.458 OA
BRANCH   6   7
ATOM      7  C   UNL A   1      33.271  22.442  27.300  1.00  0.00     0.361 C 
ATOM      8  O   UNL A   1      32.669  22.538  28.366  1.00  0.00    -0.244 OA
BRANCH   7   9
ATOM      9  C   UNL A   1      32.653  22.712  26.010  1.00  0.00     0.198 A 
ATOM     10  N   UNL A   1      31.833  23.573  24.194  1.00  0.00    -0.208 N 
ATOM     11  N   UNL A   1      31.615  22.242  24.132  1.00  0.00    -0.061 NA
ATOM     12  C   UNL A   1      32.279  23.931  25.457  1.00  0.00     0.109 A 
ATOM     13  N   UNL A   1      32.218  21.698  25.182  1.00  0.00    -0.122 NA
BRANCH  10  14
ATOM     14  C   UNL A   1      31.900  24.344  23.021  1.00  0.00     0.109 A 
ATOM     15  C   UNL A   1      32.941  24.125  22.107  1.00  0.00     0.144 A 
ATOM     16  C   UNL A   1      33.135  25.027  21.065  1.00  0.00     0.049 A 
ATOM     17  C   UNL A   1      32.259  26.101  20.902  1.00  0.00     0.004 A 
ATOM     18  C   UNL A   1      30.975  25.375  22.826  1.00  0.00     0.032 A 
ATOM     19  C   UNL A   1      31.172  26.264  21.767  1.00  0.00     0.003 A 
BRANCH  15  20
ATOM     20  O   UNL A   1      33.832  23.086  22.195  1.00  0.00    -0.494 OA
ATOM     21  C   UNL A   1      35.010  23.427  22.934  1.00  0.00     0.278 C 
ENDBRANCH  15  20
ENDBRANCH  10  14
BRANCH  12  22
ATOM     22  C   UNL A   1      32.334  25.306  25.951  1.00  0.00     0.003 A 
ATOM     23  C   UNL A   1      31.202  25.900  26.518  1.00  0.00     0.012 A 
ATOM     24  C   UNL A   1      33.513  26.061  25.835  1.00  0.00     0.012 A 
ATOM     25  C   UNL A   1      31.235  27.230  26.940  1.00  0.00     0.021 A 
ATOM     26  C   UNL A   1      33.551  27.391  26.267  1.00  0.00     0.021 A 
ATOM     27  C   UNL A   1      32.407  27.970  26.810  1.00  0.00     0.041 A 
ATOM     28  Cl  UNL A   1      32.437  29.612  27.322  1.00  0.00    -0.084 Cl
ENDBRANCH  12  22
ENDBRANCH   7   9
ENDBRANCH   6   7
ENDBRANCH   5   6
ENDBRANCH   4   5
ENDBRANCH   3   4
ENDBRANCH   2   3
ENDBRANCH   1   2
BRANCH   1  29
ATOM     29  O   UNL A   1      40.493  21.562  27.596  1.00  0.00    -0.376 OA
BRANCH  29  30
ATOM     30  C   UNL A   1      41.687  20.797  27.500  1.00  0.00     0.202 C 
BRANCH  30  31
ATOM     31  C   UNL A   1      42.129  20.079  26.221  1.00  0.00     0.261 C 
BRANCH  31  32
ATOM     32  O   UNL A   1      42.782  20.901  25.284  1.00  0.00    -0.460 OA
BRANCH  32  33
ATOM     33  C   UNL A   1      44.104  20.662  25.179  1.00  0.00     0.338 C 
ATOM     34  O   UNL A   1      44.664  19.583  25.264  1.00  0.00    -0.246 OA
BRANCH  33  35
ATOM     35  C   UNL A   1      44.778  21.938  24.910  1.00  0.00     0.060 A 
ATOM     36  C   UNL A   1      45.911  22.177  25.684  1.00  0.00     0.016 A 
ATOM     37  C   UNL A   1      44.013  22.961  24.333  1.00  0.00     0.016 A 
ATOM     38  C   UNL A   1      46.008  23.417  26.251  1.00  0.00     0.010 A 
ATOM     39  C   UNL A   1      44.094  24.191  24.916  1.00  0.00     0.010 A 
ATOM     40  C   UNL A   1      44.994  24.333  25.967  1.00  0.00    -0.014 A 
BRANCH  40  41
ATOM     41  C   UNL A   1      44.825  25.429  26.882  1.00  0.00     0.031 A 
ATOM     42  C   UNL A   1      45.830  26.480  26.689  1.00  0.00     0.074 A 
ATOM     43  C   UNL A   1      43.790  25.467  27.739  1.00  0.00     0.049 A 
ATOM     44  N   UNL A   1      46.835  26.755  27.448  1.00  0.00    -0.248 NA
ATOM     45  C   UNL A   1      45.844  27.150  25.380  1.00  0.00     0.031 C 
ATOM     46  C   UNL A   1      42.590  24.623  27.776  1.00  0.00     0.029 A 
ATOM     47  N   UNL A   1      43.537  26.390  28.694  1.00  0.00    -0.354 N 
ATOM     48  C   UNL A   1      47.495  27.790  26.802  1.00  0.00     0.074 A 
ATOM     49  C   UNL A   1      46.996  27.812  25.451  1.00  0.00     0.031 C 
ATOM     50  C   UNL A   1      41.638  25.250  28.508  1.00  0.00     0.029 A 
ATOM     51  C   UNL A   1      42.209  26.460  29.082  1.00  0.00     0.049 A 
ATOM     52  H   UNL A   1      44.237  26.964  29.080  1.00  0.00     0.167 HD
ATOM     53  C   UNL A   1      48.184  28.736  27.490  1.00  0.00     0.031 A 
ATOM     54  C   UNL A   1      41.627  27.517  29.705  1.00  0.00     0.031 A 
ATOM     55  C   UNL A   1      48.426  28.341  28.854  1.00  0.00     0.049 A 
ATOM     56  C   UNL A   1      42.729  28.336  30.290  1.00  0.00     0.074 A 
ATOM     57  C   UNL A   1      49.103  27.293  29.446  1.00  0.00     0.029 A 
ATOM     58  N   UNL A   1      47.572  28.836  29.815  1.00  0.00    -0.354 N 
ATOM     59  N   UNL A   1      43.515  27.903  31.240  1.00  0.00    -0.248 NA
ATOM     60  C   UNL A   1      43.282  29.414  29.479  1.00  0.00     0.031 C 
ATOM     61  C   UNL A   1      48.295  26.914  30.558  1.00  0.00     0.029 A 
ATOM     62  C   UNL A   1      47.206  27.787  30.622  1.00  0.00     0.049 A 
ATOM     63  H   UNL A   1      47.280  29.772  29.907  1.00  0.00     0.167 HD
ATOM     64  C   UNL A   1      44.788  28.345  30.893  1.00  0.00     0.074 A 
ATOM     65  C   UNL A   1      44.567  29.339  29.842  1.00  0.00     0.031 C 
ATOM     66  C   UNL A   1      45.913  27.665  31.271  1.00  0.00     0.031 A 
BRANCH  53  67
ATOM     67  C   UNL A   1      48.267  30.165  27.029  1.00  0.00    -0.014 A 
ATOM     68  C   UNL A   1      49.522  30.795  26.993  1.00  0.00     0.010 A 
ATOM     69  C   UNL A   1      47.130  30.988  26.873  1.00  0.00     0.010 A 
ATOM     70  C   UNL A   1      49.626  32.186  26.870  1.00  0.00     0.020 A 
ATOM     71  C   UNL A   1      47.222  32.365  26.699  1.00  0.00     0.020 A 
ATOM     72  C   UNL A   1      48.472  32.961  26.737  1.00  0.00     0.054 A 
BRANCH  72  73
ATOM     73  S   UNL A   1      48.606  34.762  26.702  1.00  0.00     0.124 S 
ATOM     74  O   UNL A   1      49.788  34.988  27.529  1.00  0.00    -0.237 OA
ATOM     75  O   UNL A   1      48.767  35.031  25.276  1.00  0.00    -0.237 OA
ATOM     76  O   UNL A   1      47.342  35.212  27.278  1.00  0.00    -0.744 OA
ENDBRANCH  72  73
ENDBRANCH  53  67
BRANCH  54  77
ATOM     77  C   UNL A   1      40.267  28.052  29.413  1.00  0.00    -0.014 A 
ATOM     78  C   UNL A   1      39.238  28.027  30.371  1.00  0.00     0.010 A 
ATOM     79  C   UNL A   1      40.049  28.821  28.249  1.00  0.00     0.010 A 
ATOM     80  C   UNL A   1      38.053  28.769  30.183  1.00  0.00     0.020 A 
ATOM     81  C   UNL A   1      38.874  29.554  28.051  1.00  0.00     0.020 A 
ATOM     82  C   UNL A   1      37.886  29.539  29.029  1.00  0.00     0.054 A 
BRANCH  82  83
ATOM     83  S   UNL A   1      36.425  30.608  28.853  1.00  0.00     0.124 S 
ATOM     84  O   UNL A   1      35.906  30.651  30.217  1.00  0.00    -0.237 OA
ATOM     85  O   UNL A   1      37.000  31.854  28.355  1.00  0.00    -0.237 OA
ATOM     86  O   UNL A   1      35.586  29.890  27.895  1.00  0.00    -0.744 OA
ENDBRANCH  82  83
ENDBRANCH  54  77
BRANCH  66  87
ATOM     87  C   UNL A   1      45.773  26.527  32.263  1.00  0.00    -0.014 A 
ATOM     88  C   UNL A   1      46.055  26.654  33.639  1.00  0.00     0.010 A 
ATOM     89  C   UNL A   1      45.160  25.344  31.818  1.00  0.00     0.010 A 
ATOM     90  C   UNL A   1      45.751  25.617  34.537  1.00  0.00     0.020 A 
ATOM     91  C   UNL A   1      44.839  24.314  32.707  1.00  0.00     0.020 A 
ATOM     92  C   UNL A   1      45.143  24.451  34.062  1.00  0.00     0.054 A 
BRANCH  92  93
ATOM     93  S   UNL A   1      44.706  23.131  35.230  1.00  0.00     0.124 S 
ATOM     94  O   UNL A   1      44.633  23.843  36.502  1.00  0.00    -0.237 OA
ATOM     95  O   UNL A   1      43.432  22.642  34.708  1.00  0.00    -0.237 OA
ATOM     96  O   UNL A   1      45.815  22.184  35.116  1.00  0.00    -0.744 OA
ENDBRANCH  92  93
ENDBRANCH  66  87
ENDBRANCH  40  41
ENDBRANCH  33  35
ENDBRANCH  32  33
ENDBRANCH  31  32
ENDBRANCH  30  31
ENDBRANCH  29  30
ENDBRANCH   1  29
TORSDOF 23
ENDMDL
MODEL 2
REMARK VINA RESULT:      -9.8      1.256      1.840
REMARK SMILES COc1ccccc1-n1nnc(C(=O)OCCOCCOCCOC(=O)c2ccc(-c3c4nc(c(-c5ccc(S(=O)(=O)[O-])cc5)c5ccc([nH]5)c(-c5ccc(S(=O)(=O)[O-])cc5)c5nc(c(-c6ccc(S(=O)(=O)[O-])cc6)c6ccc3[nH]6)C=C5)C=C4)cc2)c1-c1ccc(Cl)cc1
REMARK SMILES IDX 20 1 19 2 18 3 17 4 16 5 15 6 13 7 14 8 12 9 9 10 10 11
REMARK SMILES IDX 87 12 11 13 8 14 3 15 4 16 5 17 7 18 6 19 2 20 1 21 88 22
REMARK SMILES IDX 89 23 94 24 90 25 93 26 91 27 92 28 21 29 22 30 23 31 24 32
REMARK SMILES IDX 25 33 26 34 27 35 28 36 86 37 29 38 85 39 30 40 31 41 32 42
REMARK SMILES IDX 79 43 33 44 84 45 78 46 80 47 34 48 83 49 77 50 76 51 35 53
REMARK SMILES IDX 65 54 46 55 64 56 47 57 50 58 63 59 81 60 48 61 49 62 62 64
REMARK SMILES IDX 82 65 51 66 36 67 37 68 45 69 38 70 44 71 39 72 40 73 41 74
REMARK SMILES IDX 42 75 43 76 66 77 67 78 75 79 68 80 74 81 69 82 70 83 71 84
REMARK SMILES IDX 72 85 73 86 52 87 53 88 61 89 54 90 60 91 55 92 56 93 57 94
REMARK SMILES IDX 58 95 59 96
REMARK H PARENT 80 52 50 63
REMARK Flexibility Score: inf
ROOT
ATOM      1  C   UNL A   1      39.779  22.065  26.411  1.00  0.00     0.188 C 
ENDROOT
BRANCH   1   2
ATOM      2  C   UNL A   1      39.520  23.540  26.803  1.00  0.00     0.188 C 
BRANCH   2   3
ATOM      3  O   UNL A   1      38.336  24.202  26.374  1.00  0.00    -0.376 OA
BRANCH   3   4
ATOM      4  C   UNL A   1      37.287  23.461  25.759  1.00  0.00     0.202 C 
BRANCH   4   5
ATOM      5  C   UNL A   1      36.047  24.184  25.199  1.00  0.00     0.261 C 
BRANCH   5   6
ATOM      6  O   UNL A   1      34.879  23.362  25.102  1.00  0.00    -0.458 OA
BRANCH   6   7
ATOM      7  C   UNL A   1      33.902  23.522  26.036  1.00  0.00     0.361 C 
ATOM      8  O   UNL A   1      34.071  23.384  27.244  1.00  0.00    -0.244 OA
BRANCH   7   9
ATOM      9  C   UNL A   1      32.649  23.981  25.454  1.00  0.00     0.198 A 
ATOM     10  N   UNL A   1      30.950  25.099  24.698  1.00  0.00    -0.208 N 
ATOM     11  N   UNL A   1      30.667  23.790  24.526  1.00  0.00    -0.061 NA
ATOM     12  C   UNL A   1      32.084  25.250  25.481  1.00  0.00     0.109 A 
ATOM     13  N   UNL A   1      31.750  23.108  24.878  1.00  0.00    -0.122 NA
BRANCH  10  14
ATOM     14  C   UNL A   1      30.340  26.077  23.893  1.00  0.00     0.109 A 
ATOM     15  C   UNL A   1      31.096  26.738  22.914  1.00  0.00     0.144 A 
ATOM     16  C   UNL A   1      30.558  27.850  22.273  1.00  0.00     0.049 A 
ATOM     17  C   UNL A   1      29.256  28.257  22.561  1.00  0.00     0.004 A 
ATOM     18  C   UNL A   1      29.010  26.433  24.137  1.00  0.00     0.032 A 
ATOM     19  C   UNL A   1      28.477  27.541  23.475  1.00  0.00     0.003 A 
BRANCH  15  20
ATOM     20  O   UNL A   1      32.376  26.388  22.569  1.00  0.00    -0.494 OA
ATOM     21  C   UNL A   1      32.429  25.561  21.401  1.00  0.00     0.278 C 
ENDBRANCH  15  20
ENDBRANCH  10  14
BRANCH  12  22
ATOM     22  C   UNL A   1      32.500  26.511  26.094  1.00  0.00     0.003 A 
ATOM     23  C   UNL A   1      31.603  27.246  26.876  1.00  0.00     0.012 A 
ATOM     24  C   UNL A   1      33.792  27.018  25.881  1.00  0.00     0.012 A 
ATOM     25  C   UNL A   1      31.978  28.476  27.417  1.00  0.00     0.021 A 
ATOM     26  C   UNL A   1      34.173  28.246  26.431  1.00  0.00     0.021 A 
ATOM     27  C   UNL A   1      33.259  28.973  27.190  1.00  0.00     0.041 A 
ATOM     28  Cl  UNL A   1      33.710  30.495  27.851  1.00  0.00    -0.084 Cl
ENDBRANCH  12  22
ENDBRANCH   7   9
ENDBRANCH   6   7
ENDBRANCH   5   6
ENDBRANCH   4   5
ENDBRANCH   3   4
ENDBRANCH   2   3
ENDBRANCH   1   2
BRANCH   1  29
ATOM     29  O   UNL A   1      40.221  21.241  27.470  1.00  0.00    -0.376 OA
BRANCH  29  30
ATOM     30  C   UNL A   1      41.378  20.423  27.361  1.00  0.00     0.202 C 
BRANCH  30  31
ATOM     31  C   UNL A   1      42.079  20.124  26.032  1.00  0.00     0.261 C 
BRANCH  31  32
ATOM     32  O   UNL A   1      42.787  21.213  25.488  1.00  0.00    -0.460 OA
BRANCH  32  33
ATOM     33  C   UNL A   1      44.072  20.936  25.197  1.00  0.00     0.338 C 
ATOM     34  O   UNL A   1      44.588  19.834  25.128  1.00  0.00    -0.246 OA
BRANCH  33  35
ATOM     35  C   UNL A   1      44.766  22.204  24.943  1.00  0.00     0.060 A 
ATOM     36  C   UNL A   1      45.991  22.342  25.591  1.00  0.00     0.016 A 
ATOM     37  C   UNL A   1      43.985  23.295  24.537  1.00  0.00     0.016 A 
ATOM     38  C   UNL A   1      46.208  23.530  26.231  1.00  0.00     0.010 A 
ATOM     39  C   UNL A   1      44.188  24.472  25.194  1.00  0.00     0.010 A 
ATOM     40  C   UNL A   1      45.209  24.501  26.138  1.00  0.00    -0.014 A 
BRANCH  40  41
ATOM     41  C   UNL A   1      45.196  25.528  27.144  1.00  0.00     0.031 A 
ATOM     42  C   UNL A   1      46.376  26.396  27.073  1.00  0.00     0.074 A 
ATOM     43  C   UNL A   1      44.149  25.676  27.974  1.00  0.00     0.049 A 
ATOM     44  N   UNL A   1      47.381  26.424  27.879  1.00  0.00    -0.248 NA
ATOM     45  C   UNL A   1      46.560  27.162  25.830  1.00  0.00     0.031 C 
ATOM     46  C   UNL A   1      42.820  25.058  27.903  1.00  0.00     0.029 A 
ATOM     47  N   UNL A   1      44.021  26.546  29.002  1.00  0.00    -0.354 N 
ATOM     48  C   UNL A   1      48.237  27.376  27.347  1.00  0.00     0.074 A 
ATOM     49  C   UNL A   1      47.806  27.601  25.991  1.00  0.00     0.031 C 
ATOM     50  C   UNL A   1      41.963  25.780  28.664  1.00  0.00     0.029 A 
ATOM     51  C   UNL A   1      42.711  26.816  29.360  1.00  0.00     0.049 A 
ATOM     52  H   UNL A   1      44.794  26.951  29.456  1.00  0.00     0.167 HD
ATOM     53  C   UNL A   1      49.052  28.124  28.136  1.00  0.00     0.031 A 
ATOM     54  C   UNL A   1      42.297  27.903  30.061  1.00  0.00     0.031 A 
ATOM     55  C   UNL A   1      49.165  27.577  29.464  1.00  0.00     0.049 A 
ATOM     56  C   UNL A   1      43.499  28.461  30.746  1.00  0.00     0.074 A 
ATOM     57  C   UNL A   1      49.624  26.380  29.975  1.00  0.00     0.029 A 
ATOM     58  N   UNL A   1      48.372  28.133  30.443  1.00  0.00    -0.354 N 
ATOM     59  N   UNL A   1      44.159  27.817  31.673  1.00  0.00    -0.248 NA
ATOM     60  C   UNL A   1      44.265  29.489  30.050  1.00  0.00     0.031 C 
ATOM     61  C   UNL A   1      48.717  26.058  31.028  1.00  0.00     0.029 A 
ATOM     62  C   UNL A   1      47.795  27.101  31.142  1.00  0.00     0.049 A 
ATOM     63  H   UNL A   1      48.243  29.095  30.612  1.00  0.00     0.167 HD
ATOM     64  C   UNL A   1      45.503  28.055  31.400  1.00  0.00     0.074 A 
ATOM     65  C   UNL A   1      45.502  29.157  30.438  1.00  0.00     0.031 C 
ATOM     66  C   UNL A   1      46.475  27.156  31.744  1.00  0.00     0.031 A 
BRANCH  53  67
ATOM     67  C   UNL A   1      49.402  29.549  27.808  1.00  0.00    -0.014 A 
ATOM     68  C   UNL A   1      48.390  30.522  27.841  1.00  0.00     0.010 A 
ATOM     69  C   UNL A   1      50.633  29.921  27.223  1.00  0.00     0.010 A 
ATOM     70  C   UNL A   1      48.583  31.781  27.260  1.00  0.00     0.020 A 
ATOM     71  C   UNL A   1      50.854  31.186  26.688  1.00  0.00     0.020 A 
ATOM     72  C   UNL A   1      49.811  32.097  26.676  1.00  0.00     0.054 A 
BRANCH  72  73
ATOM     73  S   UNL A   1      50.013  33.676  25.822  1.00  0.00     0.124 S 
ATOM     74  O   UNL A   1      48.638  33.985  25.439  1.00  0.00    -0.237 OA
ATOM     75  O   UNL A   1      50.587  34.520  26.866  1.00  0.00    -0.237 OA
ATOM     76  O   UNL A   1      50.915  33.357  24.718  1.00  0.00    -0.744 OA
ENDBRANCH  72  73
ENDBRANCH  53  67
BRANCH  54  77
ATOM     77  C   UNL A   1      41.065  28.693  29.784  1.00  0.00    -0.014 A 
ATOM     78  C   UNL A   1      39.911  28.103  29.236  1.00  0.00     0.010 A 
ATOM     79  C   UNL A   1      40.941  30.005  30.292  1.00  0.00     0.010 A 
ATOM     80  C   UNL A   1      38.678  28.789  29.231  1.00  0.00     0.020 A 
ATOM     81  C   UNL A   1      39.724  30.695  30.283  1.00  0.00     0.020 A 
ATOM     82  C   UNL A   1      38.591  30.076  29.767  1.00  0.00     0.054 A 
BRANCH  82  83
ATOM     83  S   UNL A   1      36.975  30.902  29.890  1.00  0.00     0.124 S 
ATOM     84  O   UNL A   1      37.003  31.812  28.749  1.00  0.00    -0.237 OA
ATOM     85  O   UNL A   1      36.040  29.785  29.788  1.00  0.00    -0.237 OA
ATOM     86  O   UNL A   1      37.019  31.550  31.200  1.00  0.00    -0.744 OA
ENDBRANCH  82  83
ENDBRANCH  54  77
BRANCH  66  87
ATOM     87  C   UNL A   1      46.098  25.981  32.625  1.00  0.00    -0.014 A 
ATOM     88  C   UNL A   1      45.272  24.921  32.199  1.00  0.00     0.010 A 
ATOM     89  C   UNL A   1      46.754  25.856  33.862  1.00  0.00     0.010 A 
ATOM     90  C   UNL A   1      45.090  23.782  33.001  1.00  0.00     0.020 A 
ATOM     91  C   UNL A   1      46.591  24.718  34.657  1.00  0.00     0.020 A 
ATOM     92  C   UNL A   1      45.754  23.688  34.227  1.00  0.00     0.054 A 
BRANCH  92  93
ATOM     93  S   UNL A   1      45.557  22.194  35.239  1.00  0.00     0.124 S 
ATOM     94  O   UNL A   1      45.393  22.739  36.583  1.00  0.00    -0.237 OA
ATOM     95  O   UNL A   1      44.369  21.565  34.666  1.00  0.00    -0.237 OA
ATOM     96  O   UNL A   1      46.802  21.457  35.020  1.00  0.00    -0.744 OA
ENDBRANCH  92  93
ENDBRANCH  66  87
ENDBRANCH  40  41
ENDBRANCH  33  35
ENDBRANCH  32  33
ENDBRANCH  31  32
ENDBRANCH  30  31
ENDBRANCH  29  30
ENDBRANCH   1  29
TORSDOF 23
ENDMDL
MODEL 3
REMARK VINA RESULT:      -9.7      2.770      3.939
REMARK SMILES COc1ccccc1-n1nnc(C(=O)OCCOCCOCCOC(=O)c2ccc(-c3c4nc(c(-c5ccc(S(=O)(=O)[O-])cc5)c5ccc([nH]5)c(-c5ccc(S(=O)(=O)[O-])cc5)c5nc(c(-c6ccc(S(=O)(=O)[O-])cc6)c6ccc3[nH]6)C=C5)C=C4)cc2)c1-c1ccc(Cl)cc1
REMARK SMILES IDX 20 1 19 2 18 3 17 4 16 5 15 6 13 7 14 8 12 9 9 10 10 11
REMARK SMILES IDX 87 12 11 13 8 14 3 15 4 16 5 17 7 18 6 19 2 20 1 21 88 22
REMARK SMILES IDX 89 23 94 24 90 25 93 26 91 27 92 28 21 29 22 30 23 31 24 32
REMARK SMILES IDX 25 33 26 34 27 35 28 36 86 37 29 38 85 39 30 40 31 41 32 42
REMARK SMILES IDX 79 43 33 44 84 45 78 46 80 47 34 48 83 49 77 50 76 51 35 53
REMARK SMILES IDX 65 54 46 55 64 56 47 57 50 58 63 59 81 60 48 61 49 62 62 64
REMARK SMILES IDX 82 65 51 66 36 67 37 68 45 69 38 70 44 71 39 72 40 73 41 74
REMARK SMILES IDX 42 75 43 76 66 77 67 78 75 79 68 80 74 81 69 82 70 83 71 84
REMARK SMILES IDX 72 85 73 86 52 87 53 88 61 89 54 90 60 91 55 92 56 93 57 94
REMARK SMILES IDX 58 95 59 96
REMARK H PARENT 80 52 50 63
REMARK Flexibility Score: inf
ROOT
ATOM      1  C   UNL A   1      36.502  19.787  24.734  1.00  0.00     0.188 C 
ENDROOT
BRANCH   1   2
ATOM      2  C   UNL A   1      35.372  20.717  25.238  1.00  0.00     0.188 C 
BRANCH   2   3
ATOM      3  O   UNL A   1      34.062  20.623  24.688  1.00  0.00    -0.376 OA
BRANCH   3   4
ATOM      4  C   UNL A   1      32.951  21.161  25.396  1.00  0.00     0.202 C 
BRANCH   4   5
ATOM      5  C   UNL A   1      33.155  21.846  26.761  1.00  0.00     0.261 C 
BRANCH   5   6
ATOM      6  O   UNL A   1      32.662  23.189  26.827  1.00  0.00    -0.458 OA
BRANCH   6   7
ATOM      7  C   UNL A   1      33.149  24.095  25.936  1.00  0.00     0.361 C 
ATOM      8  O   UNL A   1      34.341  24.249  25.687  1.00  0.00    -0.244 OA
BRANCH   7   9
ATOM      9  C   UNL A   1      32.090  24.799  25.227  1.00  0.00     0.198 A 
ATOM     10  N   UNL A   1      30.749  26.240  24.314  1.00  0.00    -0.208 N 
ATOM     11  N   UNL A   1      30.238  25.015  24.065  1.00  0.00    -0.061 NA
ATOM     12  C   UNL A   1      31.786  26.155  25.230  1.00  0.00     0.109 A 
ATOM     13  N   UNL A   1      31.115  24.127  24.518  1.00  0.00    -0.122 NA
BRANCH  10  14
ATOM     14  C   UNL A   1      30.445  27.327  23.476  1.00  0.00     0.109 A 
ATOM     15  C   UNL A   1      31.419  27.812  22.591  1.00  0.00     0.144 A 
ATOM     16  C   UNL A   1      31.199  29.015  21.926  1.00  0.00     0.049 A 
ATOM     17  C   UNL A   1      29.991  29.692  22.096  1.00  0.00     0.004 A 
ATOM     18  C   UNL A   1      29.205  27.961  23.599  1.00  0.00     0.032 A 
ATOM     19  C   UNL A   1      28.990  29.159  22.913  1.00  0.00     0.003 A 
BRANCH  15  20
ATOM     20  O   UNL A   1      32.623  27.195  22.363  1.00  0.00    -0.494 OA
ATOM     21  C   UNL A   1      33.720  28.114  22.328  1.00  0.00     0.278 C 
ENDBRANCH  15  20
ENDBRANCH  10  14
BRANCH  12  22
ATOM     22  C   UNL A   1      32.362  27.301  25.930  1.00  0.00     0.003 A 
ATOM     23  C   UNL A   1      31.577  28.069  26.797  1.00  0.00     0.012 A 
ATOM     24  C   UNL A   1      33.702  27.670  25.720  1.00  0.00     0.012 A 
ATOM     25  C   UNL A   1      32.108  29.196  27.424  1.00  0.00     0.021 A 
ATOM     26  C   UNL A   1      34.238  28.793  26.355  1.00  0.00     0.021 A 
ATOM     27  C   UNL A   1      33.434  29.556  27.199  1.00  0.00     0.041 A 
ATOM     28  Cl  UNL A   1      34.078  30.953  27.967  1.00  0.00    -0.084 Cl
ENDBRANCH  12  22
ENDBRANCH   7   9
ENDBRANCH   6   7
ENDBRANCH   5   6
ENDBRANCH   4   5
ENDBRANCH   3   4
ENDBRANCH   2   3
ENDBRANCH   1   2
BRANCH   1  29
ATOM     29  O   UNL A   1      37.744  20.426  24.524  1.00  0.00    -0.376 OA
BRANCH  29  30
ATOM     30  C   UNL A   1      38.747  20.481  25.530  1.00  0.00     0.202 C 
BRANCH  30  31
ATOM     31  C   UNL A   1      39.156  21.772  26.245  1.00  0.00     0.261 C 
BRANCH  31  32
ATOM     32  O   UNL A   1      40.543  21.922  26.433  1.00  0.00    -0.460 OA
BRANCH  32  33
ATOM     33  C   UNL A   1      40.869  22.771  27.427  1.00  0.00     0.338 C 
ATOM     34  O   UNL A   1      41.181  22.479  28.568  1.00  0.00    -0.246 OA
BRANCH  33  35
ATOM     35  C   UNL A   1      40.816  24.138  26.895  1.00  0.00     0.060 A 
ATOM     36  C   UNL A   1      42.056  24.746  26.718  1.00  0.00     0.016 A 
ATOM     37  C   UNL A   1      39.628  24.857  27.087  1.00  0.00     0.016 A 
ATOM     38  C   UNL A   1      42.176  26.026  27.184  1.00  0.00     0.010 A 
ATOM     39  C   UNL A   1      39.751  26.124  27.574  1.00  0.00     0.010 A 
ATOM     40  C   UNL A   1      41.042  26.612  27.749  1.00  0.00    -0.014 A 
BRANCH  40  41
ATOM     41  C   UNL A   1      41.250  27.724  28.635  1.00  0.00     0.031 A 
ATOM     42  C   UNL A   1      42.287  28.641  28.150  1.00  0.00     0.074 A 
ATOM     43  C   UNL A   1      40.487  27.894  29.730  1.00  0.00     0.049 A 
ATOM     44  N   UNL A   1      43.481  28.793  28.611  1.00  0.00    -0.248 NA
ATOM     45  C   UNL A   1      42.036  29.299  26.858  1.00  0.00     0.031 C 
ATOM     46  C   UNL A   1      39.248  27.205  30.108  1.00  0.00     0.029 A 
ATOM     47  N   UNL A   1      40.605  28.846  30.683  1.00  0.00    -0.354 N 
ATOM     48  C   UNL A   1      44.066  29.735  27.779  1.00  0.00     0.074 A 
ATOM     49  C   UNL A   1      43.237  29.813  26.604  1.00  0.00     0.031 C 
ATOM     50  C   UNL A   1      38.603  27.949  31.038  1.00  0.00     0.029 A 
ATOM     51  C   UNL A   1      39.443  29.081  31.400  1.00  0.00     0.049 A 
ATOM     52  H   UNL A   1      41.445  29.330  30.854  1.00  0.00     0.167 HD
ATOM     53  C   UNL A   1      45.019  30.591  28.230  1.00  0.00     0.031 A 
ATOM     54  C   UNL A   1      39.174  30.205  32.113  1.00  0.00     0.031 A 
ATOM     55  C   UNL A   1      45.561  30.174  29.498  1.00  0.00     0.049 A 
ATOM     56  C   UNL A   1      40.480  30.883  32.362  1.00  0.00     0.074 A 
ATOM     57  C   UNL A   1      46.240  29.053  29.932  1.00  0.00     0.029 A 
ATOM     58  N   UNL A   1      45.054  30.776  30.628  1.00  0.00    -0.354 N 
ATOM     59  N   UNL A   1      41.431  30.360  33.091  1.00  0.00    -0.248 NA
ATOM     60  C   UNL A   1      40.925  31.881  31.397  1.00  0.00     0.031 C 
ATOM     61  C   UNL A   1      45.713  28.782  31.229  1.00  0.00     0.029 A 
ATOM     62  C   UNL A   1      44.790  29.784  31.541  1.00  0.00     0.049 A 
ATOM     63  H   UNL A   1      44.909  31.741  30.760  1.00  0.00     0.167 HD
ATOM     64  C   UNL A   1      42.612  30.639  32.409  1.00  0.00     0.074 A 
ATOM     65  C   UNL A   1      42.243  31.648  31.416  1.00  0.00     0.031 C 
ATOM     66  C   UNL A   1      43.708  29.826  32.507  1.00  0.00     0.031 A 
BRANCH  53  67
ATOM     67  C   UNL A   1      45.148  31.997  27.711  1.00  0.00    -0.014 A 
ATOM     68  C   UNL A   1      46.425  32.493  27.404  1.00  0.00     0.010 A 
ATOM     69  C   UNL A   1      44.089  32.930  27.755  1.00  0.00     0.010 A 
ATOM     70  C   UNL A   1      46.638  33.864  27.214  1.00  0.00     0.020 A 
ATOM     71  C   UNL A   1      44.278  34.288  27.517  1.00  0.00     0.020 A 
ATOM     72  C   UNL A   1      45.563  34.751  27.285  1.00  0.00     0.054 A 
BRANCH  72  73
ATOM     73  S   UNL A   1      45.863  36.529  27.160  1.00  0.00     0.124 S 
ATOM     74  O   UNL A   1      44.503  37.055  27.079  1.00  0.00    -0.237 OA
ATOM     75  O   UNL A   1      46.579  36.808  28.401  1.00  0.00    -0.237 OA
ATOM     76  O   UNL A   1      46.659  36.658  25.942  1.00  0.00    -0.744 OA
ENDBRANCH  72  73
ENDBRANCH  53  67
BRANCH  54  77
ATOM     77  C   UNL A   1      37.859  30.903  32.165  1.00  0.00    -0.014 A 
ATOM     78  C   UNL A   1      37.346  31.433  33.363  1.00  0.00     0.010 A 
ATOM     79  C   UNL A   1      37.208  31.266  30.966  1.00  0.00     0.010 A 
ATOM     80  C   UNL A   1      36.247  32.317  33.353  1.00  0.00     0.020 A 
ATOM     81  C   UNL A   1      36.113  32.136  30.947  1.00  0.00     0.020 A 
ATOM     82  C   UNL A   1      35.646  32.673  32.142  1.00  0.00     0.054 A 
BRANCH  82  83
ATOM     83  S   UNL A   1      34.324  33.921  32.117  1.00  0.00     0.124 S 
ATOM     84  O   UNL A   1      33.371  33.385  33.084  1.00  0.00    -0.237 OA
ATOM     85  O   UNL A   1      35.025  35.135  32.525  1.00  0.00    -0.237 OA
ATOM     86  O   UNL A   1      33.868  33.912  30.728  1.00  0.00    -0.744 OA
ENDBRANCH  82  83
ENDBRANCH  54  77
BRANCH  66  87
ATOM     87  C   UNL A   1      43.699  28.719  33.542  1.00  0.00    -0.014 A 
ATOM     88  C   UNL A   1      43.879  28.942  34.923  1.00  0.00     0.010 A 
ATOM     89  C   UNL A   1      43.310  27.435  33.123  1.00  0.00     0.010 A 
ATOM     90  C   UNL A   1      43.698  27.903  35.851  1.00  0.00     0.020 A 
ATOM     91  C   UNL A   1      43.111  26.400  34.042  1.00  0.00     0.020 A 
ATOM     92  C   UNL A   1      43.314  26.636  35.402  1.00  0.00     0.054 A 
BRANCH  92  93
ATOM     93  S   UNL A   1      43.032  25.307  36.607  1.00  0.00     0.124 S 
ATOM     94  O   UNL A   1      44.385  24.993  37.055  1.00  0.00    -0.237 OA
ATOM     95  O   UNL A   1      42.171  25.944  37.601  1.00  0.00    -0.237 OA
ATOM     96  O   UNL A   1      42.382  24.257  35.822  1.00  0.00    -0.744 OA
ENDBRANCH  92  93
ENDBRANCH  66  87
ENDBRANCH  40  41
ENDBRANCH  33  35
ENDBRANCH  32  33
ENDBRANCH  31  32
ENDBRANCH  30  31
ENDBRANCH  29  30
ENDBRANCH   1  29
TORSDOF 23
ENDMDL
