MODEL 1
REMARK VINA RESULT:      -8.9      0.000      0.000
REMARK SMILES CC1=C(CC(=O)OCCOCCOCCOC(=O)c2ccc(-c3c4nc(c(-c5ccc(S(=O)(=O)[O-])cc5)c5ccc([nH]5)c(-c5ccc(S(=O)(=O)[O-])cc5)c5nc(c(-c6ccc(S(=O)(=O)[O-])cc6)c6ccc3[nH]6)C=C5)C=C4)cc2)c2cc(F)ccc2/C1=C\c1cccc(OCc2ccccc2)c1
REMARK SMILES IDX 11 1 10 2 9 3 8 4 7 5 5 6 6 7 4 8 3 9 1 10 2 11 86 12 79 13
REMARK SMILES IDX 85 14 87 15 80 16 84 17 81 18 83 19 82 20 88 21 89 22 101 23
REMARK SMILES IDX 90 24 92 25 91 26 93 27 94 28 95 29 96 30 100 31 97 32 99 33
REMARK SMILES IDX 98 34 12 35 13 36 14 37 15 38 16 39 17 40 18 41 19 42 20 43
REMARK SMILES IDX 78 44 21 45 77 46 22 47 23 48 24 49 71 50 25 51 76 52 70 53
REMARK SMILES IDX 72 54 26 55 75 56 69 57 68 58 27 60 57 61 38 62 56 63 39 64
REMARK SMILES IDX 42 65 55 66 73 67 40 68 41 69 54 71 74 72 43 73 28 74 29 75
REMARK SMILES IDX 37 76 30 77 36 78 31 79 32 80 33 81 34 82 35 83 58 84 59 85
REMARK SMILES IDX 67 86 60 87 66 88 61 89 62 90 63 91 64 92 65 93 44 94 45 95
REMARK SMILES IDX 53 96 46 97 52 98 47 99 48 100 49 101 50 102 51 103
REMARK H PARENT 72 59 42 70
REMARK Flexibility Score: inf
ROOT
ATOM      1  C   UNL A   1      46.221  21.490  24.243  1.00  0.00     0.188 C 
ENDROOT
BRANCH   1   2
ATOM      2  O   UNL A   1      46.573  20.287  24.926  1.00  0.00    -0.376 OA
BRANCH   2   3
ATOM      3  C   UNL A   1      45.513  19.420  25.322  1.00  0.00     0.202 C 
BRANCH   3   4
ATOM      4  C   UNL A   1      44.130  19.841  24.821  1.00  0.00     0.261 C 
BRANCH   4   5
ATOM      5  O   UNL A   1      43.366  20.451  25.881  1.00  0.00    -0.463 OA
BRANCH   5   6
ATOM      6  C   UNL A   1      42.166  19.876  26.149  1.00  0.00     0.310 C 
ATOM      7  O   UNL A   1      41.653  19.006  25.454  1.00  0.00    -0.252 OA
BRANCH   6   8
ATOM      8  C   UNL A   1      41.581  20.317  27.491  1.00  0.00     0.159 C 
BRANCH   8   9
ATOM      9  C   UNL A   1      41.145  21.744  27.653  1.00  0.00    -0.025 C 
ATOM     10  C   UNL A   1      43.095  22.717  28.958  1.00  0.00     0.045 C 
ATOM     11  C   UNL A   1      41.761  22.767  28.292  1.00  0.00    -0.039 C 
ATOM     12  C   UNL A   1      40.970  24.003  28.144  1.00  0.00    -0.014 C 
ATOM     13  C   UNL A   1      39.949  22.306  26.992  1.00  0.00    -0.011 A 
ATOM     14  C   UNL A   1      39.771  23.649  27.366  1.00  0.00    -0.010 A 
ATOM     15  C   UNL A   1      41.348  25.230  28.548  1.00  0.00     0.017 C 
ATOM     16  C   UNL A   1      39.080  21.729  26.080  1.00  0.00     0.048 A 
ATOM     17  C   UNL A   1      38.651  24.369  26.962  1.00  0.00     0.012 A 
ATOM     18  C   UNL A   1      38.002  22.487  25.615  1.00  0.00     0.123 A 
ATOM     19  C   UNL A   1      37.754  23.775  26.082  1.00  0.00     0.040 A 
ATOM     20  F   UNL A   1      37.166  21.953  24.718  1.00  0.00    -0.207 F 
BRANCH  15  21
ATOM     21  C   UNL A   1      40.635  26.482  28.253  1.00  0.00    -0.021 A 
ATOM     22  C   UNL A   1      40.882  27.172  27.065  1.00  0.00     0.008 A 
ATOM     23  C   UNL A   1      39.754  27.026  29.204  1.00  0.00     0.054 A 
ATOM     24  C   UNL A   1      40.274  28.407  26.840  1.00  0.00     0.004 A 
ATOM     25  C   UNL A   1      39.119  28.248  28.970  1.00  0.00     0.120 A 
ATOM     26  C   UNL A   1      39.400  28.941  27.790  1.00  0.00     0.046 A 
BRANCH  25  27
ATOM     27  O   UNL A   1      38.227  28.875  29.796  1.00  0.00    -0.489 OA
BRANCH  27  28
ATOM     28  C   UNL A   1      38.699  29.897  30.681  1.00  0.00     0.265 C 
BRANCH  28  29
ATOM     29  C   UNL A   1      38.023  31.229  30.443  1.00  0.00    -0.011 A 
ATOM     30  C   UNL A   1      38.601  32.178  29.589  1.00  0.00     0.007 A 
ATOM     31  C   UNL A   1      36.794  31.523  31.051  1.00  0.00     0.007 A 
ATOM     32  C   UNL A   1      37.946  33.381  29.322  1.00  0.00     0.000 A 
ATOM     33  C   UNL A   1      36.134  32.719  30.772  1.00  0.00     0.000 A 
ATOM     34  C   UNL A   1      36.709  33.646  29.904  1.00  0.00     0.000 A 
ENDBRANCH  28  29
ENDBRANCH  27  28
ENDBRANCH  25  27
ENDBRANCH  15  21
ENDBRANCH   8   9
ENDBRANCH   6   8
ENDBRANCH   5   6
ENDBRANCH   4   5
ENDBRANCH   3   4
ENDBRANCH   2   3
ENDBRANCH   1   2
BRANCH   1  35
ATOM     35  C   UNL A   1      46.262  22.802  25.041  1.00  0.00     0.188 C 
BRANCH  35  36
ATOM     36  O   UNL A   1      46.783  23.876  24.261  1.00  0.00    -0.376 OA
BRANCH  36  37
ATOM     37  C   UNL A   1      47.366  24.913  25.040  1.00  0.00     0.202 C 
BRANCH  37  38
ATOM     38  C   UNL A   1      46.605  26.222  24.828  1.00  0.00     0.261 C 
BRANCH  38  39
ATOM     39  O   UNL A   1      45.174  26.058  24.808  1.00  0.00    -0.460 OA
BRANCH  39  40
ATOM     40  C   UNL A   1      44.585  25.888  26.012  1.00  0.00     0.338 C 
ATOM     41  O   UNL A   1      44.246  24.837  26.523  1.00  0.00    -0.246 OA
BRANCH  40  42
ATOM     42  C   UNL A   1      44.514  27.205  26.671  1.00  0.00     0.060 A 
ATOM     43  C   UNL A   1      45.122  27.423  27.903  1.00  0.00     0.016 A 
ATOM     44  C   UNL A   1      43.872  28.252  26.013  1.00  0.00     0.016 A 
ATOM     45  C   UNL A   1      45.091  28.707  28.462  1.00  0.00     0.010 A 
ATOM     46  C   UNL A   1      43.886  29.543  26.542  1.00  0.00     0.010 A 
ATOM     47  C   UNL A   1      44.495  29.786  27.776  1.00  0.00    -0.014 A 
BRANCH  47  48
ATOM     48  C   UNL A   1      44.586  31.169  28.318  1.00  0.00     0.031 A 
ATOM     49  C   UNL A   1      43.590  31.693  29.316  1.00  0.00     0.074 A 
ATOM     50  C   UNL A   1      45.581  31.970  27.886  1.00  0.00     0.049 A 
ATOM     51  N   UNL A   1      43.627  32.812  29.995  1.00  0.00    -0.248 NA
ATOM     52  C   UNL A   1      42.392  30.879  29.572  1.00  0.00     0.031 C 
ATOM     53  C   UNL A   1      46.548  31.617  26.843  1.00  0.00     0.029 A 
ATOM     54  N   UNL A   1      45.961  33.231  28.278  1.00  0.00    -0.354 N 
ATOM     55  C   UNL A   1      42.476  32.825  30.774  1.00  0.00     0.074 A 
ATOM     56  C   UNL A   1      41.723  31.640  30.430  1.00  0.00     0.031 C 
ATOM     57  C   UNL A   1      47.448  32.603  26.727  1.00  0.00     0.029 A 
ATOM     58  C   UNL A   1      47.116  33.668  27.672  1.00  0.00     0.049 A 
ATOM     59  H   UNL A   1      45.456  33.769  28.929  1.00  0.00     0.167 HD
ATOM     60  C   UNL A   1      42.101  33.726  31.714  1.00  0.00     0.031 A 
ATOM     61  C   UNL A   1      47.853  34.780  27.873  1.00  0.00     0.031 A 
ATOM     62  C   UNL A   1      42.863  34.900  32.051  1.00  0.00     0.049 A 
ATOM     63  C   UNL A   1      47.443  35.749  28.947  1.00  0.00     0.074 A 
ATOM     64  C   UNL A   1      42.602  35.834  33.039  1.00  0.00     0.029 A 
ATOM     65  N   UNL A   1      44.028  35.302  31.417  1.00  0.00    -0.354 N 
ATOM     66  N   UNL A   1      46.414  35.685  29.756  1.00  0.00    -0.248 NA
ATOM     67  C   UNL A   1      48.302  36.923  29.155  1.00  0.00     0.031 C 
ATOM     68  C   UNL A   1      43.579  36.829  32.966  1.00  0.00     0.029 A 
ATOM     69  C   UNL A   1      44.486  36.483  31.978  1.00  0.00     0.049 A 
ATOM     70  H   UNL A   1      44.465  34.821  30.678  1.00  0.00     0.167 HD
ATOM     71  C   UNL A   1      46.510  36.799  30.583  1.00  0.00     0.074 A 
ATOM     72  C   UNL A   1      47.706  37.513  30.185  1.00  0.00     0.031 C 
ATOM     73  C   UNL A   1      45.680  37.188  31.581  1.00  0.00     0.031 A 
BRANCH  60  74
ATOM     74  C   UNL A   1      40.837  33.464  32.495  1.00  0.00    -0.014 A 
ATOM     75  C   UNL A   1      39.755  34.359  32.416  1.00  0.00     0.010 A 
ATOM     76  C   UNL A   1      40.776  32.400  33.413  1.00  0.00     0.010 A 
ATOM     77  C   UNL A   1      38.647  34.211  33.258  1.00  0.00     0.020 A 
ATOM     78  C   UNL A   1      39.659  32.232  34.236  1.00  0.00     0.020 A 
ATOM     79  C   UNL A   1      38.612  33.153  34.169  1.00  0.00     0.054 A 
BRANCH  79  80
ATOM     80  S   UNL A   1      37.180  32.987  35.272  1.00  0.00     0.124 S 
ATOM     81  O   UNL A   1      37.226  34.235  36.028  1.00  0.00    -0.237 OA
ATOM     82  O   UNL A   1      36.067  32.856  34.335  1.00  0.00    -0.237 OA
ATOM     83  O   UNL A   1      37.479  31.779  36.040  1.00  0.00    -0.744 OA
ENDBRANCH  79  80
ENDBRANCH  60  74
BRANCH  61  84
ATOM     84  C   UNL A   1      49.110  34.959  27.096  1.00  0.00    -0.014 A 
ATOM     85  C   UNL A   1      49.077  35.482  25.791  1.00  0.00     0.010 A 
ATOM     86  C   UNL A   1      50.334  34.505  27.619  1.00  0.00     0.010 A 
ATOM     87  C   UNL A   1      50.231  35.496  25.002  1.00  0.00     0.020 A 
ATOM     88  C   UNL A   1      51.496  34.541  26.843  1.00  0.00     0.020 A 
ATOM     89  C   UNL A   1      51.430  35.008  25.528  1.00  0.00     0.054 A 
BRANCH  89  90
ATOM     90  S   UNL A   1      52.902  34.972  24.467  1.00  0.00     0.124 S 
ATOM     91  O   UNL A   1      52.403  34.267  23.290  1.00  0.00    -0.237 OA
ATOM     92  O   UNL A   1      53.192  36.391  24.275  1.00  0.00    -0.237 OA
ATOM     93  O   UNL A   1      53.882  34.242  25.266  1.00  0.00    -0.744 OA
ENDBRANCH  89  90
ENDBRANCH  61  84
BRANCH  73  94
ATOM     94  C   UNL A   1      46.006  38.446  32.338  1.00  0.00    -0.014 A 
ATOM     95  C   UNL A   1      45.577  39.691  31.837  1.00  0.00     0.010 A 
ATOM     96  C   UNL A   1      46.877  38.414  33.441  1.00  0.00     0.010 A 
ATOM     97  C   UNL A   1      46.052  40.881  32.393  1.00  0.00     0.020 A 
ATOM     98  C   UNL A   1      47.335  39.604  34.016  1.00  0.00     0.020 A 
ATOM     99  C   UNL A   1      46.943  40.828  33.469  1.00  0.00     0.054 A 
BRANCH  99 100
ATOM    100  S   UNL A   1      47.606  42.381  34.132  1.00  0.00     0.124 S 
ATOM    101  O   UNL A   1      47.237  42.297  35.542  1.00  0.00    -0.237 OA
ATOM    102  O   UNL A   1      49.035  42.271  33.848  1.00  0.00    -0.237 OA
ATOM    103  O   UNL A   1      46.905  43.408  33.363  1.00  0.00    -0.744 OA
ENDBRANCH  99 100
ENDBRANCH  73  94
ENDBRANCH  47  48
ENDBRANCH  40  42
ENDBRANCH  39  40
ENDBRANCH  38  39
ENDBRANCH  37  38
ENDBRANCH  36  37
ENDBRANCH  35  36
ENDBRANCH   1  35
TORSDOF 25
ENDMDL
MODEL 2
REMARK VINA RESULT:      -7.8      6.763     10.037
REMARK SMILES CC1=C(CC(=O)OCCOCCOCCOC(=O)c2ccc(-c3c4nc(c(-c5ccc(S(=O)(=O)[O-])cc5)c5ccc([nH]5)c(-c5ccc(S(=O)(=O)[O-])cc5)c5nc(c(-c6ccc(S(=O)(=O)[O-])cc6)c6ccc3[nH]6)C=C5)C=C4)cc2)c2cc(F)ccc2/C1=C\c1cccc(OCc2ccccc2)c1
REMARK SMILES IDX 11 1 10 2 9 3 8 4 7 5 5 6 6 7 4 8 3 9 1 10 2 11 86 12 79 13
REMARK SMILES IDX 85 14 87 15 80 16 84 17 81 18 83 19 82 20 88 21 89 22 101 23
REMARK SMILES IDX 90 24 92 25 91 26 93 27 94 28 95 29 96 30 100 31 97 32 99 33
REMARK SMILES IDX 98 34 12 35 13 36 14 37 15 38 16 39 17 40 18 41 19 42 20 43
REMARK SMILES IDX 78 44 21 45 77 46 22 47 23 48 24 49 71 50 25 51 76 52 70 53
REMARK SMILES IDX 72 54 26 55 75 56 69 57 68 58 27 60 57 61 38 62 56 63 39 64
REMARK SMILES IDX 42 65 55 66 73 67 40 68 41 69 54 71 74 72 43 73 28 74 29 75
REMARK SMILES IDX 37 76 30 77 36 78 31 79 32 80 33 81 34 82 35 83 58 84 59 85
REMARK SMILES IDX 67 86 60 87 66 88 61 89 62 90 63 91 64 92 65 93 44 94 45 95
REMARK SMILES IDX 53 96 46 97 52 98 47 99 48 100 49 101 50 102 51 103
REMARK H PARENT 72 59 42 70
REMARK Flexibility Score: inf
ROOT
ATOM      1  C   UNL A   1      37.851  21.770  25.069  1.00  0.00     0.188 C 
ENDROOT
BRANCH   1   2
ATOM      2  O   UNL A   1      37.251  20.477  25.010  1.00  0.00    -0.376 OA
BRANCH   2   3
ATOM      3  C   UNL A   1      35.933  20.338  25.532  1.00  0.00     0.202 C 
BRANCH   3   4
ATOM      4  C   UNL A   1      34.824  20.401  24.479  1.00  0.00     0.261 C 
BRANCH   4   5
ATOM      5  O   UNL A   1      33.551  20.043  25.055  1.00  0.00    -0.463 OA
BRANCH   5   6
ATOM      6  C   UNL A   1      32.510  20.849  24.729  1.00  0.00     0.310 C 
ATOM      7  O   UNL A   1      31.397  20.770  25.236  1.00  0.00    -0.252 OA
BRANCH   6   8
ATOM      8  C   UNL A   1      32.904  21.970  23.766  1.00  0.00     0.159 C 
BRANCH   8   9
ATOM      9  C   UNL A   1      32.831  23.390  24.246  1.00  0.00    -0.025 C 
ATOM     10  C   UNL A   1      33.230  23.097  26.737  1.00  0.00     0.045 C 
ATOM     11  C   UNL A   1      32.941  23.883  25.503  1.00  0.00    -0.039 C 
ATOM     12  C   UNL A   1      32.847  25.355  25.476  1.00  0.00    -0.014 C 
ATOM     13  C   UNL A   1      32.734  24.549  23.334  1.00  0.00    -0.011 A 
ATOM     14  C   UNL A   1      32.636  25.743  24.072  1.00  0.00    -0.010 A 
ATOM     15  C   UNL A   1      33.038  26.173  26.528  1.00  0.00     0.017 C 
ATOM     16  C   UNL A   1      32.777  24.602  21.951  1.00  0.00     0.048 A 
ATOM     17  C   UNL A   1      32.425  26.964  23.442  1.00  0.00     0.012 A 
ATOM     18  C   UNL A   1      32.646  25.845  21.327  1.00  0.00     0.123 A 
ATOM     19  C   UNL A   1      32.423  27.012  22.053  1.00  0.00     0.040 A 
ATOM     20  F   UNL A   1      32.707  25.917  19.992  1.00  0.00    -0.207 F 
BRANCH  15  21
ATOM     21  C   UNL A   1      33.106  27.640  26.466  1.00  0.00    -0.021 A 
ATOM     22  C   UNL A   1      34.337  28.294  26.562  1.00  0.00     0.008 A 
ATOM     23  C   UNL A   1      31.923  28.393  26.384  1.00  0.00     0.054 A 
ATOM     24  C   UNL A   1      34.381  29.688  26.601  1.00  0.00     0.004 A 
ATOM     25  C   UNL A   1      31.964  29.789  26.392  1.00  0.00     0.120 A 
ATOM     26  C   UNL A   1      33.201  30.428  26.519  1.00  0.00     0.046 A 
BRANCH  25  27
ATOM     27  O   UNL A   1      30.895  30.639  26.295  1.00  0.00    -0.489 OA
BRANCH  27  28
ATOM     28  C   UNL A   1      30.734  31.420  25.106  1.00  0.00     0.265 C 
BRANCH  28  29
ATOM     29  C   UNL A   1      29.760  30.797  24.132  1.00  0.00    -0.011 A 
ATOM     30  C   UNL A   1      28.534  31.419  23.855  1.00  0.00     0.007 A 
ATOM     31  C   UNL A   1      30.079  29.603  23.470  1.00  0.00     0.007 A 
ATOM     32  C   UNL A   1      27.662  30.875  22.911  1.00  0.00     0.000 A 
ATOM     33  C   UNL A   1      29.214  29.069  22.515  1.00  0.00     0.000 A 
ATOM     34  C   UNL A   1      28.007  29.708  22.234  1.00  0.00     0.000 A 
ENDBRANCH  28  29
ENDBRANCH  27  28
ENDBRANCH  25  27
ENDBRANCH  15  21
ENDBRANCH   8   9
ENDBRANCH   6   8
ENDBRANCH   5   6
ENDBRANCH   4   5
ENDBRANCH   3   4
ENDBRANCH   2   3
ENDBRANCH   1   2
BRANCH   1  35
ATOM     35  C   UNL A   1      36.919  22.986  25.181  1.00  0.00     0.188 C 
BRANCH  35  36
ATOM     36  O   UNL A   1      37.594  24.119  25.724  1.00  0.00    -0.376 OA
BRANCH  36  37
ATOM     37  C   UNL A   1      38.949  23.862  26.067  1.00  0.00     0.202 C 
BRANCH  37  38
ATOM     38  C   UNL A   1      39.699  25.179  26.269  1.00  0.00     0.261 C 
BRANCH  38  39
ATOM     39  O   UNL A   1      41.098  25.101  25.939  1.00  0.00    -0.460 OA
BRANCH  39  40
ATOM     40  C   UNL A   1      41.938  24.902  26.978  1.00  0.00     0.338 C 
ATOM     41  O   UNL A   1      42.881  24.135  27.024  1.00  0.00    -0.246 OA
BRANCH  40  42
ATOM     42  C   UNL A   1      41.586  25.866  28.036  1.00  0.00     0.060 A 
ATOM     43  C   UNL A   1      40.402  25.740  28.756  1.00  0.00     0.016 A 
ATOM     44  C   UNL A   1      42.487  26.883  28.346  1.00  0.00     0.016 A 
ATOM     45  C   UNL A   1      40.138  26.637  29.799  1.00  0.00     0.010 A 
ATOM     46  C   UNL A   1      42.252  27.743  29.419  1.00  0.00     0.010 A 
ATOM     47  C   UNL A   1      41.071  27.631  30.158  1.00  0.00    -0.014 A 
BRANCH  47  48
ATOM     48  C   UNL A   1      40.840  28.489  31.352  1.00  0.00     0.031 A 
ATOM     49  C   UNL A   1      41.675  28.352  32.596  1.00  0.00     0.074 A 
ATOM     50  C   UNL A   1      39.844  29.397  31.315  1.00  0.00     0.049 A 
ATOM     51  N   UNL A   1      41.700  29.126  33.651  1.00  0.00    -0.248 NA
ATOM     52  C   UNL A   1      42.579  27.194  32.683  1.00  0.00     0.031 C 
ATOM     53  C   UNL A   1      38.897  29.556  30.209  1.00  0.00     0.029 A 
ATOM     54  N   UNL A   1      39.474  30.369  32.212  1.00  0.00    -0.354 N 
ATOM     55  C   UNL A   1      42.635  28.566  34.515  1.00  0.00     0.074 A 
ATOM     56  C   UNL A   1      43.102  27.347  33.894  1.00  0.00     0.031 C 
ATOM     57  C   UNL A   1      38.101  30.606  30.460  1.00  0.00     0.029 A 
ATOM     58  C   UNL A   1      38.467  31.186  31.751  1.00  0.00     0.049 A 
ATOM     59  H   UNL A   1      39.889  30.472  33.099  1.00  0.00     0.167 HD
ATOM     60  C   UNL A   1      43.086  29.046  35.699  1.00  0.00     0.031 A 
ATOM     61  C   UNL A   1      37.919  32.299  32.282  1.00  0.00     0.031 A 
ATOM     62  C   UNL A   1      42.616  30.266  36.303  1.00  0.00     0.049 A 
ATOM     63  C   UNL A   1      38.459  32.838  33.577  1.00  0.00     0.074 A 
ATOM     64  C   UNL A   1      43.063  30.871  37.466  1.00  0.00     0.029 A 
ATOM     65  N   UNL A   1      41.599  31.063  35.802  1.00  0.00    -0.354 N 
ATOM     66  N   UNL A   1      39.426  32.360  34.322  1.00  0.00    -0.248 NA
ATOM     67  C   UNL A   1      37.856  34.076  34.092  1.00  0.00     0.031 C 
ATOM     68  C   UNL A   1      42.280  32.005  37.694  1.00  0.00     0.029 A 
ATOM     69  C   UNL A   1      41.390  32.144  36.642  1.00  0.00     0.049 A 
ATOM     70  H   UNL A   1      41.100  30.887  34.971  1.00  0.00     0.167 HD
ATOM     71  C   UNL A   1      39.562  33.248  35.383  1.00  0.00     0.074 A 
ATOM     72  C   UNL A   1      38.587  34.299  35.178  1.00  0.00     0.031 C 
ATOM     73  C   UNL A   1      40.421  33.191  36.430  1.00  0.00     0.031 A 
BRANCH  60  74
ATOM     74  C   UNL A   1      44.183  28.292  36.408  1.00  0.00    -0.014 A 
ATOM     75  C   UNL A   1      43.865  27.289  37.343  1.00  0.00     0.010 A 
ATOM     76  C   UNL A   1      45.527  28.671  36.245  1.00  0.00     0.010 A 
ATOM     77  C   UNL A   1      44.869  26.700  38.121  1.00  0.00     0.020 A 
ATOM     78  C   UNL A   1      46.536  28.065  36.999  1.00  0.00     0.020 A 
ATOM     79  C   UNL A   1      46.196  27.100  37.949  1.00  0.00     0.054 A 
BRANCH  79  80
ATOM     80  S   UNL A   1      47.484  26.344  38.982  1.00  0.00     0.124 S 
ATOM     81  O   UNL A   1      48.505  27.386  39.014  1.00  0.00    -0.237 OA
ATOM     82  O   UNL A   1      46.784  26.105  40.242  1.00  0.00    -0.237 OA
ATOM     83  O   UNL A   1      47.847  25.135  38.245  1.00  0.00    -0.744 OA
ENDBRANCH  79  80
ENDBRANCH  60  74
BRANCH  61  84
ATOM     84  C   UNL A   1      36.867  33.018  31.512  1.00  0.00    -0.014 A 
ATOM     85  C   UNL A   1      35.509  32.881  31.854  1.00  0.00     0.010 A 
ATOM     86  C   UNL A   1      37.211  33.756  30.365  1.00  0.00     0.010 A 
ATOM     87  C   UNL A   1      34.513  33.420  31.036  1.00  0.00     0.020 A 
ATOM     88  C   UNL A   1      36.219  34.319  29.558  1.00  0.00     0.020 A 
ATOM     89  C   UNL A   1      34.875  34.121  29.882  1.00  0.00     0.054 A 
BRANCH  89  90
ATOM     90  S   UNL A   1      33.566  34.755  28.796  1.00  0.00     0.124 S 
ATOM     91  O   UNL A   1      33.390  33.647  27.862  1.00  0.00    -0.237 OA
ATOM     92  O   UNL A   1      32.460  34.978  29.724  1.00  0.00    -0.237 OA
ATOM     93  O   UNL A   1      34.151  35.966  28.227  1.00  0.00    -0.744 OA
ENDBRANCH  89  90
ENDBRANCH  61  84
BRANCH  73  94
ATOM     94  C   UNL A   1      40.372  34.286  37.460  1.00  0.00    -0.014 A 
ATOM     95  C   UNL A   1      39.897  34.003  38.755  1.00  0.00     0.010 A 
ATOM     96  C   UNL A   1      40.629  35.621  37.101  1.00  0.00     0.010 A 
ATOM     97  C   UNL A   1      39.632  35.037  39.655  1.00  0.00     0.020 A 
ATOM     98  C   UNL A   1      40.388  36.657  38.008  1.00  0.00     0.020 A 
ATOM     99  C   UNL A   1      39.863  36.360  39.268  1.00  0.00     0.054 A 
BRANCH  99 100
ATOM    100  S   UNL A   1      39.445  37.695  40.423  1.00  0.00     0.124 S 
ATOM    101  O   UNL A   1      38.629  38.577  39.594  1.00  0.00    -0.237 OA
ATOM    102  O   UNL A   1      38.730  36.992  41.486  1.00  0.00    -0.237 OA
ATOM    103  O   UNL A   1      40.748  38.232  40.811  1.00  0.00    -0.744 OA
ENDBRANCH  99 100
ENDBRANCH  73  94
ENDBRANCH  47  48
ENDBRANCH  40  42
ENDBRANCH  39  40
ENDBRANCH  38  39
ENDBRANCH  37  38
ENDBRANCH  36  37
ENDBRANCH  35  36
ENDBRANCH   1  35
TORSDOF 25
ENDMDL
MODEL 3
REMARK VINA RESULT:      -7.5      5.229     14.095
REMARK SMILES CC1=C(CC(=O)OCCOCCOCCOC(=O)c2ccc(-c3c4nc(c(-c5ccc(S(=O)(=O)[O-])cc5)c5ccc([nH]5)c(-c5ccc(S(=O)(=O)[O-])cc5)c5nc(c(-c6ccc(S(=O)(=O)[O-])cc6)c6ccc3[nH]6)C=C5)C=C4)cc2)c2cc(F)ccc2/C1=C\c1cccc(OCc2ccccc2)c1
REMARK SMILES IDX 11 1 10 2 9 3 8 4 7 5 5 6 6 7 4 8 3 9 1 10 2 11 86 12 79 13
REMARK SMILES IDX 85 14 87 15 80 16 84 17 81 18 83 19 82 20 88 21 89 22 101 23
REMARK SMILES IDX 90 24 92 25 91 26 93 27 94 28 95 29 96 30 100 31 97 32 99 33
REMARK SMILES IDX 98 34 12 35 13 36 14 37 15 38 16 39 17 40 18 41 19 42 20 43
REMARK SMILES IDX 78 44 21 45 77 46 22 47 23 48 24 49 71 50 25 51 76 52 70 53
REMARK SMILES IDX 72 54 26 55 75 56 69 57 68 58 27 60 57 61 38 62 56 63 39 64
REMARK SMILES IDX 42 65 55 66 73 67 40 68 41 69 54 71 74 72 43 73 28 74 29 75
REMARK SMILES IDX 37 76 30 77 36 78 31 79 32 80 33 81 34 82 35 83 58 84 59 85
REMARK SMILES IDX 67 86 60 87 66 88 61 89 62 90 63 91 64 92 65 93 44 94 45 95
REMARK SMILES IDX 53 96 46 97 52 98 47 99 48 100 49 101 50 102 51 103
REMARK H PARENT 72 59 42 70
REMARK Flexibility Score: inf
ROOT
ATOM      1  C   UNL A   1      49.924  38.626  33.157  1.00  0.00     0.188 C 
ENDROOT
BRANCH   1   2
ATOM      2  O   UNL A   1      48.666  39.185  33.534  1.00  0.00    -0.376 OA
BRANCH   2   3
ATOM      3  C   UNL A   1      48.537  39.679  34.863  1.00  0.00     0.202 C 
BRANCH   3   4
ATOM      4  C   UNL A   1      47.202  40.366  35.157  1.00  0.00     0.261 C 
BRANCH   4   5
ATOM      5  O   UNL A   1      46.116  39.674  34.506  1.00  0.00    -0.463 OA
BRANCH   5   6
ATOM      6  C   UNL A   1      44.935  39.670  35.175  1.00  0.00     0.310 C 
ATOM      7  O   UNL A   1      44.761  40.213  36.261  1.00  0.00    -0.252 OA
BRANCH   6   8
ATOM      8  C   UNL A   1      43.796  39.044  34.370  1.00  0.00     0.159 C 
BRANCH   8   9
ATOM      9  C   UNL A   1      43.651  39.413  32.922  1.00  0.00    -0.025 C 
ATOM     10  C   UNL A   1      44.103  37.184  31.791  1.00  0.00     0.045 C 
ATOM     11  C   UNL A   1      43.803  38.644  31.817  1.00  0.00    -0.039 C 
ATOM     12  C   UNL A   1      43.512  39.439  30.608  1.00  0.00    -0.014 C 
ATOM     13  C   UNL A   1      43.177  40.736  32.467  1.00  0.00    -0.011 A 
ATOM     14  C   UNL A   1      43.188  40.801  31.062  1.00  0.00    -0.010 A 
ATOM     15  C   UNL A   1      43.446  38.960  29.352  1.00  0.00     0.017 C 
ATOM     16  C   UNL A   1      42.710  41.816  33.197  1.00  0.00     0.048 A 
ATOM     17  C   UNL A   1      42.888  41.982  30.392  1.00  0.00     0.012 A 
ATOM     18  C   UNL A   1      42.332  42.973  32.510  1.00  0.00     0.123 A 
ATOM     19  C   UNL A   1      42.462  43.082  31.129  1.00  0.00     0.040 A 
ATOM     20  F   UNL A   1      41.858  44.018  33.199  1.00  0.00    -0.207 F 
BRANCH  15  21
ATOM     21  C   UNL A   1      42.997  39.717  28.174  1.00  0.00    -0.021 A 
ATOM     22  C   UNL A   1      41.652  39.700  27.796  1.00  0.00     0.008 A 
ATOM     23  C   UNL A   1      43.935  40.400  27.381  1.00  0.00     0.054 A 
ATOM     24  C   UNL A   1      41.254  40.340  26.622  1.00  0.00     0.004 A 
ATOM     25  C   UNL A   1      43.535  41.068  26.221  1.00  0.00     0.120 A 
ATOM     26  C   UNL A   1      42.192  41.017  25.840  1.00  0.00     0.046 A 
BRANCH  25  27
ATOM     27  O   UNL A   1      44.337  41.787  25.377  1.00  0.00    -0.489 OA
BRANCH  27  28
ATOM     28  C   UNL A   1      43.870  43.047  24.881  1.00  0.00     0.265 C 
BRANCH  28  29
ATOM     29  C   UNL A   1      43.552  43.006  23.403  1.00  0.00    -0.011 A 
ATOM     30  C   UNL A   1      44.572  42.823  22.460  1.00  0.00     0.007 A 
ATOM     31  C   UNL A   1      42.228  43.123  22.956  1.00  0.00     0.007 A 
ATOM     32  C   UNL A   1      44.271  42.725  21.101  1.00  0.00     0.000 A 
ATOM     33  C   UNL A   1      41.926  43.010  21.599  1.00  0.00     0.000 A 
ATOM     34  C   UNL A   1      42.947  42.807  20.673  1.00  0.00     0.000 A 
ENDBRANCH  28  29
ENDBRANCH  27  28
ENDBRANCH  25  27
ENDBRANCH  15  21
ENDBRANCH   8   9
ENDBRANCH   6   8
ENDBRANCH   5   6
ENDBRANCH   4   5
ENDBRANCH   3   4
ENDBRANCH   2   3
ENDBRANCH   1   2
BRANCH   1  35
ATOM     35  C   UNL A   1      50.120  38.235  31.684  1.00  0.00     0.188 C 
BRANCH  35  36
ATOM     36  O   UNL A   1      48.873  38.040  31.021  1.00  0.00    -0.376 OA
BRANCH  36  37
ATOM     37  C   UNL A   1      48.570  39.053  30.071  1.00  0.00     0.202 C 
BRANCH  37  38
ATOM     38  C   UNL A   1      48.591  38.471  28.657  1.00  0.00     0.261 C 
BRANCH  38  39
ATOM     39  O   UNL A   1      48.198  37.087  28.599  1.00  0.00    -0.460 OA
BRANCH  39  40
ATOM     40  C   UNL A   1      47.187  36.797  27.752  1.00  0.00     0.338 C 
ATOM     41  O   UNL A   1      46.594  37.570  27.023  1.00  0.00    -0.246 OA
BRANCH  40  42
ATOM     42  C   UNL A   1      46.983  35.337  27.774  1.00  0.00     0.060 A 
ATOM     43  C   UNL A   1      47.244  34.594  28.921  1.00  0.00     0.016 A 
ATOM     44  C   UNL A   1      46.469  34.713  26.639  1.00  0.00     0.016 A 
ATOM     45  C   UNL A   1      46.971  33.220  28.921  1.00  0.00     0.010 A 
ATOM     46  C   UNL A   1      46.145  33.356  26.654  1.00  0.00     0.010 A 
ATOM     47  C   UNL A   1      46.396  32.591  27.797  1.00  0.00    -0.014 A 
BRANCH  47  48
ATOM     48  C   UNL A   1      45.987  31.162  27.858  1.00  0.00     0.031 A 
ATOM     49  C   UNL A   1      44.626  30.750  28.350  1.00  0.00     0.074 A 
ATOM     50  C   UNL A   1      46.870  30.218  27.475  1.00  0.00     0.049 A 
ATOM     51  N   UNL A   1      44.068  29.567  28.313  1.00  0.00    -0.248 NA
ATOM     52  C   UNL A   1      43.791  31.784  28.983  1.00  0.00     0.031 C 
ATOM     53  C   UNL A   1      48.255  30.480  27.078  1.00  0.00     0.029 A 
ATOM     54  N   UNL A   1      46.735  28.858  27.334  1.00  0.00    -0.354 N 
ATOM     55  C   UNL A   1      42.814  29.716  28.893  1.00  0.00     0.074 A 
ATOM     56  C   UNL A   1      42.719  31.088  29.341  1.00  0.00     0.031 C 
ATOM     57  C   UNL A   1      48.820  29.333  26.673  1.00  0.00     0.029 A 
ATOM     58  C   UNL A   1      47.847  28.250  26.798  1.00  0.00     0.049 A 
ATOM     59  H   UNL A   1      45.922  28.367  27.592  1.00  0.00     0.167 HD
ATOM     60  C   UNL A   1      41.821  28.802  29.008  1.00  0.00     0.031 A 
ATOM     61  C   UNL A   1      48.056  26.974  26.411  1.00  0.00     0.031 A 
ATOM     62  C   UNL A   1      41.926  27.440  28.553  1.00  0.00     0.049 A 
ATOM     63  C   UNL A   1      46.930  25.982  26.510  1.00  0.00     0.074 A 
ATOM     64  C   UNL A   1      40.950  26.457  28.561  1.00  0.00     0.029 A 
ATOM     65  N   UNL A   1      43.067  26.867  28.012  1.00  0.00    -0.354 N 
ATOM     66  N   UNL A   1      45.710  26.171  26.952  1.00  0.00    -0.248 NA
ATOM     67  C   UNL A   1      47.196  24.616  26.038  1.00  0.00     0.031 C 
ATOM     68  C   UNL A   1      41.516  25.277  28.075  1.00  0.00     0.029 A 
ATOM     69  C   UNL A   1      42.825  25.539  27.703  1.00  0.00     0.049 A 
ATOM     70  H   UNL A   1      43.921  27.334  27.870  1.00  0.00     0.167 HD
ATOM     71  C   UNL A   1      45.056  24.955  26.793  1.00  0.00     0.074 A 
ATOM     72  C   UNL A   1      46.011  24.040  26.203  1.00  0.00     0.031 C 
ATOM     73  C   UNL A   1      43.779  24.633  27.110  1.00  0.00     0.031 A 
BRANCH  60  74
ATOM     74  C   UNL A   1      40.505  29.241  29.600  1.00  0.00    -0.014 A 
ATOM     75  C   UNL A   1      39.630  30.056  28.858  1.00  0.00     0.010 A 
ATOM     76  C   UNL A   1      40.199  28.957  30.943  1.00  0.00     0.010 A 
ATOM     77  C   UNL A   1      38.487  30.600  29.456  1.00  0.00     0.020 A 
ATOM     78  C   UNL A   1      39.044  29.476  31.536  1.00  0.00     0.020 A 
ATOM     79  C   UNL A   1      38.208  30.313  30.794  1.00  0.00     0.054 A 
BRANCH  79  80
ATOM     80  S   UNL A   1      36.735  31.045  31.563  1.00  0.00     0.124 S 
ATOM     81  O   UNL A   1      37.149  31.179  32.956  1.00  0.00    -0.237 OA
ATOM     82  O   UNL A   1      36.578  32.296  30.826  1.00  0.00    -0.237 OA
ATOM     83  O   UNL A   1      35.691  30.052  31.314  1.00  0.00    -0.744 OA
ENDBRANCH  79  80
ENDBRANCH  60  74
BRANCH  61  84
ATOM     84  C   UNL A   1      49.364  26.615  25.799  1.00  0.00    -0.014 A 
ATOM     85  C   UNL A   1      50.391  26.055  26.580  1.00  0.00     0.010 A 
ATOM     86  C   UNL A   1      49.625  26.933  24.454  1.00  0.00     0.010 A 
ATOM     87  C   UNL A   1      51.669  25.871  26.046  1.00  0.00     0.020 A 
ATOM     88  C   UNL A   1      50.895  26.726  23.908  1.00  0.00     0.020 A 
ATOM     89  C   UNL A   1      51.918  26.226  24.717  1.00  0.00     0.054 A 
BRANCH  89  90
ATOM     90  S   UNL A   1      53.600  26.043  24.062  1.00  0.00     0.124 S 
ATOM     91  O   UNL A   1      53.362  26.054  22.622  1.00  0.00    -0.237 OA
ATOM     92  O   UNL A   1      54.282  27.219  24.598  1.00  0.00    -0.237 OA
ATOM     93  O   UNL A   1      54.045  24.765  24.613  1.00  0.00    -0.744 OA
ENDBRANCH  89  90
ENDBRANCH  61  84
BRANCH  73  94
ATOM     94  C   UNL A   1      43.301  23.232  26.837  1.00  0.00    -0.014 A 
ATOM     95  C   UNL A   1      42.783  22.455  27.891  1.00  0.00     0.010 A 
ATOM     96  C   UNL A   1      43.524  22.629  25.586  1.00  0.00     0.010 A 
ATOM     97  C   UNL A   1      42.544  21.091  27.715  1.00  0.00     0.020 A 
ATOM     98  C   UNL A   1      43.263  21.269  25.400  1.00  0.00     0.020 A 
ATOM     99  C   UNL A   1      42.803  20.503  26.475  1.00  0.00     0.054 A 
BRANCH  99 100
ATOM    100  S   UNL A   1      42.555  18.715  26.285  1.00  0.00     0.124 S 
ATOM    101  O   UNL A   1      42.768  18.229  27.644  1.00  0.00    -0.237 OA
ATOM    102  O   UNL A   1      41.182  18.630  25.793  1.00  0.00    -0.237 OA
ATOM    103  O   UNL A   1      43.579  18.329  25.316  1.00  0.00    -0.744 OA
ENDBRANCH  99 100
ENDBRANCH  73  94
ENDBRANCH  47  48
ENDBRANCH  40  42
ENDBRANCH  39  40
ENDBRANCH  38  39
ENDBRANCH  37  38
ENDBRANCH  36  37
ENDBRANCH  35  36
ENDBRANCH   1  35
TORSDOF 25
ENDMDL
