MODEL 1
REMARK VINA RESULT:     -12.6      0.000      0.000
REMARK SMILES COc1ccc(-c2[nH]nc3nc(-c4ccc(C(F)(F)F)cc4)cc(C(=O)OCCOCCOCCOC(=O)c4ccc(-c5c6nc(c(-c7ccc(S(=O)(=O)[O-])cc7)c7ccc([nH]7)c(-c7ccc(S(=O)(=O)[O-])cc7)c7nc(c(-c8ccc(S(=O)(=O)[O-])cc8)c8ccc5[nH]8)C=C7)C=C6)cc4)c23)cc1
REMARK SMILES IDX 32 1 31 2 30 3 29 4 28 5 27 6 25 7 26 8 24 9 7 10 8 11 99 12
REMARK SMILES IDX 9 13 10 15 11 16 23 17 12 18 6 19 3 20 4 21 101 22 5 23
REMARK SMILES IDX 100 24 2 25 1 26 13 27 14 28 22 29 15 30 21 31 16 32 17 33
REMARK SMILES IDX 18 34 19 35 20 36 33 37 34 38 35 39 36 40 37 41 38 42 39 43
REMARK SMILES IDX 40 44 98 45 41 46 97 47 42 48 43 49 44 50 91 51 45 52 96 53
REMARK SMILES IDX 90 54 92 55 46 56 95 57 89 58 88 59 47 61 77 62 58 63 76 64
REMARK SMILES IDX 59 65 62 66 75 67 93 68 60 69 61 70 74 72 94 73 63 74 48 75
REMARK SMILES IDX 49 76 57 77 50 78 56 79 51 80 52 81 53 82 54 83 55 84 78 85
REMARK SMILES IDX 79 86 87 87 80 88 86 89 81 90 82 91 83 92 84 93 85 94 64 95
REMARK SMILES IDX 65 96 73 97 66 98 72 99 67 100 68 101 69 102 70 103 71 104
REMARK H PARENT 8 14 92 60 62 71
REMARK Flexibility Score: inf
ROOT
ATOM      1  C   UNL A   1      37.256  23.535  26.239  1.00  0.00     0.188 C 
ENDROOT
BRANCH   1   2
ATOM      2  C   UNL A   1      35.997  23.728  25.414  1.00  0.00     0.188 C 
BRANCH   2   3
ATOM      3  O   UNL A   1      34.774  23.874  26.119  1.00  0.00    -0.376 OA
BRANCH   3   4
ATOM      4  C   UNL A   1      34.481  22.850  27.081  1.00  0.00     0.202 C 
BRANCH   4   5
ATOM      5  C   UNL A   1      33.000  22.642  27.482  1.00  0.00     0.261 C 
BRANCH   5   6
ATOM      6  O   UNL A   1      32.057  23.555  26.873  1.00  0.00    -0.460 OA
BRANCH   6   7
ATOM      7  C   UNL A   1      31.332  23.111  25.811  1.00  0.00     0.339 C 
ATOM      8  O   UNL A   1      30.601  22.151  25.833  1.00  0.00    -0.246 OA
BRANCH   7   9
ATOM      9  C   UNL A   1      31.512  24.079  24.693  1.00  0.00     0.075 A 
ATOM     10  C   UNL A   1      32.925  22.761  23.055  1.00  0.00     0.075 A 
ATOM     11  N   UNL A   1      33.494  23.159  21.866  1.00  0.00    -0.275 N 
ATOM     12  C   UNL A   1      32.271  23.887  23.528  1.00  0.00     0.061 A 
ATOM     13  N   UNL A   1      33.185  24.407  21.486  1.00  0.00    -0.154 NA
ATOM     14  H   UNL A   1      34.082  22.574  21.337  1.00  0.00     0.190 HD
ATOM     15  C   UNL A   1      32.394  24.846  22.462  1.00  0.00     0.182 A 
ATOM     16  N   UNL A   1      31.745  26.034  22.464  1.00  0.00    -0.226 NA
ATOM     17  C   UNL A   1      30.825  25.317  24.634  1.00  0.00     0.045 A 
ATOM     18  C   UNL A   1      30.956  26.233  23.552  1.00  0.00     0.074 A 
BRANCH  10  19
ATOM     19  C   UNL A   1      33.007  21.367  23.462  1.00  0.00     0.001 A 
ATOM     20  C   UNL A   1      33.100  18.670  24.257  1.00  0.00     0.118 A 
ATOM     21  C   UNL A   1      33.988  19.605  24.796  1.00  0.00     0.047 A 
ATOM     22  C   UNL A   1      32.181  19.082  23.293  1.00  0.00     0.047 A 
ATOM     23  C   UNL A   1      33.952  20.945  24.396  1.00  0.00     0.014 A 
ATOM     24  C   UNL A   1      32.143  20.422  22.891  1.00  0.00     0.014 A 
BRANCH  20  25
ATOM     25  O   UNL A   1      33.220  17.406  24.763  1.00  0.00    -0.497 OA
ATOM     26  C   UNL A   1      34.501  16.793  24.660  1.00  0.00     0.278 C 
ENDBRANCH  20  25
ENDBRANCH  10  19
BRANCH  18  27
ATOM     27  C   UNL A   1      30.247  27.539  23.557  1.00  0.00     0.000 A 
ATOM     28  C   UNL A   1      28.947  27.682  23.030  1.00  0.00     0.011 A 
ATOM     29  C   UNL A   1      30.869  28.701  24.045  1.00  0.00     0.011 A 
ATOM     30  C   UNL A   1      28.306  28.930  22.986  1.00  0.00     0.014 A 
ATOM     31  C   UNL A   1      30.235  29.948  24.001  1.00  0.00     0.014 A 
ATOM     32  C   UNL A   1      28.948  30.079  23.466  1.00  0.00     0.056 A 
BRANCH  32  33
ATOM     33  C   UNL A   1      28.277  31.429  23.389  1.00  0.00     0.416 C 
ATOM     34  F   UNL A   1      27.886  31.752  22.124  1.00  0.00    -0.166 F 
ATOM     35  F   UNL A   1      27.158  31.513  24.160  1.00  0.00    -0.166 F 
ATOM     36  F   UNL A   1      29.080  32.456  23.794  1.00  0.00    -0.166 F 
ENDBRANCH  32  33
ENDBRANCH  18  27
ENDBRANCH   7   9
ENDBRANCH   6   7
ENDBRANCH   5   6
ENDBRANCH   4   5
ENDBRANCH   3   4
ENDBRANCH   2   3
ENDBRANCH   1   2
BRANCH   1  37
ATOM     37  O   UNL A   1      38.169  22.554  25.751  1.00  0.00    -0.376 OA
BRANCH  37  38
ATOM     38  C   UNL A   1      39.371  22.326  26.483  1.00  0.00     0.202 C 
BRANCH  38  39
ATOM     39  C   UNL A   1      39.985  20.930  26.408  1.00  0.00     0.261 C 
BRANCH  39  40
ATOM     40  O   UNL A   1      41.282  20.836  26.982  1.00  0.00    -0.460 OA
BRANCH  40  41
ATOM     41  C   UNL A   1      42.258  20.726  26.056  1.00  0.00     0.338 C 
ATOM     42  O   UNL A   1      42.498  19.762  25.346  1.00  0.00    -0.246 OA
BRANCH  41  43
ATOM     43  C   UNL A   1      43.094  21.929  26.062  1.00  0.00     0.060 A 
ATOM     44  C   UNL A   1      43.780  22.161  27.256  1.00  0.00     0.016 A 
ATOM     45  C   UNL A   1      42.731  22.957  25.184  1.00  0.00     0.016 A 
ATOM     46  C   UNL A   1      43.782  23.445  27.740  1.00  0.00     0.010 A 
ATOM     47  C   UNL A   1      42.718  24.235  25.679  1.00  0.00     0.010 A 
ATOM     48  C   UNL A   1      43.132  24.434  26.994  1.00  0.00    -0.014 A 
BRANCH  48  49
ATOM     49  C   UNL A   1      42.967  25.733  27.603  1.00  0.00     0.031 A 
ATOM     50  C   UNL A   1      44.107  26.608  27.290  1.00  0.00     0.074 A 
ATOM     51  C   UNL A   1      41.862  26.095  28.282  1.00  0.00     0.049 A 
ATOM     52  N   UNL A   1      45.110  26.887  28.054  1.00  0.00    -0.248 NA
ATOM     53  C   UNL A   1      44.287  27.003  25.882  1.00  0.00     0.031 C 
ATOM     54  C   UNL A   1      40.590  25.368  28.366  1.00  0.00     0.029 A 
ATOM     55  N   UNL A   1      41.598  27.252  28.951  1.00  0.00    -0.354 N 
ATOM     56  C   UNL A   1      45.887  27.750  27.297  1.00  0.00     0.074 A 
ATOM     57  C   UNL A   1      45.506  27.540  25.926  1.00  0.00     0.031 C 
ATOM     58  C   UNL A   1      39.630  26.204  28.825  1.00  0.00     0.029 A 
ATOM     59  C   UNL A   1      40.248  27.463  29.208  1.00  0.00     0.049 A 
ATOM     60  H   UNL A   1      42.301  27.882  29.229  1.00  0.00     0.167 HD
ATOM     61  C   UNL A   1      46.452  28.844  27.876  1.00  0.00     0.031 A 
ATOM     62  C   UNL A   1      39.680  28.614  29.651  1.00  0.00     0.031 A 
ATOM     63  C   UNL A   1      46.411  28.755  29.312  1.00  0.00     0.049 A 
ATOM     64  C   UNL A   1      40.745  29.412  30.302  1.00  0.00     0.074 A 
ATOM     65  C   UNL A   1      47.073  28.055  30.295  1.00  0.00     0.029 A 
ATOM     66  N   UNL A   1      45.244  29.229  29.857  1.00  0.00    -0.354 N 
ATOM     67  N   UNL A   1      41.358  29.028  31.388  1.00  0.00    -0.248 NA
ATOM     68  C   UNL A   1      41.419  30.463  29.546  1.00  0.00     0.031 C 
ATOM     69  C   UNL A   1      46.186  28.001  31.410  1.00  0.00     0.029 A 
ATOM     70  C   UNL A   1      45.023  28.705  31.102  1.00  0.00     0.049 A 
ATOM     71  H   UNL A   1      44.641  29.866  29.409  1.00  0.00     0.167 HD
ATOM     72  C   UNL A   1      42.660  29.463  31.223  1.00  0.00     0.074 A 
ATOM     73  C   UNL A   1      42.600  30.469  30.171  1.00  0.00     0.031 C 
ATOM     74  C   UNL A   1      43.709  28.745  31.715  1.00  0.00     0.031 A 
BRANCH  61  75
ATOM     75  C   UNL A   1      46.512  30.192  27.191  1.00  0.00    -0.014 A 
ATOM     76  C   UNL A   1      47.722  30.910  27.224  1.00  0.00     0.010 A 
ATOM     77  C   UNL A   1      45.364  30.901  26.773  1.00  0.00     0.010 A 
ATOM     78  C   UNL A   1      47.770  32.272  26.893  1.00  0.00     0.020 A 
ATOM     79  C   UNL A   1      45.406  32.244  26.403  1.00  0.00     0.020 A 
ATOM     80  C   UNL A   1      46.607  32.929  26.490  1.00  0.00     0.054 A 
BRANCH  80  81
ATOM     81  S   UNL A   1      46.657  34.700  26.129  1.00  0.00     0.124 S 
ATOM     82  O   UNL A   1      45.268  34.975  25.778  1.00  0.00    -0.237 OA
ATOM     83  O   UNL A   1      47.117  35.257  27.397  1.00  0.00    -0.237 OA
ATOM     84  O   UNL A   1      47.613  34.795  25.029  1.00  0.00    -0.744 OA
ENDBRANCH  80  81
ENDBRANCH  61  75
BRANCH  62  85
ATOM     85  C   UNL A   1      38.360  29.185  29.283  1.00  0.00    -0.014 A 
ATOM     86  C   UNL A   1      37.405  29.526  30.261  1.00  0.00     0.010 A 
ATOM     87  C   UNL A   1      38.150  29.656  27.972  1.00  0.00     0.010 A 
ATOM     88  C   UNL A   1      36.308  30.351  29.945  1.00  0.00     0.020 A 
ATOM     89  C   UNL A   1      37.060  30.476  27.650  1.00  0.00     0.020 A 
ATOM     90  C   UNL A   1      36.153  30.835  28.643  1.00  0.00     0.054 A 
BRANCH  90  91
ATOM     91  S   UNL A   1      34.823  32.022  28.277  1.00  0.00     0.124 S 
ATOM     92  O   UNL A   1      33.920  31.231  27.447  1.00  0.00    -0.237 OA
ATOM     93  O   UNL A   1      34.325  32.364  29.606  1.00  0.00    -0.237 OA
ATOM     94  O   UNL A   1      35.512  33.107  27.580  1.00  0.00    -0.744 OA
ENDBRANCH  90  91
ENDBRANCH  62  85
BRANCH  74  95
ATOM     95  C   UNL A   1      43.462  27.849  32.896  1.00  0.00    -0.014 A 
ATOM     96  C   UNL A   1      43.500  26.444  32.862  1.00  0.00     0.010 A 
ATOM     97  C   UNL A   1      43.265  28.492  34.131  1.00  0.00     0.010 A 
ATOM     98  C   UNL A   1      43.332  25.703  34.043  1.00  0.00     0.020 A 
ATOM     99  C   UNL A   1      43.116  27.764  35.308  1.00  0.00     0.020 A 
ATOM    100  C   UNL A   1      43.141  26.371  35.260  1.00  0.00     0.054 A 
BRANCH 100 101
ATOM    101  S   UNL A   1      42.959  25.418  36.793  1.00  0.00     0.124 S 
ATOM    102  O   UNL A   1      42.592  26.446  37.763  1.00  0.00    -0.237 OA
ATOM    103  O   UNL A   1      41.906  24.462  36.458  1.00  0.00    -0.237 OA
ATOM    104  O   UNL A   1      44.281  24.825  36.994  1.00  0.00    -0.744 OA
ENDBRANCH 100 101
ENDBRANCH  74  95
ENDBRANCH  48  49
ENDBRANCH  41  43
ENDBRANCH  40  41
ENDBRANCH  39  40
ENDBRANCH  38  39
ENDBRANCH  37  38
ENDBRANCH   1  37
TORSDOF 24
ENDMDL
MODEL 2
REMARK VINA RESULT:     -12.4      4.045      8.565
REMARK SMILES COc1ccc(-c2[nH]nc3nc(-c4ccc(C(F)(F)F)cc4)cc(C(=O)OCCOCCOCCOC(=O)c4ccc(-c5c6nc(c(-c7ccc(S(=O)(=O)[O-])cc7)c7ccc([nH]7)c(-c7ccc(S(=O)(=O)[O-])cc7)c7nc(c(-c8ccc(S(=O)(=O)[O-])cc8)c8ccc5[nH]8)C=C7)C=C6)cc4)c23)cc1
REMARK SMILES IDX 32 1 31 2 30 3 29 4 28 5 27 6 25 7 26 8 24 9 7 10 8 11 99 12
REMARK SMILES IDX 9 13 10 15 11 16 23 17 12 18 6 19 3 20 4 21 101 22 5 23
REMARK SMILES IDX 100 24 2 25 1 26 13 27 14 28 22 29 15 30 21 31 16 32 17 33
REMARK SMILES IDX 18 34 19 35 20 36 33 37 34 38 35 39 36 40 37 41 38 42 39 43
REMARK SMILES IDX 40 44 98 45 41 46 97 47 42 48 43 49 44 50 91 51 45 52 96 53
REMARK SMILES IDX 90 54 92 55 46 56 95 57 89 58 88 59 47 61 77 62 58 63 76 64
REMARK SMILES IDX 59 65 62 66 75 67 93 68 60 69 61 70 74 72 94 73 63 74 48 75
REMARK SMILES IDX 49 76 57 77 50 78 56 79 51 80 52 81 53 82 54 83 55 84 78 85
REMARK SMILES IDX 79 86 87 87 80 88 86 89 81 90 82 91 83 92 84 93 85 94 64 95
REMARK SMILES IDX 65 96 73 97 66 98 72 99 67 100 68 101 69 102 70 103 71 104
REMARK H PARENT 8 14 92 60 62 71
REMARK Flexibility Score: inf
ROOT
ATOM      1  C   UNL A   1      35.370  22.567  25.764  1.00  0.00     0.188 C 
ENDROOT
BRANCH   1   2
ATOM      2  C   UNL A   1      34.749  23.922  26.046  1.00  0.00     0.188 C 
BRANCH   2   3
ATOM      3  O   UNL A   1      35.151  25.006  25.222  1.00  0.00    -0.376 OA
BRANCH   3   4
ATOM      4  C   UNL A   1      34.226  26.099  25.131  1.00  0.00     0.202 C 
BRANCH   4   5
ATOM      5  C   UNL A   1      33.872  26.626  23.719  1.00  0.00     0.261 C 
BRANCH   5   6
ATOM      6  O   UNL A   1      33.589  25.611  22.729  1.00  0.00    -0.460 OA
BRANCH   6   7
ATOM      7  C   UNL A   1      32.292  25.252  22.534  1.00  0.00     0.339 C 
ATOM      8  O   UNL A   1      31.616  25.599  21.598  1.00  0.00    -0.246 OA
BRANCH   7   9
ATOM      9  C   UNL A   1      31.919  24.278  23.599  1.00  0.00     0.075 A 
ATOM     10  C   UNL A   1      30.357  25.638  25.056  1.00  0.00     0.075 A 
ATOM     11  N   UNL A   1      29.759  25.308  26.253  1.00  0.00    -0.275 N 
ATOM     12  C   UNL A   1      31.105  24.523  24.716  1.00  0.00     0.061 A 
ATOM     13  N   UNL A   1      29.979  24.050  26.660  1.00  0.00    -0.154 NA
ATOM     14  H   UNL A   1      29.215  25.945  26.768  1.00  0.00     0.190 HD
ATOM     15  C   UNL A   1      30.753  23.540  25.705  1.00  0.00     0.182 A 
ATOM     16  N   UNL A   1      31.150  22.248  25.633  1.00  0.00    -0.226 NA
ATOM     17  C   UNL A   1      32.281  22.909  23.545  1.00  0.00     0.045 A 
ATOM     18  C   UNL A   1      31.896  21.959  24.534  1.00  0.00     0.074 A 
BRANCH  10  19
ATOM     19  C   UNL A   1      30.018  26.893  24.405  1.00  0.00     0.001 A 
ATOM     20  C   UNL A   1      29.350  29.288  23.088  1.00  0.00     0.118 A 
ATOM     21  C   UNL A   1      30.515  29.195  23.853  1.00  0.00     0.047 A 
ATOM     22  C   UNL A   1      28.499  28.187  23.007  1.00  0.00     0.047 A 
ATOM     23  C   UNL A   1      30.847  28.009  24.518  1.00  0.00     0.014 A 
ATOM     24  C   UNL A   1      28.827  26.999  23.672  1.00  0.00     0.014 A 
BRANCH  20  25
ATOM     25  O   UNL A   1      29.167  30.490  22.463  1.00  0.00    -0.497 OA
ATOM     26  C   UNL A   1      28.145  30.551  21.476  1.00  0.00     0.278 C 
ENDBRANCH  20  25
ENDBRANCH  10  19
BRANCH  18  27
ATOM     27  C   UNL A   1      32.337  20.543  24.455  1.00  0.00     0.000 A 
ATOM     28  C   UNL A   1      32.960  19.895  25.541  1.00  0.00     0.011 A 
ATOM     29  C   UNL A   1      32.196  19.804  23.268  1.00  0.00     0.011 A 
ATOM     30  C   UNL A   1      33.426  18.574  25.440  1.00  0.00     0.014 A 
ATOM     31  C   UNL A   1      32.660  18.488  23.161  1.00  0.00     0.014 A 
ATOM     32  C   UNL A   1      33.287  17.859  24.244  1.00  0.00     0.056 A 
BRANCH  32  33
ATOM     33  C   UNL A   1      33.818  16.451  24.119  1.00  0.00     0.416 C 
ATOM     34  F   UNL A   1      34.857  16.203  24.965  1.00  0.00    -0.166 F 
ATOM     35  F   UNL A   1      32.880  15.502  24.389  1.00  0.00    -0.166 F 
ATOM     36  F   UNL A   1      34.287  16.159  22.870  1.00  0.00    -0.166 F 
ENDBRANCH  32  33
ENDBRANCH  18  27
ENDBRANCH   7   9
ENDBRANCH   6   7
ENDBRANCH   5   6
ENDBRANCH   4   5
ENDBRANCH   3   4
ENDBRANCH   2   3
ENDBRANCH   1   2
BRANCH   1  37
ATOM     37  O   UNL A   1      35.807  22.355  24.423  1.00  0.00    -0.376 OA
BRANCH  37  38
ATOM     38  C   UNL A   1      37.047  21.683  24.214  1.00  0.00     0.202 C 
BRANCH  38  39
ATOM     39  C   UNL A   1      37.661  20.954  25.407  1.00  0.00     0.261 C 
BRANCH  39  40
ATOM     40  O   UNL A   1      38.945  21.435  25.780  1.00  0.00    -0.460 OA
BRANCH  40  41
ATOM     41  C   UNL A   1      39.880  20.462  25.811  1.00  0.00     0.338 C 
ATOM     42  O   UNL A   1      39.754  19.304  25.445  1.00  0.00    -0.246 OA
BRANCH  41  43
ATOM     43  C   UNL A   1      41.102  20.960  26.448  1.00  0.00     0.060 A 
ATOM     44  C   UNL A   1      41.101  20.905  27.843  1.00  0.00     0.016 A 
ATOM     45  C   UNL A   1      41.858  21.890  25.726  1.00  0.00     0.016 A 
ATOM     46  C   UNL A   1      41.570  22.006  28.515  1.00  0.00     0.010 A 
ATOM     47  C   UNL A   1      42.309  22.996  26.399  1.00  0.00     0.010 A 
ATOM     48  C   UNL A   1      42.047  23.085  27.765  1.00  0.00    -0.014 A 
BRANCH  48  49
ATOM     49  C   UNL A   1      42.351  24.309  28.469  1.00  0.00     0.031 A 
ATOM     50  C   UNL A   1      41.432  25.385  28.071  1.00  0.00     0.074 A 
ATOM     51  C   UNL A   1      43.295  24.395  29.426  1.00  0.00     0.049 A 
ATOM     52  N   UNL A   1      41.667  26.346  27.241  1.00  0.00    -0.248 NA
ATOM     53  C   UNL A   1      40.012  25.226  28.429  1.00  0.00     0.031 C 
ATOM     54  C   UNL A   1      44.026  23.291  30.058  1.00  0.00     0.029 A 
ATOM     55  N   UNL A   1      43.724  25.484  30.122  1.00  0.00    -0.354 N 
ATOM     56  C   UNL A   1      40.491  27.081  27.226  1.00  0.00     0.074 A 
ATOM     57  C   UNL A   1      39.460  26.204  27.712  1.00  0.00     0.031 C 
ATOM     58  C   UNL A   1      44.607  23.737  31.196  1.00  0.00     0.029 A 
ATOM     59  C   UNL A   1      44.420  25.176  31.286  1.00  0.00     0.049 A 
ATOM     60  H   UNL A   1      43.557  26.408  29.827  1.00  0.00     0.167 HD
ATOM     61  C   UNL A   1      40.538  28.441  27.230  1.00  0.00     0.031 A 
ATOM     62  C   UNL A   1      44.763  26.040  32.275  1.00  0.00     0.031 A 
ATOM     63  C   UNL A   1      41.859  28.919  26.916  1.00  0.00     0.049 A 
ATOM     64  C   UNL A   1      44.752  27.404  31.696  1.00  0.00     0.074 A 
ATOM     65  C   UNL A   1      42.650  29.026  25.794  1.00  0.00     0.029 A 
ATOM     66  N   UNL A   1      42.681  29.017  28.011  1.00  0.00    -0.354 N 
ATOM     67  N   UNL A   1      45.580  27.786  30.762  1.00  0.00    -0.248 NA
ATOM     68  C   UNL A   1      43.573  28.247  31.866  1.00  0.00     0.031 C 
ATOM     69  C   UNL A   1      43.998  29.041  26.258  1.00  0.00     0.029 A 
ATOM     70  C   UNL A   1      44.001  28.989  27.651  1.00  0.00     0.049 A 
ATOM     71  H   UNL A   1      42.361  29.097  28.939  1.00  0.00     0.167 HD
ATOM     72  C   UNL A   1      44.833  28.634  29.965  1.00  0.00     0.074 A 
ATOM     73  C   UNL A   1      43.680  29.008  30.772  1.00  0.00     0.031 C 
ATOM     74  C   UNL A   1      45.041  28.698  28.619  1.00  0.00     0.031 A 
BRANCH  61  75
ATOM     75  C   UNL A   1      39.588  29.289  28.047  1.00  0.00    -0.014 A 
ATOM     76  C   UNL A   1      40.010  29.744  29.310  1.00  0.00     0.010 A 
ATOM     77  C   UNL A   1      38.212  29.412  27.755  1.00  0.00     0.010 A 
ATOM     78  C   UNL A   1      39.095  30.259  30.241  1.00  0.00     0.020 A 
ATOM     79  C   UNL A   1      37.300  29.957  28.656  1.00  0.00     0.020 A 
ATOM     80  C   UNL A   1      37.745  30.355  29.906  1.00  0.00     0.054 A 
BRANCH  80  81
ATOM     81  S   UNL A   1      36.558  30.954  31.131  1.00  0.00     0.124 S 
ATOM     82  O   UNL A   1      37.315  32.012  31.791  1.00  0.00    -0.237 OA
ATOM     83  O   UNL A   1      35.448  31.394  30.291  1.00  0.00    -0.237 OA
ATOM     84  O   UNL A   1      36.286  29.773  31.947  1.00  0.00    -0.744 OA
ENDBRANCH  80  81
ENDBRANCH  61  75
BRANCH  62  85
ATOM     85  C   UNL A   1      44.805  25.789  33.738  1.00  0.00    -0.014 A 
ATOM     86  C   UNL A   1      45.970  26.018  34.494  1.00  0.00     0.010 A 
ATOM     87  C   UNL A   1      43.599  25.587  34.440  1.00  0.00     0.010 A 
ATOM     88  C   UNL A   1      45.920  26.092  35.899  1.00  0.00     0.020 A 
ATOM     89  C   UNL A   1      43.542  25.657  35.839  1.00  0.00     0.020 A 
ATOM     90  C   UNL A   1      44.700  25.928  36.561  1.00  0.00     0.054 A 
BRANCH  90  91
ATOM     91  S   UNL A   1      44.614  26.176  38.362  1.00  0.00     0.124 S 
ATOM     92  O   UNL A   1      45.016  24.870  38.875  1.00  0.00    -0.237 OA
ATOM     93  O   UNL A   1      45.566  27.261  38.581  1.00  0.00    -0.237 OA
ATOM     94  O   UNL A   1      43.214  26.527  38.594  1.00  0.00    -0.744 OA
ENDBRANCH  90  91
ENDBRANCH  62  85
BRANCH  74  95
ATOM     95  C   UNL A   1      46.401  28.333  28.094  1.00  0.00    -0.014 A 
ATOM     96  C   UNL A   1      47.536  29.161  28.151  1.00  0.00     0.010 A 
ATOM     97  C   UNL A   1      46.540  27.027  27.590  1.00  0.00     0.010 A 
ATOM     98  C   UNL A   1      48.779  28.690  27.700  1.00  0.00     0.020 A 
ATOM     99  C   UNL A   1      47.774  26.548  27.158  1.00  0.00     0.020 A 
ATOM    100  C   UNL A   1      48.889  27.384  27.206  1.00  0.00     0.054 A 
BRANCH 100 101
ATOM    101  S   UNL A   1      50.500  26.759  26.656  1.00  0.00     0.124 S 
ATOM    102  O   UNL A   1      51.155  27.965  26.157  1.00  0.00    -0.237 OA
ATOM    103  O   UNL A   1      51.065  26.196  27.880  1.00  0.00    -0.237 OA
ATOM    104  O   UNL A   1      50.161  25.773  25.631  1.00  0.00    -0.744 OA
ENDBRANCH 100 101
ENDBRANCH  74  95
ENDBRANCH  48  49
ENDBRANCH  41  43
ENDBRANCH  40  41
ENDBRANCH  39  40
ENDBRANCH  38  39
ENDBRANCH  37  38
ENDBRANCH   1  37
TORSDOF 24
ENDMDL
MODEL 3
REMARK VINA RESULT:     -11.5      3.733      6.002
REMARK SMILES COc1ccc(-c2[nH]nc3nc(-c4ccc(C(F)(F)F)cc4)cc(C(=O)OCCOCCOCCOC(=O)c4ccc(-c5c6nc(c(-c7ccc(S(=O)(=O)[O-])cc7)c7ccc([nH]7)c(-c7ccc(S(=O)(=O)[O-])cc7)c7nc(c(-c8ccc(S(=O)(=O)[O-])cc8)c8ccc5[nH]8)C=C7)C=C6)cc4)c23)cc1
REMARK SMILES IDX 32 1 31 2 30 3 29 4 28 5 27 6 25 7 26 8 24 9 7 10 8 11 99 12
REMARK SMILES IDX 9 13 10 15 11 16 23 17 12 18 6 19 3 20 4 21 101 22 5 23
REMARK SMILES IDX 100 24 2 25 1 26 13 27 14 28 22 29 15 30 21 31 16 32 17 33
REMARK SMILES IDX 18 34 19 35 20 36 33 37 34 38 35 39 36 40 37 41 38 42 39 43
REMARK SMILES IDX 40 44 98 45 41 46 97 47 42 48 43 49 44 50 91 51 45 52 96 53
REMARK SMILES IDX 90 54 92 55 46 56 95 57 89 58 88 59 47 61 77 62 58 63 76 64
REMARK SMILES IDX 59 65 62 66 75 67 93 68 60 69 61 70 74 72 94 73 63 74 48 75
REMARK SMILES IDX 49 76 57 77 50 78 56 79 51 80 52 81 53 82 54 83 55 84 78 85
REMARK SMILES IDX 79 86 87 87 80 88 86 89 81 90 82 91 83 92 84 93 85 94 64 95
REMARK SMILES IDX 65 96 73 97 66 98 72 99 67 100 68 101 69 102 70 103 71 104
REMARK H PARENT 8 14 92 60 62 71
REMARK Flexibility Score: inf
ROOT
ATOM      1  C   UNL A   1      36.944  21.959  24.205  1.00  0.00     0.188 C 
ENDROOT
BRANCH   1   2
ATOM      2  C   UNL A   1      35.706  22.516  24.882  1.00  0.00     0.188 C 
BRANCH   2   3
ATOM      3  O   UNL A   1      35.851  23.730  25.603  1.00  0.00    -0.376 OA
BRANCH   3   4
ATOM      4  C   UNL A   1      35.064  24.834  25.132  1.00  0.00     0.202 C 
BRANCH   4   5
ATOM      5  C   UNL A   1      34.732  24.887  23.621  1.00  0.00     0.261 C 
BRANCH   5   6
ATOM      6  O   UNL A   1      33.596  25.707  23.261  1.00  0.00    -0.460 OA
BRANCH   6   7
ATOM      7  C   UNL A   1      32.479  25.085  22.798  1.00  0.00     0.339 C 
ATOM      8  O   UNL A   1      32.012  25.244  21.698  1.00  0.00    -0.246 OA
BRANCH   7   9
ATOM      9  C   UNL A   1      32.034  24.108  23.832  1.00  0.00     0.075 A 
ATOM     10  C   UNL A   1      30.443  25.491  25.236  1.00  0.00     0.075 A 
ATOM     11  N   UNL A   1      29.785  25.162  26.400  1.00  0.00    -0.275 N 
ATOM     12  C   UNL A   1      31.178  24.361  24.914  1.00  0.00     0.061 A 
ATOM     13  N   UNL A   1      29.953  23.893  26.800  1.00  0.00    -0.154 NA
ATOM     14  H   UNL A   1      29.234  25.807  26.899  1.00  0.00     0.190 HD
ATOM     15  C   UNL A   1      30.755  23.375  25.874  1.00  0.00     0.182 A 
ATOM     16  N   UNL A   1      31.122  22.074  25.801  1.00  0.00    -0.226 NA
ATOM     17  C   UNL A   1      32.362  22.731  23.775  1.00  0.00     0.045 A 
ATOM     18  C   UNL A   1      31.909  21.779  24.733  1.00  0.00     0.074 A 
BRANCH  10  19
ATOM     19  C   UNL A   1      30.167  26.762  24.587  1.00  0.00     0.001 A 
ATOM     20  C   UNL A   1      29.644  29.254  23.389  1.00  0.00     0.118 A 
ATOM     21  C   UNL A   1      28.790  28.167  23.181  1.00  0.00     0.047 A 
ATOM     22  C   UNL A   1      30.782  29.083  24.176  1.00  0.00     0.047 A 
ATOM     23  C   UNL A   1      29.052  26.924  23.767  1.00  0.00     0.014 A 
ATOM     24  C   UNL A   1      31.047  27.840  24.762  1.00  0.00     0.014 A 
BRANCH  20  25
ATOM     25  O   UNL A   1      29.251  30.417  22.789  1.00  0.00    -0.497 OA
ATOM     26  C   UNL A   1      27.930  30.868  23.069  1.00  0.00     0.278 C 
ENDBRANCH  20  25
ENDBRANCH  10  19
BRANCH  18  27
ATOM     27  C   UNL A   1      32.316  20.352  24.654  1.00  0.00     0.000 A 
ATOM     28  C   UNL A   1      32.554  19.581  25.810  1.00  0.00     0.011 A 
ATOM     29  C   UNL A   1      32.531  19.727  23.414  1.00  0.00     0.011 A 
ATOM     30  C   UNL A   1      32.994  18.250  25.727  1.00  0.00     0.014 A 
ATOM     31  C   UNL A   1      32.972  18.401  23.326  1.00  0.00     0.014 A 
ATOM     32  C   UNL A   1      33.215  17.648  24.482  1.00  0.00     0.056 A 
BRANCH  32  33
ATOM     33  C   UNL A   1      33.722  16.230  24.388  1.00  0.00     0.416 C 
ATOM     34  F   UNL A   1      32.787  15.310  24.758  1.00  0.00    -0.166 F 
ATOM     35  F   UNL A   1      34.110  15.885  23.129  1.00  0.00    -0.166 F 
ATOM     36  F   UNL A   1      34.804  15.989  25.185  1.00  0.00    -0.166 F 
ENDBRANCH  32  33
ENDBRANCH  18  27
ENDBRANCH   7   9
ENDBRANCH   6   7
ENDBRANCH   5   6
ENDBRANCH   4   5
ENDBRANCH   3   4
ENDBRANCH   2   3
ENDBRANCH   1   2
BRANCH   1  37
ATOM     37  O   UNL A   1      37.409  20.706  24.703  1.00  0.00    -0.376 OA
BRANCH  37  38
ATOM     38  C   UNL A   1      38.640  20.680  25.424  1.00  0.00     0.202 C 
BRANCH  38  39
ATOM     39  C   UNL A   1      39.079  21.971  26.112  1.00  0.00     0.261 C 
BRANCH  39  40
ATOM     40  O   UNL A   1      40.488  22.146  26.168  1.00  0.00    -0.460 OA
BRANCH  40  41
ATOM     41  C   UNL A   1      40.884  22.857  27.245  1.00  0.00     0.338 C 
ATOM     42  O   UNL A   1      41.034  22.449  28.386  1.00  0.00    -0.246 OA
BRANCH  41  43
ATOM     43  C   UNL A   1      41.039  24.268  26.884  1.00  0.00     0.060 A 
ATOM     44  C   UNL A   1      42.310  24.798  27.117  1.00  0.00     0.016 A 
ATOM     45  C   UNL A   1      39.880  25.052  26.881  1.00  0.00     0.016 A 
ATOM     46  C   UNL A   1      42.376  26.038  27.701  1.00  0.00     0.010 A 
ATOM     47  C   UNL A   1      39.948  26.282  27.482  1.00  0.00     0.010 A 
ATOM     48  C   UNL A   1      41.177  26.698  27.989  1.00  0.00    -0.014 A 
BRANCH  48  49
ATOM     49  C   UNL A   1      41.250  27.905  28.780  1.00  0.00     0.031 A 
ATOM     50  C   UNL A   1      42.387  28.738  28.362  1.00  0.00     0.074 A 
ATOM     51  C   UNL A   1      40.329  28.238  29.704  1.00  0.00     0.049 A 
ATOM     52  N   UNL A   1      43.535  28.839  28.942  1.00  0.00    -0.248 NA
ATOM     53  C   UNL A   1      42.336  29.318  27.008  1.00  0.00     0.031 C 
ATOM     54  C   UNL A   1      39.033  27.591  29.944  1.00  0.00     0.029 A 
ATOM     55  N   UNL A   1      40.302  29.301  30.554  1.00  0.00    -0.354 N 
ATOM     56  C   UNL A   1      44.234  29.748  28.162  1.00  0.00     0.074 A 
ATOM     57  C   UNL A   1      43.586  29.762  26.878  1.00  0.00     0.031 C 
ATOM     58  C   UNL A   1      38.257  28.415  30.687  1.00  0.00     0.029 A 
ATOM     59  C   UNL A   1      39.049  29.562  31.098  1.00  0.00     0.049 A 
ATOM     60  H   UNL A   1      41.100  29.838  30.766  1.00  0.00     0.167 HD
ATOM     61  C   UNL A   1      44.996  30.709  28.753  1.00  0.00     0.031 A 
ATOM     62  C   UNL A   1      38.682  30.673  31.787  1.00  0.00     0.031 A 
ATOM     63  C   UNL A   1      45.216  30.418  30.146  1.00  0.00     0.049 A 
ATOM     64  C   UNL A   1      39.919  31.298  32.311  1.00  0.00     0.074 A 
ATOM     65  C   UNL A   1      45.982  29.543  30.881  1.00  0.00     0.029 A 
ATOM     66  N   UNL A   1      44.220  30.885  30.967  1.00  0.00    -0.354 N 
ATOM     67  N   UNL A   1      40.686  30.723  33.197  1.00  0.00    -0.248 NA
ATOM     68  C   UNL A   1      40.534  32.400  31.577  1.00  0.00     0.031 C 
ATOM     69  C   UNL A   1      45.318  29.388  32.133  1.00  0.00     0.029 A 
ATOM     70  C   UNL A   1      44.187  30.204  32.153  1.00  0.00     0.049 A 
ATOM     71  H   UNL A   1      43.605  31.618  30.731  1.00  0.00     0.167 HD
ATOM     72  C   UNL A   1      41.968  31.091  32.834  1.00  0.00     0.074 A 
ATOM     73  C   UNL A   1      41.807  32.238  31.952  1.00  0.00     0.031 C 
ATOM     74  C   UNL A   1      43.020  30.242  33.014  1.00  0.00     0.031 A 
BRANCH  61  75
ATOM     75  C   UNL A   1      45.050  32.134  28.247  1.00  0.00    -0.014 A 
ATOM     76  C   UNL A   1      46.308  32.754  28.118  1.00  0.00     0.010 A 
ATOM     77  C   UNL A   1      43.918  32.974  28.172  1.00  0.00     0.010 A 
ATOM     78  C   UNL A   1      46.422  34.142  27.960  1.00  0.00     0.020 A 
ATOM     79  C   UNL A   1      44.017  34.350  27.975  1.00  0.00     0.020 A 
ATOM     80  C   UNL A   1      45.272  34.930  27.895  1.00  0.00     0.054 A 
BRANCH  80  81
ATOM     81  S   UNL A   1      45.423  36.726  27.760  1.00  0.00     0.124 S 
ATOM     82  O   UNL A   1      44.129  37.176  28.264  1.00  0.00    -0.237 OA
ATOM     83  O   UNL A   1      46.572  37.002  28.616  1.00  0.00    -0.237 OA
ATOM     84  O   UNL A   1      45.650  36.942  26.332  1.00  0.00    -0.744 OA
ENDBRANCH  80  81
ENDBRANCH  61  75
BRANCH  62  85
ATOM     85  C   UNL A   1      37.375  31.376  31.764  1.00  0.00    -0.014 A 
ATOM     86  C   UNL A   1      36.627  31.584  32.939  1.00  0.00     0.010 A 
ATOM     87  C   UNL A   1      36.995  32.094  30.611  1.00  0.00     0.010 A 
ATOM     88  C   UNL A   1      35.570  32.514  32.970  1.00  0.00     0.020 A 
ATOM     89  C   UNL A   1      35.943  33.019  30.634  1.00  0.00     0.020 A 
ATOM     90  C   UNL A   1      35.247  33.239  31.819  1.00  0.00     0.054 A 
BRANCH  90  91
ATOM     91  S   UNL A   1      33.984  34.547  31.905  1.00  0.00     0.124 S 
ATOM     92  O   UNL A   1      33.030  33.995  32.861  1.00  0.00    -0.237 OA
ATOM     93  O   UNL A   1      34.750  35.700  32.370  1.00  0.00    -0.237 OA
ATOM     94  O   UNL A   1      33.497  34.645  30.531  1.00  0.00    -0.744 OA
ENDBRANCH  90  91
ENDBRANCH  62  85
BRANCH  74  95
ATOM     95  C   UNL A   1      42.917  29.205  34.096  1.00  0.00    -0.014 A 
ATOM     96  C   UNL A   1      43.326  29.388  35.429  1.00  0.00     0.010 A 
ATOM     97  C   UNL A   1      42.283  28.001  33.741  1.00  0.00     0.010 A 
ATOM     98  C   UNL A   1      43.112  28.377  36.380  1.00  0.00     0.020 A 
ATOM     99  C   UNL A   1      42.052  27.002  34.683  1.00  0.00     0.020 A 
ATOM    100  C   UNL A   1      42.475  27.190  35.999  1.00  0.00     0.054 A 
BRANCH 100 101
ATOM    101  S   UNL A   1      42.165  25.896  37.232  1.00  0.00     0.124 S 
ATOM    102  O   UNL A   1      42.911  26.377  38.391  1.00  0.00    -0.237 OA
ATOM    103  O   UNL A   1      40.710  25.918  37.366  1.00  0.00    -0.237 OA
ATOM    104  O   UNL A   1      42.703  24.686  36.612  1.00  0.00    -0.744 OA
ENDBRANCH 100 101
ENDBRANCH  74  95
ENDBRANCH  48  49
ENDBRANCH  41  43
ENDBRANCH  40  41
ENDBRANCH  39  40
ENDBRANCH  38  39
ENDBRANCH  37  38
ENDBRANCH   1  37
TORSDOF 24
ENDMDL
