MODEL 1
REMARK VINA RESULT:      -7.4      0.000      0.000
REMARK SMILES Cc1cc2cc(-c3ccc([C@@H](C)C(=O)OCCOCCOCCOC(=O)c4ccc(-c5c6nc(c(-c7ccc(S(=O)(=O)[O-])cc7)c7ccc([nH]7)c(-c7ccc(S(=O)(=O)[O-])cc7)c7nc(c(-c8ccc(S(=O)(=O)[O-])cc8)c8ccc5[nH]8)C=C7)C=C6)cc4)cc3)ccc2[nH]1
REMARK SMILES IDX 20 1 19 2 18 3 17 4 16 5 15 6 13 7 14 8 11 9 12 10 10 11
REMARK SMILES IDX 7 12 8 13 88 14 9 15 87 16 6 17 1 18 2 19 3 20 92 21 4 22
REMARK SMILES IDX 91 23 5 25 90 26 89 27 21 28 22 29 23 30 24 31 25 32 26 33
REMARK SMILES IDX 27 34 28 35 86 36 29 37 85 38 30 39 31 40 32 41 79 42 33 43
REMARK SMILES IDX 84 44 78 45 80 46 34 47 83 48 77 49 76 50 35 52 65 53 46 54
REMARK SMILES IDX 64 55 47 56 50 57 63 58 81 59 48 60 49 61 62 63 82 64 51 65
REMARK SMILES IDX 36 66 37 67 45 68 38 69 44 70 39 71 40 72 41 73 42 74 43 75
REMARK SMILES IDX 66 76 67 77 75 78 68 79 74 80 69 81 70 82 71 83 72 84 73 85
REMARK SMILES IDX 52 86 53 87 61 88 54 89 60 90 55 91 56 92 57 93 58 94 59 95
REMARK H PARENT 92 24 80 51 50 62
REMARK Flexibility Score: inf
ROOT
ATOM      1  C   UNL A   1      44.192  23.174  26.024  1.00  0.00     0.188 C 
ENDROOT
BRANCH   1   2
ATOM      2  C   UNL A   1      44.328  24.398  25.108  1.00  0.00     0.188 C 
BRANCH   2   3
ATOM      3  O   UNL A   1      45.604  24.719  24.566  1.00  0.00    -0.376 OA
BRANCH   3   4
ATOM      4  C   UNL A   1      46.535  25.442  25.362  1.00  0.00     0.202 C 
BRANCH   4   5
ATOM      5  C   UNL A   1      47.116  26.754  24.807  1.00  0.00     0.261 C 
BRANCH   5   6
ATOM      6  O   UNL A   1      46.214  27.885  24.792  1.00  0.00    -0.463 OA
BRANCH   6   7
ATOM      7  C   UNL A   1      45.461  28.074  25.905  1.00  0.00     0.313 C 
ATOM      8  O   UNL A   1      44.303  27.674  26.004  1.00  0.00    -0.252 OA
BRANCH   7   9
ATOM      9  C   UNL A   1      46.132  28.812  27.071  1.00  0.00     0.126 C 
ATOM     10  C   UNL A   1      46.830  27.779  27.956  1.00  0.00     0.025 C 
BRANCH   9  11
ATOM     11  C   UNL A   1      45.360  29.803  27.941  1.00  0.00    -0.034 A 
ATOM     12  C   UNL A   1      43.906  31.579  29.652  1.00  0.00    -0.018 A 
ATOM     13  C   UNL A   1      44.069  31.842  28.280  1.00  0.00     0.009 A 
ATOM     14  C   UNL A   1      44.494  30.415  30.160  1.00  0.00     0.009 A 
ATOM     15  C   UNL A   1      44.770  30.966  27.434  1.00  0.00     0.005 A 
ATOM     16  C   UNL A   1      45.200  29.539  29.318  1.00  0.00     0.005 A 
BRANCH  12  17
ATOM     17  C   UNL A   1      43.079  32.465  30.495  1.00  0.00    -0.018 A 
ATOM     18  C   UNL A   1      41.666  35.884  35.391  1.00  0.00     0.064 C 
ATOM     19  C   UNL A   1      41.953  35.081  34.179  1.00  0.00     0.013 A 
ATOM     20  C   UNL A   1      43.089  34.388  33.813  1.00  0.00     0.031 A 
ATOM     21  N   UNL A   1      41.034  34.915  33.169  1.00  0.00    -0.359 N 
ATOM     22  C   UNL A   1      42.844  33.773  32.557  1.00  0.00     0.000 A 
ATOM     23  C   UNL A   1      41.552  34.117  32.170  1.00  0.00     0.046 A 
ATOM     24  H   UNL A   1      40.133  35.311  33.159  1.00  0.00     0.166 HD
ATOM     25  C   UNL A   1      43.608  32.948  31.709  1.00  0.00     0.019 A 
ATOM     26  C   UNL A   1      40.991  33.676  30.965  1.00  0.00     0.027 A 
ATOM     27  C   UNL A   1      41.775  32.846  30.141  1.00  0.00     0.011 A 
ENDBRANCH  12  17
ENDBRANCH   9  11
ENDBRANCH   7   9
ENDBRANCH   6   7
ENDBRANCH   5   6
ENDBRANCH   4   5
ENDBRANCH   3   4
ENDBRANCH   2   3
ENDBRANCH   1   2
BRANCH   1  28
ATOM     28  O   UNL A   1      44.212  23.470  27.404  1.00  0.00    -0.376 OA
BRANCH  28  29
ATOM     29  C   UNL A   1      43.740  24.745  27.787  1.00  0.00     0.202 C 
BRANCH  29  30
ATOM     30  C   UNL A   1      42.315  24.779  28.359  1.00  0.00     0.261 C 
BRANCH  30  31
ATOM     31  O   UNL A   1      41.246  24.809  27.395  1.00  0.00    -0.460 OA
BRANCH  31  32
ATOM     32  C   UNL A   1      40.965  25.999  26.819  1.00  0.00     0.338 C 
ATOM     33  O   UNL A   1      40.780  26.207  25.627  1.00  0.00    -0.246 OA
BRANCH  32  34
ATOM     34  C   UNL A   1      40.701  26.982  27.895  1.00  0.00     0.060 A 
ATOM     35  C   UNL A   1      41.462  28.160  27.948  1.00  0.00     0.016 A 
ATOM     36  C   UNL A   1      39.712  26.742  28.851  1.00  0.00     0.016 A 
ATOM     37  C   UNL A   1      41.266  29.076  28.986  1.00  0.00     0.010 A 
ATOM     38  C   UNL A   1      39.532  27.651  29.899  1.00  0.00     0.010 A 
ATOM     39  C   UNL A   1      40.335  28.803  29.996  1.00  0.00    -0.014 A 
BRANCH  39  40
ATOM     40  C   UNL A   1      40.342  29.597  31.253  1.00  0.00     0.031 A 
ATOM     41  C   UNL A   1      41.449  29.345  32.247  1.00  0.00     0.074 A 
ATOM     42  C   UNL A   1      39.405  30.526  31.516  1.00  0.00     0.049 A 
ATOM     43  N   UNL A   1      41.639  29.869  33.430  1.00  0.00    -0.248 NA
ATOM     44  C   UNL A   1      42.475  28.366  31.850  1.00  0.00     0.031 C 
ATOM     45  C   UNL A   1      38.309  30.901  30.625  1.00  0.00     0.029 A 
ATOM     46  N   UNL A   1      39.227  31.322  32.622  1.00  0.00    -0.354 N 
ATOM     47  C   UNL A   1      42.794  29.273  33.925  1.00  0.00     0.074 A 
ATOM     48  C   UNL A   1      43.244  28.327  32.927  1.00  0.00     0.031 C 
ATOM     49  C   UNL A   1      37.565  31.848  31.226  1.00  0.00     0.029 A 
ATOM     50  C   UNL A   1      38.111  32.122  32.555  1.00  0.00     0.049 A 
ATOM     51  H   UNL A   1      39.843  31.320  33.391  1.00  0.00     0.167 HD
ATOM     52  C   UNL A   1      43.429  29.494  35.101  1.00  0.00     0.031 A 
ATOM     53  C   UNL A   1      37.577  32.959  33.469  1.00  0.00     0.031 A 
ATOM     54  C   UNL A   1      42.975  30.424  36.101  1.00  0.00     0.049 A 
ATOM     55  C   UNL A   1      38.262  33.137  34.802  1.00  0.00     0.074 A 
ATOM     56  C   UNL A   1      43.559  30.729  37.318  1.00  0.00     0.029 A 
ATOM     57  N   UNL A   1      41.825  31.192  36.006  1.00  0.00    -0.354 N 
ATOM     58  N   UNL A   1      39.366  32.584  35.246  1.00  0.00    -0.248 NA
ATOM     59  C   UNL A   1      37.632  34.065  35.754  1.00  0.00     0.031 C 
ATOM     60  C   UNL A   1      42.727  31.633  37.987  1.00  0.00     0.029 A 
ATOM     61  C   UNL A   1      41.667  31.950  37.154  1.00  0.00     0.049 A 
ATOM     62  H   UNL A   1      41.211  31.197  35.236  1.00  0.00     0.167 HD
ATOM     63  C   UNL A   1      39.582  33.126  36.511  1.00  0.00     0.074 A 
ATOM     64  C   UNL A   1      38.502  34.058  36.754  1.00  0.00     0.031 C 
ATOM     65  C   UNL A   1      40.587  32.878  37.388  1.00  0.00     0.031 A 
BRANCH  52  66
ATOM     66  C   UNL A   1      44.667  28.683  35.386  1.00  0.00    -0.014 A 
ATOM     67  C   UNL A   1      44.591  27.426  36.013  1.00  0.00     0.010 A 
ATOM     68  C   UNL A   1      45.924  29.171  34.986  1.00  0.00     0.010 A 
ATOM     69  C   UNL A   1      45.753  26.692  36.271  1.00  0.00     0.020 A 
ATOM     70  C   UNL A   1      47.084  28.426  35.212  1.00  0.00     0.020 A 
ATOM     71  C   UNL A   1      46.993  27.198  35.869  1.00  0.00     0.054 A 
BRANCH  71  72
ATOM     72  S   UNL A   1      48.481  26.213  36.194  1.00  0.00     0.124 S 
ATOM     73  O   UNL A   1      47.910  24.941  36.629  1.00  0.00    -0.237 OA
ATOM     74  O   UNL A   1      49.140  26.193  34.891  1.00  0.00    -0.237 OA
ATOM     75  O   UNL A   1      49.179  26.968  37.231  1.00  0.00    -0.744 OA
ENDBRANCH  71  72
ENDBRANCH  52  66
BRANCH  53  76
ATOM     76  C   UNL A   1      36.313  33.690  33.165  1.00  0.00    -0.014 A 
ATOM     77  C   UNL A   1      35.062  33.084  33.377  1.00  0.00     0.010 A 
ATOM     78  C   UNL A   1      36.356  34.997  32.646  1.00  0.00     0.010 A 
ATOM     79  C   UNL A   1      33.881  33.762  33.060  1.00  0.00     0.020 A 
ATOM     80  C   UNL A   1      35.177  35.692  32.358  1.00  0.00     0.020 A 
ATOM     81  C   UNL A   1      33.946  35.064  32.556  1.00  0.00     0.054 A 
BRANCH  81  82
ATOM     82  S   UNL A   1      32.398  35.943  32.200  1.00  0.00     0.124 S 
ATOM     83  O   UNL A   1      31.393  34.970  32.615  1.00  0.00    -0.237 OA
ATOM     84  O   UNL A   1      32.514  37.132  33.040  1.00  0.00    -0.237 OA
ATOM     85  O   UNL A   1      32.470  36.195  30.762  1.00  0.00    -0.744 OA
ENDBRANCH  81  82
ENDBRANCH  53  76
BRANCH  65  86
ATOM     86  C   UNL A   1      40.604  33.665  38.676  1.00  0.00    -0.014 A 
ATOM     87  C   UNL A   1      41.355  34.846  38.812  1.00  0.00     0.010 A 
ATOM     88  C   UNL A   1      39.815  33.231  39.759  1.00  0.00     0.010 A 
ATOM     89  C   UNL A   1      41.351  35.552  40.020  1.00  0.00     0.020 A 
ATOM     90  C   UNL A   1      39.782  33.952  40.955  1.00  0.00     0.020 A 
ATOM     91  C   UNL A   1      40.567  35.099  41.085  1.00  0.00     0.054 A 
BRANCH  91  92
ATOM     92  S   UNL A   1      40.562  36.044  42.633  1.00  0.00     0.124 S 
ATOM     93  O   UNL A   1      41.276  37.258  42.250  1.00  0.00    -0.237 OA
ATOM     94  O   UNL A   1      39.137  36.211  42.902  1.00  0.00    -0.237 OA
ATOM     95  O   UNL A   1      41.270  35.176  43.571  1.00  0.00    -0.744 OA
ENDBRANCH  91  92
ENDBRANCH  65  86
ENDBRANCH  39  40
ENDBRANCH  32  34
ENDBRANCH  31  32
ENDBRANCH  30  31
ENDBRANCH  29  30
ENDBRANCH  28  29
ENDBRANCH   1  28
TORSDOF 22
ENDMDL
MODEL 2
REMARK VINA RESULT:      -7.0      5.467     13.502
REMARK SMILES Cc1cc2cc(-c3ccc([C@@H](C)C(=O)OCCOCCOCCOC(=O)c4ccc(-c5c6nc(c(-c7ccc(S(=O)(=O)[O-])cc7)c7ccc([nH]7)c(-c7ccc(S(=O)(=O)[O-])cc7)c7nc(c(-c8ccc(S(=O)(=O)[O-])cc8)c8ccc5[nH]8)C=C7)C=C6)cc4)cc3)ccc2[nH]1
REMARK SMILES IDX 20 1 19 2 18 3 17 4 16 5 15 6 13 7 14 8 11 9 12 10 10 11
REMARK SMILES IDX 7 12 8 13 88 14 9 15 87 16 6 17 1 18 2 19 3 20 92 21 4 22
REMARK SMILES IDX 91 23 5 25 90 26 89 27 21 28 22 29 23 30 24 31 25 32 26 33
REMARK SMILES IDX 27 34 28 35 86 36 29 37 85 38 30 39 31 40 32 41 79 42 33 43
REMARK SMILES IDX 84 44 78 45 80 46 34 47 83 48 77 49 76 50 35 52 65 53 46 54
REMARK SMILES IDX 64 55 47 56 50 57 63 58 81 59 48 60 49 61 62 63 82 64 51 65
REMARK SMILES IDX 36 66 37 67 45 68 38 69 44 70 39 71 40 72 41 73 42 74 43 75
REMARK SMILES IDX 66 76 67 77 75 78 68 79 74 80 69 81 70 82 71 83 72 84 73 85
REMARK SMILES IDX 52 86 53 87 61 88 54 89 60 90 55 91 56 92 57 93 58 94 59 95
REMARK H PARENT 92 24 80 51 50 62
REMARK Flexibility Score: inf
ROOT
ATOM      1  C   UNL A   1      49.075  41.435  29.383  1.00  0.00     0.188 C 
ENDROOT
BRANCH   1   2
ATOM      2  C   UNL A   1      47.981  41.642  28.326  1.00  0.00     0.188 C 
BRANCH   2   3
ATOM      3  O   UNL A   1      47.214  40.524  27.896  1.00  0.00    -0.376 OA
BRANCH   3   4
ATOM      4  C   UNL A   1      45.799  40.556  28.037  1.00  0.00     0.202 C 
BRANCH   4   5
ATOM      5  C   UNL A   1      45.096  39.350  28.683  1.00  0.00     0.261 C 
BRANCH   5   6
ATOM      6  O   UNL A   1      45.090  38.133  27.901  1.00  0.00    -0.463 OA
BRANCH   6   7
ATOM      7  C   UNL A   1      43.874  37.636  27.562  1.00  0.00     0.313 C 
ATOM      8  O   UNL A   1      42.976  38.331  27.089  1.00  0.00    -0.252 OA
BRANCH   7   9
ATOM      9  C   UNL A   1      43.661  36.133  27.783  1.00  0.00     0.126 C 
ATOM     10  C   UNL A   1      42.997  35.553  26.534  1.00  0.00     0.025 C 
BRANCH   9  11
ATOM     11  C   UNL A   1      42.966  35.598  29.035  1.00  0.00    -0.034 A 
ATOM     12  C   UNL A   1      41.767  34.602  31.435  1.00  0.00    -0.018 A 
ATOM     13  C   UNL A   1      41.130  34.486  30.186  1.00  0.00     0.009 A 
ATOM     14  C   UNL A   1      43.013  35.237  31.467  1.00  0.00     0.009 A 
ATOM     15  C   UNL A   1      41.721  34.962  29.004  1.00  0.00     0.005 A 
ATOM     16  C   UNL A   1      43.606  35.718  30.287  1.00  0.00     0.005 A 
BRANCH  12  17
ATOM     17  C   UNL A   1      41.167  34.003  32.644  1.00  0.00    -0.018 A 
ATOM     18  C   UNL A   1      37.148  33.409  37.243  1.00  0.00     0.064 C 
ATOM     19  C   UNL A   1      38.145  33.494  36.149  1.00  0.00     0.013 A 
ATOM     20  C   UNL A   1      38.220  34.354  35.073  1.00  0.00     0.031 A 
ATOM     21  N   UNL A   1      39.220  32.641  36.062  1.00  0.00    -0.359 N 
ATOM     22  C   UNL A   1      39.381  34.023  34.325  1.00  0.00     0.000 A 
ATOM     23  C   UNL A   1      39.992  32.946  34.961  1.00  0.00     0.046 A 
ATOM     24  H   UNL A   1      39.412  31.913  36.697  1.00  0.00     0.166 HD
ATOM     25  C   UNL A   1      39.972  34.545  33.158  1.00  0.00     0.019 A 
ATOM     26  C   UNL A   1      41.169  32.363  34.476  1.00  0.00     0.027 A 
ATOM     27  C   UNL A   1      41.742  32.911  33.312  1.00  0.00     0.011 A 
ENDBRANCH  12  17
ENDBRANCH   9  11
ENDBRANCH   7   9
ENDBRANCH   6   7
ENDBRANCH   5   6
ENDBRANCH   4   5
ENDBRANCH   3   4
ENDBRANCH   2   3
ENDBRANCH   1   2
BRANCH   1  28
ATOM     28  O   UNL A   1      50.058  40.485  29.030  1.00  0.00    -0.376 OA
BRANCH  28  29
ATOM     29  C   UNL A   1      50.089  39.292  29.785  1.00  0.00     0.202 C 
BRANCH  29  30
ATOM     30  C   UNL A   1      48.899  38.344  29.572  1.00  0.00     0.261 C 
BRANCH  30  31
ATOM     31  O   UNL A   1      48.786  37.250  30.502  1.00  0.00    -0.460 OA
BRANCH  31  32
ATOM     32  C   UNL A   1      47.540  36.817  30.799  1.00  0.00     0.338 C 
ATOM     33  O   UNL A   1      46.618  37.492  31.239  1.00  0.00    -0.246 OA
BRANCH  32  34
ATOM     34  C   UNL A   1      47.402  35.430  30.298  1.00  0.00     0.060 A 
ATOM     35  C   UNL A   1      46.970  35.217  28.980  1.00  0.00     0.016 A 
ATOM     36  C   UNL A   1      47.692  34.343  31.125  1.00  0.00     0.016 A 
ATOM     37  C   UNL A   1      46.782  33.917  28.504  1.00  0.00     0.010 A 
ATOM     38  C   UNL A   1      47.484  33.043  30.652  1.00  0.00     0.010 A 
ATOM     39  C   UNL A   1      46.989  32.822  29.353  1.00  0.00    -0.014 A 
BRANCH  39  40
ATOM     40  C   UNL A   1      46.494  31.474  28.968  1.00  0.00     0.031 A 
ATOM     41  C   UNL A   1      45.073  31.111  29.319  1.00  0.00     0.074 A 
ATOM     42  C   UNL A   1      47.270  30.588  28.316  1.00  0.00     0.049 A 
ATOM     43  N   UNL A   1      44.433  29.984  29.138  1.00  0.00    -0.248 NA
ATOM     44  C   UNL A   1      44.269  32.163  29.964  1.00  0.00     0.031 C 
ATOM     45  C   UNL A   1      48.644  30.825  27.877  1.00  0.00     0.029 A 
ATOM     46  N   UNL A   1      47.006  29.301  27.915  1.00  0.00    -0.354 N 
ATOM     47  C   UNL A   1      43.160  30.185  29.660  1.00  0.00     0.074 A 
ATOM     48  C   UNL A   1      43.128  31.531  30.192  1.00  0.00     0.031 C 
ATOM     49  C   UNL A   1      49.106  29.714  27.276  1.00  0.00     0.029 A 
ATOM     50  C   UNL A   1      48.076  28.676  27.318  1.00  0.00     0.049 A 
ATOM     51  H   UNL A   1      46.131  28.867  28.043  1.00  0.00     0.167 HD
ATOM     52  C   UNL A   1      42.109  29.332  29.693  1.00  0.00     0.031 A 
ATOM     53  C   UNL A   1      48.215  27.408  26.878  1.00  0.00     0.031 A 
ATOM     54  C   UNL A   1      42.144  27.989  29.178  1.00  0.00     0.049 A 
ATOM     55  C   UNL A   1      47.053  26.452  26.989  1.00  0.00     0.074 A 
ATOM     56  C   UNL A   1      41.125  27.052  29.151  1.00  0.00     0.029 A 
ATOM     57  N   UNL A   1      43.255  27.387  28.609  1.00  0.00    -0.354 N 
ATOM     58  N   UNL A   1      45.849  26.663  27.464  1.00  0.00    -0.248 NA
ATOM     59  C   UNL A   1      47.269  25.085  26.490  1.00  0.00     0.031 C 
ATOM     60  C   UNL A   1      41.639  25.862  28.625  1.00  0.00     0.029 A 
ATOM     61  C   UNL A   1      42.955  26.082  28.251  1.00  0.00     0.049 A 
ATOM     62  H   UNL A   1      44.129  27.821  28.477  1.00  0.00     0.167 HD
ATOM     63  C   UNL A   1      45.154  25.470  27.286  1.00  0.00     0.074 A 
ATOM     64  C   UNL A   1      46.068  24.546  26.649  1.00  0.00     0.031 C 
ATOM     65  C   UNL A   1      43.872  25.168  27.615  1.00  0.00     0.031 A 
BRANCH  52  66
ATOM     66  C   UNL A   1      40.840  29.816  30.345  1.00  0.00    -0.014 A 
ATOM     67  C   UNL A   1      40.628  29.682  31.729  1.00  0.00     0.010 A 
ATOM     68  C   UNL A   1      39.857  30.452  29.564  1.00  0.00     0.010 A 
ATOM     69  C   UNL A   1      39.441  30.136  32.312  1.00  0.00     0.020 A 
ATOM     70  C   UNL A   1      38.684  30.936  30.147  1.00  0.00     0.020 A 
ATOM     71  C   UNL A   1      38.476  30.759  31.516  1.00  0.00     0.054 A 
BRANCH  71  72
ATOM     72  S   UNL A   1      36.956  31.361  32.303  1.00  0.00     0.124 S 
ATOM     73  O   UNL A   1      36.834  32.701  31.736  1.00  0.00    -0.237 OA
ATOM     74  O   UNL A   1      35.959  30.394  31.850  1.00  0.00    -0.237 OA
ATOM     75  O   UNL A   1      37.262  31.315  33.730  1.00  0.00    -0.744 OA
ENDBRANCH  71  72
ENDBRANCH  52  66
BRANCH  53  76
ATOM     76  C   UNL A   1      49.514  26.956  26.301  1.00  0.00    -0.014 A 
ATOM     77  C   UNL A   1      49.826  27.198  24.951  1.00  0.00     0.010 A 
ATOM     78  C   UNL A   1      50.443  26.265  27.100  1.00  0.00     0.010 A 
ATOM     79  C   UNL A   1      51.032  26.743  24.408  1.00  0.00     0.020 A 
ATOM     80  C   UNL A   1      51.665  25.837  26.570  1.00  0.00     0.020 A 
ATOM     81  C   UNL A   1      51.946  26.068  25.223  1.00  0.00     0.054 A 
BRANCH  81  82
ATOM     82  S   UNL A   1      53.526  25.531  24.508  1.00  0.00     0.124 S 
ATOM     83  O   UNL A   1      53.414  26.004  23.132  1.00  0.00    -0.237 OA
ATOM     84  O   UNL A   1      54.499  26.232  25.341  1.00  0.00    -0.237 OA
ATOM     85  O   UNL A   1      53.503  24.080  24.676  1.00  0.00    -0.744 OA
ENDBRANCH  81  82
ENDBRANCH  53  76
BRANCH  65  86
ATOM     86  C   UNL A   1      43.356  23.800  27.244  1.00  0.00    -0.014 A 
ATOM     87  C   UNL A   1      42.907  23.505  25.944  1.00  0.00     0.010 A 
ATOM     88  C   UNL A   1      43.362  22.776  28.212  1.00  0.00     0.010 A 
ATOM     89  C   UNL A   1      42.432  22.226  25.633  1.00  0.00     0.020 A 
ATOM     90  C   UNL A   1      42.920  21.488  27.895  1.00  0.00     0.020 A 
ATOM     91  C   UNL A   1      42.440  21.226  26.611  1.00  0.00     0.054 A 
BRANCH  91  92
ATOM     92  S   UNL A   1      41.840  19.571  26.175  1.00  0.00     0.124 S 
ATOM     93  O   UNL A   1      42.594  19.285  24.959  1.00  0.00    -0.237 OA
ATOM     94  O   UNL A   1      42.208  18.779  27.345  1.00  0.00    -0.237 OA
ATOM     95  O   UNL A   1      40.403  19.762  25.987  1.00  0.00    -0.744 OA
ENDBRANCH  91  92
ENDBRANCH  65  86
ENDBRANCH  39  40
ENDBRANCH  32  34
ENDBRANCH  31  32
ENDBRANCH  30  31
ENDBRANCH  29  30
ENDBRANCH  28  29
ENDBRANCH   1  28
TORSDOF 22
ENDMDL
MODEL 3
REMARK VINA RESULT:      -6.9      4.699     10.965
REMARK SMILES Cc1cc2cc(-c3ccc([C@@H](C)C(=O)OCCOCCOCCOC(=O)c4ccc(-c5c6nc(c(-c7ccc(S(=O)(=O)[O-])cc7)c7ccc([nH]7)c(-c7ccc(S(=O)(=O)[O-])cc7)c7nc(c(-c8ccc(S(=O)(=O)[O-])cc8)c8ccc5[nH]8)C=C7)C=C6)cc4)cc3)ccc2[nH]1
REMARK SMILES IDX 20 1 19 2 18 3 17 4 16 5 15 6 13 7 14 8 11 9 12 10 10 11
REMARK SMILES IDX 7 12 8 13 88 14 9 15 87 16 6 17 1 18 2 19 3 20 92 21 4 22
REMARK SMILES IDX 91 23 5 25 90 26 89 27 21 28 22 29 23 30 24 31 25 32 26 33
REMARK SMILES IDX 27 34 28 35 86 36 29 37 85 38 30 39 31 40 32 41 79 42 33 43
REMARK SMILES IDX 84 44 78 45 80 46 34 47 83 48 77 49 76 50 35 52 65 53 46 54
REMARK SMILES IDX 64 55 47 56 50 57 63 58 81 59 48 60 49 61 62 63 82 64 51 65
REMARK SMILES IDX 36 66 37 67 45 68 38 69 44 70 39 71 40 72 41 73 42 74 43 75
REMARK SMILES IDX 66 76 67 77 75 78 68 79 74 80 69 81 70 82 71 83 72 84 73 85
REMARK SMILES IDX 52 86 53 87 61 88 54 89 60 90 55 91 56 92 57 93 58 94 59 95
REMARK H PARENT 92 24 80 51 50 62
REMARK Flexibility Score: inf
ROOT
ATOM      1  C   UNL A   1      33.444  36.922  30.885  1.00  0.00     0.188 C 
ENDROOT
BRANCH   1   2
ATOM      2  C   UNL A   1      32.923  35.724  30.078  1.00  0.00     0.188 C 
BRANCH   2   3
ATOM      3  O   UNL A   1      33.504  34.442  30.290  1.00  0.00    -0.376 OA
BRANCH   3   4
ATOM      4  C   UNL A   1      34.864  34.228  29.933  1.00  0.00     0.202 C 
BRANCH   4   5
ATOM      5  C   UNL A   1      35.316  32.802  29.573  1.00  0.00     0.261 C 
BRANCH   5   6
ATOM      6  O   UNL A   1      36.256  32.192  30.487  1.00  0.00    -0.463 OA
BRANCH   6   7
ATOM      7  C   UNL A   1      36.911  31.091  30.039  1.00  0.00     0.313 C 
ATOM      8  O   UNL A   1      36.873  30.724  28.866  1.00  0.00    -0.252 OA
BRANCH   7   9
ATOM      9  C   UNL A   1      37.732  30.312  31.073  1.00  0.00     0.126 C 
ATOM     10  C   UNL A   1      37.039  30.436  32.430  1.00  0.00     0.025 C 
BRANCH   9  11
ATOM     11  C   UNL A   1      39.235  30.536  31.236  1.00  0.00    -0.034 A 
ATOM     12  C   UNL A   1      42.038  31.058  31.489  1.00  0.00    -0.018 A 
ATOM     13  C   UNL A   1      41.507  29.766  31.660  1.00  0.00     0.009 A 
ATOM     14  C   UNL A   1      41.140  32.091  31.201  1.00  0.00     0.009 A 
ATOM     15  C   UNL A   1      40.134  29.504  31.523  1.00  0.00     0.005 A 
ATOM     16  C   UNL A   1      39.765  31.833  31.068  1.00  0.00     0.005 A 
BRANCH  12  17
ATOM     17  C   UNL A   1      43.496  31.285  31.539  1.00  0.00    -0.018 A 
ATOM     18  C   UNL A   1      48.686  34.538  31.903  1.00  0.00     0.064 C 
ATOM     19  C   UNL A   1      47.469  33.697  31.821  1.00  0.00     0.013 A 
ATOM     20  C   UNL A   1      46.135  34.045  31.888  1.00  0.00     0.031 A 
ATOM     21  N   UNL A   1      47.523  32.332  31.656  1.00  0.00    -0.359 N 
ATOM     22  C   UNL A   1      45.363  32.862  31.743  1.00  0.00     0.000 A 
ATOM     23  C   UNL A   1      46.252  31.801  31.601  1.00  0.00     0.046 A 
ATOM     24  H   UNL A   1      48.354  31.808  31.589  1.00  0.00     0.166 HD
ATOM     25  C   UNL A   1      43.980  32.597  31.718  1.00  0.00     0.019 A 
ATOM     26  C   UNL A   1      45.817  30.480  31.439  1.00  0.00     0.027 A 
ATOM     27  C   UNL A   1      44.429  30.244  31.410  1.00  0.00     0.011 A 
ENDBRANCH  12  17
ENDBRANCH   9  11
ENDBRANCH   7   9
ENDBRANCH   6   7
ENDBRANCH   5   6
ENDBRANCH   4   5
ENDBRANCH   3   4
ENDBRANCH   2   3
ENDBRANCH   1   2
BRANCH   1  28
ATOM     28  O   UNL A   1      32.646  37.272  31.995  1.00  0.00    -0.376 OA
BRANCH  28  29
ATOM     29  C   UNL A   1      33.115  36.873  33.266  1.00  0.00     0.202 C 
BRANCH  29  30
ATOM     30  C   UNL A   1      34.470  36.150  33.273  1.00  0.00     0.261 C 
BRANCH  30  31
ATOM     31  O   UNL A   1      34.648  35.147  34.291  1.00  0.00    -0.460 OA
BRANCH  31  32
ATOM     32  C   UNL A   1      35.216  33.979  33.916  1.00  0.00     0.338 C 
ATOM     33  O   UNL A   1      34.674  33.064  33.310  1.00  0.00    -0.246 OA
BRANCH  32  34
ATOM     34  C   UNL A   1      36.673  34.074  34.167  1.00  0.00     0.060 A 
ATOM     35  C   UNL A   1      37.550  34.189  33.077  1.00  0.00     0.016 A 
ATOM     36  C   UNL A   1      37.175  34.045  35.470  1.00  0.00     0.016 A 
ATOM     37  C   UNL A   1      38.931  34.226  33.287  1.00  0.00     0.010 A 
ATOM     38  C   UNL A   1      38.558  34.063  35.676  1.00  0.00     0.010 A 
ATOM     39  C   UNL A   1      39.446  34.113  34.585  1.00  0.00    -0.014 A 
BRANCH  39  40
ATOM     40  C   UNL A   1      40.891  33.833  34.793  1.00  0.00     0.031 A 
ATOM     41  C   UNL A   1      41.835  35.005  34.901  1.00  0.00     0.074 A 
ATOM     42  C   UNL A   1      41.368  32.578  34.896  1.00  0.00     0.049 A 
ATOM     43  N   UNL A   1      43.137  35.015  35.029  1.00  0.00    -0.248 NA
ATOM     44  C   UNL A   1      41.223  36.344  34.854  1.00  0.00     0.031 C 
ATOM     45  C   UNL A   1      40.563  31.359  34.855  1.00  0.00     0.029 A 
ATOM     46  N   UNL A   1      42.656  32.126  35.050  1.00  0.00    -0.354 N 
ATOM     47  C   UNL A   1      43.501  36.357  35.062  1.00  0.00     0.074 A 
ATOM     48  C   UNL A   1      42.287  37.130  34.910  1.00  0.00     0.031 C 
ATOM     49  C   UNL A   1      41.379  30.295  34.970  1.00  0.00     0.029 A 
ATOM     50  C   UNL A   1      42.765  30.755  35.058  1.00  0.00     0.049 A 
ATOM     51  H   UNL A   1      43.430  32.728  35.147  1.00  0.00     0.167 HD
ATOM     52  C   UNL A   1      44.733  36.901  35.209  1.00  0.00     0.031 A 
ATOM     53  C   UNL A   1      43.856  29.964  35.108  1.00  0.00     0.031 A 
ATOM     54  C   UNL A   1      45.942  36.135  35.345  1.00  0.00     0.049 A 
ATOM     55  C   UNL A   1      45.226  30.592  35.199  1.00  0.00     0.074 A 
ATOM     56  C   UNL A   1      47.237  36.595  35.515  1.00  0.00     0.029 A 
ATOM     57  N   UNL A   1      46.011  34.750  35.319  1.00  0.00    -0.354 N 
ATOM     58  N   UNL A   1      45.552  31.861  35.252  1.00  0.00    -0.248 NA
ATOM     59  C   UNL A   1      46.375  29.675  35.251  1.00  0.00     0.031 C 
ATOM     60  C   UNL A   1      48.095  35.491  35.526  1.00  0.00     0.029 A 
ATOM     61  C   UNL A   1      47.328  34.340  35.443  1.00  0.00     0.049 A 
ATOM     62  H   UNL A   1      45.238  34.148  35.227  1.00  0.00     0.167 HD
ATOM     63  C   UNL A   1      46.939  31.893  35.382  1.00  0.00     0.074 A 
ATOM     64  C   UNL A   1      47.386  30.517  35.412  1.00  0.00     0.031 C 
ATOM     65  C   UNL A   1      47.765  32.965  35.473  1.00  0.00     0.031 A 
BRANCH  52  66
ATOM     66  C   UNL A   1      44.836  38.405  35.189  1.00  0.00    -0.014 A 
ATOM     67  C   UNL A   1      45.067  39.109  33.994  1.00  0.00     0.010 A 
ATOM     68  C   UNL A   1      44.661  39.128  36.383  1.00  0.00     0.010 A 
ATOM     69  C   UNL A   1      45.162  40.504  34.000  1.00  0.00     0.020 A 
ATOM     70  C   UNL A   1      44.723  40.524  36.389  1.00  0.00     0.020 A 
ATOM     71  C   UNL A   1      44.990  41.202  35.199  1.00  0.00     0.054 A 
BRANCH  71  72
ATOM     72  S   UNL A   1      45.094  43.013  35.173  1.00  0.00     0.124 S 
ATOM     73  O   UNL A   1      43.727  43.388  34.821  1.00  0.00    -0.237 OA
ATOM     74  O   UNL A   1      45.499  43.328  36.541  1.00  0.00    -0.237 OA
ATOM     75  O   UNL A   1      46.098  43.289  34.149  1.00  0.00    -0.744 OA
ENDBRANCH  71  72
ENDBRANCH  52  66
BRANCH  53  76
ATOM     76  C   UNL A   1      43.707  28.481  35.056  1.00  0.00    -0.014 A 
ATOM     77  C   UNL A   1      43.610  27.725  36.238  1.00  0.00     0.010 A 
ATOM     78  C   UNL A   1      43.676  27.813  33.818  1.00  0.00     0.010 A 
ATOM     79  C   UNL A   1      43.503  26.331  36.183  1.00  0.00     0.020 A 
ATOM     80  C   UNL A   1      43.537  26.423  33.758  1.00  0.00     0.020 A 
ATOM     81  C   UNL A   1      43.463  25.690  34.943  1.00  0.00     0.054 A 
BRANCH  81  82
ATOM     82  S   UNL A   1      43.273  23.885  34.897  1.00  0.00     0.124 S 
ATOM     83  O   UNL A   1      43.619  23.577  33.512  1.00  0.00    -0.237 OA
ATOM     84  O   UNL A   1      44.235  23.443  35.903  1.00  0.00    -0.237 OA
ATOM     85  O   UNL A   1      41.870  23.678  35.252  1.00  0.00    -0.744 OA
ENDBRANCH  81  82
ENDBRANCH  53  76
BRANCH  65  86
ATOM     86  C   UNL A   1      49.238  32.701  35.672  1.00  0.00    -0.014 A 
ATOM     87  C   UNL A   1      49.822  32.687  36.951  1.00  0.00     0.010 A 
ATOM     88  C   UNL A   1      50.044  32.418  34.551  1.00  0.00     0.010 A 
ATOM     89  C   UNL A   1      51.191  32.441  37.101  1.00  0.00     0.020 A 
ATOM     90  C   UNL A   1      51.405  32.137  34.701  1.00  0.00     0.020 A 
ATOM     91  C   UNL A   1      51.974  32.170  35.975  1.00  0.00     0.054 A 
BRANCH  91  92
ATOM     92  S   UNL A   1      53.742  31.832  36.199  1.00  0.00     0.124 S 
ATOM     93  O   UNL A   1      53.719  30.630  37.027  1.00  0.00    -0.237 OA
ATOM     94  O   UNL A   1      54.208  31.641  34.828  1.00  0.00    -0.237 OA
ATOM     95  O   UNL A   1      54.244  33.034  36.859  1.00  0.00    -0.744 OA
ENDBRANCH  91  92
ENDBRANCH  65  86
ENDBRANCH  39  40
ENDBRANCH  32  34
ENDBRANCH  31  32
ENDBRANCH  30  31
ENDBRANCH  29  30
ENDBRANCH  28  29
ENDBRANCH   1  28
TORSDOF 22
ENDMDL
