MODEL 1
REMARK VINA RESULT:     -10.0      0.000      0.000
REMARK SMILES O=C(OCCOCCOCCOC(=O)c1ccc(-c2c3nc(c(-c4ccc(S(=O)(=O)[O-])cc4)c4ccc([nH]4)c(-c4ccc(S(=O)(=O)[O-])cc4)c4nc(c(-c5ccc(S(=O)(=O)[O-])cc5)c5ccc2[nH]5)C=C4)C=C3)cc1)C1=Cc2cc(Cl)cc(-c3ccc(CO)cc3)c2O[C@@H]1C(F)(F)F
REMARK SMILES IDX 7 1 6 2 5 3 4 4 3 5 2 6 1 7 75 8 76 9 93 10 77 11 92 12
REMARK SMILES IDX 78 13 91 14 79 15 82 16 80 17 81 18 94 19 95 20 96 21 97 22
REMARK SMILES IDX 83 23 84 24 90 25 85 26 89 27 86 28 87 29 88 30 8 32 9 33
REMARK SMILES IDX 10 34 11 35 12 36 13 37 14 38 15 39 16 40 74 41 17 42 73 43
REMARK SMILES IDX 18 44 19 45 20 46 67 47 21 48 72 49 66 50 68 51 22 52 71 53
REMARK SMILES IDX 65 54 64 55 23 57 53 58 34 59 52 60 35 61 38 62 51 63 69 64
REMARK SMILES IDX 36 65 37 66 50 68 70 69 39 70 24 71 25 72 33 73 26 74 32 75
REMARK SMILES IDX 27 76 28 77 29 78 30 79 31 80 54 81 55 82 63 83 56 84 62 85
REMARK SMILES IDX 57 86 58 87 59 88 60 89 61 90 40 91 41 92 49 93 42 94 48 95
REMARK SMILES IDX 43 96 44 97 45 98 46 99 47 100
REMARK H PARENT 88 31 68 56 38 67
REMARK Flexibility Score: inf
ROOT
ATOM      1  C   UNL A   1      34.335  29.178  26.631  1.00  0.00     0.188 C 
ENDROOT
BRANCH   1   2
ATOM      2  O   UNL A   1      34.103  28.426  25.456  1.00  0.00    -0.376 OA
BRANCH   2   3
ATOM      3  C   UNL A   1      33.337  29.097  24.463  1.00  0.00     0.202 C 
BRANCH   3   4
ATOM      4  C   UNL A   1      33.391  28.472  23.060  1.00  0.00     0.261 C 
BRANCH   4   5
ATOM      5  O   UNL A   1      33.704  27.063  23.081  1.00  0.00    -0.460 OA
BRANCH   5   6
ATOM      6  C   UNL A   1      32.824  26.209  22.506  1.00  0.00     0.338 C 
ATOM      7  O   UNL A   1      32.714  26.100  21.294  1.00  0.00    -0.246 OA
BRANCH   6   8
ATOM      8  C   UNL A   1      31.886  25.554  23.462  1.00  0.00     0.087 C 
ATOM      9  C   UNL A   1      31.296  24.422  23.031  1.00  0.00     0.027 C 
ATOM     10  C   UNL A   1      32.223  25.654  24.917  1.00  0.00     0.316 C 
ATOM     11  C   UNL A   1      31.957  23.211  23.582  1.00  0.00     0.019 A 
ATOM     12  O   UNL A   1      32.925  24.455  25.393  1.00  0.00    -0.475 OA
ATOM     13  C   UNL A   1      31.696  21.968  23.010  1.00  0.00     0.032 A 
ATOM     14  C   UNL A   1      32.956  23.345  24.567  1.00  0.00     0.135 A 
ATOM     15  C   UNL A   1      32.490  20.883  23.354  1.00  0.00     0.042 A 
ATOM     16  C   UNL A   1      33.931  22.319  24.711  1.00  0.00     0.026 A 
ATOM     17  Cl  UNL A   1      32.160  19.330  22.694  1.00  0.00    -0.084 Cl
ATOM     18  C   UNL A   1      33.622  21.064  24.146  1.00  0.00     0.033 A 
BRANCH  10  19
ATOM     19  C   UNL A   1      31.040  26.154  25.757  1.00  0.00     0.430 C 
ATOM     20  F   UNL A   1      31.443  26.992  26.739  1.00  0.00    -0.167 F 
ATOM     21  F   UNL A   1      30.176  26.858  24.979  1.00  0.00    -0.167 F 
ATOM     22  F   UNL A   1      30.340  25.150  26.327  1.00  0.00    -0.167 F 
ENDBRANCH  10  19
BRANCH  16  23
ATOM     23  C   UNL A   1      35.377  22.509  25.054  1.00  0.00    -0.015 A 
ATOM     24  C   UNL A   1      36.166  21.354  25.295  1.00  0.00     0.009 A 
ATOM     25  C   UNL A   1      36.002  23.741  25.268  1.00  0.00     0.009 A 
ATOM     26  C   UNL A   1      37.509  21.423  25.697  1.00  0.00     0.007 A 
ATOM     27  C   UNL A   1      37.356  23.813  25.680  1.00  0.00     0.007 A 
ATOM     28  C   UNL A   1      38.128  22.658  25.884  1.00  0.00    -0.023 A 
BRANCH  28  29
ATOM     29  C   UNL A   1      39.582  22.719  26.288  1.00  0.00     0.191 C 
BRANCH  29  30
ATOM     30  O   UNL A   1      40.058  24.057  26.251  1.00  0.00    -0.392 OA
ATOM     31  H   UNL A   1      40.945  24.075  25.860  1.00  0.00     0.211 HD
ENDBRANCH  29  30
ENDBRANCH  28  29
ENDBRANCH  16  23
ENDBRANCH   6   8
ENDBRANCH   5   6
ENDBRANCH   4   5
ENDBRANCH   3   4
ENDBRANCH   2   3
ENDBRANCH   1   2
BRANCH   1  32
ATOM     32  C   UNL A   1      33.062  29.849  27.147  1.00  0.00     0.188 C 
BRANCH  32  33
ATOM     33  O   UNL A   1      33.260  31.233  27.417  1.00  0.00    -0.376 OA
BRANCH  33  34
ATOM     34  C   UNL A   1      32.217  32.104  26.974  1.00  0.00     0.202 C 
BRANCH  34  35
ATOM     35  C   UNL A   1      32.154  33.567  27.474  1.00  0.00     0.261 C 
BRANCH  35  36
ATOM     36  O   UNL A   1      33.380  34.184  27.893  1.00  0.00    -0.460 OA
BRANCH  36  37
ATOM     37  C   UNL A   1      33.552  34.367  29.218  1.00  0.00     0.338 C 
ATOM     38  O   UNL A   1      32.769  34.878  29.990  1.00  0.00    -0.246 OA
BRANCH  37  39
ATOM     39  C   UNL A   1      34.808  33.698  29.615  1.00  0.00     0.060 A 
ATOM     40  C   UNL A   1      34.732  32.626  30.509  1.00  0.00     0.016 A 
ATOM     41  C   UNL A   1      36.050  34.176  29.186  1.00  0.00     0.016 A 
ATOM     42  C   UNL A   1      35.896  32.048  31.005  1.00  0.00     0.010 A 
ATOM     43  C   UNL A   1      37.223  33.612  29.710  1.00  0.00     0.010 A 
ATOM     44  C   UNL A   1      37.145  32.574  30.654  1.00  0.00    -0.014 A 
BRANCH  44  45
ATOM     45  C   UNL A   1      38.313  32.165  31.472  1.00  0.00     0.031 A 
ATOM     46  C   UNL A   1      39.261  31.145  30.897  1.00  0.00     0.074 A 
ATOM     47  C   UNL A   1      38.601  32.783  32.632  1.00  0.00     0.049 A 
ATOM     48  N   UNL A   1      40.415  30.734  31.355  1.00  0.00    -0.248 NA
ATOM     49  C   UNL A   1      38.863  30.521  29.624  1.00  0.00     0.031 C 
ATOM     50  C   UNL A   1      37.787  33.822  33.262  1.00  0.00     0.029 A 
ATOM     51  N   UNL A   1      39.675  32.638  33.473  1.00  0.00    -0.354 N 
ATOM     52  C   UNL A   1      40.890  29.824  30.418  1.00  0.00     0.074 A 
ATOM     53  C   UNL A   1      39.880  29.706  29.390  1.00  0.00     0.031 C 
ATOM     54  C   UNL A   1      38.392  34.220  34.395  1.00  0.00     0.029 A 
ATOM     55  C   UNL A   1      39.624  33.454  34.579  1.00  0.00     0.049 A 
ATOM     56  H   UNL A   1      40.412  32.009  33.302  1.00  0.00     0.167 HD
ATOM     57  C   UNL A   1      42.069  29.157  30.403  1.00  0.00     0.031 A 
ATOM     58  C   UNL A   1      40.470  33.562  35.622  1.00  0.00     0.031 A 
ATOM     59  C   UNL A   1      43.056  29.247  31.447  1.00  0.00     0.049 A 
ATOM     60  C   UNL A   1      41.734  32.738  35.630  1.00  0.00     0.074 A 
ATOM     61  C   UNL A   1      44.273  28.595  31.540  1.00  0.00     0.029 A 
ATOM     62  N   UNL A   1      42.936  30.032  32.584  1.00  0.00    -0.354 N 
ATOM     63  N   UNL A   1      42.179  31.897  34.724  1.00  0.00    -0.248 NA
ATOM     64  C   UNL A   1      42.620  32.894  36.792  1.00  0.00     0.031 C 
ATOM     65  C   UNL A   1      44.861  28.939  32.762  1.00  0.00     0.029 A 
ATOM     66  C   UNL A   1      44.045  29.861  33.396  1.00  0.00     0.049 A 
ATOM     67  H   UNL A   1      42.174  30.624  32.784  1.00  0.00     0.167 HD
ATOM     68  C   UNL A   1      43.406  31.443  35.199  1.00  0.00     0.074 A 
ATOM     69  C   UNL A   1      43.646  32.126  36.453  1.00  0.00     0.031 C 
ATOM     70  C   UNL A   1      44.259  30.539  34.651  1.00  0.00     0.031 A 
BRANCH  57  71
ATOM     71  C   UNL A   1      42.340  28.249  29.232  1.00  0.00    -0.014 A 
ATOM     72  C   UNL A   1      43.083  28.696  28.123  1.00  0.00     0.010 A 
ATOM     73  C   UNL A   1      41.883  26.919  29.257  1.00  0.00     0.010 A 
ATOM     74  C   UNL A   1      43.341  27.838  27.051  1.00  0.00     0.020 A 
ATOM     75  C   UNL A   1      42.163  26.048  28.199  1.00  0.00     0.020 A 
ATOM     76  C   UNL A   1      42.881  26.518  27.097  1.00  0.00     0.054 A 
BRANCH  76  77
ATOM     77  S   UNL A   1      43.266  25.417  25.707  1.00  0.00     0.124 S 
ATOM     78  O   UNL A   1      43.245  24.104  26.346  1.00  0.00    -0.237 OA
ATOM     79  O   UNL A   1      42.169  25.680  24.778  1.00  0.00    -0.237 OA
ATOM     80  O   UNL A   1      44.580  25.870  25.259  1.00  0.00    -0.744 OA
ENDBRANCH  76  77
ENDBRANCH  57  71
BRANCH  58  81
ATOM     81  C   UNL A   1      40.137  34.459  36.766  1.00  0.00    -0.014 A 
ATOM     82  C   UNL A   1      39.377  34.005  37.858  1.00  0.00     0.010 A 
ATOM     83  C   UNL A   1      40.565  35.800  36.746  1.00  0.00     0.010 A 
ATOM     84  C   UNL A   1      39.025  34.881  38.891  1.00  0.00     0.020 A 
ATOM     85  C   UNL A   1      40.245  36.669  37.792  1.00  0.00     0.020 A 
ATOM     86  C   UNL A   1      39.462  36.208  38.852  1.00  0.00     0.054 A 
BRANCH  86  87
ATOM     87  S   UNL A   1      39.021  37.322  40.215  1.00  0.00     0.124 S 
ATOM     88  O   UNL A   1      38.202  38.322  39.538  1.00  0.00    -0.237 OA
ATOM     89  O   UNL A   1      38.309  36.433  41.129  1.00  0.00    -0.237 OA
ATOM     90  O   UNL A   1      40.314  37.796  40.701  1.00  0.00    -0.744 OA
ENDBRANCH  86  87
ENDBRANCH  58  81
BRANCH  70  91
ATOM     91  C   UNL A   1      45.540  30.259  35.398  1.00  0.00    -0.014 A 
ATOM     92  C   UNL A   1      45.624  29.223  36.346  1.00  0.00     0.010 A 
ATOM     93  C   UNL A   1      46.682  31.038  35.136  1.00  0.00     0.010 A 
ATOM     94  C   UNL A   1      46.805  29.013  37.062  1.00  0.00     0.020 A 
ATOM     95  C   UNL A   1      47.877  30.807  35.824  1.00  0.00     0.020 A 
ATOM     96  C   UNL A   1      47.923  29.812  36.802  1.00  0.00     0.054 A 
BRANCH  96  97
ATOM     97  S   UNL A   1      49.443  29.522  37.747  1.00  0.00     0.124 S 
ATOM     98  O   UNL A   1      50.414  29.262  36.688  1.00  0.00    -0.237 OA
ATOM     99  O   UNL A   1      49.619  30.782  38.466  1.00  0.00    -0.237 OA
ATOM    100  O   UNL A   1      49.116  28.373  38.588  1.00  0.00    -0.744 OA
ENDBRANCH  96  97
ENDBRANCH  70  91
ENDBRANCH  44  45
ENDBRANCH  37  39
ENDBRANCH  36  37
ENDBRANCH  35  36
ENDBRANCH  34  35
ENDBRANCH  33  34
ENDBRANCH  32  33
ENDBRANCH   1  32
TORSDOF 24
ENDMDL
MODEL 2
REMARK VINA RESULT:      -9.5      2.415      8.644
REMARK SMILES O=C(OCCOCCOCCOC(=O)c1ccc(-c2c3nc(c(-c4ccc(S(=O)(=O)[O-])cc4)c4ccc([nH]4)c(-c4ccc(S(=O)(=O)[O-])cc4)c4nc(c(-c5ccc(S(=O)(=O)[O-])cc5)c5ccc2[nH]5)C=C4)C=C3)cc1)C1=Cc2cc(Cl)cc(-c3ccc(CO)cc3)c2O[C@@H]1C(F)(F)F
REMARK SMILES IDX 7 1 6 2 5 3 4 4 3 5 2 6 1 7 75 8 76 9 93 10 77 11 92 12
REMARK SMILES IDX 78 13 91 14 79 15 82 16 80 17 81 18 94 19 95 20 96 21 97 22
REMARK SMILES IDX 83 23 84 24 90 25 85 26 89 27 86 28 87 29 88 30 8 32 9 33
REMARK SMILES IDX 10 34 11 35 12 36 13 37 14 38 15 39 16 40 74 41 17 42 73 43
REMARK SMILES IDX 18 44 19 45 20 46 67 47 21 48 72 49 66 50 68 51 22 52 71 53
REMARK SMILES IDX 65 54 64 55 23 57 53 58 34 59 52 60 35 61 38 62 51 63 69 64
REMARK SMILES IDX 36 65 37 66 50 68 70 69 39 70 24 71 25 72 33 73 26 74 32 75
REMARK SMILES IDX 27 76 28 77 29 78 30 79 31 80 54 81 55 82 63 83 56 84 62 85
REMARK SMILES IDX 57 86 58 87 59 88 60 89 61 90 40 91 41 92 49 93 42 94 48 95
REMARK SMILES IDX 43 96 44 97 45 98 46 99 47 100
REMARK H PARENT 88 31 68 56 38 67
REMARK Flexibility Score: inf
ROOT
ATOM      1  C   UNL A   1      40.197  21.777  27.023  1.00  0.00     0.188 C 
ENDROOT
BRANCH   1   2
ATOM      2  O   UNL A   1      38.809  21.815  26.755  1.00  0.00    -0.376 OA
BRANCH   2   3
ATOM      3  C   UNL A   1      38.469  21.781  25.374  1.00  0.00     0.202 C 
BRANCH   3   4
ATOM      4  C   UNL A   1      37.403  22.796  24.936  1.00  0.00     0.261 C 
BRANCH   4   5
ATOM      5  O   UNL A   1      36.114  22.558  25.542  1.00  0.00    -0.460 OA
BRANCH   5   6
ATOM      6  C   UNL A   1      35.141  23.481  25.346  1.00  0.00     0.338 C 
ATOM      7  O   UNL A   1      35.098  24.529  25.973  1.00  0.00    -0.246 OA
BRANCH   6   8
ATOM      8  C   UNL A   1      34.041  23.035  24.446  1.00  0.00     0.087 C 
ATOM      9  C   UNL A   1      33.110  22.234  25.000  1.00  0.00     0.027 C 
ATOM     10  C   UNL A   1      33.590  24.003  23.396  1.00  0.00     0.316 C 
ATOM     11  C   UNL A   1      31.879  22.983  25.357  1.00  0.00     0.019 A 
ATOM     12  O   UNL A   1      32.405  24.755  23.826  1.00  0.00    -0.475 OA
ATOM     13  C   UNL A   1      30.947  22.401  26.215  1.00  0.00     0.032 A 
ATOM     14  C   UNL A   1      31.736  24.327  24.959  1.00  0.00     0.135 A 
ATOM     15  C   UNL A   1      29.930  23.183  26.744  1.00  0.00     0.042 A 
ATOM     16  C   UNL A   1      30.876  25.184  25.702  1.00  0.00     0.026 A 
ATOM     17  Cl  UNL A   1      28.745  22.478  27.770  1.00  0.00    -0.084 Cl
ATOM     18  C   UNL A   1      29.926  24.562  26.538  1.00  0.00     0.033 A 
BRANCH  10  19
ATOM     19  C   UNL A   1      33.550  23.370  21.998  1.00  0.00     0.430 C 
ATOM     20  F   UNL A   1      34.762  22.899  21.628  1.00  0.00    -0.167 F 
ATOM     21  F   UNL A   1      32.703  22.307  21.988  1.00  0.00    -0.167 F 
ATOM     22  F   UNL A   1      33.128  24.229  21.046  1.00  0.00    -0.167 F 
ENDBRANCH  10  19
BRANCH  16  23
ATOM     23  C   UNL A   1      31.101  26.637  25.989  1.00  0.00    -0.015 A 
ATOM     24  C   UNL A   1      31.106  27.543  24.896  1.00  0.00     0.009 A 
ATOM     25  C   UNL A   1      31.419  27.174  27.239  1.00  0.00     0.009 A 
ATOM     26  C   UNL A   1      31.384  28.910  25.045  1.00  0.00     0.007 A 
ATOM     27  C   UNL A   1      31.706  28.554  27.392  1.00  0.00     0.007 A 
ATOM     28  C   UNL A   1      31.676  29.439  26.302  1.00  0.00    -0.023 A 
BRANCH  28  29
ATOM     29  C   UNL A   1      31.943  30.917  26.453  1.00  0.00     0.191 C 
BRANCH  29  30
ATOM     30  O   UNL A   1      33.207  31.140  27.064  1.00  0.00    -0.392 OA
ATOM     31  H   UNL A   1      33.078  31.496  27.956  1.00  0.00     0.211 HD
ENDBRANCH  29  30
ENDBRANCH  28  29
ENDBRANCH  16  23
ENDBRANCH   6   8
ENDBRANCH   5   6
ENDBRANCH   4   5
ENDBRANCH   3   4
ENDBRANCH   2   3
ENDBRANCH   1   2
BRANCH   1  32
ATOM     32  C   UNL A   1      40.915  20.713  26.194  1.00  0.00     0.188 C 
BRANCH  32  33
ATOM     33  O   UNL A   1      42.153  21.188  25.672  1.00  0.00    -0.376 OA
BRANCH  33  34
ATOM     34  C   UNL A   1      42.621  22.422  26.222  1.00  0.00     0.202 C 
BRANCH  34  35
ATOM     35  C   UNL A   1      43.204  23.518  25.298  1.00  0.00     0.261 C 
BRANCH  35  36
ATOM     36  O   UNL A   1      42.949  24.887  25.640  1.00  0.00    -0.460 OA
BRANCH  36  37
ATOM     37  C   UNL A   1      43.788  25.466  26.523  1.00  0.00     0.338 C 
ATOM     38  O   UNL A   1      45.001  25.412  26.517  1.00  0.00    -0.246 OA
BRANCH  37  39
ATOM     39  C   UNL A   1      42.990  26.317  27.428  1.00  0.00     0.060 A 
ATOM     40  C   UNL A   1      43.372  27.651  27.591  1.00  0.00     0.016 A 
ATOM     41  C   UNL A   1      41.936  25.786  28.178  1.00  0.00     0.016 A 
ATOM     42  C   UNL A   1      42.725  28.454  28.526  1.00  0.00     0.010 A 
ATOM     43  C   UNL A   1      41.305  26.586  29.142  1.00  0.00     0.010 A 
ATOM     44  C   UNL A   1      41.729  27.910  29.346  1.00  0.00    -0.014 A 
BRANCH  44  45
ATOM     45  C   UNL A   1      41.332  28.689  30.544  1.00  0.00     0.031 A 
ATOM     46  C   UNL A   1      42.159  28.542  31.794  1.00  0.00     0.074 A 
ATOM     47  C   UNL A   1      40.351  29.607  30.483  1.00  0.00     0.049 A 
ATOM     48  N   UNL A   1      42.098  29.214  32.915  1.00  0.00    -0.248 NA
ATOM     49  C   UNL A   1      43.211  27.511  31.769  1.00  0.00     0.031 C 
ATOM     50  C   UNL A   1      39.516  29.878  29.312  1.00  0.00     0.029 A 
ATOM     51  N   UNL A   1      39.908  30.500  31.427  1.00  0.00    -0.354 N 
ATOM     52  C   UNL A   1      43.113  28.705  33.717  1.00  0.00     0.074 A 
ATOM     53  C   UNL A   1      43.746  27.637  32.974  1.00  0.00     0.031 C 
ATOM     54  C   UNL A   1      38.659  30.870  29.610  1.00  0.00     0.029 A 
ATOM     55  C   UNL A   1      38.871  31.292  30.994  1.00  0.00     0.049 A 
ATOM     56  H   UNL A   1      40.295  30.565  32.329  1.00  0.00     0.167 HD
ATOM     57  C   UNL A   1      43.498  29.101  34.953  1.00  0.00     0.031 A 
ATOM     58  C   UNL A   1      38.170  32.242  31.644  1.00  0.00     0.031 A 
ATOM     59  C   UNL A   1      42.842  30.139  35.705  1.00  0.00     0.049 A 
ATOM     60  C   UNL A   1      38.557  32.601  33.058  1.00  0.00     0.074 A 
ATOM     61  C   UNL A   1      43.138  30.600  36.975  1.00  0.00     0.029 A 
ATOM     62  N   UNL A   1      41.752  30.871  35.258  1.00  0.00    -0.354 N 
ATOM     63  N   UNL A   1      39.535  32.125  33.794  1.00  0.00    -0.248 NA
ATOM     64  C   UNL A   1      37.759  33.642  33.719  1.00  0.00     0.031 C 
ATOM     65  C   UNL A   1      42.190  31.569  37.320  1.00  0.00     0.029 A 
ATOM     66  C   UNL A   1      41.348  31.763  36.237  1.00  0.00     0.049 A 
ATOM     67  H   UNL A   1      41.328  30.771  34.375  1.00  0.00     0.167 HD
ATOM     68  C   UNL A   1      39.480  32.825  34.996  1.00  0.00     0.074 A 
ATOM     69  C   UNL A   1      38.396  33.778  34.874  1.00  0.00     0.031 C 
ATOM     70  C   UNL A   1      40.254  32.693  36.105  1.00  0.00     0.031 A 
BRANCH  57  71
ATOM     71  C   UNL A   1      44.667  28.386  35.580  1.00  0.00    -0.014 A 
ATOM     72  C   UNL A   1      44.478  27.229  36.358  1.00  0.00     0.010 A 
ATOM     73  C   UNL A   1      45.975  28.852  35.355  1.00  0.00     0.010 A 
ATOM     74  C   UNL A   1      45.572  26.567  36.921  1.00  0.00     0.020 A 
ATOM     75  C   UNL A   1      47.075  28.177  35.893  1.00  0.00     0.020 A 
ATOM     76  C   UNL A   1      46.865  27.044  36.682  1.00  0.00     0.054 A 
BRANCH  76  77
ATOM     77  S   UNL A   1      48.268  26.140  37.393  1.00  0.00     0.124 S 
ATOM     78  O   UNL A   1      48.127  24.826  36.773  1.00  0.00    -0.237 OA
ATOM     79  O   UNL A   1      49.414  26.927  36.945  1.00  0.00    -0.237 OA
ATOM     80  O   UNL A   1      48.013  26.179  38.831  1.00  0.00    -0.744 OA
ENDBRANCH  76  77
ENDBRANCH  57  71
BRANCH  58  81
ATOM     81  C   UNL A   1      37.006  32.898  30.982  1.00  0.00    -0.014 A 
ATOM     82  C   UNL A   1      35.685  32.626  31.381  1.00  0.00     0.010 A 
ATOM     83  C   UNL A   1      37.224  33.787  29.913  1.00  0.00     0.010 A 
ATOM     84  C   UNL A   1      34.606  33.207  30.705  1.00  0.00     0.020 A 
ATOM     85  C   UNL A   1      36.151  34.396  29.257  1.00  0.00     0.020 A 
ATOM     86  C   UNL A   1      34.846  34.089  29.647  1.00  0.00     0.054 A 
BRANCH  86  87
ATOM     87  S   UNL A   1      33.434  34.854  28.802  1.00  0.00     0.124 S 
ATOM     88  O   UNL A   1      32.475  35.008  29.891  1.00  0.00    -0.237 OA
ATOM     89  O   UNL A   1      34.011  36.093  28.285  1.00  0.00    -0.237 OA
ATOM     90  O   UNL A   1      33.072  33.872  27.783  1.00  0.00    -0.744 OA
ENDBRANCH  86  87
ENDBRANCH  58  81
BRANCH  70  91
ATOM     91  C   UNL A   1      39.965  33.618  37.261  1.00  0.00    -0.014 A 
ATOM     92  C   UNL A   1      38.960  33.324  38.201  1.00  0.00     0.010 A 
ATOM     93  C   UNL A   1      40.721  34.794  37.417  1.00  0.00     0.010 A 
ATOM     94  C   UNL A   1      38.675  34.219  39.236  1.00  0.00     0.020 A 
ATOM     95  C   UNL A   1      40.465  35.673  38.472  1.00  0.00     0.020 A 
ATOM     96  C   UNL A   1      39.425  35.392  39.361  1.00  0.00     0.054 A 
BRANCH  96  97
ATOM     97  S   UNL A   1      39.034  36.539  40.710  1.00  0.00     0.124 S 
ATOM     98  O   UNL A   1      40.336  36.712  41.348  1.00  0.00    -0.237 OA
ATOM     99  O   UNL A   1      38.523  37.709  39.999  1.00  0.00    -0.237 OA
ATOM    100  O   UNL A   1      38.042  35.818  41.503  1.00  0.00    -0.744 OA
ENDBRANCH  96  97
ENDBRANCH  70  91
ENDBRANCH  44  45
ENDBRANCH  37  39
ENDBRANCH  36  37
ENDBRANCH  35  36
ENDBRANCH  34  35
ENDBRANCH  33  34
ENDBRANCH  32  33
ENDBRANCH   1  32
TORSDOF 24
ENDMDL
MODEL 3
REMARK VINA RESULT:      -9.5      1.946      7.971
REMARK SMILES O=C(OCCOCCOCCOC(=O)c1ccc(-c2c3nc(c(-c4ccc(S(=O)(=O)[O-])cc4)c4ccc([nH]4)c(-c4ccc(S(=O)(=O)[O-])cc4)c4nc(c(-c5ccc(S(=O)(=O)[O-])cc5)c5ccc2[nH]5)C=C4)C=C3)cc1)C1=Cc2cc(Cl)cc(-c3ccc(CO)cc3)c2O[C@@H]1C(F)(F)F
REMARK SMILES IDX 7 1 6 2 5 3 4 4 3 5 2 6 1 7 75 8 76 9 93 10 77 11 92 12
REMARK SMILES IDX 78 13 91 14 79 15 82 16 80 17 81 18 94 19 95 20 96 21 97 22
REMARK SMILES IDX 83 23 84 24 90 25 85 26 89 27 86 28 87 29 88 30 8 32 9 33
REMARK SMILES IDX 10 34 11 35 12 36 13 37 14 38 15 39 16 40 74 41 17 42 73 43
REMARK SMILES IDX 18 44 19 45 20 46 67 47 21 48 72 49 66 50 68 51 22 52 71 53
REMARK SMILES IDX 65 54 64 55 23 57 53 58 34 59 52 60 35 61 38 62 51 63 69 64
REMARK SMILES IDX 36 65 37 66 50 68 70 69 39 70 24 71 25 72 33 73 26 74 32 75
REMARK SMILES IDX 27 76 28 77 29 78 30 79 31 80 54 81 55 82 63 83 56 84 62 85
REMARK SMILES IDX 57 86 58 87 59 88 60 89 61 90 40 91 41 92 49 93 42 94 48 95
REMARK SMILES IDX 43 96 44 97 45 98 46 99 47 100
REMARK H PARENT 88 31 68 56 38 67
REMARK Flexibility Score: inf
ROOT
ATOM      1  C   UNL A   1      35.854  30.381  27.830  1.00  0.00     0.188 C 
ENDROOT
BRANCH   1   2
ATOM      2  O   UNL A   1      34.857  29.968  26.916  1.00  0.00    -0.376 OA
BRANCH   2   3
ATOM      3  C   UNL A   1      34.323  28.672  27.165  1.00  0.00     0.202 C 
BRANCH   3   4
ATOM      4  C   UNL A   1      33.464  28.089  26.033  1.00  0.00     0.261 C 
BRANCH   4   5
ATOM      5  O   UNL A   1      32.965  26.766  26.327  1.00  0.00    -0.460 OA
BRANCH   5   6
ATOM      6  C   UNL A   1      31.670  26.648  26.708  1.00  0.00     0.338 C 
ATOM      7  O   UNL A   1      31.194  27.305  27.622  1.00  0.00    -0.246 OA
BRANCH   6   8
ATOM      8  C   UNL A   1      30.933  25.533  26.048  1.00  0.00     0.087 C 
ATOM      9  C   UNL A   1      30.637  25.708  24.745  1.00  0.00     0.027 C 
ATOM     10  C   UNL A   1      31.250  24.144  26.509  1.00  0.00     0.316 C 
ATOM     11  C   UNL A   1      31.583  24.979  23.862  1.00  0.00     0.019 A 
ATOM     12  O   UNL A   1      32.231  23.494  25.632  1.00  0.00    -0.475 OA
ATOM     13  C   UNL A   1      31.631  25.291  22.504  1.00  0.00     0.032 A 
ATOM     14  C   UNL A   1      32.528  24.097  24.423  1.00  0.00     0.135 A 
ATOM     15  C   UNL A   1      32.672  24.797  21.731  1.00  0.00     0.042 A 
ATOM     16  C   UNL A   1      33.727  23.820  23.710  1.00  0.00     0.026 A 
ATOM     17  Cl  UNL A   1      32.729  25.133  20.047  1.00  0.00    -0.084 Cl
ATOM     18  C   UNL A   1      33.732  24.121  22.332  1.00  0.00     0.033 A 
BRANCH  10  19
ATOM     19  C   UNL A   1      29.988  23.346  26.865  1.00  0.00     0.430 C 
ATOM     20  F   UNL A   1      30.148  22.645  28.010  1.00  0.00    -0.167 F 
ATOM     21  F   UNL A   1      28.942  24.188  27.071  1.00  0.00    -0.167 F 
ATOM     22  F   UNL A   1      29.624  22.482  25.894  1.00  0.00    -0.167 F 
ENDBRANCH  10  19
BRANCH  16  23
ATOM     23  C   UNL A   1      35.085  23.604  24.305  1.00  0.00    -0.015 A 
ATOM     24  C   UNL A   1      35.897  22.572  23.767  1.00  0.00     0.009 A 
ATOM     25  C   UNL A   1      35.588  24.265  25.429  1.00  0.00     0.009 A 
ATOM     26  C   UNL A   1      37.150  22.236  24.301  1.00  0.00     0.007 A 
ATOM     27  C   UNL A   1      36.852  23.925  25.974  1.00  0.00     0.007 A 
ATOM     28  C   UNL A   1      37.653  22.919  25.408  1.00  0.00    -0.023 A 
BRANCH  28  29
ATOM     29  C   UNL A   1      39.016  22.569  25.955  1.00  0.00     0.191 C 
BRANCH  29  30
ATOM     30  O   UNL A   1      39.692  23.735  26.404  1.00  0.00    -0.392 OA
ATOM     31  H   UNL A   1      39.653  24.417  25.717  1.00  0.00     0.211 HD
ENDBRANCH  29  30
ENDBRANCH  28  29
ENDBRANCH  16  23
ENDBRANCH   6   8
ENDBRANCH   5   6
ENDBRANCH   4   5
ENDBRANCH   3   4
ENDBRANCH   2   3
ENDBRANCH   1   2
BRANCH   1  32
ATOM     32  C   UNL A   1      35.366  31.500  28.749  1.00  0.00     0.188 C 
BRANCH  32  33
ATOM     33  O   UNL A   1      34.132  32.056  28.304  1.00  0.00    -0.376 OA
BRANCH  33  34
ATOM     34  C   UNL A   1      34.170  33.441  27.956  1.00  0.00     0.202 C 
BRANCH  34  35
ATOM     35  C   UNL A   1      33.255  34.456  28.683  1.00  0.00     0.261 C 
BRANCH  35  36
ATOM     36  O   UNL A   1      33.843  35.274  29.705  1.00  0.00    -0.460 OA
BRANCH  36  37
ATOM     37  C   UNL A   1      33.434  35.061  30.972  1.00  0.00     0.338 C 
ATOM     38  O   UNL A   1      32.315  35.219  31.412  1.00  0.00    -0.246 OA
BRANCH  37  39
ATOM     39  C   UNL A   1      34.551  34.447  31.719  1.00  0.00     0.060 A 
ATOM     40  C   UNL A   1      35.600  35.271  32.137  1.00  0.00     0.016 A 
ATOM     41  C   UNL A   1      34.612  33.066  31.925  1.00  0.00     0.016 A 
ATOM     42  C   UNL A   1      36.728  34.718  32.733  1.00  0.00     0.010 A 
ATOM     43  C   UNL A   1      35.763  32.505  32.498  1.00  0.00     0.010 A 
ATOM     44  C   UNL A   1      36.841  33.328  32.864  1.00  0.00    -0.014 A 
BRANCH  44  45
ATOM     45  C   UNL A   1      38.185  32.778  33.167  1.00  0.00     0.031 A 
ATOM     46  C   UNL A   1      38.765  33.033  34.534  1.00  0.00     0.074 A 
ATOM     47  C   UNL A   1      38.811  31.957  32.306  1.00  0.00     0.049 A 
ATOM     48  N   UNL A   1      39.849  32.545  35.079  1.00  0.00    -0.248 NA
ATOM     49  C   UNL A   1      38.010  33.946  35.409  1.00  0.00     0.031 C 
ATOM     50  C   UNL A   1      38.322  31.593  30.976  1.00  0.00     0.029 A 
ATOM     51  N   UNL A   1      39.987  31.262  32.435  1.00  0.00    -0.354 N 
ATOM     52  C   UNL A   1      39.894  33.071  36.366  1.00  0.00     0.074 A 
ATOM     53  C   UNL A   1      38.755  33.952  36.504  1.00  0.00     0.031 C 
ATOM     54  C   UNL A   1      39.195  30.742  30.410  1.00  0.00     0.029 A 
ATOM     55  C   UNL A   1      40.310  30.513  31.328  1.00  0.00     0.049 A 
ATOM     56  H   UNL A   1      40.546  31.296  33.243  1.00  0.00     0.167 HD
ATOM     57  C   UNL A   1      40.792  32.831  37.350  1.00  0.00     0.031 A 
ATOM     58  C   UNL A   1      41.387  29.742  31.082  1.00  0.00     0.031 A 
ATOM     59  C   UNL A   1      41.945  31.983  37.197  1.00  0.00     0.049 A 
ATOM     60  C   UNL A   1      42.425  29.564  32.163  1.00  0.00     0.074 A 
ATOM     61  C   UNL A   1      42.929  31.692  38.125  1.00  0.00     0.029 A 
ATOM     62  N   UNL A   1      42.275  31.298  36.038  1.00  0.00    -0.354 N 
ATOM     63  N   UNL A   1      42.440  30.051  33.383  1.00  0.00    -0.248 NA
ATOM     64  C   UNL A   1      43.579  28.713  31.841  1.00  0.00     0.031 C 
ATOM     65  C   UNL A   1      43.885  30.879  37.508  1.00  0.00     0.029 A 
ATOM     66  C   UNL A   1      43.460  30.605  36.218  1.00  0.00     0.049 A 
ATOM     67  H   UNL A   1      41.744  31.304  35.208  1.00  0.00     0.167 HD
ATOM     68  C   UNL A   1      43.594  29.547  33.978  1.00  0.00     0.074 A 
ATOM     69  C   UNL A   1      44.229  28.693  32.996  1.00  0.00     0.031 C 
ATOM     70  C   UNL A   1      44.088  29.772  35.223  1.00  0.00     0.031 A 
BRANCH  57  71
ATOM     71  C   UNL A   1      40.574  33.519  38.673  1.00  0.00    -0.014 A 
ATOM     72  C   UNL A   1      41.133  34.784  38.934  1.00  0.00     0.010 A 
ATOM     73  C   UNL A   1      39.766  32.914  39.653  1.00  0.00     0.010 A 
ATOM     74  C   UNL A   1      40.910  35.418  40.160  1.00  0.00     0.020 A 
ATOM     75  C   UNL A   1      39.517  33.557  40.869  1.00  0.00     0.020 A 
ATOM     76  C   UNL A   1      40.101  34.801  41.119  1.00  0.00     0.054 A 
BRANCH  76  77
ATOM     77  S   UNL A   1      39.798  35.667  42.684  1.00  0.00     0.124 S 
ATOM     78  O   UNL A   1      40.452  36.952  42.451  1.00  0.00    -0.237 OA
ATOM     79  O   UNL A   1      38.339  35.707  42.749  1.00  0.00    -0.237 OA
ATOM     80  O   UNL A   1      40.440  34.815  43.682  1.00  0.00    -0.744 OA
ENDBRANCH  76  77
ENDBRANCH  57  71
BRANCH  58  81
ATOM     81  C   UNL A   1      41.563  29.106  29.744  1.00  0.00    -0.014 A 
ATOM     82  C   UNL A   1      41.135  27.790  29.494  1.00  0.00     0.010 A 
ATOM     83  C   UNL A   1      42.199  29.821  28.712  1.00  0.00     0.010 A 
ATOM     84  C   UNL A   1      41.366  27.193  28.249  1.00  0.00     0.020 A 
ATOM     85  C   UNL A   1      42.401  29.242  27.457  1.00  0.00     0.020 A 
ATOM     86  C   UNL A   1      41.997  27.924  27.238  1.00  0.00     0.054 A 
BRANCH  86  87
ATOM     87  S   UNL A   1      42.262  27.142  25.622  1.00  0.00     0.124 S 
ATOM     88  O   UNL A   1      41.096  26.271  25.511  1.00  0.00    -0.237 OA
ATOM     89  O   UNL A   1      42.284  28.289  24.718  1.00  0.00    -0.237 OA
ATOM     90  O   UNL A   1      43.542  26.457  25.779  1.00  0.00    -0.744 OA
ENDBRANCH  86  87
ENDBRANCH  58  81
BRANCH  70  91
ATOM     91  C   UNL A   1      45.365  29.062  35.596  1.00  0.00    -0.014 A 
ATOM     92  C   UNL A   1      46.611  29.714  35.534  1.00  0.00     0.010 A 
ATOM     93  C   UNL A   1      45.317  27.723  36.027  1.00  0.00     0.010 A 
ATOM     94  C   UNL A   1      47.787  29.023  35.836  1.00  0.00     0.020 A 
ATOM     95  C   UNL A   1      46.488  27.040  36.366  1.00  0.00     0.020 A 
ATOM     96  C   UNL A   1      47.719  27.687  36.244  1.00  0.00     0.054 A 
BRANCH  96  97
ATOM     97  S   UNL A   1      49.260  26.811  36.626  1.00  0.00     0.124 S 
ATOM     98  O   UNL A   1      50.053  27.054  35.424  1.00  0.00    -0.237 OA
ATOM     99  O   UNL A   1      49.724  27.489  37.833  1.00  0.00    -0.237 OA
ATOM    100  O   UNL A   1      48.834  25.427  36.821  1.00  0.00    -0.744 OA
ENDBRANCH  96  97
ENDBRANCH  70  91
ENDBRANCH  44  45
ENDBRANCH  37  39
ENDBRANCH  36  37
ENDBRANCH  35  36
ENDBRANCH  34  35
ENDBRANCH  33  34
ENDBRANCH  32  33
ENDBRANCH   1  32
TORSDOF 24
ENDMDL
