MODEL 1
REMARK VINA RESULT:      -7.2      0.000      0.000
REMARK SMILES CC(=O)N[C@@H]1[C@H](Oc2ccc(C)c(C)c2)O[C@H]2COC(C)(C)O[C@@H]2[C@H]1O[C@@H](C)C(=O)OCCOCCOCCOC(=O)c1ccc(-c2c3nc(c(-c4ccc(S(=O)(=O)[O-])cc4)c4ccc([nH]4)c(-c4ccc(S(=O)(=O)[O-])cc4)c4nc(c(-c5ccc(S(=O)(=O)[O-])cc5)c5ccc2[nH]5)C=C4)C=C3)cc1
REMARK SMILES IDX 35 1 34 2 33 3 32 4 31 5 29 6 30 7 27 8 28 9 26 10 25 11
REMARK SMILES IDX 5 12 6 13 16 14 24 15 17 16 23 17 18 18 20 19 19 20 21 21
REMARK SMILES IDX 22 22 4 23 1 24 2 25 3 26 7 28 8 29 9 30 15 31 10 32 13 33
REMARK SMILES IDX 11 34 14 35 12 36 36 37 37 38 38 39 39 40 40 41 41 42 42 43
REMARK SMILES IDX 43 44 44 45 102 46 45 47 101 48 46 49 47 50 48 51 95 52
REMARK SMILES IDX 49 53 100 54 94 55 96 56 50 57 99 58 93 59 92 60 51 62 81 63
REMARK SMILES IDX 62 64 80 65 63 66 66 67 79 68 97 69 64 70 65 71 78 73 98 74
REMARK SMILES IDX 67 75 52 76 53 77 61 78 54 79 60 80 55 81 56 82 57 83 58 84
REMARK SMILES IDX 59 85 82 86 83 87 91 88 84 89 90 90 85 91 86 92 87 93 88 94
REMARK SMILES IDX 89 95 68 96 69 97 77 98 70 99 76 100 71 101 72 102 73 103
REMARK SMILES IDX 74 104 75 105
REMARK H PARENT 4 27 96 61 66 72
REMARK Flexibility Score: inf
ROOT
ATOM      1  C   UNL A   1      44.126  24.516  25.145  1.00  0.00     0.188 C 
ENDROOT
BRANCH   1   2
ATOM      2  O   UNL A   1      44.203  25.911  24.874  1.00  0.00    -0.376 OA
BRANCH   2   3
ATOM      3  C   UNL A   1      44.265  26.723  26.041  1.00  0.00     0.202 C 
BRANCH   3   4
ATOM      4  C   UNL A   1      45.337  27.838  25.995  1.00  0.00     0.261 C 
BRANCH   4   5
ATOM      5  O   UNL A   1      44.777  29.165  26.222  1.00  0.00    -0.461 OA
BRANCH   5   6
ATOM      6  C   UNL A   1      45.690  30.123  26.522  1.00  0.00     0.335 C 
ATOM      7  O   UNL A   1      46.466  30.592  25.693  1.00  0.00    -0.249 OA
BRANCH   6   8
ATOM      8  C   UNL A   1      45.689  30.615  28.037  1.00  0.00     0.225 C 
ATOM      9  C   UNL A   1      44.184  30.831  28.227  1.00  0.00     0.051 C 
BRANCH   8  10
ATOM     10  O   UNL A   1      46.589  31.339  28.932  1.00  0.00    -0.358 OA
BRANCH  10  11
ATOM     11  C   UNL A   1      47.998  31.027  29.132  1.00  0.00     0.180 C 
ATOM     12  C   UNL A   1      48.950  31.939  28.263  1.00  0.00     0.182 C 
ATOM     13  C   UNL A   1      50.451  31.515  28.294  1.00  0.00     0.333 C 
ATOM     14  O   UNL A   1      50.949  31.564  29.613  1.00  0.00    -0.332 OA
ATOM     15  C   UNL A   1      48.652  31.265  30.653  1.00  0.00     0.184 C 
ATOM     16  C   UNL A   1      50.162  30.871  30.562  1.00  0.00     0.180 C 
ATOM     17  O   UNL A   1      48.104  30.539  31.782  1.00  0.00    -0.342 OA
ATOM     18  C   UNL A   1      50.883  31.104  31.869  1.00  0.00     0.198 C 
ATOM     19  C   UNL A   1      48.868  30.707  33.025  1.00  0.00     0.163 C 
ATOM     20  O   UNL A   1      50.253  30.393  32.887  1.00  0.00    -0.348 OA
ATOM     21  C   UNL A   1      48.489  29.660  34.066  1.00  0.00     0.075 C 
ATOM     22  C   UNL A   1      48.674  32.087  33.669  1.00  0.00     0.075 C 
BRANCH  12  23
ATOM     23  N   UNL A   1      48.580  32.364  26.923  1.00  0.00    -0.345 N 
ATOM     24  C   UNL A   1      48.453  34.808  27.413  1.00  0.00     0.114 C 
ATOM     25  C   UNL A   1      48.559  33.650  26.446  1.00  0.00     0.217 C 
ATOM     26  O   UNL A   1      48.579  33.829  25.229  1.00  0.00    -0.275 OA
ATOM     27  H   UNL A   1      48.316  31.656  26.293  1.00  0.00     0.164 HD
ENDBRANCH  12  23
BRANCH  13  28
ATOM     28  O   UNL A   1      50.923  30.417  27.476  1.00  0.00    -0.463 OA
BRANCH  28  29
ATOM     29  C   UNL A   1      51.528  29.377  28.110  1.00  0.00     0.123 A 
ATOM     30  C   UNL A   1      50.797  28.241  28.357  1.00  0.00     0.047 A 
ATOM     31  C   UNL A   1      52.886  29.384  28.440  1.00  0.00     0.050 A 
ATOM     32  C   UNL A   1      51.317  27.274  29.206  1.00  0.00     0.007 A 
ATOM     33  C   UNL A   1      53.458  28.323  29.186  1.00  0.00    -0.045 A 
ATOM     34  C   UNL A   1      52.629  27.304  29.666  1.00  0.00    -0.048 A 
ATOM     35  C   UNL A   1      54.944  28.271  29.397  1.00  0.00     0.045 C 
ATOM     36  C   UNL A   1      53.082  26.213  30.597  1.00  0.00     0.044 C 
ENDBRANCH  28  29
ENDBRANCH  13  28
ENDBRANCH  10  11
ENDBRANCH   8  10
ENDBRANCH   6   8
ENDBRANCH   5   6
ENDBRANCH   4   5
ENDBRANCH   3   4
ENDBRANCH   2   3
ENDBRANCH   1   2
BRANCH   1  37
ATOM     37  C   UNL A   1      43.913  24.185  26.586  1.00  0.00     0.188 C 
BRANCH  37  38
ATOM     38  O   UNL A   1      43.361  22.893  26.798  1.00  0.00    -0.376 OA
BRANCH  38  39
ATOM     39  C   UNL A   1      42.453  22.493  25.780  1.00  0.00     0.202 C 
BRANCH  39  40
ATOM     40  C   UNL A   1      41.307  21.528  26.166  1.00  0.00     0.261 C 
BRANCH  40  41
ATOM     41  O   UNL A   1      40.307  22.096  27.032  1.00  0.00    -0.460 OA
BRANCH  41  42
ATOM     42  C   UNL A   1      39.428  22.977  26.479  1.00  0.00     0.338 C 
ATOM     43  O   UNL A   1      38.462  22.744  25.794  1.00  0.00    -0.246 OA
BRANCH  42  44
ATOM     44  C   UNL A   1      39.651  24.313  27.047  1.00  0.00     0.060 A 
ATOM     45  C   UNL A   1      40.307  25.286  26.265  1.00  0.00     0.016 A 
ATOM     46  C   UNL A   1      39.169  24.603  28.317  1.00  0.00     0.016 A 
ATOM     47  C   UNL A   1      40.479  26.569  26.761  1.00  0.00     0.010 A 
ATOM     48  C   UNL A   1      39.371  25.872  28.825  1.00  0.00     0.010 A 
ATOM     49  C   UNL A   1      40.047  26.840  28.059  1.00  0.00    -0.014 A 
BRANCH  49  50
ATOM     50  C   UNL A   1      40.488  28.055  28.752  1.00  0.00     0.031 A 
ATOM     51  C   UNL A   1      41.800  27.985  29.469  1.00  0.00     0.074 A 
ATOM     52  C   UNL A   1      39.678  29.120  28.819  1.00  0.00     0.049 A 
ATOM     53  N   UNL A   1      42.303  28.801  30.350  1.00  0.00    -0.248 NA
ATOM     54  C   UNL A   1      42.641  26.809  29.178  1.00  0.00     0.031 C 
ATOM     55  C   UNL A   1      38.404  29.262  28.112  1.00  0.00     0.029 A 
ATOM     56  N   UNL A   1      39.792  30.264  29.557  1.00  0.00    -0.354 N 
ATOM     57  C   UNL A   1      43.499  28.219  30.749  1.00  0.00     0.074 A 
ATOM     58  C   UNL A   1      43.639  26.974  30.031  1.00  0.00     0.031 C 
ATOM     59  C   UNL A   1      37.833  30.419  28.484  1.00  0.00     0.029 A 
ATOM     60  C   UNL A   1      38.676  31.063  29.487  1.00  0.00     0.049 A 
ATOM     61  H   UNL A   1      40.590  30.493  30.086  1.00  0.00     0.167 HD
ATOM     62  C   UNL A   1      44.391  28.689  31.651  1.00  0.00     0.031 A 
ATOM     63  C   UNL A   1      38.364  32.161  30.198  1.00  0.00     0.031 A 
ATOM     64  C   UNL A   1      44.197  29.922  32.363  1.00  0.00     0.049 A 
ATOM     65  C   UNL A   1      39.350  32.647  31.227  1.00  0.00     0.074 A 
ATOM     66  C   UNL A   1      45.034  30.530  33.276  1.00  0.00     0.029 A 
ATOM     67  N   UNL A   1      43.070  30.728  32.244  1.00  0.00    -0.354 N 
ATOM     68  N   UNL A   1      40.498  32.116  31.581  1.00  0.00    -0.248 NA
ATOM     69  C   UNL A   1      39.006  33.878  31.944  1.00  0.00     0.031 C 
ATOM     70  C   UNL A   1      44.384  31.671  33.760  1.00  0.00     0.029 A 
ATOM     71  C   UNL A   1      43.176  31.815  33.091  1.00  0.00     0.049 A 
ATOM     72  H   UNL A   1      42.309  30.549  31.646  1.00  0.00     0.167 HD
ATOM     73  C   UNL A   1      41.031  32.967  32.542  1.00  0.00     0.074 A 
ATOM     74  C   UNL A   1      40.079  34.051  32.705  1.00  0.00     0.031 C 
ATOM     75  C   UNL A   1      42.201  32.871  33.224  1.00  0.00     0.031 A 
BRANCH  62  76
ATOM     76  C   UNL A   1      45.598  27.839  31.943  1.00  0.00    -0.014 A 
ATOM     77  C   UNL A   1      45.686  27.059  33.111  1.00  0.00     0.010 A 
ATOM     78  C   UNL A   1      46.671  27.824  31.033  1.00  0.00     0.010 A 
ATOM     79  C   UNL A   1      46.840  26.323  33.388  1.00  0.00     0.020 A 
ATOM     80  C   UNL A   1      47.814  27.061  31.290  1.00  0.00     0.020 A 
ATOM     81  C   UNL A   1      47.899  26.331  32.476  1.00  0.00     0.054 A 
BRANCH  81  82
ATOM     82  S   UNL A   1      49.382  25.358  32.855  1.00  0.00     0.124 S 
ATOM     83  O   UNL A   1      49.856  24.998  31.521  1.00  0.00    -0.237 OA
ATOM     84  O   UNL A   1      50.215  26.316  33.579  1.00  0.00    -0.237 OA
ATOM     85  O   UNL A   1      48.875  24.247  33.657  1.00  0.00    -0.744 OA
ENDBRANCH  81  82
ENDBRANCH  62  76
BRANCH  63  86
ATOM     86  C   UNL A   1      37.066  32.846  29.957  1.00  0.00    -0.014 A 
ATOM     87  C   UNL A   1      35.975  32.623  30.812  1.00  0.00     0.010 A 
ATOM     88  C   UNL A   1      36.935  33.779  28.910  1.00  0.00     0.010 A 
ATOM     89  C   UNL A   1      34.775  33.319  30.626  1.00  0.00     0.020 A 
ATOM     90  C   UNL A   1      35.748  34.497  28.738  1.00  0.00     0.020 A 
ATOM     91  C   UNL A   1      34.673  34.258  29.595  1.00  0.00     0.054 A 
BRANCH  91  92
ATOM     92  S   UNL A   1      33.131  35.199  29.424  1.00  0.00     0.124 S 
ATOM     93  O   UNL A   1      33.617  36.501  28.979  1.00  0.00    -0.237 OA
ATOM     94  O   UNL A   1      32.398  34.423  28.427  1.00  0.00    -0.237 OA
ATOM     95  O   UNL A   1      32.560  35.170  30.769  1.00  0.00    -0.744 OA
ENDBRANCH  91  92
ENDBRANCH  63  86
BRANCH  75  96
ATOM     96  C   UNL A   1      42.536  33.987  34.176  1.00  0.00    -0.014 A 
ATOM     97  C   UNL A   1      42.176  33.925  35.533  1.00  0.00     0.010 A 
ATOM     98  C   UNL A   1      43.300  35.074  33.713  1.00  0.00     0.010 A 
ATOM     99  C   UNL A   1      42.555  34.947  36.406  1.00  0.00     0.020 A 
ATOM    100  C   UNL A   1      43.709  36.079  34.590  1.00  0.00     0.020 A 
ATOM    101  C   UNL A   1      43.325  36.014  35.931  1.00  0.00     0.054 A 
BRANCH 101 102
ATOM    102  S   UNL A   1      43.858  37.292  37.099  1.00  0.00     0.124 S 
ATOM    103  O   UNL A   1      42.723  37.358  38.016  1.00  0.00    -0.237 OA
ATOM    104  O   UNL A   1      45.083  36.724  37.656  1.00  0.00    -0.237 OA
ATOM    105  O   UNL A   1      44.049  38.473  36.259  1.00  0.00    -0.744 OA
ENDBRANCH 101 102
ENDBRANCH  75  96
ENDBRANCH  49  50
ENDBRANCH  42  44
ENDBRANCH  41  42
ENDBRANCH  40  41
ENDBRANCH  39  40
ENDBRANCH  38  39
ENDBRANCH  37  38
ENDBRANCH   1  37
TORSDOF 25
ENDMDL
MODEL 2
REMARK VINA RESULT:      -7.0      1.747      2.597
REMARK SMILES CC(=O)N[C@@H]1[C@H](Oc2ccc(C)c(C)c2)O[C@H]2COC(C)(C)O[C@@H]2[C@H]1O[C@@H](C)C(=O)OCCOCCOCCOC(=O)c1ccc(-c2c3nc(c(-c4ccc(S(=O)(=O)[O-])cc4)c4ccc([nH]4)c(-c4ccc(S(=O)(=O)[O-])cc4)c4nc(c(-c5ccc(S(=O)(=O)[O-])cc5)c5ccc2[nH]5)C=C4)C=C3)cc1
REMARK SMILES IDX 35 1 34 2 33 3 32 4 31 5 29 6 30 7 27 8 28 9 26 10 25 11
REMARK SMILES IDX 5 12 6 13 16 14 24 15 17 16 23 17 18 18 20 19 19 20 21 21
REMARK SMILES IDX 22 22 4 23 1 24 2 25 3 26 7 28 8 29 9 30 15 31 10 32 13 33
REMARK SMILES IDX 11 34 14 35 12 36 36 37 37 38 38 39 39 40 40 41 41 42 42 43
REMARK SMILES IDX 43 44 44 45 102 46 45 47 101 48 46 49 47 50 48 51 95 52
REMARK SMILES IDX 49 53 100 54 94 55 96 56 50 57 99 58 93 59 92 60 51 62 81 63
REMARK SMILES IDX 62 64 80 65 63 66 66 67 79 68 97 69 64 70 65 71 78 73 98 74
REMARK SMILES IDX 67 75 52 76 53 77 61 78 54 79 60 80 55 81 56 82 57 83 58 84
REMARK SMILES IDX 59 85 82 86 83 87 91 88 84 89 90 90 85 91 86 92 87 93 88 94
REMARK SMILES IDX 89 95 68 96 69 97 77 98 70 99 76 100 71 101 72 102 73 103
REMARK SMILES IDX 74 104 75 105
REMARK H PARENT 4 27 96 61 66 72
REMARK Flexibility Score: inf
ROOT
ATOM      1  C   UNL A   1      43.988  24.590  25.035  1.00  0.00     0.188 C 
ENDROOT
BRANCH   1   2
ATOM      2  O   UNL A   1      43.861  26.007  24.995  1.00  0.00    -0.376 OA
BRANCH   2   3
ATOM      3  C   UNL A   1      44.380  26.665  26.145  1.00  0.00     0.202 C 
BRANCH   3   4
ATOM      4  C   UNL A   1      45.403  27.785  25.842  1.00  0.00     0.261 C 
BRANCH   4   5
ATOM      5  O   UNL A   1      44.971  29.088  26.335  1.00  0.00    -0.461 OA
BRANCH   5   6
ATOM      6  C   UNL A   1      45.965  30.005  26.460  1.00  0.00     0.335 C 
ATOM      7  O   UNL A   1      46.422  30.631  25.507  1.00  0.00    -0.249 OA
BRANCH   6   8
ATOM      8  C   UNL A   1      46.504  30.227  27.942  1.00  0.00     0.225 C 
ATOM      9  C   UNL A   1      45.180  30.123  28.707  1.00  0.00     0.051 C 
BRANCH   8  10
ATOM     10  O   UNL A   1      47.598  30.947  28.590  1.00  0.00    -0.358 OA
BRANCH  10  11
ATOM     11  C   UNL A   1      48.997  30.881  28.187  1.00  0.00     0.180 C 
ATOM     12  C   UNL A   1      49.471  32.184  27.431  1.00  0.00     0.182 C 
ATOM     13  C   UNL A   1      50.898  32.083  26.811  1.00  0.00     0.333 C 
ATOM     14  O   UNL A   1      51.857  31.835  27.816  1.00  0.00    -0.332 OA
ATOM     15  C   UNL A   1      50.160  30.780  29.384  1.00  0.00     0.184 C 
ATOM     16  C   UNL A   1      51.547  30.745  28.663  1.00  0.00     0.180 C 
ATOM     17  O   UNL A   1      50.143  29.655  30.298  1.00  0.00    -0.342 OA
ATOM     18  C   UNL A   1      52.692  30.718  29.649  1.00  0.00     0.198 C 
ATOM     19  C   UNL A   1      51.307  29.595  31.190  1.00  0.00     0.163 C 
ATOM     20  O   UNL A   1      52.555  29.623  30.498  1.00  0.00    -0.348 OA
ATOM     21  C   UNL A   1      51.437  28.230  31.857  1.00  0.00     0.075 C 
ATOM     22  C   UNL A   1      51.268  30.650  32.304  1.00  0.00     0.075 C 
BRANCH  12  23
ATOM     23  N   UNL A   1      48.586  32.906  26.533  1.00  0.00    -0.345 N 
ATOM     24  C   UNL A   1      47.897  34.675  28.154  1.00  0.00     0.114 C 
ATOM     25  C   UNL A   1      48.032  34.143  26.744  1.00  0.00     0.217 C 
ATOM     26  O   UNL A   1      47.611  34.775  25.776  1.00  0.00    -0.275 OA
ATOM     27  H   UNL A   1      48.361  32.462  25.684  1.00  0.00     0.164 HD
ENDBRANCH  12  23
BRANCH  13  28
ATOM     28  O   UNL A   1      51.107  31.399  25.551  1.00  0.00    -0.463 OA
BRANCH  28  29
ATOM     29  C   UNL A   1      51.942  31.983  24.651  1.00  0.00     0.123 A 
ATOM     30  C   UNL A   1      51.824  33.332  24.423  1.00  0.00     0.047 A 
ATOM     31  C   UNL A   1      52.973  31.284  24.017  1.00  0.00     0.050 A 
ATOM     32  C   UNL A   1      52.494  33.896  23.346  1.00  0.00     0.007 A 
ATOM     33  C   UNL A   1      53.761  31.904  23.014  1.00  0.00    -0.045 A 
ATOM     34  C   UNL A   1      53.440  33.201  22.601  1.00  0.00    -0.048 A 
ATOM     35  C   UNL A   1      54.959  31.191  22.454  1.00  0.00     0.045 C 
ATOM     36  C   UNL A   1      54.093  33.905  21.443  1.00  0.00     0.044 C 
ENDBRANCH  28  29
ENDBRANCH  13  28
ENDBRANCH  10  11
ENDBRANCH   8  10
ENDBRANCH   6   8
ENDBRANCH   5   6
ENDBRANCH   4   5
ENDBRANCH   3   4
ENDBRANCH   2   3
ENDBRANCH   1   2
BRANCH   1  37
ATOM     37  C   UNL A   1      44.050  24.021  26.415  1.00  0.00     0.188 C 
BRANCH  37  38
ATOM     38  O   UNL A   1      43.477  22.725  26.523  1.00  0.00    -0.376 OA
BRANCH  38  39
ATOM     39  C   UNL A   1      42.439  22.486  25.581  1.00  0.00     0.202 C 
BRANCH  39  40
ATOM     40  C   UNL A   1      41.238  21.619  26.027  1.00  0.00     0.261 C 
BRANCH  40  41
ATOM     41  O   UNL A   1      40.389  22.231  27.016  1.00  0.00    -0.460 OA
BRANCH  41  42
ATOM     42  C   UNL A   1      39.445  23.108  26.575  1.00  0.00     0.338 C 
ATOM     43  O   UNL A   1      38.426  22.874  25.972  1.00  0.00    -0.246 OA
BRANCH  42  44
ATOM     44  C   UNL A   1      39.692  24.430  27.166  1.00  0.00     0.060 A 
ATOM     45  C   UNL A   1      40.445  25.373  26.437  1.00  0.00     0.016 A 
ATOM     46  C   UNL A   1      39.138  24.738  28.401  1.00  0.00     0.016 A 
ATOM     47  C   UNL A   1      40.643  26.645  26.951  1.00  0.00     0.010 A 
ATOM     48  C   UNL A   1      39.365  25.994  28.931  1.00  0.00     0.010 A 
ATOM     49  C   UNL A   1      40.137  26.931  28.219  1.00  0.00    -0.014 A 
BRANCH  49  50
ATOM     50  C   UNL A   1      40.586  28.122  28.948  1.00  0.00     0.031 A 
ATOM     51  C   UNL A   1      41.870  28.003  29.709  1.00  0.00     0.074 A 
ATOM     52  C   UNL A   1      39.803  29.208  29.007  1.00  0.00     0.049 A 
ATOM     53  N   UNL A   1      42.364  28.790  30.620  1.00  0.00    -0.248 NA
ATOM     54  C   UNL A   1      42.688  26.809  29.425  1.00  0.00     0.031 C 
ATOM     55  C   UNL A   1      38.559  29.397  28.260  1.00  0.00     0.029 A 
ATOM     56  N   UNL A   1      39.922  30.336  29.769  1.00  0.00    -0.354 N 
ATOM     57  C   UNL A   1      43.529  28.168  31.050  1.00  0.00     0.074 A 
ATOM     58  C   UNL A   1      43.660  26.932  30.314  1.00  0.00     0.031 C 
ATOM     59  C   UNL A   1      38.007  30.563  28.632  1.00  0.00     0.029 A 
ATOM     60  C   UNL A   1      38.832  31.166  29.675  1.00  0.00     0.049 A 
ATOM     61  H   UNL A   1      40.708  30.533  30.328  1.00  0.00     0.167 HD
ATOM     62  C   UNL A   1      44.402  28.598  31.989  1.00  0.00     0.031 A 
ATOM     63  C   UNL A   1      38.525  32.260  30.395  1.00  0.00     0.031 A 
ATOM     64  C   UNL A   1      44.217  29.823  32.717  1.00  0.00     0.049 A 
ATOM     65  C   UNL A   1      39.487  32.701  31.465  1.00  0.00     0.074 A 
ATOM     66  C   UNL A   1      45.038  30.393  33.669  1.00  0.00     0.029 A 
ATOM     67  N   UNL A   1      43.117  30.662  32.574  1.00  0.00    -0.354 N 
ATOM     68  N   UNL A   1      40.608  32.132  31.849  1.00  0.00    -0.248 NA
ATOM     69  C   UNL A   1      39.153  33.929  32.192  1.00  0.00     0.031 C 
ATOM     70  C   UNL A   1      44.403  31.543  34.151  1.00  0.00     0.029 A 
ATOM     71  C   UNL A   1      43.223  31.731  33.443  1.00  0.00     0.049 A 
ATOM     72  H   UNL A   1      42.373  30.515  31.948  1.00  0.00     0.167 HD
ATOM     73  C   UNL A   1      41.131  32.951  32.842  1.00  0.00     0.074 A 
ATOM     74  C   UNL A   1      40.203  34.058  32.992  1.00  0.00     0.031 C 
ATOM     75  C   UNL A   1      42.273  32.812  33.562  1.00  0.00     0.031 A 
BRANCH  62  76
ATOM     76  C   UNL A   1      45.574  27.710  32.308  1.00  0.00    -0.014 A 
ATOM     77  C   UNL A   1      45.518  26.754  33.339  1.00  0.00     0.010 A 
ATOM     78  C   UNL A   1      46.762  27.838  31.564  1.00  0.00     0.010 A 
ATOM     79  C   UNL A   1      46.639  25.981  33.653  1.00  0.00     0.020 A 
ATOM     80  C   UNL A   1      47.874  27.042  31.851  1.00  0.00     0.020 A 
ATOM     81  C   UNL A   1      47.812  26.132  32.908  1.00  0.00     0.054 A 
BRANCH  81  82
ATOM     82  S   UNL A   1      49.248  25.108  33.329  1.00  0.00     0.124 S 
ATOM     83  O   UNL A   1      49.987  25.984  34.235  1.00  0.00    -0.237 OA
ATOM     84  O   UNL A   1      48.633  23.938  33.951  1.00  0.00    -0.237 OA
ATOM     85  O   UNL A   1      49.890  24.860  32.040  1.00  0.00    -0.744 OA
ENDBRANCH  81  82
ENDBRANCH  62  76
BRANCH  63  86
ATOM     86  C   UNL A   1      37.256  32.985  30.122  1.00  0.00    -0.014 A 
ATOM     87  C   UNL A   1      37.113  33.756  28.957  1.00  0.00     0.010 A 
ATOM     88  C   UNL A   1      36.157  32.852  30.993  1.00  0.00     0.010 A 
ATOM     89  C   UNL A   1      35.897  34.383  28.667  1.00  0.00     0.020 A 
ATOM     90  C   UNL A   1      34.931  33.454  30.692  1.00  0.00     0.020 A 
ATOM     91  C   UNL A   1      34.811  34.221  29.532  1.00  0.00     0.054 A 
BRANCH  91  92
ATOM     92  S   UNL A   1      33.224  34.983  29.092  1.00  0.00     0.124 S 
ATOM     93  O   UNL A   1      32.522  34.984  30.370  1.00  0.00    -0.237 OA
ATOM     94  O   UNL A   1      33.633  36.294  28.593  1.00  0.00    -0.237 OA
ATOM     95  O   UNL A   1      32.679  34.081  28.079  1.00  0.00    -0.744 OA
ENDBRANCH  91  92
ENDBRANCH  63  86
BRANCH  75  96
ATOM     96  C   UNL A   1      42.605  33.901  34.545  1.00  0.00    -0.014 A 
ATOM     97  C   UNL A   1      42.149  33.854  35.873  1.00  0.00     0.010 A 
ATOM     98  C   UNL A   1      43.460  34.945  34.146  1.00  0.00     0.010 A 
ATOM     99  C   UNL A   1      42.525  34.847  36.780  1.00  0.00     0.020 A 
ATOM    100  C   UNL A   1      43.865  35.920  35.057  1.00  0.00     0.020 A 
ATOM    101  C   UNL A   1      43.386  35.870  36.368  1.00  0.00     0.054 A 
BRANCH 101 102
ATOM    102  S   UNL A   1      43.909  37.109  37.582  1.00  0.00     0.124 S 
ATOM    103  O   UNL A   1      45.256  36.658  37.916  1.00  0.00    -0.237 OA
ATOM    104  O   UNL A   1      43.834  38.354  36.819  1.00  0.00    -0.237 OA
ATOM    105  O   UNL A   1      42.925  36.982  38.655  1.00  0.00    -0.744 OA
ENDBRANCH 101 102
ENDBRANCH  75  96
ENDBRANCH  49  50
ENDBRANCH  42  44
ENDBRANCH  41  42
ENDBRANCH  40  41
ENDBRANCH  39  40
ENDBRANCH  38  39
ENDBRANCH  37  38
ENDBRANCH   1  37
TORSDOF 25
ENDMDL
MODEL 3
REMARK VINA RESULT:      -6.7      3.760     10.773
REMARK SMILES CC(=O)N[C@@H]1[C@H](Oc2ccc(C)c(C)c2)O[C@H]2COC(C)(C)O[C@@H]2[C@H]1O[C@@H](C)C(=O)OCCOCCOCCOC(=O)c1ccc(-c2c3nc(c(-c4ccc(S(=O)(=O)[O-])cc4)c4ccc([nH]4)c(-c4ccc(S(=O)(=O)[O-])cc4)c4nc(c(-c5ccc(S(=O)(=O)[O-])cc5)c5ccc2[nH]5)C=C4)C=C3)cc1
REMARK SMILES IDX 35 1 34 2 33 3 32 4 31 5 29 6 30 7 27 8 28 9 26 10 25 11
REMARK SMILES IDX 5 12 6 13 16 14 24 15 17 16 23 17 18 18 20 19 19 20 21 21
REMARK SMILES IDX 22 22 4 23 1 24 2 25 3 26 7 28 8 29 9 30 15 31 10 32 13 33
REMARK SMILES IDX 11 34 14 35 12 36 36 37 37 38 38 39 39 40 40 41 41 42 42 43
REMARK SMILES IDX 43 44 44 45 102 46 45 47 101 48 46 49 47 50 48 51 95 52
REMARK SMILES IDX 49 53 100 54 94 55 96 56 50 57 99 58 93 59 92 60 51 62 81 63
REMARK SMILES IDX 62 64 80 65 63 66 66 67 79 68 97 69 64 70 65 71 78 73 98 74
REMARK SMILES IDX 67 75 52 76 53 77 61 78 54 79 60 80 55 81 56 82 57 83 58 84
REMARK SMILES IDX 59 85 82 86 83 87 91 88 84 89 90 90 85 91 86 92 87 93 88 94
REMARK SMILES IDX 89 95 68 96 69 97 77 98 70 99 76 100 71 101 72 102 73 103
REMARK SMILES IDX 74 104 75 105
REMARK H PARENT 4 27 96 61 66 72
REMARK Flexibility Score: inf
ROOT
ATOM      1  C   UNL A   1      52.631  25.311  36.220  1.00  0.00     0.188 C 
ENDROOT
BRANCH   1   2
ATOM      2  O   UNL A   1      53.607  25.837  37.112  1.00  0.00    -0.376 OA
BRANCH   2   3
ATOM      3  C   UNL A   1      54.946  25.690  36.654  1.00  0.00     0.202 C 
BRANCH   3   4
ATOM      4  C   UNL A   1      55.082  25.397  35.141  1.00  0.00     0.261 C 
BRANCH   4   5
ATOM      5  O   UNL A   1      55.395  26.591  34.364  1.00  0.00    -0.461 OA
BRANCH   5   6
ATOM      6  C   UNL A   1      54.327  27.176  33.765  1.00  0.00     0.335 C 
ATOM      7  O   UNL A   1      53.716  28.120  34.260  1.00  0.00    -0.249 OA
BRANCH   6   8
ATOM      8  C   UNL A   1      53.911  26.558  32.357  1.00  0.00     0.225 C 
ATOM      9  C   UNL A   1      54.643  27.536  31.431  1.00  0.00     0.051 C 
BRANCH   8  10
ATOM     10  O   UNL A   1      52.776  25.828  31.798  1.00  0.00    -0.358 OA
BRANCH  10  11
ATOM     11  C   UNL A   1      51.772  25.117  32.580  1.00  0.00     0.180 C 
ATOM     12  C   UNL A   1      50.363  25.084  31.869  1.00  0.00     0.182 C 
ATOM     13  C   UNL A   1      49.212  24.507  32.751  1.00  0.00     0.333 C 
ATOM     14  O   UNL A   1      49.499  23.178  33.128  1.00  0.00    -0.332 OA
ATOM     15  C   UNL A   1      52.006  23.487  32.872  1.00  0.00     0.184 C 
ATOM     16  C   UNL A   1      50.778  22.996  33.705  1.00  0.00     0.180 C 
ATOM     17  O   UNL A   1      53.189  23.058  33.592  1.00  0.00    -0.342 OA
ATOM     18  C   UNL A   1      50.842  21.512  33.979  1.00  0.00     0.198 C 
ATOM     19  C   UNL A   1      53.196  21.628  33.928  1.00  0.00     0.163 C 
ATOM     20  O   UNL A   1      52.031  21.207  34.637  1.00  0.00    -0.348 OA
ATOM     21  C   UNL A   1      54.247  21.302  34.983  1.00  0.00     0.075 C 
ATOM     22  C   UNL A   1      53.463  20.726  32.716  1.00  0.00     0.075 C 
BRANCH  12  23
ATOM     23  N   UNL A   1      49.877  26.211  31.091  1.00  0.00    -0.345 N 
ATOM     24  C   UNL A   1      50.078  25.132  28.850  1.00  0.00     0.114 C 
ATOM     25  C   UNL A   1      49.529  26.204  29.764  1.00  0.00     0.217 C 
ATOM     26  O   UNL A   1      48.812  27.107  29.336  1.00  0.00    -0.275 OA
ATOM     27  H   UNL A   1      49.789  27.070  31.565  1.00  0.00     0.164 HD
ENDBRANCH  12  23
BRANCH  13  28
ATOM     28  O   UNL A   1      48.572  25.330  33.758  1.00  0.00    -0.463 OA
BRANCH  28  29
ATOM     29  C   UNL A   1      47.343  24.945  34.193  1.00  0.00     0.123 A 
ATOM     30  C   UNL A   1      46.311  24.896  33.290  1.00  0.00     0.047 A 
ATOM     31  C   UNL A   1      47.110  24.511  35.501  1.00  0.00     0.050 A 
ATOM     32  C   UNL A   1      45.012  24.741  33.756  1.00  0.00     0.007 A 
ATOM     33  C   UNL A   1      45.797  24.210  35.943  1.00  0.00    -0.045 A 
ATOM     34  C   UNL A   1      44.720  24.434  35.080  1.00  0.00    -0.048 A 
ATOM     35  C   UNL A   1      45.584  23.600  37.299  1.00  0.00     0.045 C 
ATOM     36  C   UNL A   1      43.276  24.306  35.480  1.00  0.00     0.044 C 
ENDBRANCH  28  29
ENDBRANCH  13  28
ENDBRANCH  10  11
ENDBRANCH   8  10
ENDBRANCH   6   8
ENDBRANCH   5   6
ENDBRANCH   4   5
ENDBRANCH   3   4
ENDBRANCH   2   3
ENDBRANCH   1   2
BRANCH   1  37
ATOM     37  C   UNL A   1      51.425  24.747  36.897  1.00  0.00     0.188 C 
BRANCH  37  38
ATOM     38  O   UNL A   1      50.327  25.647  36.946  1.00  0.00    -0.376 OA
BRANCH  38  39
ATOM     39  C   UNL A   1      49.983  26.045  38.267  1.00  0.00     0.202 C 
BRANCH  39  40
ATOM     40  C   UNL A   1      48.538  25.779  38.753  1.00  0.00     0.261 C 
BRANCH  40  41
ATOM     41  O   UNL A   1      47.709  26.952  38.847  1.00  0.00    -0.460 OA
BRANCH  41  42
ATOM     42  C   UNL A   1      46.383  26.763  39.099  1.00  0.00     0.338 C 
ATOM     43  O   UNL A   1      45.860  26.360  40.109  1.00  0.00    -0.246 OA
BRANCH  42  44
ATOM     44  C   UNL A   1      45.590  27.376  38.025  1.00  0.00     0.060 A 
ATOM     45  C   UNL A   1      46.207  28.312  37.170  1.00  0.00     0.016 A 
ATOM     46  C   UNL A   1      44.271  26.984  37.844  1.00  0.00     0.016 A 
ATOM     47  C   UNL A   1      45.494  28.861  36.117  1.00  0.00     0.010 A 
ATOM     48  C   UNL A   1      43.548  27.557  36.815  1.00  0.00     0.010 A 
ATOM     49  C   UNL A   1      44.151  28.511  35.975  1.00  0.00    -0.014 A 
BRANCH  49  50
ATOM     50  C   UNL A   1      43.266  29.292  35.102  1.00  0.00     0.031 A 
ATOM     51  C   UNL A   1      42.475  30.385  35.749  1.00  0.00     0.074 A 
ATOM     52  C   UNL A   1      43.109  28.940  33.819  1.00  0.00     0.049 A 
ATOM     53  N   UNL A   1      41.456  31.050  35.286  1.00  0.00    -0.248 NA
ATOM     54  C   UNL A   1      42.867  30.749  37.124  1.00  0.00     0.031 C 
ATOM     55  C   UNL A   1      43.877  27.908  33.123  1.00  0.00     0.029 A 
ATOM     56  N   UNL A   1      42.213  29.388  32.890  1.00  0.00    -0.354 N 
ATOM     57  C   UNL A   1      41.058  31.882  36.324  1.00  0.00     0.074 A 
ATOM     58  C   UNL A   1      41.931  31.627  37.446  1.00  0.00     0.031 C 
ATOM     59  C   UNL A   1      43.390  27.774  31.879  1.00  0.00     0.029 A 
ATOM     60  C   UNL A   1      42.250  28.673  31.719  1.00  0.00     0.049 A 
ATOM     61  H   UNL A   1      41.603  30.145  33.045  1.00  0.00     0.167 HD
ATOM     62  C   UNL A   1      40.040  32.772  36.332  1.00  0.00     0.031 A 
ATOM     63  C   UNL A   1      41.417  28.715  30.663  1.00  0.00     0.031 A 
ATOM     64  C   UNL A   1      39.178  32.973  35.199  1.00  0.00     0.049 A 
ATOM     65  C   UNL A   1      40.264  29.681  30.705  1.00  0.00     0.074 A 
ATOM     66  C   UNL A   1      38.133  33.863  35.060  1.00  0.00     0.029 A 
ATOM     67  N   UNL A   1      39.263  32.255  34.011  1.00  0.00    -0.354 N 
ATOM     68  N   UNL A   1      39.907  30.494  31.674  1.00  0.00    -0.248 NA
ATOM     69  C   UNL A   1      39.408  29.744  29.516  1.00  0.00     0.031 C 
ATOM     70  C   UNL A   1      37.542  33.638  33.811  1.00  0.00     0.029 A 
ATOM     71  C   UNL A   1      38.268  32.662  33.143  1.00  0.00     0.049 A 
ATOM     72  H   UNL A   1      39.932  31.560  33.819  1.00  0.00     0.167 HD
ATOM     73  C   UNL A   1      38.802  31.191  31.199  1.00  0.00     0.074 A 
ATOM     74  C   UNL A   1      38.557  30.705  29.853  1.00  0.00     0.031 C 
ATOM     75  C   UNL A   1      38.058  32.149  31.810  1.00  0.00     0.031 A 
BRANCH  62  76
ATOM     76  C   UNL A   1      39.784  33.525  37.609  1.00  0.00    -0.014 A 
ATOM     77  C   UNL A   1      38.906  33.034  38.593  1.00  0.00     0.010 A 
ATOM     78  C   UNL A   1      40.430  34.756  37.828  1.00  0.00     0.010 A 
ATOM     79  C   UNL A   1      38.641  33.780  39.745  1.00  0.00     0.020 A 
ATOM     80  C   UNL A   1      40.195  35.489  38.995  1.00  0.00     0.020 A 
ATOM     81  C   UNL A   1      39.286  35.005  39.937  1.00  0.00     0.054 A 
BRANCH  81  82
ATOM     82  S   UNL A   1      38.932  35.947  41.446  1.00  0.00     0.124 S 
ATOM     83  O   UNL A   1      37.645  35.389  41.854  1.00  0.00    -0.237 OA
ATOM     84  O   UNL A   1      40.063  35.609  42.305  1.00  0.00    -0.237 OA
ATOM     85  O   UNL A   1      38.892  37.334  40.989  1.00  0.00    -0.744 OA
ENDBRANCH  81  82
ENDBRANCH  62  76
BRANCH  63  86
ATOM     86  C   UNL A   1      41.651  27.809  29.507  1.00  0.00    -0.014 A 
ATOM     87  C   UNL A   1      42.651  28.103  28.565  1.00  0.00     0.010 A 
ATOM     88  C   UNL A   1      40.921  26.612  29.379  1.00  0.00     0.010 A 
ATOM     89  C   UNL A   1      42.917  27.218  27.516  1.00  0.00     0.020 A 
ATOM     90  C   UNL A   1      41.204  25.711  28.348  1.00  0.00     0.020 A 
ATOM     91  C   UNL A   1      42.197  26.023  27.419  1.00  0.00     0.054 A 
BRANCH  91  92
ATOM     92  S   UNL A   1      42.615  24.858  26.091  1.00  0.00     0.124 S 
ATOM     93  O   UNL A   1      42.438  25.680  24.899  1.00  0.00    -0.237 OA
ATOM     94  O   UNL A   1      43.995  24.499  26.412  1.00  0.00    -0.237 OA
ATOM     95  O   UNL A   1      41.643  23.780  26.260  1.00  0.00    -0.744 OA
ENDBRANCH  91  92
ENDBRANCH  63  86
BRANCH  75  96
ATOM     96  C   UNL A   1      36.940  32.763  31.015  1.00  0.00    -0.014 A 
ATOM     97  C   UNL A   1      37.184  33.767  30.062  1.00  0.00     0.010 A 
ATOM     98  C   UNL A   1      35.634  32.262  31.170  1.00  0.00     0.010 A 
ATOM     99  C   UNL A   1      36.134  34.275  29.293  1.00  0.00     0.020 A 
ATOM    100  C   UNL A   1      34.589  32.743  30.381  1.00  0.00     0.020 A 
ATOM    101  C   UNL A   1      34.845  33.755  29.453  1.00  0.00     0.054 A 
BRANCH 101 102
ATOM    102  S   UNL A   1      33.514  34.387  28.398  1.00  0.00     0.124 S 
ATOM    103  O   UNL A   1      32.564  34.899  29.381  1.00  0.00    -0.237 OA
ATOM    104  O   UNL A   1      34.197  35.400  27.597  1.00  0.00    -0.237 OA
ATOM    105  O   UNL A   1      33.069  33.209  27.656  1.00  0.00    -0.744 OA
ENDBRANCH 101 102
ENDBRANCH  75  96
ENDBRANCH  49  50
ENDBRANCH  42  44
ENDBRANCH  41  42
ENDBRANCH  40  41
ENDBRANCH  39  40
ENDBRANCH  38  39
ENDBRANCH  37  38
ENDBRANCH   1  37
TORSDOF 25
ENDMDL
