MODEL 1
REMARK VINA RESULT:     -12.6      0.000      0.000
REMARK SMILES Cc1cccc(OC2(C(=O)OCCOCCOCCOC(=O)c3ccc(-c4c5nc(c(-c6ccc(S(=O)(=O)[O-])cc6)c6ccc([nH]6)c(-c6ccc(S(=O)(=O)[O-])cc6)c6nc(c(-c7ccc(S(=O)(=O)[O-])cc7)c7ccc4[nH]7)C=C6)C=C5)cc3)CCN(C(=O)c3cnc[nH]c3=O)CC2)c1
REMARK SMILES IDX 16 1 15 2 14 3 13 4 12 5 11 6 9 7 10 8 8 9 83 10 96 11 84 12
REMARK SMILES IDX 95 13 85 14 86 15 87 16 7 17 6 18 1 19 2 20 3 21 97 22 4 23
REMARK SMILES IDX 5 24 88 25 89 26 93 27 90 28 92 29 94 30 91 31 17 33 18 34
REMARK SMILES IDX 19 35 20 36 21 37 22 38 23 39 24 40 82 41 25 42 81 43 26 44
REMARK SMILES IDX 27 45 28 46 75 47 29 48 80 49 74 50 76 51 30 52 79 53 73 54
REMARK SMILES IDX 72 55 31 57 61 58 42 59 60 60 43 61 46 62 59 63 77 64 44 65
REMARK SMILES IDX 45 66 58 68 78 69 47 70 32 71 33 72 41 73 34 74 40 75 35 76
REMARK SMILES IDX 36 77 37 78 38 79 39 80 62 81 63 82 71 83 64 84 70 85 65 86
REMARK SMILES IDX 66 87 67 88 68 89 69 90 48 91 49 92 57 93 50 94 56 95 51 96
REMARK SMILES IDX 52 97 53 98 54 99 55 100
REMARK H PARENT 92 32 76 56 46 67
REMARK Flexibility Score: inf
ROOT
ATOM      1  C   UNL A   1      33.915  27.189  24.324  1.00  0.00     0.188 C 
ENDROOT
BRANCH   1   2
ATOM      2  C   UNL A   1      33.636  25.811  23.711  1.00  0.00     0.188 C 
BRANCH   2   3
ATOM      3  O   UNL A   1      32.777  25.542  22.582  1.00  0.00    -0.376 OA
BRANCH   3   4
ATOM      4  C   UNL A   1      31.375  25.219  22.633  1.00  0.00     0.202 C 
BRANCH   4   5
ATOM      5  C   UNL A   1      30.579  24.181  23.756  1.00  0.00     0.261 C 
BRANCH   5   6
ATOM      6  O   UNL A   1      31.177  23.437  25.280  1.00  0.00    -0.460 OA
BRANCH   6   7
ATOM      7  C   UNL A   1      32.383  22.902  25.945  1.00  0.00     0.350 C 
ATOM      8  O   UNL A   1      32.799  23.163  27.081  1.00  0.00    -0.247 OA
BRANCH   7   9
ATOM      9  C   UNL A   1      33.268  21.814  25.310  1.00  0.00     0.209 C 
ATOM     10  C   UNL A   1      33.725  22.314  23.958  1.00  0.00     0.082 C 
ATOM     11  C   UNL A   1      34.379  21.530  26.380  1.00  0.00     0.082 C 
ATOM     12  C   UNL A   1      35.119  21.876  23.572  1.00  0.00     0.124 C 
ATOM     13  C   UNL A   1      35.614  20.931  25.759  1.00  0.00     0.124 C 
ATOM     14  N   UNL A   1      36.011  21.852  24.709  1.00  0.00    -0.338 N 
ATOM     15  C   UNL A   1      36.861  22.915  24.964  1.00  0.00     0.261 C 
ATOM     16  O   UNL A   1      36.698  24.049  24.529  1.00  0.00    -0.269 OA
BRANCH   9  17
ATOM     17  O   UNL A   1      32.380  20.669  25.420  1.00  0.00    -0.475 OA
BRANCH  17  18
ATOM     18  C   UNL A   1      32.417  19.460  24.804  1.00  0.00     0.121 A 
ATOM     19  C   UNL A   1      34.298  16.207  25.206  1.00  0.00     0.044 C 
ATOM     20  C   UNL A   1      33.447  17.279  24.593  1.00  0.00    -0.047 A 
ATOM     21  C   UNL A   1      33.255  17.306  23.208  1.00  0.00     0.003 A 
ATOM     22  C   UNL A   1      32.991  18.344  25.387  1.00  0.00     0.050 A 
ATOM     23  C   UNL A   1      32.611  18.389  22.617  1.00  0.00     0.004 A 
ATOM     24  C   UNL A   1      32.207  19.467  23.412  1.00  0.00     0.046 A 
ENDBRANCH  17  18
ENDBRANCH   9  17
BRANCH  15  25
ATOM     25  C   UNL A   1      38.041  22.558  25.772  1.00  0.00     0.123 A 
ATOM     26  C   UNL A   1      38.698  21.403  25.596  1.00  0.00     0.132 A 
ATOM     27  C   UNL A   1      38.588  23.505  26.763  1.00  0.00     0.263 A 
ATOM     28  N   UNL A   1      39.855  21.051  26.254  1.00  0.00    -0.246 NA
ATOM     29  N   UNL A   1      39.767  23.129  27.335  1.00  0.00    -0.312 N 
ATOM     30  O   UNL A   1      38.041  24.557  27.076  1.00  0.00    -0.269 OA
ATOM     31  C   UNL A   1      40.342  21.923  27.071  1.00  0.00     0.199 A 
ATOM     32  H   UNL A   1      40.215  23.746  27.956  1.00  0.00     0.171 HD
ENDBRANCH  15  25
ENDBRANCH   7   9
ENDBRANCH   6   7
ENDBRANCH   5   6
ENDBRANCH   4   5
ENDBRANCH   3   4
ENDBRANCH   2   3
ENDBRANCH   1   2
BRANCH   1  33
ATOM     33  O   UNL A   1      32.824  28.078  24.186  1.00  0.00    -0.376 OA
BRANCH  33  34
ATOM     34  C   UNL A   1      32.001  28.219  25.333  1.00  0.00     0.202 C 
BRANCH  34  35
ATOM     35  C   UNL A   1      32.135  29.554  26.100  1.00  0.00     0.261 C 
BRANCH  35  36
ATOM     36  O   UNL A   1      33.495  30.031  26.261  1.00  0.00    -0.460 OA
BRANCH  36  37
ATOM     37  C   UNL A   1      33.759  31.021  27.191  1.00  0.00     0.338 C 
ATOM     38  O   UNL A   1      32.861  31.722  27.644  1.00  0.00    -0.246 OA
BRANCH  37  39
ATOM     39  C   UNL A   1      35.088  30.851  27.845  1.00  0.00     0.060 A 
ATOM     40  C   UNL A   1      35.813  31.627  28.762  1.00  0.00     0.016 A 
ATOM     41  C   UNL A   1      35.671  29.683  27.533  1.00  0.00     0.016 A 
ATOM     42  C   UNL A   1      37.179  31.273  29.238  1.00  0.00     0.010 A 
ATOM     43  C   UNL A   1      36.984  29.464  27.923  1.00  0.00     0.010 A 
ATOM     44  C   UNL A   1      37.882  30.137  28.815  1.00  0.00    -0.014 A 
BRANCH  44  45
ATOM     45  C   UNL A   1      39.522  29.709  29.158  1.00  0.00     0.031 A 
ATOM     46  C   UNL A   1      40.583  28.315  28.814  1.00  0.00     0.074 A 
ATOM     47  C   UNL A   1      40.225  30.658  29.814  1.00  0.00     0.049 A 
ATOM     48  N   UNL A   1      41.563  27.884  29.594  1.00  0.00    -0.248 NA
ATOM     49  C   UNL A   1      40.506  27.266  27.681  1.00  0.00     0.031 C 
ATOM     50  C   UNL A   1      41.677  30.760  29.928  1.00  0.00     0.029 A 
ATOM     51  N   UNL A   1      39.752  31.731  30.567  1.00  0.00    -0.354 N 
ATOM     52  C   UNL A   1      42.159  26.742  28.997  1.00  0.00     0.074 A 
ATOM     53  C   UNL A   1      41.305  26.274  27.991  1.00  0.00     0.031 C 
ATOM     54  C   UNL A   1      41.976  31.672  30.866  1.00  0.00     0.029 A 
ATOM     55  C   UNL A   1      40.732  32.053  31.509  1.00  0.00     0.049 A 
ATOM     56  H   UNL A   1      38.884  32.181  30.455  1.00  0.00     0.167 HD
ATOM     57  C   UNL A   1      43.452  26.340  29.141  1.00  0.00     0.031 A 
ATOM     58  C   UNL A   1      40.458  31.982  32.840  1.00  0.00     0.031 A 
ATOM     59  C   UNL A   1      44.094  27.196  30.090  1.00  0.00     0.049 A 
ATOM     60  C   UNL A   1      41.362  31.004  33.553  1.00  0.00     0.074 A 
ATOM     61  C   UNL A   1      44.799  28.375  29.955  1.00  0.00     0.029 A 
ATOM     62  N   UNL A   1      43.645  27.126  31.391  1.00  0.00    -0.354 N 
ATOM     63  N   UNL A   1      42.101  30.118  32.938  1.00  0.00    -0.248 NA
ATOM     64  C   UNL A   1      41.541  30.953  35.000  1.00  0.00     0.031 C 
ATOM     65  C   UNL A   1      44.696  29.066  31.193  1.00  0.00     0.029 A 
ATOM     66  C   UNL A   1      43.981  28.272  32.074  1.00  0.00     0.049 A 
ATOM     67  H   UNL A   1      43.153  26.365  31.776  1.00  0.00     0.167 HD
ATOM     68  C   UNL A   1      42.807  29.383  33.848  1.00  0.00     0.074 A 
ATOM     69  C   UNL A   1      42.436  29.956  35.127  1.00  0.00     0.031 C 
ATOM     70  C   UNL A   1      43.626  28.357  33.479  1.00  0.00     0.031 A 
BRANCH  57  71
ATOM     71  C   UNL A   1      44.145  25.428  28.118  1.00  0.00    -0.014 A 
ATOM     72  C   UNL A   1      44.546  25.963  26.881  1.00  0.00     0.010 A 
ATOM     73  C   UNL A   1      44.342  24.031  28.267  1.00  0.00     0.010 A 
ATOM     74  C   UNL A   1      45.002  25.150  25.824  1.00  0.00     0.020 A 
ATOM     75  C   UNL A   1      44.725  23.195  27.197  1.00  0.00     0.020 A 
ATOM     76  C   UNL A   1      45.057  23.765  25.975  1.00  0.00     0.054 A 
BRANCH  76  77
ATOM     77  S   UNL A   1      45.561  22.733  24.567  1.00  0.00     0.124 S 
ATOM     78  O   UNL A   1      44.294  22.471  23.887  1.00  0.00    -0.237 OA
ATOM     79  O   UNL A   1      46.485  23.609  23.854  1.00  0.00    -0.237 OA
ATOM     80  O   UNL A   1      46.172  21.561  25.193  1.00  0.00    -0.744 OA
ENDBRANCH  76  77
ENDBRANCH  57  71
BRANCH  58  81
ATOM     81  C   UNL A   1      39.052  32.379  33.180  1.00  0.00    -0.014 A 
ATOM     82  C   UNL A   1      38.740  33.757  33.085  1.00  0.00     0.010 A 
ATOM     83  C   UNL A   1      37.984  31.462  33.142  1.00  0.00     0.010 A 
ATOM     84  C   UNL A   1      37.435  34.194  32.818  1.00  0.00     0.020 A 
ATOM     85  C   UNL A   1      36.664  31.905  32.896  1.00  0.00     0.020 A 
ATOM     86  C   UNL A   1      36.410  33.261  32.677  1.00  0.00     0.054 A 
BRANCH  86  87
ATOM     87  S   UNL A   1      34.815  33.850  32.015  1.00  0.00     0.124 S 
ATOM     88  O   UNL A   1      34.452  34.904  32.956  1.00  0.00    -0.237 OA
ATOM     89  O   UNL A   1      35.187  34.304  30.673  1.00  0.00    -0.237 OA
ATOM     90  O   UNL A   1      33.956  32.672  32.050  1.00  0.00    -0.744 OA
ENDBRANCH  86  87
ENDBRANCH  58  81
BRANCH  70  91
ATOM     91  C   UNL A   1      44.194  27.297  34.393  1.00  0.00    -0.014 A 
ATOM     92  C   UNL A   1      43.449  26.221  34.891  1.00  0.00     0.010 A 
ATOM     93  C   UNL A   1      45.593  27.275  34.633  1.00  0.00     0.010 A 
ATOM     94  C   UNL A   1      44.054  25.215  35.653  1.00  0.00     0.020 A 
ATOM     95  C   UNL A   1      46.217  26.243  35.330  1.00  0.00     0.020 A 
ATOM     96  C   UNL A   1      45.433  25.236  35.872  1.00  0.00     0.054 A 
BRANCH  96  97
ATOM     97  S   UNL A   1      46.213  23.926  36.842  1.00  0.00     0.124 S 
ATOM     98  O   UNL A   1      46.392  22.881  35.838  1.00  0.00    -0.237 OA
ATOM     99  O   UNL A   1      47.443  24.555  37.318  1.00  0.00    -0.237 OA
ATOM    100  O   UNL A   1      45.227  23.638  37.881  1.00  0.00    -0.744 OA
ENDBRANCH  96  97
ENDBRANCH  70  91
ENDBRANCH  44  45
ENDBRANCH  37  39
ENDBRANCH  36  37
ENDBRANCH  35  36
ENDBRANCH  34  35
ENDBRANCH  33  34
ENDBRANCH   1  33
TORSDOF 23
ENDMDL
MODEL 2
REMARK VINA RESULT:     -12.4      2.400      4.163
REMARK SMILES Cc1cccc(OC2(C(=O)OCCOCCOCCOC(=O)c3ccc(-c4c5nc(c(-c6ccc(S(=O)(=O)[O-])cc6)c6ccc([nH]6)c(-c6ccc(S(=O)(=O)[O-])cc6)c6nc(c(-c7ccc(S(=O)(=O)[O-])cc7)c7ccc4[nH]7)C=C6)C=C5)cc3)CCN(C(=O)c3cnc[nH]c3=O)CC2)c1
REMARK SMILES IDX 16 1 15 2 14 3 13 4 12 5 11 6 9 7 10 8 8 9 83 10 96 11 84 12
REMARK SMILES IDX 95 13 85 14 86 15 87 16 7 17 6 18 1 19 2 20 3 21 97 22 4 23
REMARK SMILES IDX 5 24 88 25 89 26 93 27 90 28 92 29 94 30 91 31 17 33 18 34
REMARK SMILES IDX 19 35 20 36 21 37 22 38 23 39 24 40 82 41 25 42 81 43 26 44
REMARK SMILES IDX 27 45 28 46 75 47 29 48 80 49 74 50 76 51 30 52 79 53 73 54
REMARK SMILES IDX 72 55 31 57 61 58 42 59 60 60 43 61 46 62 59 63 77 64 44 65
REMARK SMILES IDX 45 66 58 68 78 69 47 70 32 71 33 72 41 73 34 74 40 75 35 76
REMARK SMILES IDX 36 77 37 78 38 79 39 80 62 81 63 82 71 83 64 84 70 85 65 86
REMARK SMILES IDX 66 87 67 88 68 89 69 90 48 91 49 92 57 93 50 94 56 95 51 96
REMARK SMILES IDX 52 97 53 98 54 99 55 100
REMARK H PARENT 92 32 76 56 46 67
REMARK Flexibility Score: inf
ROOT
ATOM      1  C   UNL A   1      33.613  28.588  26.926  1.00  0.00     0.188 C 
ENDROOT
BRANCH   1   2
ATOM      2  C   UNL A   1      32.657  27.389  26.906  1.00  0.00     0.188 C 
BRANCH   2   3
ATOM      3  O   UNL A   1      31.218  27.448  27.000  1.00  0.00    -0.376 OA
BRANCH   3   4
ATOM      4  C   UNL A   1      30.280  26.625  26.281  1.00  0.00     0.202 C 
BRANCH   4   5
ATOM      5  C   UNL A   1      30.043  24.924  26.439  1.00  0.00     0.261 C 
BRANCH   5   6
ATOM      6  O   UNL A   1      30.979  23.700  27.365  1.00  0.00    -0.460 OA
BRANCH   6   7
ATOM      7  C   UNL A   1      32.130  22.777  27.284  1.00  0.00     0.350 C 
ATOM      8  O   UNL A   1      32.465  21.911  28.103  1.00  0.00    -0.247 OA
BRANCH   7   9
ATOM      9  C   UNL A   1      33.050  22.703  26.052  1.00  0.00     0.209 C 
ATOM     10  C   UNL A   1      32.257  22.109  24.911  1.00  0.00     0.082 C 
ATOM     11  C   UNL A   1      33.582  24.167  25.865  1.00  0.00     0.082 C 
ATOM     12  C   UNL A   1      32.605  22.670  23.551  1.00  0.00     0.124 C 
ATOM     13  C   UNL A   1      34.033  24.423  24.451  1.00  0.00     0.124 C 
ATOM     14  N   UNL A   1      32.898  24.084  23.611  1.00  0.00    -0.338 N 
ATOM     15  C   UNL A   1      31.929  25.020  23.292  1.00  0.00     0.261 C 
ATOM     16  O   UNL A   1      30.724  24.797  23.300  1.00  0.00    -0.269 OA
BRANCH   9  17
ATOM     17  O   UNL A   1      34.182  21.993  26.622  1.00  0.00    -0.475 OA
BRANCH  17  18
ATOM     18  C   UNL A   1      35.484  21.952  26.238  1.00  0.00     0.121 A 
ATOM     19  C   UNL A   1      38.469  24.267  26.332  1.00  0.00     0.044 C 
ATOM     20  C   UNL A   1      37.594  23.106  25.964  1.00  0.00    -0.047 A 
ATOM     21  C   UNL A   1      37.851  22.388  24.791  1.00  0.00     0.003 A 
ATOM     22  C   UNL A   1      36.426  22.854  26.700  1.00  0.00     0.050 A 
ATOM     23  C   UNL A   1      36.948  21.423  24.356  1.00  0.00     0.004 A 
ATOM     24  C   UNL A   1      35.762  21.218  25.071  1.00  0.00     0.046 A 
ENDBRANCH  17  18
ENDBRANCH   9  17
BRANCH  15  25
ATOM     25  C   UNL A   1      32.472  26.326  22.874  1.00  0.00     0.123 A 
ATOM     26  C   UNL A   1      32.365  27.417  23.643  1.00  0.00     0.132 A 
ATOM     27  C   UNL A   1      33.225  26.457  21.611  1.00  0.00     0.263 A 
ATOM     28  N   UNL A   1      32.926  28.641  23.352  1.00  0.00    -0.246 NA
ATOM     29  N   UNL A   1      33.808  27.672  21.408  1.00  0.00    -0.312 N 
ATOM     30  O   UNL A   1      33.328  25.560  20.782  1.00  0.00    -0.269 OA
ATOM     31  C   UNL A   1      33.627  28.710  22.271  1.00  0.00     0.199 A 
ATOM     32  H   UNL A   1      34.377  27.803  20.616  1.00  0.00     0.171 HD
ENDBRANCH  15  25
ENDBRANCH   7   9
ENDBRANCH   6   7
ENDBRANCH   5   6
ENDBRANCH   4   5
ENDBRANCH   3   4
ENDBRANCH   2   3
ENDBRANCH   1   2
BRANCH   1  33
ATOM     33  O   UNL A   1      32.961  29.799  27.251  1.00  0.00    -0.376 OA
BRANCH  33  34
ATOM     34  C   UNL A   1      33.766  30.965  27.184  1.00  0.00     0.202 C 
BRANCH  34  35
ATOM     35  C   UNL A   1      34.754  31.172  28.354  1.00  0.00     0.261 C 
BRANCH  35  36
ATOM     36  O   UNL A   1      34.395  32.232  29.276  1.00  0.00    -0.460 OA
BRANCH  36  37
ATOM     37  C   UNL A   1      35.040  32.315  30.497  1.00  0.00     0.338 C 
ATOM     38  O   UNL A   1      34.409  32.414  31.543  1.00  0.00    -0.246 OA
BRANCH  37  39
ATOM     39  C   UNL A   1      36.459  31.862  30.424  1.00  0.00     0.060 A 
ATOM     40  C   UNL A   1      37.601  32.380  29.795  1.00  0.00     0.016 A 
ATOM     41  C   UNL A   1      36.691  30.770  31.170  1.00  0.00     0.016 A 
ATOM     42  C   UNL A   1      38.928  31.704  29.816  1.00  0.00     0.010 A 
ATOM     43  C   UNL A   1      37.918  30.132  31.061  1.00  0.00     0.010 A 
ATOM     44  C   UNL A   1      39.170  30.482  30.458  1.00  0.00    -0.014 A 
BRANCH  44  45
ATOM     45  C   UNL A   1      40.606  29.520  30.412  1.00  0.00     0.031 A 
ATOM     46  C   UNL A   1      41.123  28.025  29.585  1.00  0.00     0.074 A 
ATOM     47  C   UNL A   1      41.634  30.010  31.139  1.00  0.00     0.049 A 
ATOM     48  N   UNL A   1      41.975  27.134  30.068  1.00  0.00    -0.248 NA
ATOM     49  C   UNL A   1      40.610  27.390  28.272  1.00  0.00     0.031 C 
ATOM     50  C   UNL A   1      43.045  29.650  31.027  1.00  0.00     0.029 A 
ATOM     51  N   UNL A   1      41.603  30.928  32.187  1.00  0.00    -0.354 N 
ATOM     52  C   UNL A   1      42.113  26.073  29.134  1.00  0.00     0.074 A 
ATOM     53  C   UNL A   1      41.068  26.165  28.207  1.00  0.00     0.031 C 
ATOM     54  C   UNL A   1      43.706  30.148  32.084  1.00  0.00     0.029 A 
ATOM     55  C   UNL A   1      42.714  30.684  32.997  1.00  0.00     0.049 A 
ATOM     56  H   UNL A   1      40.922  31.624  32.329  1.00  0.00     0.167 HD
ATOM     57  C   UNL A   1      43.214  25.290  28.961  1.00  0.00     0.031 A 
ATOM     58  C   UNL A   1      42.552  30.340  34.304  1.00  0.00     0.031 A 
ATOM     59  C   UNL A   1      44.180  25.633  29.958  1.00  0.00     0.049 A 
ATOM     60  C   UNL A   1      43.149  28.986  34.611  1.00  0.00     0.074 A 
ATOM     61  C   UNL A   1      45.215  26.547  29.980  1.00  0.00     0.029 A 
ATOM     62  N   UNL A   1      43.850  25.348  31.266  1.00  0.00    -0.354 N 
ATOM     63  N   UNL A   1      43.503  28.125  33.694  1.00  0.00    -0.248 NA
ATOM     64  C   UNL A   1      43.429  28.497  35.956  1.00  0.00     0.031 C 
ATOM     65  C   UNL A   1      45.451  26.876  31.342  1.00  0.00     0.029 A 
ATOM     66  C   UNL A   1      44.599  26.117  32.126  1.00  0.00     0.049 A 
ATOM     67  H   UNL A   1      43.173  24.688  31.544  1.00  0.00     0.167 HD
ATOM     68  C   UNL A   1      44.010  26.999  34.279  1.00  0.00     0.074 A 
ATOM     69  C   UNL A   1      43.960  27.287  35.699  1.00  0.00     0.031 C 
ATOM     70  C   UNL A   1      44.416  25.919  33.552  1.00  0.00     0.031 A 
BRANCH  57  71
ATOM     71  C   UNL A   1      43.480  24.528  27.655  1.00  0.00    -0.014 A 
ATOM     72  C   UNL A   1      43.187  23.154  27.589  1.00  0.00     0.010 A 
ATOM     73  C   UNL A   1      44.104  25.071  26.502  1.00  0.00     0.010 A 
ATOM     74  C   UNL A   1      43.588  22.353  26.501  1.00  0.00     0.020 A 
ATOM     75  C   UNL A   1      44.577  24.271  25.441  1.00  0.00     0.020 A 
ATOM     76  C   UNL A   1      44.312  22.908  25.448  1.00  0.00     0.054 A 
BRANCH  76  77
ATOM     77  S   UNL A   1      44.897  21.835  24.103  1.00  0.00     0.124 S 
ATOM     78  O   UNL A   1      46.336  21.767  24.345  1.00  0.00    -0.237 OA
ATOM     79  O   UNL A   1      44.160  20.599  24.349  1.00  0.00    -0.237 OA
ATOM     80  O   UNL A   1      44.515  22.555  22.888  1.00  0.00    -0.744 OA
ENDBRANCH  76  77
ENDBRANCH  57  71
BRANCH  58  81
ATOM     81  C   UNL A   1      41.387  31.021  34.958  1.00  0.00    -0.014 A 
ATOM     82  C   UNL A   1      41.451  32.431  35.063  1.00  0.00     0.010 A 
ATOM     83  C   UNL A   1      40.118  30.416  35.049  1.00  0.00     0.010 A 
ATOM     84  C   UNL A   1      40.290  33.215  35.109  1.00  0.00     0.020 A 
ATOM     85  C   UNL A   1      38.947  31.205  35.119  1.00  0.00     0.020 A 
ATOM     86  C   UNL A   1      39.040  32.599  35.089  1.00  0.00     0.054 A 
BRANCH  86  87
ATOM     87  S   UNL A   1      37.579  33.658  34.823  1.00  0.00     0.124 S 
ATOM     88  O   UNL A   1      38.161  34.996  34.788  1.00  0.00    -0.237 OA
ATOM     89  O   UNL A   1      37.066  33.161  33.545  1.00  0.00    -0.237 OA
ATOM     90  O   UNL A   1      36.727  33.389  35.975  1.00  0.00    -0.744 OA
ENDBRANCH  86  87
ENDBRANCH  58  81
BRANCH  70  91
ATOM     91  C   UNL A   1      44.688  24.533  34.090  1.00  0.00    -0.014 A 
ATOM     92  C   UNL A   1      43.703  23.548  34.229  1.00  0.00     0.010 A 
ATOM     93  C   UNL A   1      46.032  24.134  34.310  1.00  0.00     0.010 A 
ATOM     94  C   UNL A   1      44.034  22.251  34.640  1.00  0.00     0.020 A 
ATOM     95  C   UNL A   1      46.380  22.829  34.650  1.00  0.00     0.020 A 
ATOM     96  C   UNL A   1      45.368  21.902  34.853  1.00  0.00     0.054 A 
BRANCH  96  97
ATOM     97  S   UNL A   1      45.792  20.222  35.366  1.00  0.00     0.124 S 
ATOM     98  O   UNL A   1      45.977  20.390  36.804  1.00  0.00    -0.237 OA
ATOM     99  O   UNL A   1      44.616  19.449  34.972  1.00  0.00    -0.237 OA
ATOM    100  O   UNL A   1      47.004  19.929  34.605  1.00  0.00    -0.744 OA
ENDBRANCH  96  97
ENDBRANCH  70  91
ENDBRANCH  44  45
ENDBRANCH  37  39
ENDBRANCH  36  37
ENDBRANCH  35  36
ENDBRANCH  34  35
ENDBRANCH  33  34
ENDBRANCH   1  33
TORSDOF 23
ENDMDL
MODEL 3
REMARK VINA RESULT:     -12.1      4.012     11.280
REMARK SMILES Cc1cccc(OC2(C(=O)OCCOCCOCCOC(=O)c3ccc(-c4c5nc(c(-c6ccc(S(=O)(=O)[O-])cc6)c6ccc([nH]6)c(-c6ccc(S(=O)(=O)[O-])cc6)c6nc(c(-c7ccc(S(=O)(=O)[O-])cc7)c7ccc4[nH]7)C=C6)C=C5)cc3)CCN(C(=O)c3cnc[nH]c3=O)CC2)c1
REMARK SMILES IDX 16 1 15 2 14 3 13 4 12 5 11 6 9 7 10 8 8 9 83 10 96 11 84 12
REMARK SMILES IDX 95 13 85 14 86 15 87 16 7 17 6 18 1 19 2 20 3 21 97 22 4 23
REMARK SMILES IDX 5 24 88 25 89 26 93 27 90 28 92 29 94 30 91 31 17 33 18 34
REMARK SMILES IDX 19 35 20 36 21 37 22 38 23 39 24 40 82 41 25 42 81 43 26 44
REMARK SMILES IDX 27 45 28 46 75 47 29 48 80 49 74 50 76 51 30 52 79 53 73 54
REMARK SMILES IDX 72 55 31 57 61 58 42 59 60 60 43 61 46 62 59 63 77 64 44 65
REMARK SMILES IDX 45 66 58 68 78 69 47 70 32 71 33 72 41 73 34 74 40 75 35 76
REMARK SMILES IDX 36 77 37 78 38 79 39 80 62 81 63 82 71 83 64 84 70 85 65 86
REMARK SMILES IDX 66 87 67 88 68 89 69 90 48 91 49 92 57 93 50 94 56 95 51 96
REMARK SMILES IDX 52 97 53 98 54 99 55 100
REMARK H PARENT 92 32 76 56 46 67
REMARK Flexibility Score: inf
ROOT
ATOM      1  C   UNL A   1      39.092  20.487  25.395  1.00  0.00     0.188 C 
ENDROOT
BRANCH   1   2
ATOM      2  C   UNL A   1      38.347  21.787  25.717  1.00  0.00     0.188 C 
BRANCH   2   3
ATOM      3  O   UNL A   1      36.927  21.919  25.945  1.00  0.00    -0.376 OA
BRANCH   3   4
ATOM      4  C   UNL A   1      35.929  22.238  24.958  1.00  0.00     0.202 C 
BRANCH   4   5
ATOM      5  C   UNL A   1      35.747  23.719  24.093  1.00  0.00     0.261 C 
BRANCH   5   6
ATOM      6  O   UNL A   1      34.672  25.125  24.406  1.00  0.00    -0.460 OA
BRANCH   6   7
ATOM      7  C   UNL A   1      33.743  25.711  25.394  1.00  0.00     0.350 C 
ATOM      8  O   UNL A   1      33.202  25.144  26.353  1.00  0.00    -0.247 OA
BRANCH   7   9
ATOM      9  C   UNL A   1      33.392  27.209  25.417  1.00  0.00     0.209 C 
ATOM     10  C   UNL A   1      33.853  27.817  24.112  1.00  0.00     0.082 C 
ATOM     11  C   UNL A   1      31.855  27.254  25.722  1.00  0.00     0.082 C 
ATOM     12  C   UNL A   1      32.961  28.921  23.590  1.00  0.00     0.124 C 
ATOM     13  C   UNL A   1      31.228  28.541  25.255  1.00  0.00     0.124 C 
ATOM     14  N   UNL A   1      31.565  28.652  23.846  1.00  0.00    -0.338 N 
ATOM     15  C   UNL A   1      30.759  28.101  22.865  1.00  0.00     0.261 C 
ATOM     16  O   UNL A   1      31.179  27.478  21.896  1.00  0.00    -0.269 OA
BRANCH   9  17
ATOM     17  O   UNL A   1      34.007  27.595  26.676  1.00  0.00    -0.475 OA
BRANCH  17  18
ATOM     18  C   UNL A   1      34.139  28.814  27.258  1.00  0.00     0.121 A 
ATOM     19  C   UNL A   1      32.322  32.126  27.183  1.00  0.00     0.044 C 
ATOM     20  C   UNL A   1      33.399  31.113  27.430  1.00  0.00    -0.047 A 
ATOM     21  C   UNL A   1      34.715  31.536  27.641  1.00  0.00     0.003 A 
ATOM     22  C   UNL A   1      33.117  29.747  27.277  1.00  0.00     0.050 A 
ATOM     23  C   UNL A   1      35.744  30.602  27.701  1.00  0.00     0.004 A 
ATOM     24  C   UNL A   1      35.457  29.247  27.495  1.00  0.00     0.046 A 
ENDBRANCH  17  18
ENDBRANCH   9  17
BRANCH  15  25
ATOM     25  C   UNL A   1      29.322  28.375  23.045  1.00  0.00     0.123 A 
ATOM     26  C   UNL A   1      28.779  29.555  22.716  1.00  0.00     0.132 A 
ATOM     27  C   UNL A   1      28.410  27.321  23.532  1.00  0.00     0.263 A 
ATOM     28  N   UNL A   1      27.434  29.844  22.777  1.00  0.00    -0.246 NA
ATOM     29  N   UNL A   1      27.087  27.645  23.511  1.00  0.00    -0.312 N 
ATOM     30  O   UNL A   1      28.787  26.228  23.940  1.00  0.00    -0.269 OA
ATOM     31  C   UNL A   1      26.655  28.885  23.150  1.00  0.00     0.199 A 
ATOM     32  H   UNL A   1      26.423  26.963  23.762  1.00  0.00     0.171 HD
ENDBRANCH  15  25
ENDBRANCH   7   9
ENDBRANCH   6   7
ENDBRANCH   5   6
ENDBRANCH   4   5
ENDBRANCH   3   4
ENDBRANCH   2   3
ENDBRANCH   1   2
BRANCH   1  33
ATOM     33  O   UNL A   1      39.930  20.062  26.452  1.00  0.00    -0.376 OA
BRANCH  33  34
ATOM     34  C   UNL A   1      40.709  21.079  27.062  1.00  0.00     0.202 C 
BRANCH  34  35
ATOM     35  C   UNL A   1      42.006  21.472  26.319  1.00  0.00     0.261 C 
BRANCH  35  36
ATOM     36  O   UNL A   1      41.905  22.670  25.507  1.00  0.00    -0.460 OA
BRANCH  36  37
ATOM     37  C   UNL A   1      42.965  23.559  25.478  1.00  0.00     0.338 C 
ATOM     38  O   UNL A   1      43.697  23.643  24.499  1.00  0.00    -0.246 OA
BRANCH  37  39
ATOM     39  C   UNL A   1      42.848  24.621  26.519  1.00  0.00     0.060 A 
ATOM     40  C   UNL A   1      42.538  24.595  27.886  1.00  0.00     0.016 A 
ATOM     41  C   UNL A   1      43.171  25.838  26.052  1.00  0.00     0.016 A 
ATOM     42  C   UNL A   1      42.421  25.819  28.726  1.00  0.00     0.010 A 
ATOM     43  C   UNL A   1      42.939  26.946  26.854  1.00  0.00     0.010 A 
ATOM     44  C   UNL A   1      42.602  27.120  28.235  1.00  0.00    -0.014 A 
BRANCH  44  45
ATOM     45  C   UNL A   1      42.329  28.616  29.059  1.00  0.00     0.031 A 
ATOM     46  C   UNL A   1      40.923  29.671  29.372  1.00  0.00     0.074 A 
ATOM     47  C   UNL A   1      43.421  29.130  29.667  1.00  0.00     0.049 A 
ATOM     48  N   UNL A   1      40.962  30.989  29.489  1.00  0.00    -0.248 NA
ATOM     49  C   UNL A   1      39.417  29.327  29.418  1.00  0.00     0.031 C 
ATOM     50  C   UNL A   1      43.451  30.150  30.711  1.00  0.00     0.029 A 
ATOM     51  N   UNL A   1      44.766  28.855  29.425  1.00  0.00    -0.354 N 
ATOM     52  C   UNL A   1      39.644  31.472  29.708  1.00  0.00     0.074 A 
ATOM     53  C   UNL A   1      38.743  30.450  29.388  1.00  0.00     0.031 C 
ATOM     54  C   UNL A   1      44.714  30.578  30.864  1.00  0.00     0.029 A 
ATOM     55  C   UNL A   1      45.503  29.980  29.803  1.00  0.00     0.049 A 
ATOM     56  H   UNL A   1      45.130  28.019  29.056  1.00  0.00     0.167 HD
ATOM     57  C   UNL A   1      39.303  32.598  30.392  1.00  0.00     0.031 A 
ATOM     58  C   UNL A   1      46.261  30.646  28.889  1.00  0.00     0.031 A 
ATOM     59  C   UNL A   1      40.499  33.289  30.763  1.00  0.00     0.049 A 
ATOM     60  C   UNL A   1      45.828  32.086  28.736  1.00  0.00     0.074 A 
ATOM     61  C   UNL A   1      41.304  33.225  31.883  1.00  0.00     0.029 A 
ATOM     62  N   UNL A   1      41.254  33.816  29.737  1.00  0.00    -0.354 N 
ATOM     63  N   UNL A   1      44.693  32.554  29.185  1.00  0.00    -0.248 NA
ATOM     64  C   UNL A   1      46.633  33.123  28.101  1.00  0.00     0.031 C 
ATOM     65  C   UNL A   1      42.601  33.651  31.488  1.00  0.00     0.029 A 
ATOM     66  C   UNL A   1      42.549  34.021  30.154  1.00  0.00     0.049 A 
ATOM     67  H   UNL A   1      40.915  34.017  28.835  1.00  0.00     0.167 HD
ATOM     68  C   UNL A   1      44.589  33.885  28.898  1.00  0.00     0.074 A 
ATOM     69  C   UNL A   1      45.838  34.202  28.233  1.00  0.00     0.031 C 
ATOM     70  C   UNL A   1      43.482  34.616  29.215  1.00  0.00     0.031 A 
BRANCH  57  71
ATOM     71  C   UNL A   1      37.909  32.793  31.005  1.00  0.00    -0.014 A 
ATOM     72  C   UNL A   1      36.904  33.417  30.244  1.00  0.00     0.010 A 
ATOM     73  C   UNL A   1      37.550  32.483  32.343  1.00  0.00     0.010 A 
ATOM     74  C   UNL A   1      35.671  33.807  30.804  1.00  0.00     0.020 A 
ATOM     75  C   UNL A   1      36.354  32.933  32.937  1.00  0.00     0.020 A 
ATOM     76  C   UNL A   1      35.415  33.596  32.157  1.00  0.00     0.054 A 
BRANCH  76  77
ATOM     77  S   UNL A   1      33.855  34.192  32.875  1.00  0.00     0.124 S 
ATOM     78  O   UNL A   1      34.307  35.156  33.876  1.00  0.00    -0.237 OA
ATOM     79  O   UNL A   1      33.179  34.764  31.714  1.00  0.00    -0.237 OA
ATOM     80  O   UNL A   1      33.238  32.985  33.423  1.00  0.00    -0.744 OA
ENDBRANCH  76  77
ENDBRANCH  57  71
BRANCH  58  81
ATOM     81  C   UNL A   1      46.896  29.744  27.873  1.00  0.00    -0.014 A 
ATOM     82  C   UNL A   1      47.854  28.820  28.353  1.00  0.00     0.010 A 
ATOM     83  C   UNL A   1      46.293  29.474  26.629  1.00  0.00     0.010 A 
ATOM     84  C   UNL A   1      48.094  27.606  27.694  1.00  0.00     0.020 A 
ATOM     85  C   UNL A   1      46.552  28.260  25.951  1.00  0.00     0.020 A 
ATOM     86  C   UNL A   1      47.406  27.311  26.519  1.00  0.00     0.054 A 
BRANCH  86  87
ATOM     87  S   UNL A   1      47.509  25.604  25.885  1.00  0.00     0.124 S 
ATOM     88  O   UNL A   1      46.556  24.894  26.733  1.00  0.00    -0.237 OA
ATOM     89  O   UNL A   1      47.106  25.769  24.487  1.00  0.00    -0.237 OA
ATOM     90  O   UNL A   1      48.905  25.231  26.084  1.00  0.00    -0.744 OA
ENDBRANCH  86  87
ENDBRANCH  58  81
BRANCH  70  91
ATOM     91  C   UNL A   1      43.131  35.983  28.676  1.00  0.00    -0.014 A 
ATOM     92  C   UNL A   1      43.751  37.165  29.096  1.00  0.00     0.010 A 
ATOM     93  C   UNL A   1      42.252  36.078  27.566  1.00  0.00     0.010 A 
ATOM     94  C   UNL A   1      43.454  38.391  28.490  1.00  0.00     0.020 A 
ATOM     95  C   UNL A   1      42.003  37.280  26.909  1.00  0.00     0.020 A 
ATOM     96  C   UNL A   1      42.578  38.441  27.404  1.00  0.00     0.054 A 
BRANCH  96  97
ATOM     97  S   UNL A   1      42.210  40.023  26.613  1.00  0.00     0.124 S 
ATOM     98  O   UNL A   1      40.942  39.734  25.949  1.00  0.00    -0.237 OA
ATOM     99  O   UNL A   1      42.128  40.948  27.742  1.00  0.00    -0.237 OA
ATOM    100  O   UNL A   1      43.351  40.234  25.725  1.00  0.00    -0.744 OA
ENDBRANCH  96  97
ENDBRANCH  70  91
ENDBRANCH  44  45
ENDBRANCH  37  39
ENDBRANCH  36  37
ENDBRANCH  35  36
ENDBRANCH  34  35
ENDBRANCH  33  34
ENDBRANCH   1  33
TORSDOF 23
ENDMDL
