MODEL 1
REMARK VINA RESULT:      -9.8      0.000      0.000
REMARK SMILES CC[C@@H](C)[C@@H](C(=O)OCCOCCOCCOC(=O)c1ccc(-c2c3nc(c(-c4ccc(S(=O)(=O)[O-])cc4)c4ccc([nH]4)c(-c4ccc(S(=O)(=O)[O-])cc4)c4nc(c(-c5ccc(S(=O)(=O)[O-])cc5)c5ccc2[nH]5)C=C4)C=C3)cc1)N1C(=O)/C(=C/c2ccc(O)cc2)SC1=S
REMARK SMILES IDX 12 1 11 2 10 3 9 4 8 5 6 6 7 7 5 8 3 9 4 10 2 11 1 12 80 13
REMARK SMILES IDX 81 14 93 15 82 16 83 17 92 18 94 19 84 20 85 21 86 22 91 23
REMARK SMILES IDX 87 24 90 25 88 26 89 27 13 29 14 30 15 31 16 32 17 33 18 34
REMARK SMILES IDX 19 35 20 36 21 37 79 38 22 39 78 40 23 41 24 42 25 43 72 44
REMARK SMILES IDX 26 45 77 46 71 47 73 48 27 49 76 50 70 51 69 52 28 54 58 55
REMARK SMILES IDX 39 56 57 57 40 58 43 59 56 60 74 61 41 62 42 63 55 65 75 66
REMARK SMILES IDX 44 67 29 68 30 69 38 70 31 71 37 72 32 73 33 74 34 75 35 76
REMARK SMILES IDX 36 77 59 78 60 79 68 80 61 81 67 82 62 83 63 84 64 85 65 86
REMARK SMILES IDX 66 87 45 88 46 89 54 90 47 91 53 92 48 93 49 94 50 95 51 96
REMARK SMILES IDX 52 97
REMARK H PARENT 89 28 73 53 43 64
REMARK Flexibility Score: inf
ROOT
ATOM      1  C   UNL A   1      40.258  19.899  25.989  1.00  0.00     0.188 C 
ENDROOT
BRANCH   1   2
ATOM      2  O   UNL A   1      38.975  20.510  25.969  1.00  0.00    -0.376 OA
BRANCH   2   3
ATOM      3  C   UNL A   1      38.000  20.012  25.058  1.00  0.00     0.202 C 
BRANCH   3   4
ATOM      4  C   UNL A   1      36.842  20.929  24.624  1.00  0.00     0.261 C 
BRANCH   4   5
ATOM      5  O   UNL A   1      35.522  20.463  25.001  1.00  0.00    -0.462 OA
BRANCH   5   6
ATOM      6  C   UNL A   1      34.832  21.228  25.881  1.00  0.00     0.329 C 
ATOM      7  O   UNL A   1      35.384  21.737  26.850  1.00  0.00    -0.250 OA
BRANCH   6   8
ATOM      8  C   UNL A   1      33.320  21.483  25.531  1.00  0.00     0.204 C 
BRANCH   8   9
ATOM      9  C   UNL A   1      32.528  20.399  24.719  1.00  0.00     0.020 C 
ATOM     10  C   UNL A   1      32.638  19.048  25.468  1.00  0.00     0.010 C 
BRANCH   9  11
ATOM     11  C   UNL A   1      32.858  20.147  23.230  1.00  0.00     0.002 C 
ATOM     12  C   UNL A   1      32.019  21.049  22.314  1.00  0.00     0.004 C 
ENDBRANCH   9  11
ENDBRANCH   8   9
BRANCH   8  13
ATOM     13  N   UNL A   1      33.126  22.944  25.082  1.00  0.00    -0.278 N 
ATOM     14  C   UNL A   1      31.970  23.577  25.554  1.00  0.00     0.267 C 
ATOM     15  C   UNL A   1      33.794  23.692  24.116  1.00  0.00     0.149 C 
ATOM     16  O   UNL A   1      31.029  23.031  26.113  1.00  0.00    -0.268 OA
ATOM     17  C   UNL A   1      31.893  24.996  25.117  1.00  0.00     0.081 C 
ATOM     18  S   UNL A   1      33.141  25.324  24.010  1.00  0.00    -0.054 SA
ATOM     19  S   UNL A   1      35.019  23.339  23.035  1.00  0.00    -0.052 S 
ATOM     20  C   UNL A   1      30.897  25.820  25.474  1.00  0.00     0.029 C 
BRANCH  20  21
ATOM     21  C   UNL A   1      30.587  27.068  24.764  1.00  0.00    -0.024 A 
ATOM     22  C   UNL A   1      29.671  27.135  23.714  1.00  0.00     0.012 A 
ATOM     23  C   UNL A   1      31.260  28.234  25.166  1.00  0.00     0.012 A 
ATOM     24  C   UNL A   1      29.419  28.364  23.093  1.00  0.00     0.047 A 
ATOM     25  C   UNL A   1      31.007  29.458  24.547  1.00  0.00     0.047 A 
ATOM     26  C   UNL A   1      30.081  29.512  23.516  1.00  0.00     0.115 A 
BRANCH  26  27
ATOM     27  O   UNL A   1      29.795  30.687  22.886  1.00  0.00    -0.508 OA
ATOM     28  H   UNL A   1      29.110  31.239  23.212  1.00  0.00     0.293 HD
ENDBRANCH  26  27
ENDBRANCH  20  21
ENDBRANCH   8  13
ENDBRANCH   6   8
ENDBRANCH   5   6
ENDBRANCH   4   5
ENDBRANCH   3   4
ENDBRANCH   2   3
ENDBRANCH   1   2
BRANCH   1  29
ATOM     29  C   UNL A   1      41.270  20.345  27.060  1.00  0.00     0.188 C 
BRANCH  29  30
ATOM     30  O   UNL A   1      42.247  21.252  26.617  1.00  0.00    -0.376 OA
BRANCH  30  31
ATOM     31  C   UNL A   1      42.118  22.637  26.870  1.00  0.00     0.202 C 
BRANCH  31  32
ATOM     32  C   UNL A   1      42.840  23.741  26.069  1.00  0.00     0.261 C 
BRANCH  32  33
ATOM     33  O   UNL A   1      42.987  25.034  26.666  1.00  0.00    -0.460 OA
BRANCH  33  34
ATOM     34  C   UNL A   1      42.180  26.017  26.195  1.00  0.00     0.338 C 
ATOM     35  O   UNL A   1      41.710  26.099  25.069  1.00  0.00    -0.246 OA
BRANCH  34  36
ATOM     36  C   UNL A   1      41.743  26.818  27.357  1.00  0.00     0.060 A 
ATOM     37  C   UNL A   1      42.328  28.075  27.566  1.00  0.00     0.016 A 
ATOM     38  C   UNL A   1      40.746  26.359  28.212  1.00  0.00     0.016 A 
ATOM     39  C   UNL A   1      41.917  28.887  28.622  1.00  0.00     0.010 A 
ATOM     40  C   UNL A   1      40.365  27.151  29.300  1.00  0.00     0.010 A 
ATOM     41  C   UNL A   1      40.961  28.409  29.521  1.00  0.00    -0.014 A 
BRANCH  41  42
ATOM     42  C   UNL A   1      40.764  29.078  30.828  1.00  0.00     0.031 A 
ATOM     43  C   UNL A   1      39.675  30.111  30.910  1.00  0.00     0.074 A 
ATOM     44  C   UNL A   1      41.528  28.810  31.901  1.00  0.00     0.049 A 
ATOM     45  N   UNL A   1      39.447  31.006  31.832  1.00  0.00    -0.248 NA
ATOM     46  C   UNL A   1      38.726  30.147  29.782  1.00  0.00     0.031 C 
ATOM     47  C   UNL A   1      42.545  27.764  31.986  1.00  0.00     0.029 A 
ATOM     48  N   UNL A   1      41.580  29.428  33.127  1.00  0.00    -0.354 N 
ATOM     49  C   UNL A   1      38.353  31.734  31.382  1.00  0.00     0.074 A 
ATOM     50  C   UNL A   1      37.970  31.187  30.099  1.00  0.00     0.031 C 
ATOM     51  C   UNL A   1      43.138  27.831  33.192  1.00  0.00     0.029 A 
ATOM     52  C   UNL A   1      42.580  28.954  33.944  1.00  0.00     0.049 A 
ATOM     53  H   UNL A   1      40.958  30.144  33.396  1.00  0.00     0.167 HD
ATOM     54  C   UNL A   1      37.727  32.773  31.980  1.00  0.00     0.031 A 
ATOM     55  C   UNL A   1      43.018  29.407  35.138  1.00  0.00     0.031 A 
ATOM     56  C   UNL A   1      38.121  33.315  33.251  1.00  0.00     0.049 A 
ATOM     57  C   UNL A   1      42.372  30.635  35.740  1.00  0.00     0.074 A 
ATOM     58  C   UNL A   1      37.575  34.387  33.935  1.00  0.00     0.029 A 
ATOM     59  N   UNL A   1      39.154  32.823  34.033  1.00  0.00    -0.354 N 
ATOM     60  N   UNL A   1      41.370  31.352  35.285  1.00  0.00    -0.248 NA
ATOM     61  C   UNL A   1      42.923  31.123  37.014  1.00  0.00     0.031 C 
ATOM     62  C   UNL A   1      38.312  34.575  35.106  1.00  0.00     0.029 A 
ATOM     63  C   UNL A   1      39.269  33.574  35.188  1.00  0.00     0.049 A 
ATOM     64  H   UNL A   1      39.721  32.052  33.801  1.00  0.00     0.167 HD
ATOM     65  C   UNL A   1      41.144  32.339  36.240  1.00  0.00     0.074 A 
ATOM     66  C   UNL A   1      42.109  32.131  37.297  1.00  0.00     0.031 C 
ATOM     67  C   UNL A   1      40.216  33.328  36.245  1.00  0.00     0.031 A 
BRANCH  54  68
ATOM     68  C   UNL A   1      36.584  33.415  31.244  1.00  0.00    -0.014 A 
ATOM     69  C   UNL A   1      35.304  33.506  31.820  1.00  0.00     0.010 A 
ATOM     70  C   UNL A   1      36.803  33.969  29.970  1.00  0.00     0.010 A 
ATOM     71  C   UNL A   1      34.258  34.113  31.121  1.00  0.00     0.020 A 
ATOM     72  C   UNL A   1      35.767  34.605  29.281  1.00  0.00     0.020 A 
ATOM     73  C   UNL A   1      34.497  34.661  29.857  1.00  0.00     0.054 A 
BRANCH  73  74
ATOM     74  S   UNL A   1      33.129  35.477  28.993  1.00  0.00     0.124 S 
ATOM     75  O   UNL A   1      32.623  34.401  28.144  1.00  0.00    -0.237 OA
ATOM     76  O   UNL A   1      32.252  35.876  30.090  1.00  0.00    -0.237 OA
ATOM     77  O   UNL A   1      33.773  36.578  28.282  1.00  0.00    -0.744 OA
ENDBRANCH  73  74
ENDBRANCH  54  68
BRANCH  55  78
ATOM     78  C   UNL A   1      44.153  28.738  35.841  1.00  0.00    -0.014 A 
ATOM     79  C   UNL A   1      45.478  29.151  35.616  1.00  0.00     0.010 A 
ATOM     80  C   UNL A   1      43.922  27.652  36.706  1.00  0.00     0.010 A 
ATOM     81  C   UNL A   1      46.548  28.484  36.221  1.00  0.00     0.020 A 
ATOM     82  C   UNL A   1      44.986  26.999  37.337  1.00  0.00     0.020 A 
ATOM     83  C   UNL A   1      46.295  27.410  37.077  1.00  0.00     0.054 A 
BRANCH  83  84
ATOM     84  S   UNL A   1      47.697  26.565  37.861  1.00  0.00     0.124 S 
ATOM     85  O   UNL A   1      47.347  25.160  37.673  1.00  0.00    -0.237 OA
ATOM     86  O   UNL A   1      48.832  27.046  37.076  1.00  0.00    -0.237 OA
ATOM     87  O   UNL A   1      47.655  27.041  39.241  1.00  0.00    -0.744 OA
ENDBRANCH  83  84
ENDBRANCH  55  78
BRANCH  67  88
ATOM     88  C   UNL A   1      40.130  34.214  37.462  1.00  0.00    -0.014 A 
ATOM     89  C   UNL A   1      41.187  35.058  37.841  1.00  0.00     0.010 A 
ATOM     90  C   UNL A   1      38.918  34.269  38.179  1.00  0.00     0.010 A 
ATOM     91  C   UNL A   1      41.040  35.930  38.925  1.00  0.00     0.020 A 
ATOM     92  C   UNL A   1      38.757  35.160  39.242  1.00  0.00     0.020 A 
ATOM     93  C   UNL A   1      39.823  35.980  39.613  1.00  0.00     0.054 A 
BRANCH  93  94
ATOM     94  S   UNL A   1      39.633  37.175  40.965  1.00  0.00     0.124 S 
ATOM     95  O   UNL A   1      39.350  36.307  42.104  1.00  0.00    -0.237 OA
ATOM     96  O   UNL A   1      40.933  37.839  40.989  1.00  0.00    -0.237 OA
ATOM     97  O   UNL A   1      38.518  38.016  40.533  1.00  0.00    -0.744 OA
ENDBRANCH  93  94
ENDBRANCH  67  88
ENDBRANCH  41  42
ENDBRANCH  34  36
ENDBRANCH  33  34
ENDBRANCH  32  33
ENDBRANCH  31  32
ENDBRANCH  30  31
ENDBRANCH  29  30
ENDBRANCH   1  29
TORSDOF 25
ENDMDL
MODEL 2
REMARK VINA RESULT:      -9.1      1.689      2.338
REMARK SMILES CC[C@@H](C)[C@@H](C(=O)OCCOCCOCCOC(=O)c1ccc(-c2c3nc(c(-c4ccc(S(=O)(=O)[O-])cc4)c4ccc([nH]4)c(-c4ccc(S(=O)(=O)[O-])cc4)c4nc(c(-c5ccc(S(=O)(=O)[O-])cc5)c5ccc2[nH]5)C=C4)C=C3)cc1)N1C(=O)/C(=C/c2ccc(O)cc2)SC1=S
REMARK SMILES IDX 12 1 11 2 10 3 9 4 8 5 6 6 7 7 5 8 3 9 4 10 2 11 1 12 80 13
REMARK SMILES IDX 81 14 93 15 82 16 83 17 92 18 94 19 84 20 85 21 86 22 91 23
REMARK SMILES IDX 87 24 90 25 88 26 89 27 13 29 14 30 15 31 16 32 17 33 18 34
REMARK SMILES IDX 19 35 20 36 21 37 79 38 22 39 78 40 23 41 24 42 25 43 72 44
REMARK SMILES IDX 26 45 77 46 71 47 73 48 27 49 76 50 70 51 69 52 28 54 58 55
REMARK SMILES IDX 39 56 57 57 40 58 43 59 56 60 74 61 41 62 42 63 55 65 75 66
REMARK SMILES IDX 44 67 29 68 30 69 38 70 31 71 37 72 32 73 33 74 34 75 35 76
REMARK SMILES IDX 36 77 59 78 60 79 68 80 61 81 67 82 62 83 63 84 64 85 65 86
REMARK SMILES IDX 66 87 45 88 46 89 54 90 47 91 53 92 48 93 49 94 50 95 51 96
REMARK SMILES IDX 52 97
REMARK H PARENT 89 28 73 53 43 64
REMARK Flexibility Score: inf
ROOT
ATOM      1  C   UNL A   1      39.058  21.322  25.514  1.00  0.00     0.188 C 
ENDROOT
BRANCH   1   2
ATOM      2  O   UNL A   1      37.880  22.034  25.868  1.00  0.00    -0.376 OA
BRANCH   2   3
ATOM      3  C   UNL A   1      37.642  23.300  25.261  1.00  0.00     0.202 C 
BRANCH   3   4
ATOM      4  C   UNL A   1      36.274  23.979  25.454  1.00  0.00     0.261 C 
BRANCH   4   5
ATOM      5  O   UNL A   1      35.216  23.472  24.603  1.00  0.00    -0.462 OA
BRANCH   5   6
ATOM      6  C   UNL A   1      34.030  23.201  25.199  1.00  0.00     0.329 C 
ATOM      7  O   UNL A   1      33.961  22.450  26.165  1.00  0.00    -0.250 OA
BRANCH   6   8
ATOM      8  C   UNL A   1      32.783  23.970  24.628  1.00  0.00     0.204 C 
BRANCH   8   9
ATOM      9  C   UNL A   1      32.144  23.497  23.276  1.00  0.00     0.020 C 
ATOM     10  C   UNL A   1      30.673  23.979  23.233  1.00  0.00     0.010 C 
BRANCH   9  11
ATOM     11  C   UNL A   1      32.167  22.002  22.885  1.00  0.00     0.002 C 
ATOM     12  C   UNL A   1      31.985  21.102  24.116  1.00  0.00     0.004 C 
ENDBRANCH   9  11
ENDBRANCH   8   9
BRANCH   8  13
ATOM     13  N   UNL A   1      32.987  25.489  24.786  1.00  0.00    -0.278 N 
ATOM     14  C   UNL A   1      32.621  26.027  26.026  1.00  0.00     0.267 C 
ATOM     15  C   UNL A   1      33.283  26.467  23.841  1.00  0.00     0.149 C 
ATOM     16  O   UNL A   1      31.988  25.451  26.900  1.00  0.00    -0.268 OA
ATOM     17  C   UNL A   1      32.903  27.484  26.108  1.00  0.00     0.081 C 
ATOM     18  S   UNL A   1      33.392  28.060  24.584  1.00  0.00    -0.054 SA
ATOM     19  S   UNL A   1      33.495  26.436  22.183  1.00  0.00    -0.052 S 
ATOM     20  C   UNL A   1      32.673  28.214  27.208  1.00  0.00     0.029 C 
BRANCH  20  21
ATOM     21  C   UNL A   1      32.568  29.679  27.198  1.00  0.00    -0.024 A 
ATOM     22  C   UNL A   1      31.438  30.356  26.738  1.00  0.00     0.012 A 
ATOM     23  C   UNL A   1      33.669  30.417  27.668  1.00  0.00     0.012 A 
ATOM     24  C   UNL A   1      31.408  31.755  26.770  1.00  0.00     0.047 A 
ATOM     25  C   UNL A   1      33.636  31.811  27.702  1.00  0.00     0.047 A 
ATOM     26  C   UNL A   1      32.499  32.469  27.255  1.00  0.00     0.115 A 
BRANCH  26  27
ATOM     27  O   UNL A   1      32.418  33.829  27.276  1.00  0.00    -0.508 OA
ATOM     28  H   UNL A   1      33.080  34.332  27.710  1.00  0.00     0.293 HD
ENDBRANCH  26  27
ENDBRANCH  20  21
ENDBRANCH   8  13
ENDBRANCH   6   8
ENDBRANCH   5   6
ENDBRANCH   4   5
ENDBRANCH   3   4
ENDBRANCH   2   3
ENDBRANCH   1   2
BRANCH   1  29
ATOM     29  C   UNL A   1      40.080  20.992  26.617  1.00  0.00     0.188 C 
BRANCH  29  30
ATOM     30  O   UNL A   1      41.317  21.647  26.499  1.00  0.00    -0.376 OA
BRANCH  30  31
ATOM     31  C   UNL A   1      41.536  22.899  27.118  1.00  0.00     0.202 C 
BRANCH  31  32
ATOM     32  C   UNL A   1      42.174  24.118  26.418  1.00  0.00     0.261 C 
BRANCH  32  33
ATOM     33  O   UNL A   1      42.115  25.390  27.072  1.00  0.00    -0.460 OA
BRANCH  33  34
ATOM     34  C   UNL A   1      41.011  26.142  26.841  1.00  0.00     0.338 C 
ATOM     35  O   UNL A   1      40.236  26.033  25.901  1.00  0.00    -0.246 OA
BRANCH  34  36
ATOM     36  C   UNL A   1      40.752  26.927  28.067  1.00  0.00     0.060 A 
ATOM     37  C   UNL A   1      41.521  28.074  28.305  1.00  0.00     0.016 A 
ATOM     38  C   UNL A   1      39.744  26.563  28.954  1.00  0.00     0.016 A 
ATOM     39  C   UNL A   1      41.285  28.873  29.423  1.00  0.00     0.010 A 
ATOM     40  C   UNL A   1      39.537  27.335  30.101  1.00  0.00     0.010 A 
ATOM     41  C   UNL A   1      40.317  28.482  30.351  1.00  0.00    -0.014 A 
BRANCH  41  42
ATOM     42  C   UNL A   1      40.284  29.093  31.700  1.00  0.00     0.031 A 
ATOM     43  C   UNL A   1      39.236  30.141  31.950  1.00  0.00     0.074 A 
ATOM     44  C   UNL A   1      41.159  28.763  32.666  1.00  0.00     0.049 A 
ATOM     45  N   UNL A   1      39.134  30.997  32.930  1.00  0.00    -0.248 NA
ATOM     46  C   UNL A   1      38.167  30.246  30.939  1.00  0.00     0.031 C 
ATOM     47  C   UNL A   1      42.154  27.695  32.589  1.00  0.00     0.029 A 
ATOM     48  N   UNL A   1      41.362  29.323  33.904  1.00  0.00    -0.354 N 
ATOM     49  C   UNL A   1      38.013  31.764  32.639  1.00  0.00     0.074 A 
ATOM     50  C   UNL A   1      37.476  31.284  31.386  1.00  0.00     0.031 C 
ATOM     51  C   UNL A   1      42.880  27.697  33.722  1.00  0.00     0.029 A 
ATOM     52  C   UNL A   1      42.437  28.794  34.580  1.00  0.00     0.049 A 
ATOM     53  H   UNL A   1      40.792  30.037  34.273  1.00  0.00     0.167 HD
ATOM     54  C   UNL A   1      37.483  32.785  33.349  1.00  0.00     0.031 A 
ATOM     55  C   UNL A   1      43.018  29.184  35.735  1.00  0.00     0.031 A 
ATOM     56  C   UNL A   1      38.030  33.262  34.590  1.00  0.00     0.049 A 
ATOM     57  C   UNL A   1      42.472  30.395  36.460  1.00  0.00     0.074 A 
ATOM     58  C   UNL A   1      37.589  34.310  35.377  1.00  0.00     0.029 A 
ATOM     59  N   UNL A   1      39.133  32.715  35.227  1.00  0.00    -0.354 N 
ATOM     60  N   UNL A   1      41.442  31.149  36.153  1.00  0.00    -0.248 NA
ATOM     61  C   UNL A   1      43.175  30.813  37.682  1.00  0.00     0.031 C 
ATOM     62  C   UNL A   1      38.459  34.431  36.464  1.00  0.00     0.029 A 
ATOM     63  C   UNL A   1      39.395  33.411  36.393  1.00  0.00     0.049 A 
ATOM     64  H   UNL A   1      39.653  31.946  34.899  1.00  0.00     0.167 HD
ATOM     65  C   UNL A   1      41.348  32.096  37.170  1.00  0.00     0.074 A 
ATOM     66  C   UNL A   1      42.421  31.821  38.101  1.00  0.00     0.031 C 
ATOM     67  C   UNL A   1      40.449  33.100  37.324  1.00  0.00     0.031 A 
BRANCH  54  68
ATOM     68  C   UNL A   1      36.279  33.481  32.777  1.00  0.00    -0.014 A 
ATOM     69  C   UNL A   1      35.155  33.769  33.572  1.00  0.00     0.010 A 
ATOM     70  C   UNL A   1      36.287  33.885  31.430  1.00  0.00     0.010 A 
ATOM     71  C   UNL A   1      34.050  34.422  33.022  1.00  0.00     0.020 A 
ATOM     72  C   UNL A   1      35.197  34.568  30.884  1.00  0.00     0.020 A 
ATOM     73  C   UNL A   1      34.079  34.820  31.681  1.00  0.00     0.054 A 
BRANCH  73  74
ATOM     74  S   UNL A   1      32.646  35.701  31.007  1.00  0.00     0.124 S 
ATOM     75  O   UNL A   1      31.592  35.328  31.948  1.00  0.00    -0.237 OA
ATOM     76  O   UNL A   1      33.075  37.096  31.064  1.00  0.00    -0.237 OA
ATOM     77  O   UNL A   1      32.501  35.151  29.662  1.00  0.00    -0.744 OA
ENDBRANCH  73  74
ENDBRANCH  54  68
BRANCH  55  78
ATOM     78  C   UNL A   1      44.209  28.463  36.275  1.00  0.00    -0.014 A 
ATOM     79  C   UNL A   1      44.140  27.088  36.565  1.00  0.00     0.010 A 
ATOM     80  C   UNL A   1      45.404  29.152  36.548  1.00  0.00     0.010 A 
ATOM     81  C   UNL A   1      45.232  26.422  37.133  1.00  0.00     0.020 A 
ATOM     82  C   UNL A   1      46.508  28.486  37.089  1.00  0.00     0.020 A 
ATOM     83  C   UNL A   1      46.409  27.127  37.393  1.00  0.00     0.054 A 
BRANCH  83  84
ATOM     84  S   UNL A   1      47.817  26.242  38.121  1.00  0.00     0.124 S 
ATOM     85  O   UNL A   1      48.797  27.312  38.281  1.00  0.00    -0.237 OA
ATOM     86  O   UNL A   1      47.250  25.712  39.358  1.00  0.00    -0.237 OA
ATOM     87  O   UNL A   1      48.147  25.237  37.114  1.00  0.00    -0.744 OA
ENDBRANCH  83  84
ENDBRANCH  55  78
BRANCH  67  88
ATOM     88  C   UNL A   1      40.521  33.930  38.580  1.00  0.00    -0.014 A 
ATOM     89  C   UNL A   1      41.188  35.167  38.614  1.00  0.00     0.010 A 
ATOM     90  C   UNL A   1      39.815  33.501  39.721  1.00  0.00     0.010 A 
ATOM     91  C   UNL A   1      41.162  35.950  39.772  1.00  0.00     0.020 A 
ATOM     92  C   UNL A   1      39.760  34.294  40.868  1.00  0.00     0.020 A 
ATOM     93  C   UNL A   1      40.441  35.513  40.888  1.00  0.00     0.054 A 
BRANCH  93  94
ATOM     94  S   UNL A   1      40.358  36.585  42.350  1.00  0.00     0.124 S 
ATOM     95  O   UNL A   1      39.558  35.784  43.272  1.00  0.00    -0.237 OA
ATOM     96  O   UNL A   1      41.764  36.742  42.711  1.00  0.00    -0.237 OA
ATOM     97  O   UNL A   1      39.708  37.798  41.855  1.00  0.00    -0.744 OA
ENDBRANCH  93  94
ENDBRANCH  67  88
ENDBRANCH  41  42
ENDBRANCH  34  36
ENDBRANCH  33  34
ENDBRANCH  32  33
ENDBRANCH  31  32
ENDBRANCH  30  31
ENDBRANCH  29  30
ENDBRANCH   1  29
TORSDOF 25
ENDMDL
MODEL 3
REMARK VINA RESULT:      -8.4      5.286      9.081
REMARK SMILES CC[C@@H](C)[C@@H](C(=O)OCCOCCOCCOC(=O)c1ccc(-c2c3nc(c(-c4ccc(S(=O)(=O)[O-])cc4)c4ccc([nH]4)c(-c4ccc(S(=O)(=O)[O-])cc4)c4nc(c(-c5ccc(S(=O)(=O)[O-])cc5)c5ccc2[nH]5)C=C4)C=C3)cc1)N1C(=O)/C(=C/c2ccc(O)cc2)SC1=S
REMARK SMILES IDX 12 1 11 2 10 3 9 4 8 5 6 6 7 7 5 8 3 9 4 10 2 11 1 12 80 13
REMARK SMILES IDX 81 14 93 15 82 16 83 17 92 18 94 19 84 20 85 21 86 22 91 23
REMARK SMILES IDX 87 24 90 25 88 26 89 27 13 29 14 30 15 31 16 32 17 33 18 34
REMARK SMILES IDX 19 35 20 36 21 37 79 38 22 39 78 40 23 41 24 42 25 43 72 44
REMARK SMILES IDX 26 45 77 46 71 47 73 48 27 49 76 50 70 51 69 52 28 54 58 55
REMARK SMILES IDX 39 56 57 57 40 58 43 59 56 60 74 61 41 62 42 63 55 65 75 66
REMARK SMILES IDX 44 67 29 68 30 69 38 70 31 71 37 72 32 73 33 74 34 75 35 76
REMARK SMILES IDX 36 77 59 78 60 79 68 80 61 81 67 82 62 83 63 84 64 85 65 86
REMARK SMILES IDX 66 87 45 88 46 89 54 90 47 91 53 92 48 93 49 94 50 95 51 96
REMARK SMILES IDX 52 97
REMARK H PARENT 89 28 73 53 43 64
REMARK Flexibility Score: inf
ROOT
ATOM      1  C   UNL A   1      44.401  29.592  28.669  1.00  0.00     0.188 C 
ENDROOT
BRANCH   1   2
ATOM      2  O   UNL A   1      45.481  30.023  29.486  1.00  0.00    -0.376 OA
BRANCH   2   3
ATOM      3  C   UNL A   1      46.735  30.293  28.868  1.00  0.00     0.202 C 
BRANCH   3   4
ATOM      4  C   UNL A   1      47.318  29.269  27.877  1.00  0.00     0.261 C 
BRANCH   4   5
ATOM      5  O   UNL A   1      48.720  28.960  28.074  1.00  0.00    -0.462 OA
BRANCH   5   6
ATOM      6  C   UNL A   1      49.449  28.692  26.963  1.00  0.00     0.329 C 
ATOM      7  O   UNL A   1      49.766  29.582  26.182  1.00  0.00    -0.250 OA
BRANCH   6   8
ATOM      8  C   UNL A   1      49.921  27.202  26.794  1.00  0.00     0.204 C 
BRANCH   8   9
ATOM      9  C   UNL A   1      51.332  26.911  26.174  1.00  0.00     0.020 C 
ATOM     10  C   UNL A   1      51.785  25.501  26.627  1.00  0.00     0.010 C 
BRANCH   9  11
ATOM     11  C   UNL A   1      52.505  27.888  26.413  1.00  0.00     0.002 C 
ATOM     12  C   UNL A   1      53.644  27.645  25.412  1.00  0.00     0.004 C 
ENDBRANCH   9  11
ENDBRANCH   8   9
BRANCH   8  13
ATOM     13  N   UNL A   1      48.757  26.341  26.267  1.00  0.00    -0.278 N 
ATOM     14  C   UNL A   1      48.130  25.520  27.212  1.00  0.00     0.267 C 
ATOM     15  C   UNL A   1      48.343  26.077  24.964  1.00  0.00     0.149 C 
ATOM     16  O   UNL A   1      48.537  25.284  28.341  1.00  0.00    -0.268 OA
ATOM     17  C   UNL A   1      46.988  24.769  26.628  1.00  0.00     0.081 C 
ATOM     18  S   UNL A   1      46.947  25.002  24.944  1.00  0.00    -0.054 SA
ATOM     19  S   UNL A   1      48.925  26.521  23.462  1.00  0.00    -0.052 S 
ATOM     20  C   UNL A   1      46.209  23.947  27.346  1.00  0.00     0.029 C 
BRANCH  20  21
ATOM     21  C   UNL A   1      45.350  22.918  26.743  1.00  0.00    -0.024 A 
ATOM     22  C   UNL A   1      44.004  22.762  27.078  1.00  0.00     0.012 A 
ATOM     23  C   UNL A   1      45.927  22.056  25.796  1.00  0.00     0.012 A 
ATOM     24  C   UNL A   1      43.246  21.767  26.452  1.00  0.00     0.047 A 
ATOM     25  C   UNL A   1      45.170  21.065  25.171  1.00  0.00     0.047 A 
ATOM     26  C   UNL A   1      43.829  20.933  25.503  1.00  0.00     0.115 A 
BRANCH  26  27
ATOM     27  O   UNL A   1      43.048  19.984  24.914  1.00  0.00    -0.508 OA
ATOM     28  H   UNL A   1      42.123  19.979  25.066  1.00  0.00     0.293 HD
ENDBRANCH  26  27
ENDBRANCH  20  21
ENDBRANCH   8  13
ENDBRANCH   6   8
ENDBRANCH   5   6
ENDBRANCH   4   5
ENDBRANCH   3   4
ENDBRANCH   2   3
ENDBRANCH   1   2
BRANCH   1  29
ATOM     29  C   UNL A   1      44.067  30.399  27.402  1.00  0.00     0.188 C 
BRANCH  29  30
ATOM     30  O   UNL A   1      43.473  29.661  26.364  1.00  0.00    -0.376 OA
BRANCH  30  31
ATOM     31  C   UNL A   1      43.801  28.301  26.163  1.00  0.00     0.202 C 
BRANCH  31  32
ATOM     32  C   UNL A   1      42.781  27.203  25.793  1.00  0.00     0.261 C 
BRANCH  32  33
ATOM     33  O   UNL A   1      41.390  27.542  25.773  1.00  0.00    -0.460 OA
BRANCH  33  34
ATOM     34  C   UNL A   1      40.559  26.742  26.486  1.00  0.00     0.338 C 
ATOM     35  O   UNL A   1      40.216  25.604  26.198  1.00  0.00    -0.246 OA
BRANCH  34  36
ATOM     36  C   UNL A   1      40.368  27.377  27.808  1.00  0.00     0.060 A 
ATOM     37  C   UNL A   1      40.723  28.724  27.964  1.00  0.00     0.016 A 
ATOM     38  C   UNL A   1      39.814  26.671  28.871  1.00  0.00     0.016 A 
ATOM     39  C   UNL A   1      40.519  29.380  29.177  1.00  0.00     0.010 A 
ATOM     40  C   UNL A   1      39.653  27.313  30.103  1.00  0.00     0.010 A 
ATOM     41  C   UNL A   1      40.021  28.663  30.267  1.00  0.00    -0.014 A 
BRANCH  41  42
ATOM     42  C   UNL A   1      40.126  29.217  31.637  1.00  0.00     0.031 A 
ATOM     43  C   UNL A   1      39.118  30.262  32.030  1.00  0.00     0.074 A 
ATOM     44  C   UNL A   1      41.085  28.841  32.500  1.00  0.00     0.049 A 
ATOM     45  N   UNL A   1      39.121  31.077  33.050  1.00  0.00    -0.248 NA
ATOM     46  C   UNL A   1      37.958  30.417  31.133  1.00  0.00     0.031 C 
ATOM     47  C   UNL A   1      42.056  27.770  32.283  1.00  0.00     0.029 A 
ATOM     48  N   UNL A   1      41.414  29.347  33.735  1.00  0.00    -0.354 N 
ATOM     49  C   UNL A   1      37.986  31.864  32.900  1.00  0.00     0.074 A 
ATOM     50  C   UNL A   1      37.325  31.440  31.687  1.00  0.00     0.031 C 
ATOM     51  C   UNL A   1      42.888  27.718  33.340  1.00  0.00     0.029 A 
ATOM     52  C   UNL A   1      42.542  28.782  34.281  1.00  0.00     0.049 A 
ATOM     53  H   UNL A   1      40.889  30.048  34.185  1.00  0.00     0.167 HD
ATOM     54  C   UNL A   1      37.539  32.858  33.700  1.00  0.00     0.031 A 
ATOM     55  C   UNL A   1      43.236  29.119  35.389  1.00  0.00     0.031 A 
ATOM     56  C   UNL A   1      38.208  33.278  34.900  1.00  0.00     0.049 A 
ATOM     57  C   UNL A   1      42.777  30.302  36.212  1.00  0.00     0.074 A 
ATOM     58  C   UNL A   1      37.858  34.296  35.769  1.00  0.00     0.029 A 
ATOM     59  N   UNL A   1      39.362  32.697  35.405  1.00  0.00    -0.354 N 
ATOM     60  N   UNL A   1      41.731  31.076  36.038  1.00  0.00    -0.248 NA
ATOM     61  C   UNL A   1      43.598  30.663  37.378  1.00  0.00     0.031 C 
ATOM     62  C   UNL A   1      38.829  34.365  36.771  1.00  0.00     0.029 A 
ATOM     63  C   UNL A   1      39.742  33.341  36.567  1.00  0.00     0.049 A 
ATOM     64  H   UNL A   1      39.838  31.939  34.996  1.00  0.00     0.167 HD
ATOM     65  C   UNL A   1      41.746  31.980  37.098  1.00  0.00     0.074 A 
ATOM     66  C   UNL A   1      42.900  31.659  37.908  1.00  0.00     0.031 C 
ATOM     67  C   UNL A   1      40.878  32.984  37.378  1.00  0.00     0.031 A 
BRANCH  54  68
ATOM     68  C   UNL A   1      36.294  33.587  33.276  1.00  0.00    -0.014 A 
ATOM     69  C   UNL A   1      35.018  33.138  33.662  1.00  0.00     0.010 A 
ATOM     70  C   UNL A   1      36.404  34.760  32.508  1.00  0.00     0.010 A 
ATOM     71  C   UNL A   1      33.875  33.834  33.262  1.00  0.00     0.020 A 
ATOM     72  C   UNL A   1      35.265  35.477  32.133  1.00  0.00     0.020 A 
ATOM     73  C   UNL A   1      34.006  35.001  32.503  1.00  0.00     0.054 A 
BRANCH  73  74
ATOM     74  S   UNL A   1      32.506  35.903  32.033  1.00  0.00     0.124 S 
ATOM     75  O   UNL A   1      31.457  35.072  32.620  1.00  0.00    -0.237 OA
ATOM     76  O   UNL A   1      32.705  37.204  32.668  1.00  0.00    -0.237 OA
ATOM     77  O   UNL A   1      32.547  35.913  30.574  1.00  0.00    -0.744 OA
ENDBRANCH  73  74
ENDBRANCH  54  68
BRANCH  55  78
ATOM     78  C   UNL A   1      44.465  28.366  35.782  1.00  0.00    -0.014 A 
ATOM     79  C   UNL A   1      44.376  27.237  36.617  1.00  0.00     0.010 A 
ATOM     80  C   UNL A   1      45.737  28.798  35.363  1.00  0.00     0.010 A 
ATOM     81  C   UNL A   1      45.530  26.569  37.041  1.00  0.00     0.020 A 
ATOM     82  C   UNL A   1      46.891  28.117  35.760  1.00  0.00     0.020 A 
ATOM     83  C   UNL A   1      46.781  27.015  36.611  1.00  0.00     0.054 A 
BRANCH  83  84
ATOM     84  S   UNL A   1      48.264  26.127  37.164  1.00  0.00     0.124 S 
ATOM     85  O   UNL A   1      47.776  25.428  38.349  1.00  0.00    -0.237 OA
ATOM     86  O   UNL A   1      48.573  25.283  36.013  1.00  0.00    -0.237 OA
ATOM     87  O   UNL A   1      49.226  27.196  37.421  1.00  0.00    -0.744 OA
ENDBRANCH  83  84
ENDBRANCH  55  78
BRANCH  67  88
ATOM     88  C   UNL A   1      41.080  33.760  38.654  1.00  0.00    -0.014 A 
ATOM     89  C   UNL A   1      41.820  34.954  38.686  1.00  0.00     0.010 A 
ATOM     90  C   UNL A   1      40.425  33.328  39.825  1.00  0.00     0.010 A 
ATOM     91  C   UNL A   1      41.914  35.693  39.870  1.00  0.00     0.020 A 
ATOM     92  C   UNL A   1      40.492  34.079  41.000  1.00  0.00     0.020 A 
ATOM     93  C   UNL A   1      41.244  35.255  41.016  1.00  0.00     0.054 A 
BRANCH  93  94
ATOM     94  S   UNL A   1      41.319  36.274  42.516  1.00  0.00     0.124 S 
ATOM     95  O   UNL A   1      40.045  36.986  42.467  1.00  0.00    -0.237 OA
ATOM     96  O   UNL A   1      41.440  35.275  43.574  1.00  0.00    -0.237 OA
ATOM     97  O   UNL A   1      42.504  37.106  42.313  1.00  0.00    -0.744 OA
ENDBRANCH  93  94
ENDBRANCH  67  88
ENDBRANCH  41  42
ENDBRANCH  34  36
ENDBRANCH  33  34
ENDBRANCH  32  33
ENDBRANCH  31  32
ENDBRANCH  30  31
ENDBRANCH  29  30
ENDBRANCH   1  29
TORSDOF 25
ENDMDL
