MODEL 1
REMARK VINA RESULT:      -8.6      0.000      0.000
REMARK SMILES C[C@H](NC(=O)N(CC(=O)OCCOCCOCCOC(=O)c1ccc(-c2c3nc(c(-c4ccc(S(=O)(=O)[O-])cc4)c4ccc([nH]4)c(-c4ccc(S(=O)(=O)[O-])cc4)c4nc(c(-c5ccc(S(=O)(=O)[O-])cc5)c5ccc2[nH]5)C=C4)C=C3)cc1)CC(F)(F)F)[C@@H]1CCCO1
REMARK SMILES IDX 14 1 13 2 12 3 11 4 10 5 8 6 9 7 7 8 6 9 4 10 3 11 5 13 2 14
REMARK SMILES IDX 1 15 87 16 88 17 91 18 89 19 90 20 82 21 83 22 84 23 85 24
REMARK SMILES IDX 86 25 15 26 16 27 17 28 18 29 19 30 20 31 21 32 22 33 23 34
REMARK SMILES IDX 81 35 24 36 80 37 25 38 26 39 27 40 74 41 28 42 79 43 73 44
REMARK SMILES IDX 75 45 29 46 78 47 72 48 71 49 30 51 60 52 41 53 59 54 42 55
REMARK SMILES IDX 45 56 58 57 76 58 43 59 44 60 57 62 77 63 46 64 31 65 32 66
REMARK SMILES IDX 40 67 33 68 39 69 34 70 35 71 36 72 37 73 38 74 61 75 62 76
REMARK SMILES IDX 70 77 63 78 69 79 64 80 65 81 66 82 67 83 68 84 47 85 48 86
REMARK SMILES IDX 56 87 49 88 55 89 50 90 51 91 52 92 53 93 54 94
REMARK H PARENT 3 12 75 50 45 61
REMARK Flexibility Score: inf
ROOT
ATOM      1  C   UNL A   1      35.693  17.978  24.838  1.00  0.00     0.188 C 
ENDROOT
BRANCH   1   2
ATOM      2  O   UNL A   1      34.508  17.245  24.548  1.00  0.00    -0.376 OA
BRANCH   2   3
ATOM      3  C   UNL A   1      33.804  17.453  23.331  1.00  0.00     0.202 C 
BRANCH   3   4
ATOM      4  C   UNL A   1      32.465  18.204  23.401  1.00  0.00     0.261 C 
BRANCH   4   5
ATOM      5  O   UNL A   1      32.512  19.602  23.022  1.00  0.00    -0.462 OA
BRANCH   5   6
ATOM      6  C   UNL A   1      32.187  20.467  24.012  1.00  0.00     0.325 C 
ATOM      7  O   UNL A   1      32.222  20.176  25.208  1.00  0.00    -0.250 OA
BRANCH   6   8
ATOM      8  C   UNL A   1      31.931  21.931  23.609  1.00  0.00     0.244 C 
BRANCH   8   9
ATOM      9  N   UNL A   1      32.621  23.186  23.951  1.00  0.00    -0.305 N 
BRANCH   9  10
ATOM     10  C   UNL A   1      32.830  23.698  25.203  1.00  0.00     0.318 C 
ATOM     11  N   UNL A   1      32.237  24.806  25.667  1.00  0.00    -0.333 N 
ATOM     12  H   UNL A   1      32.498  24.972  26.602  1.00  0.00     0.165 HD
ATOM     13  O   UNL A   1      33.510  23.081  26.030  1.00  0.00    -0.249 OA
BRANCH  11  14
ATOM     14  C   UNL A   1      31.310  25.849  25.193  1.00  0.00     0.109 C 
ATOM     15  C   UNL A   1      29.947  25.781  25.915  1.00  0.00     0.034 C 
BRANCH  14  16
ATOM     16  C   UNL A   1      31.918  27.246  25.424  1.00  0.00     0.140 C 
ATOM     17  C   UNL A   1      32.992  27.659  24.429  1.00  0.00     0.036 C 
ATOM     18  O   UNL A   1      32.535  27.295  26.731  1.00  0.00    -0.376 OA
ATOM     19  C   UNL A   1      33.809  28.618  25.261  1.00  0.00     0.031 C 
ATOM     20  C   UNL A   1      33.810  27.933  26.609  1.00  0.00     0.160 C 
ENDBRANCH  14  16
ENDBRANCH  11  14
ENDBRANCH   9  10
BRANCH   9  21
ATOM     21  C   UNL A   1      33.551  23.755  22.939  1.00  0.00     0.237 C 
BRANCH  21  22
ATOM     22  C   UNL A   1      33.005  24.700  21.858  1.00  0.00     0.406 C 
ATOM     23  F   UNL A   1      33.028  24.171  20.617  1.00  0.00    -0.169 F 
ATOM     24  F   UNL A   1      31.698  24.952  22.129  1.00  0.00    -0.169 F 
ATOM     25  F   UNL A   1      33.637  25.892  21.835  1.00  0.00    -0.169 F 
ENDBRANCH  21  22
ENDBRANCH   9  21
ENDBRANCH   8   9
ENDBRANCH   6   8
ENDBRANCH   5   6
ENDBRANCH   4   5
ENDBRANCH   3   4
ENDBRANCH   2   3
ENDBRANCH   1   2
BRANCH   1  26
ATOM     26  C   UNL A   1      35.649  19.507  24.877  1.00  0.00     0.188 C 
BRANCH  26  27
ATOM     27  O   UNL A   1      36.924  20.104  24.924  1.00  0.00    -0.376 OA
BRANCH  27  28
ATOM     28  C   UNL A   1      37.035  21.433  24.460  1.00  0.00     0.202 C 
BRANCH  28  29
ATOM     29  C   UNL A   1      37.075  22.465  25.588  1.00  0.00     0.261 C 
BRANCH  29  30
ATOM     30  O   UNL A   1      38.206  23.359  25.565  1.00  0.00    -0.460 OA
BRANCH  30  31
ATOM     31  C   UNL A   1      39.170  23.168  26.492  1.00  0.00     0.338 C 
ATOM     32  O   UNL A   1      39.815  22.142  26.681  1.00  0.00    -0.246 OA
BRANCH  31  33
ATOM     33  C   UNL A   1      39.489  24.480  27.099  1.00  0.00     0.060 A 
ATOM     34  C   UNL A   1      40.202  25.432  26.354  1.00  0.00     0.016 A 
ATOM     35  C   UNL A   1      39.061  24.778  28.392  1.00  0.00     0.016 A 
ATOM     36  C   UNL A   1      40.492  26.685  26.905  1.00  0.00     0.010 A 
ATOM     37  C   UNL A   1      39.372  26.021  28.950  1.00  0.00     0.010 A 
ATOM     38  C   UNL A   1      40.101  26.976  28.219  1.00  0.00    -0.014 A 
BRANCH  38  39
ATOM     39  C   UNL A   1      40.546  28.218  28.901  1.00  0.00     0.031 A 
ATOM     40  C   UNL A   1      41.916  28.250  29.521  1.00  0.00     0.074 A 
ATOM     41  C   UNL A   1      39.728  29.279  29.021  1.00  0.00     0.049 A 
ATOM     42  N   UNL A   1      42.452  29.148  30.306  1.00  0.00    -0.248 NA
ATOM     43  C   UNL A   1      42.796  27.109  29.218  1.00  0.00     0.031 C 
ATOM     44  C   UNL A   1      38.404  29.402  28.411  1.00  0.00     0.029 A 
ATOM     45  N   UNL A   1      39.887  30.452  29.718  1.00  0.00    -0.354 N 
ATOM     46  C   UNL A   1      43.718  28.666  30.620  1.00  0.00     0.074 A 
ATOM     47  C   UNL A   1      43.866  27.394  29.944  1.00  0.00     0.031 C 
ATOM     48  C   UNL A   1      37.868  30.582  28.771  1.00  0.00     0.029 A 
ATOM     49  C   UNL A   1      38.783  31.268  29.681  1.00  0.00     0.049 A 
ATOM     50  H   UNL A   1      40.715  30.685  30.197  1.00  0.00     0.167 HD
ATOM     51  C   UNL A   1      44.665  29.226  31.411  1.00  0.00     0.031 A 
ATOM     52  C   UNL A   1      38.522  32.419  30.338  1.00  0.00     0.031 A 
ATOM     53  C   UNL A   1      44.503  30.484  32.091  1.00  0.00     0.049 A 
ATOM     54  C   UNL A   1      39.549  32.972  31.293  1.00  0.00     0.074 A 
ATOM     55  C   UNL A   1      45.413  31.153  32.891  1.00  0.00     0.029 A 
ATOM     56  N   UNL A   1      43.350  31.255  32.067  1.00  0.00    -0.354 N 
ATOM     57  N   UNL A   1      40.749  32.517  31.569  1.00  0.00    -0.248 NA
ATOM     58  C   UNL A   1      39.182  34.188  32.033  1.00  0.00     0.031 C 
ATOM     59  C   UNL A   1      44.786  32.291  33.408  1.00  0.00     0.029 A 
ATOM     60  C   UNL A   1      43.509  32.368  32.875  1.00  0.00     0.049 A 
ATOM     61  H   UNL A   1      42.538  31.042  31.553  1.00  0.00     0.167 HD
ATOM     62  C   UNL A   1      41.288  33.406  32.495  1.00  0.00     0.074 A 
ATOM     63  C   UNL A   1      40.289  34.430  32.723  1.00  0.00     0.031 C 
ATOM     64  C   UNL A   1      42.503  33.378  33.099  1.00  0.00     0.031 A 
BRANCH  51  65
ATOM     65  C   UNL A   1      45.934  28.445  31.636  1.00  0.00    -0.014 A 
ATOM     66  C   UNL A   1      47.017  28.518  30.742  1.00  0.00     0.010 A 
ATOM     67  C   UNL A   1      46.048  27.634  32.782  1.00  0.00     0.010 A 
ATOM     68  C   UNL A   1      48.168  27.755  30.963  1.00  0.00     0.020 A 
ATOM     69  C   UNL A   1      47.208  26.895  33.021  1.00  0.00     0.020 A 
ATOM     70  C   UNL A   1      48.253  26.944  32.098  1.00  0.00     0.054 A 
BRANCH  70  71
ATOM     71  S   UNL A   1      49.758  25.965  32.359  1.00  0.00     0.124 S 
ATOM     72  O   UNL A   1      49.234  24.788  33.051  1.00  0.00    -0.237 OA
ATOM     73  O   UNL A   1      50.229  25.733  30.996  1.00  0.00    -0.237 OA
ATOM     74  O   UNL A   1      50.605  26.836  33.168  1.00  0.00    -0.744 OA
ENDBRANCH  70  71
ENDBRANCH  51  65
BRANCH  52  75
ATOM     75  C   UNL A   1      37.221  33.115  30.134  1.00  0.00    -0.014 A 
ATOM     76  C   UNL A   1      36.961  33.790  28.929  1.00  0.00     0.010 A 
ATOM     77  C   UNL A   1      36.231  33.097  31.133  1.00  0.00     0.010 A 
ATOM     78  C   UNL A   1      35.736  34.433  28.725  1.00  0.00     0.020 A 
ATOM     79  C   UNL A   1      34.993  33.714  30.922  1.00  0.00     0.020 A 
ATOM     80  C   UNL A   1      34.756  34.383  29.721  1.00  0.00     0.054 A 
BRANCH  80  81
ATOM     81  S   UNL A   1      33.147  35.160  29.400  1.00  0.00     0.124 S 
ATOM     82  O   UNL A   1      33.532  36.526  29.057  1.00  0.00    -0.237 OA
ATOM     83  O   UNL A   1      32.625  34.353  28.299  1.00  0.00    -0.237 OA
ATOM     84  O   UNL A   1      32.435  35.010  30.667  1.00  0.00    -0.744 OA
ENDBRANCH  80  81
ENDBRANCH  52  75
BRANCH  64  85
ATOM     85  C   UNL A   1      42.838  34.499  34.048  1.00  0.00    -0.014 A 
ATOM     86  C   UNL A   1      42.623  34.373  35.431  1.00  0.00     0.010 A 
ATOM     87  C   UNL A   1      43.447  35.668  33.554  1.00  0.00     0.010 A 
ATOM     88  C   UNL A   1      42.992  35.404  36.302  1.00  0.00     0.020 A 
ATOM     89  C   UNL A   1      43.844  36.688  34.423  1.00  0.00     0.020 A 
ATOM     90  C   UNL A   1      43.604  36.553  35.792  1.00  0.00     0.054 A 
BRANCH  90  91
ATOM     91  S   UNL A   1      44.130  37.848  36.949  1.00  0.00     0.124 S 
ATOM     92  O   UNL A   1      45.390  37.310  37.455  1.00  0.00    -0.237 OA
ATOM     93  O   UNL A   1      44.250  39.020  36.084  1.00  0.00    -0.237 OA
ATOM     94  O   UNL A   1      43.042  37.907  37.922  1.00  0.00    -0.744 OA
ENDBRANCH  90  91
ENDBRANCH  64  85
ENDBRANCH  38  39
ENDBRANCH  31  33
ENDBRANCH  30  31
ENDBRANCH  29  30
ENDBRANCH  28  29
ENDBRANCH  27  28
ENDBRANCH  26  27
ENDBRANCH   1  26
TORSDOF 26
ENDMDL
MODEL 2
REMARK VINA RESULT:      -8.4      2.847      4.562
REMARK SMILES C[C@H](NC(=O)N(CC(=O)OCCOCCOCCOC(=O)c1ccc(-c2c3nc(c(-c4ccc(S(=O)(=O)[O-])cc4)c4ccc([nH]4)c(-c4ccc(S(=O)(=O)[O-])cc4)c4nc(c(-c5ccc(S(=O)(=O)[O-])cc5)c5ccc2[nH]5)C=C4)C=C3)cc1)CC(F)(F)F)[C@@H]1CCCO1
REMARK SMILES IDX 14 1 13 2 12 3 11 4 10 5 8 6 9 7 7 8 6 9 4 10 3 11 5 13 2 14
REMARK SMILES IDX 1 15 87 16 88 17 91 18 89 19 90 20 82 21 83 22 84 23 85 24
REMARK SMILES IDX 86 25 15 26 16 27 17 28 18 29 19 30 20 31 21 32 22 33 23 34
REMARK SMILES IDX 81 35 24 36 80 37 25 38 26 39 27 40 74 41 28 42 79 43 73 44
REMARK SMILES IDX 75 45 29 46 78 47 72 48 71 49 30 51 60 52 41 53 59 54 42 55
REMARK SMILES IDX 45 56 58 57 76 58 43 59 44 60 57 62 77 63 46 64 31 65 32 66
REMARK SMILES IDX 40 67 33 68 39 69 34 70 35 71 36 72 37 73 38 74 61 75 62 76
REMARK SMILES IDX 70 77 63 78 69 79 64 80 65 81 66 82 67 83 68 84 47 85 48 86
REMARK SMILES IDX 56 87 49 88 55 89 50 90 51 91 52 92 53 93 54 94
REMARK H PARENT 3 12 75 50 45 61
REMARK Flexibility Score: inf
ROOT
ATOM      1  C   UNL A   1      40.048  20.733  25.943  1.00  0.00     0.188 C 
ENDROOT
BRANCH   1   2
ATOM      2  O   UNL A   1      38.965  21.649  26.054  1.00  0.00    -0.376 OA
BRANCH   2   3
ATOM      3  C   UNL A   1      37.832  21.545  25.202  1.00  0.00     0.202 C 
BRANCH   3   4
ATOM      4  C   UNL A   1      36.598  22.392  25.550  1.00  0.00     0.261 C 
BRANCH   4   5
ATOM      5  O   UNL A   1      36.451  23.622  24.798  1.00  0.00    -0.462 OA
BRANCH   5   6
ATOM      6  C   UNL A   1      35.921  23.467  23.561  1.00  0.00     0.325 C 
ATOM      7  O   UNL A   1      36.485  22.862  22.650  1.00  0.00    -0.250 OA
BRANCH   6   8
ATOM      8  C   UNL A   1      34.466  23.931  23.360  1.00  0.00     0.244 C 
BRANCH   8   9
ATOM      9  N   UNL A   1      33.310  23.983  24.271  1.00  0.00    -0.305 N 
BRANCH   9  10
ATOM     10  C   UNL A   1      33.181  23.347  25.476  1.00  0.00     0.318 C 
ATOM     11  N   UNL A   1      32.693  22.108  25.620  1.00  0.00    -0.333 N 
ATOM     12  H   UNL A   1      32.725  21.832  26.565  1.00  0.00     0.165 HD
ATOM     13  O   UNL A   1      33.625  23.859  26.509  1.00  0.00    -0.249 OA
BRANCH  11  14
ATOM     14  C   UNL A   1      32.125  21.036  24.784  1.00  0.00     0.109 C 
ATOM     15  C   UNL A   1      32.275  21.337  23.277  1.00  0.00     0.034 C 
BRANCH  14  16
ATOM     16  C   UNL A   1      32.823  19.696  25.088  1.00  0.00     0.140 C 
ATOM     17  C   UNL A   1      34.272  19.603  24.639  1.00  0.00     0.036 C 
ATOM     18  O   UNL A   1      32.121  18.623  24.420  1.00  0.00    -0.376 OA
ATOM     19  C   UNL A   1      34.418  18.115  24.424  1.00  0.00     0.031 C 
ATOM     20  C   UNL A   1      33.084  17.762  23.806  1.00  0.00     0.160 C 
ENDBRANCH  14  16
ENDBRANCH  11  14
ENDBRANCH   9  10
BRANCH   9  21
ATOM     21  C   UNL A   1      32.374  25.130  24.127  1.00  0.00     0.237 C 
BRANCH  21  22
ATOM     22  C   UNL A   1      31.338  25.121  22.993  1.00  0.00     0.406 C 
ATOM     23  F   UNL A   1      30.745  26.317  22.795  1.00  0.00    -0.169 F 
ATOM     24  F   UNL A   1      31.976  24.826  21.830  1.00  0.00    -0.169 F 
ATOM     25  F   UNL A   1      30.382  24.185  23.163  1.00  0.00    -0.169 F 
ENDBRANCH  21  22
ENDBRANCH   9  21
ENDBRANCH   8   9
ENDBRANCH   6   8
ENDBRANCH   5   6
ENDBRANCH   4   5
ENDBRANCH   3   4
ENDBRANCH   2   3
ENDBRANCH   1   2
BRANCH   1  26
ATOM     26  C   UNL A   1      41.068  20.623  27.077  1.00  0.00     0.188 C 
BRANCH  26  27
ATOM     27  O   UNL A   1      42.405  20.683  26.636  1.00  0.00    -0.376 OA
BRANCH  27  28
ATOM     28  C   UNL A   1      43.147  21.837  26.971  1.00  0.00     0.202 C 
BRANCH  28  29
ATOM     29  C   UNL A   1      42.873  23.021  26.044  1.00  0.00     0.261 C 
BRANCH  29  30
ATOM     30  O   UNL A   1      42.007  24.040  26.584  1.00  0.00    -0.460 OA
BRANCH  30  31
ATOM     31  C   UNL A   1      42.064  25.268  26.023  1.00  0.00     0.338 C 
ATOM     32  O   UNL A   1      42.132  25.526  24.826  1.00  0.00    -0.246 OA
BRANCH  31  33
ATOM     33  C   UNL A   1      41.796  26.268  27.080  1.00  0.00     0.060 A 
ATOM     34  C   UNL A   1      42.254  27.585  26.920  1.00  0.00     0.016 A 
ATOM     35  C   UNL A   1      41.069  25.912  28.215  1.00  0.00     0.016 A 
ATOM     36  C   UNL A   1      41.990  28.547  27.900  1.00  0.00     0.010 A 
ATOM     37  C   UNL A   1      40.825  26.868  29.204  1.00  0.00     0.010 A 
ATOM     38  C   UNL A   1      41.296  28.186  29.062  1.00  0.00    -0.014 A 
BRANCH  38  39
ATOM     39  C   UNL A   1      41.154  29.127  30.203  1.00  0.00     0.031 A 
ATOM     40  C   UNL A   1      42.094  28.994  31.369  1.00  0.00     0.074 A 
ATOM     41  C   UNL A   1      40.172  30.046  30.231  1.00  0.00     0.049 A 
ATOM     42  N   UNL A   1      42.057  29.580  32.538  1.00  0.00    -0.248 NA
ATOM     43  C   UNL A   1      43.225  28.067  31.194  1.00  0.00     0.031 C 
ATOM     44  C   UNL A   1      39.238  30.323  29.139  1.00  0.00     0.029 A 
ATOM     45  N   UNL A   1      39.785  30.906  31.230  1.00  0.00    -0.354 N 
ATOM     46  C   UNL A   1      43.136  29.069  33.250  1.00  0.00     0.074 A 
ATOM     47  C   UNL A   1      43.804  28.122  32.383  1.00  0.00     0.031 C 
ATOM     48  C   UNL A   1      38.380  31.279  29.534  1.00  0.00     0.029 A 
ATOM     49  C   UNL A   1      38.665  31.639  30.922  1.00  0.00     0.049 A 
ATOM     50  H   UNL A   1      40.267  30.988  32.085  1.00  0.00     0.167 HD
ATOM     51  C   UNL A   1      43.525  29.354  34.516  1.00  0.00     0.031 A 
ATOM     52  C   UNL A   1      37.929  32.475  31.685  1.00  0.00     0.031 A 
ATOM     53  C   UNL A   1      42.845  30.287  35.376  1.00  0.00     0.049 A 
ATOM     54  C   UNL A   1      38.321  32.699  33.124  1.00  0.00     0.074 A 
ATOM     55  C   UNL A   1      43.177  30.668  36.664  1.00  0.00     0.029 A 
ATOM     56  N   UNL A   1      41.686  30.971  35.043  1.00  0.00    -0.354 N 
ATOM     57  N   UNL A   1      39.352  32.224  33.781  1.00  0.00    -0.248 NA
ATOM     58  C   UNL A   1      37.442  33.564  33.924  1.00  0.00     0.031 C 
ATOM     59  C   UNL A   1      42.180  31.528  37.135  1.00  0.00     0.029 A 
ATOM     60  C   UNL A   1      41.263  31.736  36.117  1.00  0.00     0.049 A 
ATOM     61  H   UNL A   1      41.230  30.920  34.172  1.00  0.00     0.167 HD
ATOM     62  C   UNL A   1      39.259  32.753  35.065  1.00  0.00     0.074 A 
ATOM     63  C   UNL A   1      38.079  33.592  35.088  1.00  0.00     0.031 C 
ATOM     64  C   UNL A   1      40.081  32.563  36.129  1.00  0.00     0.031 A 
BRANCH  51  65
ATOM     65  C   UNL A   1      44.704  28.594  35.069  1.00  0.00    -0.014 A 
ATOM     66  C   UNL A   1      46.019  29.073  34.940  1.00  0.00     0.010 A 
ATOM     67  C   UNL A   1      44.482  27.382  35.749  1.00  0.00     0.010 A 
ATOM     68  C   UNL A   1      47.094  28.328  35.435  1.00  0.00     0.020 A 
ATOM     69  C   UNL A   1      45.550  26.650  36.272  1.00  0.00     0.020 A 
ATOM     70  C   UNL A   1      46.853  27.118  36.093  1.00  0.00     0.054 A 
BRANCH  70  71
ATOM     71  S   UNL A   1      48.265  26.172  36.724  1.00  0.00     0.124 S 
ATOM     72  O   UNL A   1      48.369  25.094  35.742  1.00  0.00    -0.237 OA
ATOM     73  O   UNL A   1      49.347  27.153  36.695  1.00  0.00    -0.237 OA
ATOM     74  O   UNL A   1      47.839  25.758  38.059  1.00  0.00    -0.744 OA
ENDBRANCH  70  71
ENDBRANCH  51  65
BRANCH  52  75
ATOM     75  C   UNL A   1      36.730  33.147  31.110  1.00  0.00    -0.014 A 
ATOM     76  C   UNL A   1      35.515  33.153  31.817  1.00  0.00     0.010 A 
ATOM     77  C   UNL A   1      36.797  33.795  29.863  1.00  0.00     0.010 A 
ATOM     78  C   UNL A   1      34.390  33.795  31.290  1.00  0.00     0.020 A 
ATOM     79  C   UNL A   1      35.682  34.463  29.345  1.00  0.00     0.020 A 
ATOM     80  C   UNL A   1      34.484  34.454  30.060  1.00  0.00     0.054 A 
BRANCH  80  81
ATOM     81  S   UNL A   1      33.030  35.344  29.436  1.00  0.00     0.124 S 
ATOM     82  O   UNL A   1      32.188  35.423  30.626  1.00  0.00    -0.237 OA
ATOM     83  O   UNL A   1      33.608  36.607  28.984  1.00  0.00    -0.237 OA
ATOM     84  O   UNL A   1      32.530  34.479  28.370  1.00  0.00    -0.744 OA
ENDBRANCH  80  81
ENDBRANCH  52  75
BRANCH  64  85
ATOM     85  C   UNL A   1      39.753  33.293  37.405  1.00  0.00    -0.014 A 
ATOM     86  C   UNL A   1      40.280  34.569  37.672  1.00  0.00     0.010 A 
ATOM     87  C   UNL A   1      38.842  32.725  38.316  1.00  0.00     0.010 A 
ATOM     88  C   UNL A   1      39.920  35.254  38.837  1.00  0.00     0.020 A 
ATOM     89  C   UNL A   1      38.457  33.419  39.466  1.00  0.00     0.020 A 
ATOM     90  C   UNL A   1      39.007  34.676  39.724  1.00  0.00     0.054 A 
BRANCH  90  91
ATOM     91  S   UNL A   1      38.507  35.612  41.196  1.00  0.00     0.124 S 
ATOM     92  O   UNL A   1      38.449  36.978  40.682  1.00  0.00    -0.237 OA
ATOM     93  O   UNL A   1      37.218  35.013  41.534  1.00  0.00    -0.237 OA
ATOM     94  O   UNL A   1      39.580  35.353  42.154  1.00  0.00    -0.744 OA
ENDBRANCH  90  91
ENDBRANCH  64  85
ENDBRANCH  38  39
ENDBRANCH  31  33
ENDBRANCH  30  31
ENDBRANCH  29  30
ENDBRANCH  28  29
ENDBRANCH  27  28
ENDBRANCH  26  27
ENDBRANCH   1  26
TORSDOF 26
ENDMDL
MODEL 3
REMARK VINA RESULT:      -8.3      3.315      8.864
REMARK SMILES C[C@H](NC(=O)N(CC(=O)OCCOCCOCCOC(=O)c1ccc(-c2c3nc(c(-c4ccc(S(=O)(=O)[O-])cc4)c4ccc([nH]4)c(-c4ccc(S(=O)(=O)[O-])cc4)c4nc(c(-c5ccc(S(=O)(=O)[O-])cc5)c5ccc2[nH]5)C=C4)C=C3)cc1)CC(F)(F)F)[C@@H]1CCCO1
REMARK SMILES IDX 14 1 13 2 12 3 11 4 10 5 8 6 9 7 7 8 6 9 4 10 3 11 5 13 2 14
REMARK SMILES IDX 1 15 87 16 88 17 91 18 89 19 90 20 82 21 83 22 84 23 85 24
REMARK SMILES IDX 86 25 15 26 16 27 17 28 18 29 19 30 20 31 21 32 22 33 23 34
REMARK SMILES IDX 81 35 24 36 80 37 25 38 26 39 27 40 74 41 28 42 79 43 73 44
REMARK SMILES IDX 75 45 29 46 78 47 72 48 71 49 30 51 60 52 41 53 59 54 42 55
REMARK SMILES IDX 45 56 58 57 76 58 43 59 44 60 57 62 77 63 46 64 31 65 32 66
REMARK SMILES IDX 40 67 33 68 39 69 34 70 35 71 36 72 37 73 38 74 61 75 62 76
REMARK SMILES IDX 70 77 63 78 69 79 64 80 65 81 66 82 67 83 68 84 47 85 48 86
REMARK SMILES IDX 56 87 49 88 55 89 50 90 51 91 52 92 53 93 54 94
REMARK H PARENT 3 12 75 50 45 61
REMARK Flexibility Score: inf
ROOT
ATOM      1  C   UNL A   1      41.560  21.368  26.809  1.00  0.00     0.188 C 
ENDROOT
BRANCH   1   2
ATOM      2  O   UNL A   1      40.215  21.182  26.385  1.00  0.00    -0.376 OA
BRANCH   2   3
ATOM      3  C   UNL A   1      39.272  22.242  26.466  1.00  0.00     0.202 C 
BRANCH   3   4
ATOM      4  C   UNL A   1      38.031  22.162  25.564  1.00  0.00     0.261 C 
BRANCH   4   5
ATOM      5  O   UNL A   1      37.520  23.433  25.088  1.00  0.00    -0.462 OA
BRANCH   5   6
ATOM      6  C   UNL A   1      36.278  23.377  24.552  1.00  0.00     0.325 C 
ATOM      7  O   UNL A   1      36.062  23.300  23.343  1.00  0.00    -0.250 OA
BRANCH   6   8
ATOM      8  C   UNL A   1      35.098  23.230  25.531  1.00  0.00     0.244 C 
BRANCH   8   9
ATOM      9  N   UNL A   1      33.689  22.849  25.332  1.00  0.00    -0.305 N 
BRANCH   9  10
ATOM     10  C   UNL A   1      32.585  23.625  25.562  1.00  0.00     0.318 C 
ATOM     11  N   UNL A   1      32.531  24.940  25.318  1.00  0.00    -0.333 N 
ATOM     12  H   UNL A   1      31.633  25.292  25.518  1.00  0.00     0.165 HD
ATOM     13  O   UNL A   1      31.517  23.111  25.911  1.00  0.00    -0.249 OA
BRANCH  11  14
ATOM     14  C   UNL A   1      33.416  26.017  24.838  1.00  0.00     0.109 C 
ATOM     15  C   UNL A   1      33.494  26.057  23.297  1.00  0.00     0.034 C 
BRANCH  14  16
ATOM     16  C   UNL A   1      32.911  27.384  25.339  1.00  0.00     0.140 C 
ATOM     17  C   UNL A   1      33.723  28.002  26.467  1.00  0.00     0.036 C 
ATOM     18  O   UNL A   1      31.561  27.247  25.839  1.00  0.00    -0.376 OA
ATOM     19  C   UNL A   1      32.677  28.849  27.151  1.00  0.00     0.031 C 
ATOM     20  C   UNL A   1      31.461  27.954  27.078  1.00  0.00     0.160 C 
ENDBRANCH  14  16
ENDBRANCH  11  14
ENDBRANCH   9  10
BRANCH   9  21
ATOM     21  C   UNL A   1      33.410  21.715  24.411  1.00  0.00     0.237 C 
BRANCH  21  22
ATOM     22  C   UNL A   1      33.789  20.288  24.836  1.00  0.00     0.406 C 
ATOM     23  F   UNL A   1      35.120  20.086  24.921  1.00  0.00    -0.169 F 
ATOM     24  F   UNL A   1      33.300  20.067  26.084  1.00  0.00    -0.169 F 
ATOM     25  F   UNL A   1      33.256  19.343  24.034  1.00  0.00    -0.169 F 
ENDBRANCH  21  22
ENDBRANCH   9  21
ENDBRANCH   8   9
ENDBRANCH   6   8
ENDBRANCH   5   6
ENDBRANCH   4   5
ENDBRANCH   3   4
ENDBRANCH   2   3
ENDBRANCH   1   2
BRANCH   1  26
ATOM     26  C   UNL A   1      42.708  20.869  25.931  1.00  0.00     0.188 C 
BRANCH  26  27
ATOM     27  O   UNL A   1      43.230  21.858  25.074  1.00  0.00    -0.376 OA
BRANCH  27  28
ATOM     28  C   UNL A   1      42.961  23.206  25.399  1.00  0.00     0.202 C 
BRANCH  28  29
ATOM     29  C   UNL A   1      44.207  24.092  25.378  1.00  0.00     0.261 C 
BRANCH  29  30
ATOM     30  O   UNL A   1      44.150  25.256  26.227  1.00  0.00    -0.460 OA
BRANCH  30  31
ATOM     31  C   UNL A   1      43.356  26.277  25.833  1.00  0.00     0.338 C 
ATOM     32  O   UNL A   1      42.966  26.506  24.693  1.00  0.00    -0.246 OA
BRANCH  31  33
ATOM     33  C   UNL A   1      42.838  26.949  27.045  1.00  0.00     0.060 A 
ATOM     34  C   UNL A   1      43.171  28.290  27.289  1.00  0.00     0.016 A 
ATOM     35  C   UNL A   1      42.003  26.263  27.926  1.00  0.00     0.016 A 
ATOM     36  C   UNL A   1      42.672  28.947  28.418  1.00  0.00     0.010 A 
ATOM     37  C   UNL A   1      41.523  26.912  29.066  1.00  0.00     0.010 A 
ATOM     38  C   UNL A   1      41.866  28.251  29.329  1.00  0.00    -0.014 A 
BRANCH  38  39
ATOM     39  C   UNL A   1      41.467  28.854  30.626  1.00  0.00     0.031 A 
ATOM     40  C   UNL A   1      40.273  29.767  30.662  1.00  0.00     0.074 A 
ATOM     41  C   UNL A   1      42.186  28.642  31.744  1.00  0.00     0.049 A 
ATOM     42  N   UNL A   1      39.841  30.534  31.629  1.00  0.00    -0.248 NA
ATOM     43  C   UNL A   1      39.461  29.826  29.435  1.00  0.00     0.031 C 
ATOM     44  C   UNL A   1      43.323  27.729  31.861  1.00  0.00     0.029 A 
ATOM     45  N   UNL A   1      42.074  29.201  32.994  1.00  0.00    -0.354 N 
ATOM     46  C   UNL A   1      38.729  31.194  31.118  1.00  0.00     0.074 A 
ATOM     47  C   UNL A   1      38.557  30.740  29.755  1.00  0.00     0.031 C 
ATOM     48  C   UNL A   1      43.810  27.800  33.112  1.00  0.00     0.029 A 
ATOM     49  C   UNL A   1      43.060  28.804  33.865  1.00  0.00     0.049 A 
ATOM     50  H   UNL A   1      41.355  29.827  33.241  1.00  0.00     0.167 HD
ATOM     51  C   UNL A   1      37.933  32.106  31.727  1.00  0.00     0.031 A 
ATOM     52  C   UNL A   1      43.349  29.228  35.113  1.00  0.00     0.031 A 
ATOM     53  C   UNL A   1      38.120  32.563  33.079  1.00  0.00     0.049 A 
ATOM     54  C   UNL A   1      42.511  30.318  35.734  1.00  0.00     0.074 A 
ATOM     55  C   UNL A   1      37.351  33.460  33.798  1.00  0.00     0.029 A 
ATOM     56  N   UNL A   1      39.160  32.172  33.910  1.00  0.00    -0.354 N 
ATOM     57  N   UNL A   1      41.453  30.922  35.249  1.00  0.00    -0.248 NA
ATOM     58  C   UNL A   1      42.916  30.789  37.066  1.00  0.00     0.031 C 
ATOM     59  C   UNL A   1      37.965  33.666  35.038  1.00  0.00     0.029 A 
ATOM     60  C   UNL A   1      39.079  32.845  35.117  1.00  0.00     0.049 A 
ATOM     61  H   UNL A   1      39.854  31.513  33.676  1.00  0.00     0.167 HD
ATOM     62  C   UNL A   1      41.050  31.827  36.227  1.00  0.00     0.074 A 
ATOM     63  C   UNL A   1      41.973  31.682  37.336  1.00  0.00     0.031 C 
ATOM     64  C   UNL A   1      40.008  32.697  36.211  1.00  0.00     0.031 A 
BRANCH  51  65
ATOM     65  C   UNL A   1      36.826  32.720  30.908  1.00  0.00    -0.014 A 
ATOM     66  C   UNL A   1      37.070  33.761  29.995  1.00  0.00     0.010 A 
ATOM     67  C   UNL A   1      35.515  32.226  31.047  1.00  0.00     0.010 A 
ATOM     68  C   UNL A   1      36.016  34.331  29.276  1.00  0.00     0.020 A 
ATOM     69  C   UNL A   1      34.464  32.773  30.307  1.00  0.00     0.020 A 
ATOM     70  C   UNL A   1      34.719  33.837  29.440  1.00  0.00     0.054 A 
BRANCH  70  71
ATOM     71  S   UNL A   1      33.370  34.596  28.495  1.00  0.00     0.124 S 
ATOM     72  O   UNL A   1      32.807  33.443  27.794  1.00  0.00    -0.237 OA
ATOM     73  O   UNL A   1      32.526  35.166  29.542  1.00  0.00    -0.237 OA
ATOM     74  O   UNL A   1      34.046  35.572  27.644  1.00  0.00    -0.744 OA
ENDBRANCH  70  71
ENDBRANCH  51  65
BRANCH  52  75
ATOM     75  C   UNL A   1      44.499  28.639  35.854  1.00  0.00    -0.014 A 
ATOM     76  C   UNL A   1      45.694  29.364  36.000  1.00  0.00     0.010 A 
ATOM     77  C   UNL A   1      44.404  27.357  36.428  1.00  0.00     0.010 A 
ATOM     78  C   UNL A   1      46.772  28.823  36.707  1.00  0.00     0.020 A 
ATOM     79  C   UNL A   1      45.470  26.823  37.160  1.00  0.00     0.020 A 
ATOM     80  C   UNL A   1      46.649  27.557  37.290  1.00  0.00     0.054 A 
BRANCH  80  81
ATOM     81  S   UNL A   1      48.036  26.911  38.267  1.00  0.00     0.124 S 
ATOM     82  O   UNL A   1      48.450  25.754  37.478  1.00  0.00    -0.237 OA
ATOM     83  O   UNL A   1      48.965  28.038  38.275  1.00  0.00    -0.237 OA
ATOM     84  O   UNL A   1      47.429  26.602  39.560  1.00  0.00    -0.744 OA
ENDBRANCH  80  81
ENDBRANCH  52  75
BRANCH  64  85
ATOM     85  C   UNL A   1      39.787  33.546  37.435  1.00  0.00    -0.014 A 
ATOM     86  C   UNL A   1      38.811  33.209  38.390  1.00  0.00     0.010 A 
ATOM     87  C   UNL A   1      40.620  34.656  37.671  1.00  0.00     0.010 A 
ATOM     88  C   UNL A   1      38.659  33.979  39.548  1.00  0.00     0.020 A 
ATOM     89  C   UNL A   1      40.490  35.410  38.839  1.00  0.00     0.020 A 
ATOM     90  C   UNL A   1      39.502  35.073  39.767  1.00  0.00     0.054 A 
BRANCH  90  91
ATOM     91  S   UNL A   1      39.325  36.017  41.306  1.00  0.00     0.124 S 
ATOM     92  O   UNL A   1      40.371  35.435  42.142  1.00  0.00    -0.237 OA
ATOM     93  O   UNL A   1      39.563  37.390  40.868  1.00  0.00    -0.237 OA
ATOM     94  O   UNL A   1      37.957  35.733  41.732  1.00  0.00    -0.744 OA
ENDBRANCH  90  91
ENDBRANCH  64  85
ENDBRANCH  38  39
ENDBRANCH  31  33
ENDBRANCH  30  31
ENDBRANCH  29  30
ENDBRANCH  28  29
ENDBRANCH  27  28
ENDBRANCH  26  27
ENDBRANCH   1  26
TORSDOF 26
ENDMDL
