MODEL 1
REMARK VINA RESULT:     -10.1      0.000      0.000
REMARK SMILES CC[C@@H]1C=CCN1S(=O)(=O)c1sc2c(c1C(=O)OCCOCCOCCOC(=O)c1ccc(-c3c4nc(c(-c5ccc(S(=O)(=O)[O-])cc5)c5ccc([nH]5)c(-c5ccc(S(=O)(=O)[O-])cc5)c5nc(c(-c6ccc(S(=O)(=O)[O-])cc6)c6ccc3[nH]6)C=C5)C=C4)cc1)CC[NH2+]C2
REMARK SMILES IDX 22 1 21 2 20 3 19 4 18 5 16 6 17 7 15 8 11 9 12 10 13 11
REMARK SMILES IDX 14 12 93 13 90 14 92 15 91 16 8 19 9 20 10 21 7 22 3 23 4 24
REMARK SMILES IDX 5 25 6 26 2 27 1 28 23 29 24 30 25 31 26 32 27 33 28 34
REMARK SMILES IDX 29 35 30 36 31 37 89 38 32 39 88 40 33 41 34 42 35 43 82 44
REMARK SMILES IDX 36 45 87 46 81 47 83 48 37 49 86 50 80 51 79 52 38 54 68 55
REMARK SMILES IDX 49 56 67 57 50 58 53 59 66 60 84 61 51 62 52 63 65 65 85 66
REMARK SMILES IDX 54 67 39 68 40 69 48 70 41 71 47 72 42 73 43 74 44 75 45 76
REMARK SMILES IDX 46 77 69 78 70 79 78 80 71 81 77 82 72 83 73 84 74 85 75 86
REMARK SMILES IDX 76 87 55 88 56 89 64 90 57 91 63 92 58 93 59 94 60 95 61 96
REMARK SMILES IDX 62 97
REMARK H PARENT 92 17 92 18 83 53 53 64
REMARK Flexibility Score: inf
ROOT
ATOM      1  C   UNL A   1      37.748  21.565  24.844  1.00  0.00     0.188 C 
ENDROOT
BRANCH   1   2
ATOM      2  O   UNL A   1      36.696  22.301  25.426  1.00  0.00    -0.376 OA
BRANCH   2   3
ATOM      3  C   UNL A   1      36.096  23.373  24.719  1.00  0.00     0.202 C 
BRANCH   3   4
ATOM      4  C   UNL A   1      35.253  24.481  25.386  1.00  0.00     0.261 C 
BRANCH   4   5
ATOM      5  O   UNL A   1      34.477  25.314  24.512  1.00  0.00    -0.460 OA
BRANCH   5   6
ATOM      6  C   UNL A   1      33.694  26.259  25.106  1.00  0.00     0.340 C 
ATOM      7  O   UNL A   1      34.121  27.173  25.777  1.00  0.00    -0.246 OA
BRANCH   6   8
ATOM      8  C   UNL A   1      32.279  26.200  24.705  1.00  0.00     0.095 A 
ATOM      9  C   UNL A   1      31.360  25.196  25.026  1.00  0.00     0.150 A 
ATOM     10  S   UNL A   1      29.764  25.696  24.611  1.00  0.00    -0.120 S 
ATOM     11  C   UNL A   1      30.281  27.090  23.839  1.00  0.00     0.064 A 
ATOM     12  C   UNL A   1      31.648  27.241  23.898  1.00  0.00    -0.007 A 
ATOM     13  C   UNL A   1      29.320  28.055  23.214  1.00  0.00     0.308 C 
ATOM     14  C   UNL A   1      32.287  28.384  23.153  1.00  0.00     0.099 C 
ATOM     15  N   UNL A   1      29.994  28.908  22.224  1.00  0.00    -0.342 N 
ATOM     16  C   UNL A   1      31.245  29.465  22.776  1.00  0.00     0.265 C 
ATOM     17  H   UNL A   1      30.212  28.353  21.396  1.00  0.00     0.346 HD
ATOM     18  H   UNL A   1      29.372  29.679  21.980  1.00  0.00     0.346 HD
BRANCH   9  19
ATOM     19  S   UNL A   1      31.417  23.632  25.922  1.00  0.00     0.254 S 
ATOM     20  O   UNL A   1      30.087  23.079  25.756  1.00  0.00    -0.206 OA
ATOM     21  O   UNL A   1      31.894  23.957  27.247  1.00  0.00    -0.206 OA
BRANCH  19  22
ATOM     22  N   UNL A   1      32.532  22.524  25.218  1.00  0.00    -0.186 NA
ATOM     23  C   UNL A   1      32.418  21.121  25.748  1.00  0.00     0.096 C 
ATOM     24  C   UNL A   1      32.307  20.282  24.508  1.00  0.00    -0.010 C 
ATOM     25  C   UNL A   1      32.442  21.015  23.405  1.00  0.00    -0.013 C 
ATOM     26  C   UNL A   1      32.545  22.456  23.731  1.00  0.00     0.130 C 
BRANCH  23  27
ATOM     27  C   UNL A   1      33.684  20.665  26.487  1.00  0.00     0.021 C 
ATOM     28  C   UNL A   1      34.130  21.565  27.620  1.00  0.00     0.006 C 
ENDBRANCH  23  27
ENDBRANCH  19  22
ENDBRANCH   9  19
ENDBRANCH   6   8
ENDBRANCH   5   6
ENDBRANCH   4   5
ENDBRANCH   3   4
ENDBRANCH   2   3
ENDBRANCH   1   2
BRANCH   1  29
ATOM     29  C   UNL A   1      37.912  20.061  25.148  1.00  0.00     0.188 C 
BRANCH  29  30
ATOM     30  O   UNL A   1      39.198  19.496  25.254  1.00  0.00    -0.376 OA
BRANCH  30  31
ATOM     31  C   UNL A   1      40.163  19.849  26.228  1.00  0.00     0.202 C 
BRANCH  31  32
ATOM     32  C   UNL A   1      40.868  21.195  26.345  1.00  0.00     0.261 C 
BRANCH  32  33
ATOM     33  O   UNL A   1      42.193  21.150  26.808  1.00  0.00    -0.460 OA
BRANCH  33  34
ATOM     34  C   UNL A   1      43.093  21.373  25.830  1.00  0.00     0.338 C 
ATOM     35  O   UNL A   1      43.487  20.584  24.989  1.00  0.00    -0.246 OA
BRANCH  34  36
ATOM     36  C   UNL A   1      43.608  22.728  25.992  1.00  0.00     0.060 A 
ATOM     37  C   UNL A   1      44.391  22.950  27.126  1.00  0.00     0.016 A 
ATOM     38  C   UNL A   1      42.926  23.746  25.317  1.00  0.00     0.016 A 
ATOM     39  C   UNL A   1      44.242  24.155  27.764  1.00  0.00     0.010 A 
ATOM     40  C   UNL A   1      42.737  24.923  25.983  1.00  0.00     0.010 A 
ATOM     41  C   UNL A   1      43.322  25.067  27.239  1.00  0.00    -0.014 A 
BRANCH  41  42
ATOM     42  C   UNL A   1      43.067  26.279  27.975  1.00  0.00     0.031 A 
ATOM     43  C   UNL A   1      44.167  27.240  27.787  1.00  0.00     0.074 A 
ATOM     44  C   UNL A   1      41.905  26.505  28.612  1.00  0.00     0.049 A 
ATOM     45  N   UNL A   1      45.135  27.484  28.607  1.00  0.00    -0.248 NA
ATOM     46  C   UNL A   1      44.382  27.767  26.425  1.00  0.00     0.031 C 
ATOM     47  C   UNL A   1      40.685  25.693  28.581  1.00  0.00     0.029 A 
ATOM     48  N   UNL A   1      41.527  27.592  29.330  1.00  0.00    -0.354 N 
ATOM     49  C   UNL A   1      45.897  28.443  27.956  1.00  0.00     0.074 A 
ATOM     50  C   UNL A   1      45.593  28.307  26.556  1.00  0.00     0.031 C 
ATOM     51  C   UNL A   1      39.648  26.437  29.032  1.00  0.00     0.029 A 
ATOM     52  C   UNL A   1      40.151  27.726  29.485  1.00  0.00     0.049 A 
ATOM     53  H   UNL A   1      42.171  28.233  29.708  1.00  0.00     0.167 HD
ATOM     54  C   UNL A   1      46.350  29.535  28.632  1.00  0.00     0.031 A 
ATOM     55  C   UNL A   1      39.490  28.851  29.866  1.00  0.00     0.031 A 
ATOM     56  C   UNL A   1      46.302  29.325  30.061  1.00  0.00     0.049 A 
ATOM     57  C   UNL A   1      40.486  29.747  30.510  1.00  0.00     0.074 A 
ATOM     58  C   UNL A   1      46.793  28.365  30.925  1.00  0.00     0.029 A 
ATOM     59  N   UNL A   1      45.305  29.981  30.746  1.00  0.00    -0.354 N 
ATOM     60  N   UNL A   1      41.065  29.474  31.645  1.00  0.00    -0.248 NA
ATOM     61  C   UNL A   1      41.192  30.704  29.669  1.00  0.00     0.031 C 
ATOM     62  C   UNL A   1      45.785  28.204  31.919  1.00  0.00     0.029 A 
ATOM     63  C   UNL A   1      44.765  29.122  31.664  1.00  0.00     0.049 A 
ATOM     64  H   UNL A   1      45.025  30.913  30.598  1.00  0.00     0.167 HD
ATOM     65  C   UNL A   1      42.389  29.850  31.467  1.00  0.00     0.074 A 
ATOM     66  C   UNL A   1      42.383  30.697  30.274  1.00  0.00     0.031 C 
ATOM     67  C   UNL A   1      43.395  29.198  32.125  1.00  0.00     0.031 A 
BRANCH  54  68
ATOM     68  C   UNL A   1      46.317  30.926  28.028  1.00  0.00    -0.014 A 
ATOM     69  C   UNL A   1      47.438  31.756  28.212  1.00  0.00     0.010 A 
ATOM     70  C   UNL A   1      45.140  31.547  27.553  1.00  0.00     0.010 A 
ATOM     71  C   UNL A   1      47.351  33.142  28.032  1.00  0.00     0.020 A 
ATOM     72  C   UNL A   1      45.054  32.917  27.323  1.00  0.00     0.020 A 
ATOM     73  C   UNL A   1      46.152  33.713  27.602  1.00  0.00     0.054 A 
BRANCH  73  74
ATOM     74  S   UNL A   1      46.017  35.507  27.458  1.00  0.00     0.124 S 
ATOM     75  O   UNL A   1      47.345  35.937  27.881  1.00  0.00    -0.237 OA
ATOM     76  O   UNL A   1      45.712  35.676  26.040  1.00  0.00    -0.237 OA
ATOM     77  O   UNL A   1      44.926  35.840  28.371  1.00  0.00    -0.744 OA
ENDBRANCH  73  74
ENDBRANCH  54  68
BRANCH  55  78
ATOM     78  C   UNL A   1      38.158  29.340  29.417  1.00  0.00    -0.014 A 
ATOM     79  C   UNL A   1      37.172  29.713  30.353  1.00  0.00     0.010 A 
ATOM     80  C   UNL A   1      37.948  29.711  28.073  1.00  0.00     0.010 A 
ATOM     81  C   UNL A   1      36.061  30.488  29.971  1.00  0.00     0.020 A 
ATOM     82  C   UNL A   1      36.840  30.473  27.684  1.00  0.00     0.020 A 
ATOM     83  C   UNL A   1      35.915  30.883  28.640  1.00  0.00     0.054 A 
BRANCH  83  84
ATOM     84  S   UNL A   1      34.589  32.041  28.182  1.00  0.00     0.124 S 
ATOM     85  O   UNL A   1      34.003  32.373  29.477  1.00  0.00    -0.237 OA
ATOM     86  O   UNL A   1      35.321  33.121  27.524  1.00  0.00    -0.237 OA
ATOM     87  O   UNL A   1      33.732  31.251  27.299  1.00  0.00    -0.744 OA
ENDBRANCH  83  84
ENDBRANCH  55  78
BRANCH  67  88
ATOM     88  C   UNL A   1      43.034  28.335  33.311  1.00  0.00    -0.014 A 
ATOM     89  C   UNL A   1      43.025  26.927  33.303  1.00  0.00     0.010 A 
ATOM     90  C   UNL A   1      42.796  28.998  34.527  1.00  0.00     0.010 A 
ATOM     91  C   UNL A   1      42.735  26.207  34.473  1.00  0.00     0.020 A 
ATOM     92  C   UNL A   1      42.529  28.290  35.699  1.00  0.00     0.020 A 
ATOM     93  C   UNL A   1      42.482  26.897  35.663  1.00  0.00     0.054 A 
BRANCH  93  94
ATOM     94  S   UNL A   1      42.103  25.969  37.176  1.00  0.00     0.124 S 
ATOM     95  O   UNL A   1      42.321  24.585  36.761  1.00  0.00    -0.237 OA
ATOM     96  O   UNL A   1      43.071  26.500  38.132  1.00  0.00    -0.237 OA
ATOM     97  O   UNL A   1      40.711  26.317  37.459  1.00  0.00    -0.744 OA
ENDBRANCH  93  94
ENDBRANCH  67  88
ENDBRANCH  41  42
ENDBRANCH  34  36
ENDBRANCH  33  34
ENDBRANCH  32  33
ENDBRANCH  31  32
ENDBRANCH  30  31
ENDBRANCH  29  30
ENDBRANCH   1  29
TORSDOF 23
ENDMDL
MODEL 2
REMARK VINA RESULT:     -10.0      2.913      9.584
REMARK SMILES CC[C@@H]1C=CCN1S(=O)(=O)c1sc2c(c1C(=O)OCCOCCOCCOC(=O)c1ccc(-c3c4nc(c(-c5ccc(S(=O)(=O)[O-])cc5)c5ccc([nH]5)c(-c5ccc(S(=O)(=O)[O-])cc5)c5nc(c(-c6ccc(S(=O)(=O)[O-])cc6)c6ccc3[nH]6)C=C5)C=C4)cc1)CC[NH2+]C2
REMARK SMILES IDX 22 1 21 2 20 3 19 4 18 5 16 6 17 7 15 8 11 9 12 10 13 11
REMARK SMILES IDX 14 12 93 13 90 14 92 15 91 16 8 19 9 20 10 21 7 22 3 23 4 24
REMARK SMILES IDX 5 25 6 26 2 27 1 28 23 29 24 30 25 31 26 32 27 33 28 34
REMARK SMILES IDX 29 35 30 36 31 37 89 38 32 39 88 40 33 41 34 42 35 43 82 44
REMARK SMILES IDX 36 45 87 46 81 47 83 48 37 49 86 50 80 51 79 52 38 54 68 55
REMARK SMILES IDX 49 56 67 57 50 58 53 59 66 60 84 61 51 62 52 63 65 65 85 66
REMARK SMILES IDX 54 67 39 68 40 69 48 70 41 71 47 72 42 73 43 74 44 75 45 76
REMARK SMILES IDX 46 77 69 78 70 79 78 80 71 81 77 82 72 83 73 84 74 85 75 86
REMARK SMILES IDX 76 87 55 88 56 89 64 90 57 91 63 92 58 93 59 94 60 95 61 96
REMARK SMILES IDX 62 97
REMARK H PARENT 92 17 92 18 83 53 53 64
REMARK Flexibility Score: inf
ROOT
ATOM      1  C   UNL A   1      34.280  31.027  27.842  1.00  0.00     0.188 C 
ENDROOT
BRANCH   1   2
ATOM      2  O   UNL A   1      33.082  30.750  27.153  1.00  0.00    -0.376 OA
BRANCH   2   3
ATOM      3  C   UNL A   1      32.646  29.412  26.984  1.00  0.00     0.202 C 
BRANCH   3   4
ATOM      4  C   UNL A   1      33.599  28.203  26.860  1.00  0.00     0.261 C 
BRANCH   4   5
ATOM      5  O   UNL A   1      32.987  26.914  26.714  1.00  0.00    -0.460 OA
BRANCH   5   6
ATOM      6  C   UNL A   1      33.612  26.033  25.881  1.00  0.00     0.340 C 
ATOM      7  O   UNL A   1      34.775  26.115  25.552  1.00  0.00    -0.246 OA
BRANCH   6   8
ATOM      8  C   UNL A   1      32.808  24.843  25.559  1.00  0.00     0.095 A 
ATOM      9  C   UNL A   1      31.607  24.813  24.844  1.00  0.00     0.150 A 
ATOM     10  S   UNL A   1      31.192  23.189  24.445  1.00  0.00    -0.120 S 
ATOM     11  C   UNL A   1      32.429  22.529  25.362  1.00  0.00     0.064 A 
ATOM     12  C   UNL A   1      33.204  23.496  25.961  1.00  0.00    -0.007 A 
ATOM     13  C   UNL A   1      32.653  21.050  25.449  1.00  0.00     0.308 C 
ATOM     14  C   UNL A   1      34.291  23.070  26.916  1.00  0.00     0.099 C 
ATOM     15  N   UNL A   1      33.448  20.702  26.636  1.00  0.00    -0.342 N 
ATOM     16  C   UNL A   1      34.636  21.571  26.743  1.00  0.00     0.265 C 
ATOM     17  H   UNL A   1      32.872  20.817  27.470  1.00  0.00     0.346 HD
ATOM     18  H   UNL A   1      33.757  19.734  26.549  1.00  0.00     0.346 HD
BRANCH   9  19
ATOM     19  S   UNL A   1      30.521  26.041  24.093  1.00  0.00     0.254 S 
ATOM     20  O   UNL A   1      30.281  26.999  25.154  1.00  0.00    -0.206 OA
ATOM     21  O   UNL A   1      29.412  25.297  23.540  1.00  0.00    -0.206 OA
BRANCH  19  22
ATOM     22  N   UNL A   1      31.290  26.879  22.800  1.00  0.00    -0.186 NA
ATOM     23  C   UNL A   1      31.622  28.313  23.110  1.00  0.00     0.096 C 
ATOM     24  C   UNL A   1      33.074  28.427  22.749  1.00  0.00    -0.010 C 
ATOM     25  C   UNL A   1      33.536  27.302  22.207  1.00  0.00    -0.013 C 
ATOM     26  C   UNL A   1      32.505  26.238  22.228  1.00  0.00     0.130 C 
BRANCH  23  27
ATOM     27  C   UNL A   1      30.859  29.302  22.217  1.00  0.00     0.021 C 
ATOM     28  C   UNL A   1      29.509  29.740  22.745  1.00  0.00     0.006 C 
ENDBRANCH  23  27
ENDBRANCH  19  22
ENDBRANCH   9  19
ENDBRANCH   6   8
ENDBRANCH   5   6
ENDBRANCH   4   5
ENDBRANCH   3   4
ENDBRANCH   2   3
ENDBRANCH   1   2
BRANCH   1  29
ATOM     29  C   UNL A   1      34.934  32.421  27.744  1.00  0.00     0.188 C 
BRANCH  29  30
ATOM     30  O   UNL A   1      35.060  33.228  28.892  1.00  0.00    -0.376 OA
BRANCH  30  31
ATOM     31  C   UNL A   1      34.568  34.550  29.014  1.00  0.00     0.202 C 
BRANCH  31  32
ATOM     32  C   UNL A   1      33.598  35.052  30.075  1.00  0.00     0.261 C 
BRANCH  32  33
ATOM     33  O   UNL A   1      33.476  34.245  31.219  1.00  0.00    -0.460 OA
BRANCH  33  34
ATOM     34  C   UNL A   1      33.784  34.902  32.354  1.00  0.00     0.338 C 
ATOM     35  O   UNL A   1      33.328  35.963  32.746  1.00  0.00    -0.246 OA
BRANCH  34  36
ATOM     36  C   UNL A   1      34.851  34.167  33.024  1.00  0.00     0.060 A 
ATOM     37  C   UNL A   1      36.022  34.884  33.272  1.00  0.00     0.016 A 
ATOM     38  C   UNL A   1      34.810  32.771  32.930  1.00  0.00     0.016 A 
ATOM     39  C   UNL A   1      37.210  34.216  33.123  1.00  0.00     0.010 A 
ATOM     40  C   UNL A   1      35.993  32.121  32.727  1.00  0.00     0.010 A 
ATOM     41  C   UNL A   1      37.165  32.875  32.733  1.00  0.00    -0.014 A 
BRANCH  41  42
ATOM     42  C   UNL A   1      38.408  32.204  32.450  1.00  0.00     0.031 A 
ATOM     43  C   UNL A   1      39.183  32.007  33.686  1.00  0.00     0.074 A 
ATOM     44  C   UNL A   1      38.705  31.720  31.232  1.00  0.00     0.049 A 
ATOM     45  N   UNL A   1      40.183  32.713  34.099  1.00  0.00    -0.248 NA
ATOM     46  C   UNL A   1      38.603  31.122  34.717  1.00  0.00     0.031 C 
ATOM     47  C   UNL A   1      37.837  31.647  30.052  1.00  0.00     0.029 A 
ATOM     48  N   UNL A   1      39.822  31.066  30.826  1.00  0.00    -0.354 N 
ATOM     49  C   UNL A   1      40.536  32.130  35.306  1.00  0.00     0.074 A 
ATOM     50  C   UNL A   1      39.365  31.430  35.765  1.00  0.00     0.031 C 
ATOM     51  C   UNL A   1      38.369  30.772  29.167  1.00  0.00     0.029 A 
ATOM     52  C   UNL A   1      39.658  30.316  29.666  1.00  0.00     0.049 A 
ATOM     53  H   UNL A   1      40.677  31.116  31.312  1.00  0.00     0.167 HD
ATOM     54  C   UNL A   1      41.845  31.890  35.596  1.00  0.00     0.031 A 
ATOM     55  C   UNL A   1      40.484  29.333  29.220  1.00  0.00     0.031 A 
ATOM     56  C   UNL A   1      42.721  32.665  34.748  1.00  0.00     0.049 A 
ATOM     57  C   UNL A   1      41.785  29.505  29.915  1.00  0.00     0.074 A 
ATOM     58  C   UNL A   1      42.849  34.007  34.440  1.00  0.00     0.029 A 
ATOM     59  N   UNL A   1      43.373  31.980  33.748  1.00  0.00    -0.354 N 
ATOM     60  N   UNL A   1      42.576  30.522  29.713  1.00  0.00    -0.248 NA
ATOM     61  C   UNL A   1      41.987  28.808  31.178  1.00  0.00     0.031 C 
ATOM     62  C   UNL A   1      43.194  34.043  33.058  1.00  0.00     0.029 A 
ATOM     63  C   UNL A   1      43.335  32.731  32.605  1.00  0.00     0.049 A 
ATOM     64  H   UNL A   1      43.795  31.096  33.840  1.00  0.00     0.167 HD
ATOM     65  C   UNL A   1      43.039  30.868  30.975  1.00  0.00     0.074 A 
ATOM     66  C   UNL A   1      42.730  29.714  31.819  1.00  0.00     0.031 C 
ATOM     67  C   UNL A   1      43.354  32.165  31.272  1.00  0.00     0.031 A 
BRANCH  54  68
ATOM     68  C   UNL A   1      42.301  30.599  36.247  1.00  0.00    -0.014 A 
ATOM     69  C   UNL A   1      43.477  30.624  37.020  1.00  0.00     0.010 A 
ATOM     70  C   UNL A   1      41.802  29.324  35.897  1.00  0.00     0.010 A 
ATOM     71  C   UNL A   1      44.166  29.445  37.331  1.00  0.00     0.020 A 
ATOM     72  C   UNL A   1      42.452  28.142  36.241  1.00  0.00     0.020 A 
ATOM     73  C   UNL A   1      43.653  28.213  36.925  1.00  0.00     0.054 A 
BRANCH  73  74
ATOM     74  S   UNL A   1      44.590  26.704  37.248  1.00  0.00     0.124 S 
ATOM     75  O   UNL A   1      44.665  26.113  35.917  1.00  0.00    -0.237 OA
ATOM     76  O   UNL A   1      45.840  27.233  37.785  1.00  0.00    -0.237 OA
ATOM     77  O   UNL A   1      43.757  25.986  38.210  1.00  0.00    -0.744 OA
ENDBRANCH  73  74
ENDBRANCH  54  68
BRANCH  55  78
ATOM     78  C   UNL A   1      40.127  28.076  28.506  1.00  0.00    -0.014 A 
ATOM     79  C   UNL A   1      40.688  27.775  27.248  1.00  0.00     0.010 A 
ATOM     80  C   UNL A   1      39.458  27.036  29.181  1.00  0.00     0.010 A 
ATOM     81  C   UNL A   1      40.644  26.471  26.724  1.00  0.00     0.020 A 
ATOM     82  C   UNL A   1      39.400  25.738  28.661  1.00  0.00     0.020 A 
ATOM     83  C   UNL A   1      40.018  25.453  27.447  1.00  0.00     0.054 A 
BRANCH  83  84
ATOM     84  S   UNL A   1      40.127  23.734  26.864  1.00  0.00     0.124 S 
ATOM     85  O   UNL A   1      40.365  22.998  28.103  1.00  0.00    -0.237 OA
ATOM     86  O   UNL A   1      38.820  23.523  26.245  1.00  0.00    -0.237 OA
ATOM     87  O   UNL A   1      41.253  23.757  25.932  1.00  0.00    -0.744 OA
ENDBRANCH  83  84
ENDBRANCH  55  78
BRANCH  67  88
ATOM     88  C   UNL A   1      43.552  33.134  30.131  1.00  0.00    -0.014 A 
ATOM     89  C   UNL A   1      44.688  33.170  29.299  1.00  0.00     0.010 A 
ATOM     90  C   UNL A   1      42.472  33.981  29.825  1.00  0.00     0.010 A 
ATOM     91  C   UNL A   1      44.757  34.067  28.221  1.00  0.00     0.020 A 
ATOM     92  C   UNL A   1      42.525  34.859  28.743  1.00  0.00     0.020 A 
ATOM     93  C   UNL A   1      43.674  34.912  27.956  1.00  0.00     0.054 A 
BRANCH  93  94
ATOM     94  S   UNL A   1      43.763  36.075  26.566  1.00  0.00     0.124 S 
ATOM     95  O   UNL A   1      42.443  36.698  26.590  1.00  0.00    -0.237 OA
ATOM     96  O   UNL A   1      44.877  36.943  26.940  1.00  0.00    -0.237 OA
ATOM     97  O   UNL A   1      44.021  35.216  25.410  1.00  0.00    -0.744 OA
ENDBRANCH  93  94
ENDBRANCH  67  88
ENDBRANCH  41  42
ENDBRANCH  34  36
ENDBRANCH  33  34
ENDBRANCH  32  33
ENDBRANCH  31  32
ENDBRANCH  30  31
ENDBRANCH  29  30
ENDBRANCH   1  29
TORSDOF 23
ENDMDL
MODEL 3
REMARK VINA RESULT:      -9.9      2.413      9.131
REMARK SMILES CC[C@@H]1C=CCN1S(=O)(=O)c1sc2c(c1C(=O)OCCOCCOCCOC(=O)c1ccc(-c3c4nc(c(-c5ccc(S(=O)(=O)[O-])cc5)c5ccc([nH]5)c(-c5ccc(S(=O)(=O)[O-])cc5)c5nc(c(-c6ccc(S(=O)(=O)[O-])cc6)c6ccc3[nH]6)C=C5)C=C4)cc1)CC[NH2+]C2
REMARK SMILES IDX 22 1 21 2 20 3 19 4 18 5 16 6 17 7 15 8 11 9 12 10 13 11
REMARK SMILES IDX 14 12 93 13 90 14 92 15 91 16 8 19 9 20 10 21 7 22 3 23 4 24
REMARK SMILES IDX 5 25 6 26 2 27 1 28 23 29 24 30 25 31 26 32 27 33 28 34
REMARK SMILES IDX 29 35 30 36 31 37 89 38 32 39 88 40 33 41 34 42 35 43 82 44
REMARK SMILES IDX 36 45 87 46 81 47 83 48 37 49 86 50 80 51 79 52 38 54 68 55
REMARK SMILES IDX 49 56 67 57 50 58 53 59 66 60 84 61 51 62 52 63 65 65 85 66
REMARK SMILES IDX 54 67 39 68 40 69 48 70 41 71 47 72 42 73 43 74 44 75 45 76
REMARK SMILES IDX 46 77 69 78 70 79 78 80 71 81 77 82 72 83 73 84 74 85 75 86
REMARK SMILES IDX 76 87 55 88 56 89 64 90 57 91 63 92 58 93 59 94 60 95 61 96
REMARK SMILES IDX 62 97
REMARK H PARENT 92 17 92 18 83 53 53 64
REMARK Flexibility Score: inf
ROOT
ATOM      1  C   UNL A   1      33.517  29.019  27.157  1.00  0.00     0.188 C 
ENDROOT
BRANCH   1   2
ATOM      2  O   UNL A   1      32.668  27.957  27.529  1.00  0.00    -0.376 OA
BRANCH   2   3
ATOM      3  C   UNL A   1      32.357  26.930  26.603  1.00  0.00     0.202 C 
BRANCH   3   4
ATOM      4  C   UNL A   1      32.231  25.438  26.980  1.00  0.00     0.261 C 
BRANCH   4   5
ATOM      5  O   UNL A   1      31.061  24.753  26.511  1.00  0.00    -0.460 OA
BRANCH   5   6
ATOM      6  C   UNL A   1      31.262  23.554  25.893  1.00  0.00     0.340 C 
ATOM      7  O   UNL A   1      30.513  22.606  25.985  1.00  0.00    -0.246 OA
BRANCH   6   8
ATOM      8  C   UNL A   1      32.375  23.559  24.930  1.00  0.00     0.095 A 
ATOM      9  C   UNL A   1      32.412  24.216  23.697  1.00  0.00     0.150 A 
ATOM     10  S   UNL A   1      34.013  24.200  23.061  1.00  0.00    -0.120 S 
ATOM     11  C   UNL A   1      34.598  23.181  24.255  1.00  0.00     0.064 A 
ATOM     12  C   UNL A   1      33.630  22.852  25.177  1.00  0.00    -0.007 A 
ATOM     13  C   UNL A   1      36.030  22.745  24.297  1.00  0.00     0.308 C 
ATOM     14  C   UNL A   1      33.960  21.850  26.253  1.00  0.00     0.099 C 
ATOM     15  N   UNL A   1      36.191  21.528  25.107  1.00  0.00    -0.342 N 
ATOM     16  C   UNL A   1      35.489  21.663  26.399  1.00  0.00     0.265 C 
ATOM     17  H   UNL A   1      35.806  20.733  24.598  1.00  0.00     0.346 HD
ATOM     18  H   UNL A   1      37.185  21.386  25.288  1.00  0.00     0.346 HD
BRANCH   9  19
ATOM     19  S   UNL A   1      31.262  25.216  22.733  1.00  0.00     0.254 S 
ATOM     20  O   UNL A   1      30.006  24.496  22.819  1.00  0.00    -0.206 OA
ATOM     21  O   UNL A   1      31.890  25.401  21.444  1.00  0.00    -0.206 OA
BRANCH  19  22
ATOM     22  N   UNL A   1      31.018  26.772  23.428  1.00  0.00    -0.186 NA
ATOM     23  C   UNL A   1      31.433  27.913  22.539  1.00  0.00     0.096 C 
ATOM     24  C   UNL A   1      30.228  28.808  22.526  1.00  0.00    -0.010 C 
ATOM     25  C   UNL A   1      29.277  28.365  23.345  1.00  0.00    -0.013 C 
ATOM     26  C   UNL A   1      29.649  27.059  23.938  1.00  0.00     0.130 C 
BRANCH  23  27
ATOM     27  C   UNL A   1      32.592  28.729  23.129  1.00  0.00     0.021 C 
ATOM     28  C   UNL A   1      33.841  27.936  23.452  1.00  0.00     0.006 C 
ENDBRANCH  23  27
ENDBRANCH  19  22
ENDBRANCH   9  19
ENDBRANCH   6   8
ENDBRANCH   5   6
ENDBRANCH   4   5
ENDBRANCH   3   4
ENDBRANCH   2   3
ENDBRANCH   1   2
BRANCH   1  29
ATOM     29  C   UNL A   1      32.927  30.338  26.615  1.00  0.00     0.188 C 
BRANCH  29  30
ATOM     30  O   UNL A   1      32.935  31.498  27.413  1.00  0.00    -0.376 OA
BRANCH  30  31
ATOM     31  C   UNL A   1      34.099  32.166  27.865  1.00  0.00     0.202 C 
BRANCH  31  32
ATOM     32  C   UNL A   1      34.174  33.159  29.017  1.00  0.00     0.261 C 
BRANCH  32  33
ATOM     33  O   UNL A   1      34.371  32.601  30.291  1.00  0.00    -0.460 OA
BRANCH  33  34
ATOM     34  C   UNL A   1      34.745  33.516  31.207  1.00  0.00     0.338 C 
ATOM     35  O   UNL A   1      34.268  34.622  31.390  1.00  0.00    -0.246 OA
BRANCH  34  36
ATOM     36  C   UNL A   1      35.911  32.995  31.914  1.00  0.00     0.060 A 
ATOM     37  C   UNL A   1      37.088  33.730  31.772  1.00  0.00     0.016 A 
ATOM     38  C   UNL A   1      35.888  31.636  32.249  1.00  0.00     0.016 A 
ATOM     39  C   UNL A   1      38.259  33.025  31.669  1.00  0.00     0.010 A 
ATOM     40  C   UNL A   1      37.047  30.932  32.091  1.00  0.00     0.010 A 
ATOM     41  C   UNL A   1      38.192  31.630  31.709  1.00  0.00    -0.014 A 
BRANCH  41  42
ATOM     42  C   UNL A   1      39.399  30.880  31.473  1.00  0.00     0.031 A 
ATOM     43  C   UNL A   1      40.140  30.682  32.730  1.00  0.00     0.074 A 
ATOM     44  C   UNL A   1      39.690  30.340  30.277  1.00  0.00     0.049 A 
ATOM     45  N   UNL A   1      41.171  31.345  33.139  1.00  0.00    -0.248 NA
ATOM     46  C   UNL A   1      39.492  29.867  33.777  1.00  0.00     0.031 C 
ATOM     47  C   UNL A   1      38.841  30.276  29.083  1.00  0.00     0.029 A 
ATOM     48  N   UNL A   1      40.775  29.611  29.916  1.00  0.00    -0.354 N 
ATOM     49  C   UNL A   1      41.468  30.783  34.372  1.00  0.00     0.074 A 
ATOM     50  C   UNL A   1      40.251  30.167  34.830  1.00  0.00     0.031 C 
ATOM     51  C   UNL A   1      39.337  29.343  28.238  1.00  0.00     0.029 A 
ATOM     52  C   UNL A   1      40.589  28.833  28.778  1.00  0.00     0.049 A 
ATOM     53  H   UNL A   1      41.622  29.629  30.416  1.00  0.00     0.167 HD
ATOM     54  C   UNL A   1      42.756  30.480  34.695  1.00  0.00     0.031 A 
ATOM     55  C   UNL A   1      41.366  27.790  28.380  1.00  0.00     0.031 A 
ATOM     56  C   UNL A   1      43.689  31.176  33.840  1.00  0.00     0.049 A 
ATOM     57  C   UNL A   1      42.662  27.912  29.095  1.00  0.00     0.074 A 
ATOM     58  C   UNL A   1      43.900  32.497  33.491  1.00  0.00     0.029 A 
ATOM     59  N   UNL A   1      44.319  30.422  32.876  1.00  0.00    -0.354 N 
ATOM     60  N   UNL A   1      43.513  28.875  28.875  1.00  0.00    -0.248 NA
ATOM     61  C   UNL A   1      42.801  27.247  30.384  1.00  0.00     0.031 C 
ATOM     62  C   UNL A   1      44.270  32.468  32.115  1.00  0.00     0.029 A 
ATOM     63  C   UNL A   1      44.344  31.135  31.708  1.00  0.00     0.049 A 
ATOM     64  H   UNL A   1      44.689  29.519  33.005  1.00  0.00     0.167 HD
ATOM     65  C   UNL A   1      43.973  29.237  30.134  1.00  0.00     0.074 A 
ATOM     66  C   UNL A   1      43.583  28.132  31.010  1.00  0.00     0.031 C 
ATOM     67  C   UNL A   1      44.355  30.524  30.395  1.00  0.00     0.031 A 
BRANCH  54  68
ATOM     68  C   UNL A   1      43.126  29.188  35.397  1.00  0.00    -0.014 A 
ATOM     69  C   UNL A   1      43.987  29.259  36.508  1.00  0.00     0.010 A 
ATOM     70  C   UNL A   1      42.910  27.905  34.845  1.00  0.00     0.010 A 
ATOM     71  C   UNL A   1      44.672  28.127  36.968  1.00  0.00     0.020 A 
ATOM     72  C   UNL A   1      43.547  26.764  35.324  1.00  0.00     0.020 A 
ATOM     73  C   UNL A   1      44.455  26.890  36.361  1.00  0.00     0.054 A 
BRANCH  73  74
ATOM     74  S   UNL A   1      45.406  25.452  36.897  1.00  0.00     0.124 S 
ATOM     75  O   UNL A   1      46.438  26.072  37.722  1.00  0.00    -0.237 OA
ATOM     76  O   UNL A   1      44.400  24.673  37.612  1.00  0.00    -0.237 OA
ATOM     77  O   UNL A   1      45.871  24.865  35.643  1.00  0.00    -0.744 OA
ENDBRANCH  73  74
ENDBRANCH  54  68
BRANCH  55  78
ATOM     78  C   UNL A   1      40.951  26.532  27.701  1.00  0.00    -0.014 A 
ATOM     79  C   UNL A   1      41.776  25.930  26.728  1.00  0.00     0.010 A 
ATOM     80  C   UNL A   1      39.882  25.766  28.206  1.00  0.00     0.010 A 
ATOM     81  C   UNL A   1      41.581  24.594  26.333  1.00  0.00     0.020 A 
ATOM     82  C   UNL A   1      39.675  24.439  27.811  1.00  0.00     0.020 A 
ATOM     83  C   UNL A   1      40.543  23.848  26.896  1.00  0.00     0.054 A 
BRANCH  83  84
ATOM     84  S   UNL A   1      40.407  22.072  26.533  1.00  0.00     0.124 S 
ATOM     85  O   UNL A   1      41.544  21.847  25.644  1.00  0.00    -0.237 OA
ATOM     86  O   UNL A   1      40.512  21.466  27.858  1.00  0.00    -0.237 OA
ATOM     87  O   UNL A   1      39.094  21.949  25.901  1.00  0.00    -0.744 OA
ENDBRANCH  83  84
ENDBRANCH  55  78
BRANCH  67  88
ATOM     88  C   UNL A   1      44.628  31.441  29.227  1.00  0.00    -0.014 A 
ATOM     89  C   UNL A   1      43.651  32.213  28.570  1.00  0.00     0.010 A 
ATOM     90  C   UNL A   1      45.973  31.604  28.851  1.00  0.00     0.010 A 
ATOM     91  C   UNL A   1      44.009  33.087  27.531  1.00  0.00     0.020 A 
ATOM     92  C   UNL A   1      46.339  32.485  27.834  1.00  0.00     0.020 A 
ATOM     93  C   UNL A   1      45.353  33.210  27.166  1.00  0.00     0.054 A 
BRANCH  93  94
ATOM     94  S   UNL A   1      45.818  34.335  25.820  1.00  0.00     0.124 S 
ATOM     95  O   UNL A   1      45.516  35.647  26.385  1.00  0.00    -0.237 OA
ATOM     96  O   UNL A   1      47.236  34.042  25.628  1.00  0.00    -0.237 OA
ATOM     97  O   UNL A   1      44.955  33.927  24.711  1.00  0.00    -0.744 OA
ENDBRANCH  93  94
ENDBRANCH  67  88
ENDBRANCH  41  42
ENDBRANCH  34  36
ENDBRANCH  33  34
ENDBRANCH  32  33
ENDBRANCH  31  32
ENDBRANCH  30  31
ENDBRANCH  29  30
ENDBRANCH   1  29
TORSDOF 23
ENDMDL
