MODEL 1
REMARK VINA RESULT:     -10.1      0.000      0.000
REMARK SMILES CC(=O)c1c[nH]c(C(=O)N[C@H]2C=C[C@H](C(=O)OCCOCCOCCOC(=O)c3ccc(-c4c5nc(c(-c6ccc(S(=O)(=O)[O-])cc6)c6ccc([nH]6)c(-c6ccc(S(=O)(=O)[O-])cc6)c6nc(c(-c7ccc(S(=O)(=O)[O-])cc7)c7ccc4[nH]7)C=C6)C=C5)cc3)C2)c1
REMARK SMILES IDX 21 1 20 2 19 3 18 4 17 5 15 6 16 7 14 8 11 9 12 10 89 11
REMARK SMILES IDX 13 12 10 13 8 14 9 15 7 17 4 18 5 19 90 20 6 21 2 23 1 24
REMARK SMILES IDX 3 25 22 26 23 27 24 28 25 29 26 30 27 31 28 32 29 33 30 34
REMARK SMILES IDX 88 35 31 36 87 37 32 38 33 39 34 40 81 41 35 42 86 43 80 44
REMARK SMILES IDX 82 45 36 46 85 47 79 48 78 49 37 51 67 52 48 53 66 54 49 55
REMARK SMILES IDX 52 56 65 57 83 58 50 59 51 60 64 62 84 63 53 64 38 65 39 66
REMARK SMILES IDX 47 67 40 68 46 69 41 70 42 71 43 72 44 73 45 74 68 75 69 76
REMARK SMILES IDX 77 77 70 78 76 79 71 80 72 81 73 82 74 83 75 84 54 85 55 86
REMARK SMILES IDX 63 87 56 88 62 89 57 90 58 91 59 92 60 93 61 94
REMARK H PARENT 10 16 6 22 82 50 52 61
REMARK Flexibility Score: inf
ROOT
ATOM      1  C   UNL A   1      33.930  29.812  26.984  1.00  0.00     0.188 C 
ENDROOT
BRANCH   1   2
ATOM      2  O   UNL A   1      33.923  29.206  25.695  1.00  0.00    -0.376 OA
BRANCH   2   3
ATOM      3  C   UNL A   1      32.800  28.455  25.263  1.00  0.00     0.202 C 
BRANCH   3   4
ATOM      4  C   UNL A   1      31.995  28.961  24.055  1.00  0.00     0.261 C 
BRANCH   4   5
ATOM      5  O   UNL A   1      31.672  27.932  23.110  1.00  0.00    -0.463 OA
BRANCH   5   6
ATOM      6  C   UNL A   1      30.372  27.811  22.732  1.00  0.00     0.312 C 
ATOM      7  O   UNL A   1      29.763  28.614  22.033  1.00  0.00    -0.252 OA
BRANCH   6   8
ATOM      8  C   UNL A   1      29.803  26.492  23.249  1.00  0.00     0.124 C 
ATOM      9  C   UNL A   1      30.510  25.502  25.361  1.00  0.00     0.106 C 
ATOM     10  C   UNL A   1      31.091  24.770  24.206  1.00  0.00    -0.006 C 
ATOM     11  C   UNL A   1      29.522  26.499  24.760  1.00  0.00     0.048 C 
ATOM     12  C   UNL A   1      30.737  25.337  23.048  1.00  0.00    -0.014 C 
BRANCH   9  13
ATOM     13  N   UNL A   1      30.018  24.604  26.383  1.00  0.00    -0.345 N 
ATOM     14  C   UNL A   1      30.407  23.405  26.910  1.00  0.00     0.268 C 
ATOM     15  O   UNL A   1      29.595  22.855  27.660  1.00  0.00    -0.268 OA
ATOM     16  H   UNL A   1      29.194  24.941  26.804  1.00  0.00     0.164 HD
BRANCH  14  17
ATOM     17  C   UNL A   1      31.646  22.751  26.564  1.00  0.00     0.105 A 
ATOM     18  C   UNL A   1      33.785  22.075  26.111  1.00  0.00     0.035 A 
ATOM     19  C   UNL A   1      32.907  21.165  25.556  1.00  0.00     0.094 A 
ATOM     20  C   UNL A   1      32.978  23.013  26.822  1.00  0.00     0.045 A 
ATOM     21  N   UNL A   1      31.633  21.551  25.880  1.00  0.00    -0.356 N 
ATOM     22  H   UNL A   1      30.821  21.041  25.656  1.00  0.00     0.166 HD
BRANCH  18  23
ATOM     23  C   UNL A   1      35.242  22.093  25.991  1.00  0.00     0.161 C 
ATOM     24  C   UNL A   1      35.932  20.897  25.386  1.00  0.00     0.093 C 
ATOM     25  O   UNL A   1      35.885  23.098  26.295  1.00  0.00    -0.294 OA
ENDBRANCH  18  23
ENDBRANCH  14  17
ENDBRANCH   9  13
ENDBRANCH   6   8
ENDBRANCH   5   6
ENDBRANCH   4   5
ENDBRANCH   3   4
ENDBRANCH   2   3
ENDBRANCH   1   2
BRANCH   1  26
ATOM     26  C   UNL A   1      33.186  31.136  27.289  1.00  0.00     0.188 C 
BRANCH  26  27
ATOM     27  O   UNL A   1      33.987  32.183  27.816  1.00  0.00    -0.376 OA
BRANCH  27  28
ATOM     28  C   UNL A   1      35.344  31.846  28.085  1.00  0.00     0.202 C 
BRANCH  28  29
ATOM     29  C   UNL A   1      35.677  31.733  29.580  1.00  0.00     0.261 C 
BRANCH  29  30
ATOM     30  O   UNL A   1      36.961  31.182  29.871  1.00  0.00    -0.460 OA
BRANCH  30  31
ATOM     31  C   UNL A   1      36.880  29.953  30.410  1.00  0.00     0.338 C 
ATOM     32  O   UNL A   1      36.124  29.564  31.286  1.00  0.00    -0.246 OA
BRANCH  31  33
ATOM     33  C   UNL A   1      37.902  29.079  29.872  1.00  0.00     0.060 A 
ATOM     34  C   UNL A   1      38.506  28.207  30.782  1.00  0.00     0.016 A 
ATOM     35  C   UNL A   1      38.529  29.539  28.715  1.00  0.00     0.016 A 
ATOM     36  C   UNL A   1      39.846  27.933  30.628  1.00  0.00     0.010 A 
ATOM     37  C   UNL A   1      39.877  29.294  28.581  1.00  0.00     0.010 A 
ATOM     38  C   UNL A   1      40.532  28.540  29.569  1.00  0.00    -0.014 A 
BRANCH  38  39
ATOM     39  C   UNL A   1      41.953  28.243  29.390  1.00  0.00     0.031 A 
ATOM     40  C   UNL A   1      42.811  29.367  29.967  1.00  0.00     0.074 A 
ATOM     41  C   UNL A   1      42.258  27.056  28.782  1.00  0.00     0.049 A 
ATOM     42  N   UNL A   1      44.083  29.557  29.857  1.00  0.00    -0.248 NA
ATOM     43  C   UNL A   1      42.169  30.467  30.749  1.00  0.00     0.031 C 
ATOM     44  C   UNL A   1      41.264  26.096  28.241  1.00  0.00     0.029 A 
ATOM     45  N   UNL A   1      43.442  26.410  28.496  1.00  0.00    -0.354 N 
ATOM     46  C   UNL A   1      44.418  30.639  30.693  1.00  0.00     0.074 A 
ATOM     47  C   UNL A   1      43.194  31.220  31.144  1.00  0.00     0.031 C 
ATOM     48  C   UNL A   1      41.878  25.051  27.640  1.00  0.00     0.029 A 
ATOM     49  C   UNL A   1      43.314  25.190  27.782  1.00  0.00     0.049 A 
ATOM     50  H   UNL A   1      44.317  26.770  28.769  1.00  0.00     0.167 HD
ATOM     51  C   UNL A   1      45.698  30.910  31.064  1.00  0.00     0.031 A 
ATOM     52  C   UNL A   1      44.297  24.353  27.329  1.00  0.00     0.031 A 
ATOM     53  C   UNL A   1      46.598  30.038  30.391  1.00  0.00     0.049 A 
ATOM     54  C   UNL A   1      45.542  24.808  27.967  1.00  0.00     0.074 A 
ATOM     55  C   UNL A   1      46.991  29.974  29.080  1.00  0.00     0.029 A 
ATOM     56  N   UNL A   1      46.888  28.849  31.018  1.00  0.00    -0.354 N 
ATOM     57  N   UNL A   1      45.824  24.662  29.226  1.00  0.00    -0.248 NA
ATOM     58  C   UNL A   1      46.545  25.510  27.158  1.00  0.00     0.031 C 
ATOM     59  C   UNL A   1      47.083  28.591  28.835  1.00  0.00     0.029 A 
ATOM     60  C   UNL A   1      46.943  27.888  30.039  1.00  0.00     0.049 A 
ATOM     61  H   UNL A   1      47.030  28.713  31.982  1.00  0.00     0.167 HD
ATOM     62  C   UNL A   1      46.808  25.598  29.413  1.00  0.00     0.074 A 
ATOM     63  C   UNL A   1      47.416  25.816  28.117  1.00  0.00     0.031 C 
ATOM     64  C   UNL A   1      46.661  26.519  30.402  1.00  0.00     0.031 A 
BRANCH  51  65
ATOM     65  C   UNL A   1      46.240  31.766  32.164  1.00  0.00    -0.014 A 
ATOM     66  C   UNL A   1      47.212  32.726  31.798  1.00  0.00     0.010 A 
ATOM     67  C   UNL A   1      46.104  31.449  33.524  1.00  0.00     0.010 A 
ATOM     68  C   UNL A   1      48.116  33.236  32.726  1.00  0.00     0.020 A 
ATOM     69  C   UNL A   1      46.987  31.993  34.471  1.00  0.00     0.020 A 
ATOM     70  C   UNL A   1      48.020  32.835  34.054  1.00  0.00     0.054 A 
BRANCH  70  71
ATOM     71  S   UNL A   1      49.323  33.362  35.197  1.00  0.00     0.124 S 
ATOM     72  O   UNL A   1      48.550  33.916  36.305  1.00  0.00    -0.237 OA
ATOM     73  O   UNL A   1      50.017  32.109  35.483  1.00  0.00    -0.237 OA
ATOM     74  O   UNL A   1      50.092  34.329  34.418  1.00  0.00    -0.744 OA
ENDBRANCH  70  71
ENDBRANCH  51  65
BRANCH  52  75
ATOM     75  C   UNL A   1      44.453  23.195  26.369  1.00  0.00    -0.014 A 
ATOM     76  C   UNL A   1      45.601  22.879  25.634  1.00  0.00     0.010 A 
ATOM     77  C   UNL A   1      43.413  22.219  26.339  1.00  0.00     0.010 A 
ATOM     78  C   UNL A   1      45.759  21.600  25.047  1.00  0.00     0.020 A 
ATOM     79  C   UNL A   1      43.579  20.934  25.819  1.00  0.00     0.020 A 
ATOM     80  C   UNL A   1      44.772  20.617  25.199  1.00  0.00     0.054 A 
BRANCH  80  81
ATOM     81  S   UNL A   1      45.091  18.887  24.745  1.00  0.00     0.124 S 
ATOM     82  O   UNL A   1      43.994  18.183  25.401  1.00  0.00    -0.237 OA
ATOM     83  O   UNL A   1      45.037  18.920  23.285  1.00  0.00    -0.237 OA
ATOM     84  O   UNL A   1      46.420  18.631  25.299  1.00  0.00    -0.744 OA
ENDBRANCH  80  81
ENDBRANCH  52  75
BRANCH  64  85
ATOM     85  C   UNL A   1      45.831  26.066  31.596  1.00  0.00    -0.014 A 
ATOM     86  C   UNL A   1      44.557  26.630  31.808  1.00  0.00     0.010 A 
ATOM     87  C   UNL A   1      46.300  25.159  32.567  1.00  0.00     0.010 A 
ATOM     88  C   UNL A   1      43.786  26.307  32.934  1.00  0.00     0.020 A 
ATOM     89  C   UNL A   1      45.534  24.826  33.702  1.00  0.00     0.020 A 
ATOM     90  C   UNL A   1      44.276  25.403  33.876  1.00  0.00     0.054 A 
BRANCH  90  91
ATOM     91  S   UNL A   1      43.248  25.008  35.324  1.00  0.00     0.124 S 
ATOM     92  O   UNL A   1      43.381  23.557  35.431  1.00  0.00    -0.237 OA
ATOM     93  O   UNL A   1      43.895  25.773  36.387  1.00  0.00    -0.237 OA
ATOM     94  O   UNL A   1      41.915  25.476  34.947  1.00  0.00    -0.744 OA
ENDBRANCH  90  91
ENDBRANCH  64  85
ENDBRANCH  38  39
ENDBRANCH  31  33
ENDBRANCH  30  31
ENDBRANCH  29  30
ENDBRANCH  28  29
ENDBRANCH  27  28
ENDBRANCH  26  27
ENDBRANCH   1  26
TORSDOF 23
ENDMDL
MODEL 2
REMARK VINA RESULT:     -10.1      4.505     10.171
REMARK SMILES CC(=O)c1c[nH]c(C(=O)N[C@H]2C=C[C@H](C(=O)OCCOCCOCCOC(=O)c3ccc(-c4c5nc(c(-c6ccc(S(=O)(=O)[O-])cc6)c6ccc([nH]6)c(-c6ccc(S(=O)(=O)[O-])cc6)c6nc(c(-c7ccc(S(=O)(=O)[O-])cc7)c7ccc4[nH]7)C=C6)C=C5)cc3)C2)c1
REMARK SMILES IDX 21 1 20 2 19 3 18 4 17 5 15 6 16 7 14 8 11 9 12 10 89 11
REMARK SMILES IDX 13 12 10 13 8 14 9 15 7 17 4 18 5 19 90 20 6 21 2 23 1 24
REMARK SMILES IDX 3 25 22 26 23 27 24 28 25 29 26 30 27 31 28 32 29 33 30 34
REMARK SMILES IDX 88 35 31 36 87 37 32 38 33 39 34 40 81 41 35 42 86 43 80 44
REMARK SMILES IDX 82 45 36 46 85 47 79 48 78 49 37 51 67 52 48 53 66 54 49 55
REMARK SMILES IDX 52 56 65 57 83 58 50 59 51 60 64 62 84 63 53 64 38 65 39 66
REMARK SMILES IDX 47 67 40 68 46 69 41 70 42 71 43 72 44 73 45 74 68 75 69 76
REMARK SMILES IDX 77 77 70 78 76 79 71 80 72 81 73 82 74 83 75 84 54 85 55 86
REMARK SMILES IDX 63 87 56 88 62 89 57 90 58 91 59 92 60 93 61 94
REMARK H PARENT 10 16 6 22 82 50 52 61
REMARK Flexibility Score: inf
ROOT
ATOM      1  C   UNL A   1      34.578  32.882  27.990  1.00  0.00     0.188 C 
ENDROOT
BRANCH   1   2
ATOM      2  O   UNL A   1      33.597  31.854  28.091  1.00  0.00    -0.376 OA
BRANCH   2   3
ATOM      3  C   UNL A   1      33.718  30.671  27.319  1.00  0.00     0.202 C 
BRANCH   3   4
ATOM      4  C   UNL A   1      32.631  30.355  26.278  1.00  0.00     0.261 C 
BRANCH   4   5
ATOM      5  O   UNL A   1      32.912  29.189  25.493  1.00  0.00    -0.463 OA
BRANCH   5   6
ATOM      6  C   UNL A   1      32.083  28.921  24.448  1.00  0.00     0.312 C 
ATOM      7  O   UNL A   1      32.273  29.275  23.290  1.00  0.00    -0.252 OA
BRANCH   6   8
ATOM      8  C   UNL A   1      30.919  28.054  24.920  1.00  0.00     0.124 C 
ATOM      9  C   UNL A   1      31.215  25.739  25.627  1.00  0.00     0.106 C 
ATOM     10  C   UNL A   1      30.584  25.813  24.283  1.00  0.00    -0.006 C 
ATOM     11  C   UNL A   1      31.263  27.178  26.136  1.00  0.00     0.048 C 
ATOM     12  C   UNL A   1      30.458  27.080  23.877  1.00  0.00    -0.014 C 
BRANCH   9  13
ATOM     13  N   UNL A   1      30.583  24.751  26.472  1.00  0.00    -0.345 N 
ATOM     14  C   UNL A   1      30.927  23.533  26.989  1.00  0.00     0.268 C 
ATOM     15  O   UNL A   1      30.017  22.897  27.527  1.00  0.00    -0.268 OA
ATOM     16  H   UNL A   1      29.676  25.022  26.742  1.00  0.00     0.164 HD
BRANCH  14  17
ATOM     17  C   UNL A   1      32.243  22.957  26.853  1.00  0.00     0.105 A 
ATOM     18  C   UNL A   1      34.307  22.174  26.246  1.00  0.00     0.035 A 
ATOM     19  C   UNL A   1      33.947  21.590  27.445  1.00  0.00     0.094 A 
ATOM     20  C   UNL A   1      33.268  23.103  25.937  1.00  0.00     0.045 A 
ATOM     21  N   UNL A   1      32.737  22.107  27.824  1.00  0.00    -0.356 N 
ATOM     22  H   UNL A   1      32.282  21.901  28.673  1.00  0.00     0.166 HD
BRANCH  18  23
ATOM     23  C   UNL A   1      35.497  21.897  25.443  1.00  0.00     0.161 C 
ATOM     24  C   UNL A   1      35.509  22.327  23.998  1.00  0.00     0.093 C 
ATOM     25  O   UNL A   1      36.501  21.404  25.957  1.00  0.00    -0.294 OA
ENDBRANCH  18  23
ENDBRANCH  14  17
ENDBRANCH   9  13
ENDBRANCH   6   8
ENDBRANCH   5   6
ENDBRANCH   4   5
ENDBRANCH   3   4
ENDBRANCH   2   3
ENDBRANCH   1   2
BRANCH   1  26
ATOM     26  C   UNL A   1      34.213  34.387  27.997  1.00  0.00     0.188 C 
BRANCH  26  27
ATOM     27  O   UNL A   1      33.052  34.734  28.738  1.00  0.00    -0.376 OA
BRANCH  27  28
ATOM     28  C   UNL A   1      32.970  36.093  29.155  1.00  0.00     0.202 C 
BRANCH  28  29
ATOM     29  C   UNL A   1      32.594  36.272  30.633  1.00  0.00     0.261 C 
BRANCH  29  30
ATOM     30  O   UNL A   1      32.660  35.082  31.420  1.00  0.00    -0.460 OA
BRANCH  30  31
ATOM     31  C   UNL A   1      33.654  35.121  32.323  1.00  0.00     0.338 C 
ATOM     32  O   UNL A   1      33.828  35.935  33.216  1.00  0.00    -0.246 OA
BRANCH  31  33
ATOM     33  C   UNL A   1      34.623  34.072  32.079  1.00  0.00     0.060 A 
ATOM     34  C   UNL A   1      34.705  33.072  33.052  1.00  0.00     0.016 A 
ATOM     35  C   UNL A   1      35.686  34.426  31.248  1.00  0.00     0.016 A 
ATOM     36  C   UNL A   1      35.942  32.537  33.331  1.00  0.00     0.010 A 
ATOM     37  C   UNL A   1      36.928  33.916  31.551  1.00  0.00     0.010 A 
ATOM     38  C   UNL A   1      37.050  33.020  32.626  1.00  0.00    -0.014 A 
BRANCH  38  39
ATOM     39  C   UNL A   1      38.366  32.446  32.906  1.00  0.00     0.031 A 
ATOM     40  C   UNL A   1      38.613  31.220  32.028  1.00  0.00     0.074 A 
ATOM     41  C   UNL A   1      39.126  33.085  33.846  1.00  0.00     0.049 A 
ATOM     42  N   UNL A   1      39.566  30.352  32.093  1.00  0.00    -0.248 NA
ATOM     43  C   UNL A   1      37.645  30.875  30.943  1.00  0.00     0.031 C 
ATOM     44  C   UNL A   1      38.687  34.262  34.638  1.00  0.00     0.029 A 
ATOM     45  N   UNL A   1      40.402  32.895  34.330  1.00  0.00    -0.354 N 
ATOM     46  C   UNL A   1      39.439  29.507  30.975  1.00  0.00     0.074 A 
ATOM     47  C   UNL A   1      38.190  29.813  30.353  1.00  0.00     0.031 C 
ATOM     48  C   UNL A   1      39.634  34.623  35.534  1.00  0.00     0.029 A 
ATOM     49  C   UNL A   1      40.796  33.769  35.377  1.00  0.00     0.049 A 
ATOM     50  H   UNL A   1      41.001  32.199  33.974  1.00  0.00     0.167 HD
ATOM     51  C   UNL A   1      40.441  28.688  30.557  1.00  0.00     0.031 A 
ATOM     52  C   UNL A   1      41.972  33.800  36.074  1.00  0.00     0.031 A 
ATOM     53  C   UNL A   1      41.528  28.737  31.473  1.00  0.00     0.049 A 
ATOM     54  C   UNL A   1      42.897  32.917  35.345  1.00  0.00     0.074 A 
ATOM     55  C   UNL A   1      41.664  28.253  32.748  1.00  0.00     0.029 A 
ATOM     56  N   UNL A   1      42.490  29.691  31.238  1.00  0.00    -0.354 N 
ATOM     57  N   UNL A   1      43.427  33.192  34.193  1.00  0.00    -0.248 NA
ATOM     58  C   UNL A   1      43.241  31.611  35.919  1.00  0.00     0.031 C 
ATOM     59  C   UNL A   1      42.407  29.255  33.399  1.00  0.00     0.029 A 
ATOM     60  C   UNL A   1      42.858  30.193  32.462  1.00  0.00     0.049 A 
ATOM     61  H   UNL A   1      42.846  29.961  30.362  1.00  0.00     0.167 HD
ATOM     62  C   UNL A   1      43.809  31.954  33.746  1.00  0.00     0.074 A 
ATOM     63  C   UNL A   1      43.983  31.130  34.924  1.00  0.00     0.031 C 
ATOM     64  C   UNL A   1      43.385  31.536  32.524  1.00  0.00     0.031 A 
BRANCH  51  65
ATOM     65  C   UNL A   1      40.650  27.978  29.258  1.00  0.00    -0.014 A 
ATOM     66  C   UNL A   1      41.691  27.020  29.220  1.00  0.00     0.010 A 
ATOM     67  C   UNL A   1      40.131  28.436  28.037  1.00  0.00     0.010 A 
ATOM     68  C   UNL A   1      42.294  26.647  28.022  1.00  0.00     0.020 A 
ATOM     69  C   UNL A   1      40.708  28.031  26.823  1.00  0.00     0.020 A 
ATOM     70  C   UNL A   1      41.822  27.187  26.831  1.00  0.00     0.054 A 
BRANCH  70  71
ATOM     71  S   UNL A   1      42.746  26.836  25.314  1.00  0.00     0.124 S 
ATOM     72  O   UNL A   1      44.098  26.628  25.822  1.00  0.00    -0.237 OA
ATOM     73  O   UNL A   1      42.076  25.640  24.806  1.00  0.00    -0.237 OA
ATOM     74  O   UNL A   1      42.551  28.039  24.508  1.00  0.00    -0.744 OA
ENDBRANCH  70  71
ENDBRANCH  51  65
BRANCH  52  75
ATOM     75  C   UNL A   1      42.529  34.410  37.340  1.00  0.00    -0.014 A 
ATOM     76  C   UNL A   1      43.619  35.284  37.426  1.00  0.00     0.010 A 
ATOM     77  C   UNL A   1      41.776  34.244  38.539  1.00  0.00     0.010 A 
ATOM     78  C   UNL A   1      43.836  36.061  38.591  1.00  0.00     0.020 A 
ATOM     79  C   UNL A   1      41.940  35.047  39.669  1.00  0.00     0.020 A 
ATOM     80  C   UNL A   1      42.957  35.982  39.678  1.00  0.00     0.054 A 
BRANCH  80  81
ATOM     81  S   UNL A   1      43.022  37.193  41.030  1.00  0.00     0.124 S 
ATOM     82  O   UNL A   1      43.817  36.497  42.037  1.00  0.00    -0.237 OA
ATOM     83  O   UNL A   1      43.666  38.345  40.402  1.00  0.00    -0.237 OA
ATOM     84  O   UNL A   1      41.615  37.395  41.372  1.00  0.00    -0.744 OA
ENDBRANCH  80  81
ENDBRANCH  52  75
BRANCH  64  85
ATOM     85  C   UNL A   1      43.126  32.643  31.510  1.00  0.00    -0.014 A 
ATOM     86  C   UNL A   1      41.804  33.062  31.265  1.00  0.00     0.010 A 
ATOM     87  C   UNL A   1      44.141  33.231  30.728  1.00  0.00     0.010 A 
ATOM     88  C   UNL A   1      41.504  34.021  30.286  1.00  0.00     0.020 A 
ATOM     89  C   UNL A   1      43.852  34.196  29.743  1.00  0.00     0.020 A 
ATOM     90  C   UNL A   1      42.530  34.587  29.530  1.00  0.00     0.054 A 
BRANCH  90  91
ATOM     91  S   UNL A   1      42.104  35.827  28.270  1.00  0.00     0.124 S 
ATOM     92  O   UNL A   1      42.485  37.085  28.909  1.00  0.00    -0.237 OA
ATOM     93  O   UNL A   1      42.936  35.426  27.139  1.00  0.00    -0.237 OA
ATOM     94  O   UNL A   1      40.666  35.650  28.075  1.00  0.00    -0.744 OA
ENDBRANCH  90  91
ENDBRANCH  64  85
ENDBRANCH  38  39
ENDBRANCH  31  33
ENDBRANCH  30  31
ENDBRANCH  29  30
ENDBRANCH  28  29
ENDBRANCH  27  28
ENDBRANCH  26  27
ENDBRANCH   1  26
TORSDOF 23
ENDMDL
MODEL 3
REMARK VINA RESULT:     -10.0      2.011      2.651
REMARK SMILES CC(=O)c1c[nH]c(C(=O)N[C@H]2C=C[C@H](C(=O)OCCOCCOCCOC(=O)c3ccc(-c4c5nc(c(-c6ccc(S(=O)(=O)[O-])cc6)c6ccc([nH]6)c(-c6ccc(S(=O)(=O)[O-])cc6)c6nc(c(-c7ccc(S(=O)(=O)[O-])cc7)c7ccc4[nH]7)C=C6)C=C5)cc3)C2)c1
REMARK SMILES IDX 21 1 20 2 19 3 18 4 17 5 15 6 16 7 14 8 11 9 12 10 89 11
REMARK SMILES IDX 13 12 10 13 8 14 9 15 7 17 4 18 5 19 90 20 6 21 2 23 1 24
REMARK SMILES IDX 3 25 22 26 23 27 24 28 25 29 26 30 27 31 28 32 29 33 30 34
REMARK SMILES IDX 88 35 31 36 87 37 32 38 33 39 34 40 81 41 35 42 86 43 80 44
REMARK SMILES IDX 82 45 36 46 85 47 79 48 78 49 37 51 67 52 48 53 66 54 49 55
REMARK SMILES IDX 52 56 65 57 83 58 50 59 51 60 64 62 84 63 53 64 38 65 39 66
REMARK SMILES IDX 47 67 40 68 46 69 41 70 42 71 43 72 44 73 45 74 68 75 69 76
REMARK SMILES IDX 77 77 70 78 76 79 71 80 72 81 73 82 74 83 75 84 54 85 55 86
REMARK SMILES IDX 63 87 56 88 62 89 57 90 58 91 59 92 60 93 61 94
REMARK H PARENT 10 16 6 22 82 50 52 61
REMARK Flexibility Score: inf
ROOT
ATOM      1  C   UNL A   1      34.486  30.880  27.467  1.00  0.00     0.188 C 
ENDROOT
BRANCH   1   2
ATOM      2  O   UNL A   1      33.168  30.600  27.005  1.00  0.00    -0.376 OA
BRANCH   2   3
ATOM      3  C   UNL A   1      32.748  29.260  26.809  1.00  0.00     0.202 C 
BRANCH   3   4
ATOM      4  C   UNL A   1      33.050  28.582  25.463  1.00  0.00     0.261 C 
BRANCH   4   5
ATOM      5  O   UNL A   1      32.475  27.275  25.337  1.00  0.00    -0.463 OA
BRANCH   5   6
ATOM      6  C   UNL A   1      31.207  27.191  24.853  1.00  0.00     0.312 C 
ATOM      7  O   UNL A   1      30.614  28.091  24.268  1.00  0.00    -0.252 OA
BRANCH   6   8
ATOM      8  C   UNL A   1      30.657  25.785  25.084  1.00  0.00     0.124 C 
ATOM      9  C   UNL A   1      31.921  23.778  24.519  1.00  0.00     0.106 C 
ATOM     10  C   UNL A   1      30.830  24.018  23.538  1.00  0.00    -0.006 C 
ATOM     11  C   UNL A   1      31.704  24.802  25.631  1.00  0.00     0.048 C 
ATOM     12  C   UNL A   1      30.162  25.140  23.823  1.00  0.00    -0.014 C 
BRANCH   9  13
ATOM     13  N   UNL A   1      32.015  22.386  24.899  1.00  0.00    -0.345 N 
ATOM     14  C   UNL A   1      33.020  21.472  25.048  1.00  0.00     0.268 C 
ATOM     15  O   UNL A   1      32.667  20.301  25.211  1.00  0.00    -0.268 OA
ATOM     16  H   UNL A   1      31.133  21.998  25.101  1.00  0.00     0.164 HD
BRANCH  14  17
ATOM     17  C   UNL A   1      34.419  21.808  24.937  1.00  0.00     0.105 A 
ATOM     18  C   UNL A   1      36.622  22.387  25.173  1.00  0.00     0.035 A 
ATOM     19  C   UNL A   1      36.278  22.488  23.839  1.00  0.00     0.094 A 
ATOM     20  C   UNL A   1      35.469  21.866  25.835  1.00  0.00     0.045 A 
ATOM     21  N   UNL A   1      34.975  22.086  23.704  1.00  0.00    -0.356 N 
ATOM     22  H   UNL A   1      34.500  22.007  22.844  1.00  0.00     0.166 HD
BRANCH  18  23
ATOM     23  C   UNL A   1      37.895  22.748  25.793  1.00  0.00     0.161 C 
ATOM     24  C   UNL A   1      38.010  24.085  26.480  1.00  0.00     0.093 C 
ATOM     25  O   UNL A   1      38.826  21.943  25.831  1.00  0.00    -0.294 OA
ENDBRANCH  18  23
ENDBRANCH  14  17
ENDBRANCH   9  13
ENDBRANCH   6   8
ENDBRANCH   5   6
ENDBRANCH   4   5
ENDBRANCH   3   4
ENDBRANCH   2   3
ENDBRANCH   1   2
BRANCH   1  26
ATOM     26  C   UNL A   1      34.895  32.261  28.039  1.00  0.00     0.188 C 
BRANCH  26  27
ATOM     27  O   UNL A   1      34.315  32.603  29.289  1.00  0.00    -0.376 OA
BRANCH  27  28
ATOM     28  C   UNL A   1      35.231  32.796  30.362  1.00  0.00     0.202 C 
BRANCH  28  29
ATOM     29  C   UNL A   1      35.648  31.499  31.069  1.00  0.00     0.261 C 
BRANCH  29  30
ATOM     30  O   UNL A   1      36.673  30.756  30.409  1.00  0.00    -0.460 OA
BRANCH  30  31
ATOM     31  C   UNL A   1      36.970  29.612  31.050  1.00  0.00     0.338 C 
ATOM     32  O   UNL A   1      36.601  29.252  32.156  1.00  0.00    -0.246 OA
BRANCH  31  33
ATOM     33  C   UNL A   1      37.904  28.812  30.284  1.00  0.00     0.060 A 
ATOM     34  C   UNL A   1      38.879  28.133  31.020  1.00  0.00     0.016 A 
ATOM     35  C   UNL A   1      38.077  29.207  28.958  1.00  0.00     0.016 A 
ATOM     36  C   UNL A   1      40.136  28.009  30.474  1.00  0.00     0.010 A 
ATOM     37  C   UNL A   1      39.344  29.114  28.427  1.00  0.00     0.010 A 
ATOM     38  C   UNL A   1      40.372  28.566  29.212  1.00  0.00    -0.014 A 
BRANCH  38  39
ATOM     39  C   UNL A   1      41.701  28.426  28.618  1.00  0.00     0.031 A 
ATOM     40  C   UNL A   1      42.487  29.729  28.753  1.00  0.00     0.074 A 
ATOM     41  C   UNL A   1      42.008  27.204  28.085  1.00  0.00     0.049 A 
ATOM     42  N   UNL A   1      43.614  30.058  28.216  1.00  0.00    -0.248 NA
ATOM     43  C   UNL A   1      41.932  30.851  29.568  1.00  0.00     0.031 C 
ATOM     44  C   UNL A   1      41.077  26.050  28.010  1.00  0.00     0.029 A 
ATOM     45  N   UNL A   1      43.142  26.674  27.509  1.00  0.00    -0.354 N 
ATOM     46  C   UNL A   1      43.995  31.296  28.768  1.00  0.00     0.074 A 
ATOM     47  C   UNL A   1      42.883  31.783  29.521  1.00  0.00     0.031 C 
ATOM     48  C   UNL A   1      41.650  25.007  27.367  1.00  0.00     0.029 A 
ATOM     49  C   UNL A   1      43.016  25.348  27.020  1.00  0.00     0.049 A 
ATOM     50  H   UNL A   1      43.983  27.183  27.440  1.00  0.00     0.167 HD
ATOM     51  C   UNL A   1      45.261  31.783  28.671  1.00  0.00     0.031 A 
ATOM     52  C   UNL A   1      43.945  24.579  26.374  1.00  0.00     0.031 A 
ATOM     53  C   UNL A   1      46.051  30.933  27.849  1.00  0.00     0.049 A 
ATOM     54  C   UNL A   1      45.227  25.286  26.518  1.00  0.00     0.074 A 
ATOM     55  C   UNL A   1      46.035  30.705  26.498  1.00  0.00     0.029 A 
ATOM     56  N   UNL A   1      46.717  29.909  28.481  1.00  0.00    -0.354 N 
ATOM     57  N   UNL A   1      45.896  25.385  27.626  1.00  0.00    -0.248 NA
ATOM     58  C   UNL A   1      45.803  25.967  25.352  1.00  0.00     0.031 C 
ATOM     59  C   UNL A   1      46.285  29.324  26.398  1.00  0.00     0.029 A 
ATOM     60  C   UNL A   1      46.637  28.816  27.655  1.00  0.00     0.049 A 
ATOM     61  H   UNL A   1      47.164  29.952  29.356  1.00  0.00     0.167 HD
ATOM     62  C   UNL A   1      46.715  26.456  27.375  1.00  0.00     0.074 A 
ATOM     63  C   UNL A   1      46.857  26.534  25.936  1.00  0.00     0.031 C 
ATOM     64  C   UNL A   1      46.717  27.500  28.245  1.00  0.00     0.031 A 
BRANCH  51  65
ATOM     65  C   UNL A   1      45.954  32.869  29.431  1.00  0.00    -0.014 A 
ATOM     66  C   UNL A   1      46.080  32.682  30.827  1.00  0.00     0.010 A 
ATOM     67  C   UNL A   1      46.162  34.157  28.916  1.00  0.00     0.010 A 
ATOM     68  C   UNL A   1      46.255  33.758  31.693  1.00  0.00     0.020 A 
ATOM     69  C   UNL A   1      46.380  35.241  29.782  1.00  0.00     0.020 A 
ATOM     70  C   UNL A   1      46.366  35.039  31.164  1.00  0.00     0.054 A 
BRANCH  70  71
ATOM     71  S   UNL A   1      46.398  36.435  32.317  1.00  0.00     0.124 S 
ATOM     72  O   UNL A   1      47.066  37.467  31.529  1.00  0.00    -0.237 OA
ATOM     73  O   UNL A   1      44.978  36.665  32.574  1.00  0.00    -0.237 OA
ATOM     74  O   UNL A   1      47.155  35.922  33.456  1.00  0.00    -0.744 OA
ENDBRANCH  70  71
ENDBRANCH  51  65
BRANCH  52  75
ATOM     75  C   UNL A   1      44.000  23.308  25.555  1.00  0.00    -0.014 A 
ATOM     76  C   UNL A   1      44.745  23.110  24.387  1.00  0.00     0.010 A 
ATOM     77  C   UNL A   1      43.396  22.141  26.108  1.00  0.00     0.010 A 
ATOM     78  C   UNL A   1      45.002  21.803  23.903  1.00  0.00     0.020 A 
ATOM     79  C   UNL A   1      43.691  20.846  25.680  1.00  0.00     0.020 A 
ATOM     80  C   UNL A   1      44.524  20.680  24.591  1.00  0.00     0.054 A 
BRANCH  80  81
ATOM     81  S   UNL A   1      45.110  19.009  24.182  1.00  0.00     0.124 S 
ATOM     82  O   UNL A   1      44.898  18.946  22.739  1.00  0.00    -0.237 OA
ATOM     83  O   UNL A   1      46.506  19.040  24.615  1.00  0.00    -0.237 OA
ATOM     84  O   UNL A   1      44.245  18.142  24.980  1.00  0.00    -0.744 OA
ENDBRANCH  80  81
ENDBRANCH  52  75
BRANCH  64  85
ATOM     85  C   UNL A   1      46.377  27.148  29.687  1.00  0.00    -0.014 A 
ATOM     86  C   UNL A   1      45.103  27.467  30.195  1.00  0.00     0.010 A 
ATOM     87  C   UNL A   1      47.304  26.584  30.587  1.00  0.00     0.010 A 
ATOM     88  C   UNL A   1      44.766  27.237  31.538  1.00  0.00     0.020 A 
ATOM     89  C   UNL A   1      46.977  26.346  31.936  1.00  0.00     0.020 A 
ATOM     90  C   UNL A   1      45.704  26.674  32.403  1.00  0.00     0.054 A 
BRANCH  90  91
ATOM     91  S   UNL A   1      45.231  26.389  34.136  1.00  0.00     0.124 S 
ATOM     92  O   UNL A   1      45.155  27.744  34.679  1.00  0.00    -0.237 OA
ATOM     93  O   UNL A   1      43.951  25.698  34.005  1.00  0.00    -0.237 OA
ATOM     94  O   UNL A   1      46.323  25.575  34.669  1.00  0.00    -0.744 OA
ENDBRANCH  90  91
ENDBRANCH  64  85
ENDBRANCH  38  39
ENDBRANCH  31  33
ENDBRANCH  30  31
ENDBRANCH  29  30
ENDBRANCH  28  29
ENDBRANCH  27  28
ENDBRANCH  26  27
ENDBRANCH   1  26
TORSDOF 23
ENDMDL
