MODEL 1
REMARK VINA RESULT:     -10.2      0.000      0.000
REMARK SMILES Cc1ccc(N2C(=O)N=C(OCCOCCOCCOC(=O)c3ccc(-c4c5nc(c(-c6ccc(S(=O)(=O)[O-])cc6)c6ccc([nH]6)c(-c6ccc(S(=O)(=O)[O-])cc6)c6nc(c(-c7ccc(S(=O)(=O)[O-])cc7)c7ccc4[nH]7)C=C6)C=C5)cc3)/C(=C/c3ccccc3OCc3cccc(C(=O)[O-])c3)C2=O)cc1
REMARK SMILES IDX 15 1 14 2 13 3 12 4 11 5 10 6 6 7 7 8 102 9 8 10 9 11 83 12
REMARK SMILES IDX 103 13 84 14 5 15 1 16 2 17 3 18 105 19 4 20 104 21 85 22
REMARK SMILES IDX 86 23 90 24 87 25 89 26 88 27 91 28 92 29 93 30 94 31 101 32
REMARK SMILES IDX 95 33 97 34 96 35 98 36 99 37 100 38 16 39 17 40 18 41 19 42
REMARK SMILES IDX 20 43 21 44 22 45 23 46 24 47 82 48 25 49 81 50 26 51 27 52
REMARK SMILES IDX 28 53 75 54 29 55 80 56 74 57 76 58 30 59 79 60 73 61 72 62
REMARK SMILES IDX 31 64 61 65 42 66 60 67 43 68 46 69 59 70 77 71 44 72 45 73
REMARK SMILES IDX 58 75 78 76 47 77 32 78 33 79 41 80 34 81 40 82 35 83 36 84
REMARK SMILES IDX 37 85 38 86 39 87 62 88 63 89 71 90 64 91 70 92 65 93 66 94
REMARK SMILES IDX 67 95 68 96 69 97 48 98 49 99 57 100 50 101 56 102 51 103
REMARK SMILES IDX 52 104 53 105 54 106 55 107
REMARK H PARENT 76 63 46 74
REMARK Flexibility Score: inf
ROOT
ATOM      1  C   UNL A   1      37.670  33.245  30.799  1.00  0.00     0.188 C 
ENDROOT
BRANCH   1   2
ATOM      2  O   UNL A   1      37.981  32.318  31.850  1.00  0.00    -0.376 OA
BRANCH   2   3
ATOM      3  C   UNL A   1      36.829  31.577  32.267  1.00  0.00     0.201 C 
BRANCH   3   4
ATOM      4  C   UNL A   1      37.195  30.255  32.945  1.00  0.00     0.260 C 
BRANCH   4   5
ATOM      5  O   UNL A   1      37.783  30.485  34.267  1.00  0.00    -0.475 OA
BRANCH   5   6
ATOM      6  C   UNL A   1      38.294  31.459  35.047  1.00  0.00     0.231 C 
ATOM      7  N   UNL A   1      39.006  33.270  37.033  1.00  0.00    -0.226 N 
ATOM      8  C   UNL A   1      37.697  32.872  36.823  1.00  0.00     0.358 C 
ATOM      9  C   UNL A   1      39.961  32.393  36.587  1.00  0.00     0.272 C 
ATOM     10  O   UNL A   1      36.822  33.101  37.663  1.00  0.00    -0.245 OA
ATOM     11  N   UNL A   1      37.407  32.010  35.798  1.00  0.00    -0.156 NA
ATOM     12  C   UNL A   1      39.764  31.655  35.163  1.00  0.00     0.103 C 
ATOM     13  O   UNL A   1      40.888  32.166  37.371  1.00  0.00    -0.268 OA
ATOM     14  C   UNL A   1      40.409  30.832  34.223  1.00  0.00     0.031 C 
BRANCH   7  15
ATOM     15  C   UNL A   1      39.315  34.306  38.054  1.00  0.00     0.054 A 
ATOM     16  C   UNL A   1      40.635  37.417  40.867  1.00  0.00     0.044 C 
ATOM     17  C   UNL A   1      40.175  36.358  39.906  1.00  0.00    -0.051 A 
ATOM     18  C   UNL A   1      39.904  35.068  40.349  1.00  0.00     0.005 A 
ATOM     19  C   UNL A   1      39.980  36.633  38.553  1.00  0.00     0.005 A 
ATOM     20  C   UNL A   1      39.497  34.067  39.440  1.00  0.00     0.027 A 
ATOM     21  C   UNL A   1      39.557  35.631  37.653  1.00  0.00     0.027 A 
ENDBRANCH   7  15
BRANCH  14  22
ATOM     22  C   UNL A   1      41.618  29.762  33.650  1.00  0.00     0.018 A 
ATOM     23  C   UNL A   1      42.475  30.489  32.775  1.00  0.00     0.012 A 
ATOM     24  C   UNL A   1      41.969  28.253  33.721  1.00  0.00     0.127 A 
ATOM     25  C   UNL A   1      43.401  29.880  31.914  1.00  0.00     0.001 A 
ATOM     26  C   UNL A   1      42.861  27.694  32.775  1.00  0.00     0.047 A 
ATOM     27  C   UNL A   1      43.541  28.498  31.867  1.00  0.00     0.004 A 
BRANCH  24  28
ATOM     28  O   UNL A   1      42.002  27.145  34.958  1.00  0.00    -0.488 OA
BRANCH  28  29
ATOM     29  C   UNL A   1      42.787  25.725  35.509  1.00  0.00     0.265 C 
BRANCH  29  30
ATOM     30  C   UNL A   1      43.846  24.655  35.006  1.00  0.00    -0.010 A 
ATOM     31  C   UNL A   1      43.952  24.367  33.632  1.00  0.00     0.007 A 
ATOM     32  C   UNL A   1      44.467  23.732  35.858  1.00  0.00     0.017 A 
ATOM     33  C   UNL A   1      44.629  23.223  33.164  1.00  0.00     0.001 A 
ATOM     34  C   UNL A   1      45.187  22.614  35.414  1.00  0.00    -0.002 A 
ATOM     35  C   UNL A   1      45.242  22.340  34.056  1.00  0.00     0.010 A 
BRANCH  34  36
ATOM     36  C   UNL A   1      45.826  21.691  36.389  1.00  0.00     0.071 C 
ATOM     37  O   UNL A   1      46.443  20.681  36.128  1.00  0.00    -0.545 OA
ATOM     38  O   UNL A   1      45.685  22.127  37.658  1.00  0.00    -0.545 OA
ENDBRANCH  34  36
ENDBRANCH  29  30
ENDBRANCH  28  29
ENDBRANCH  24  28
ENDBRANCH  14  22
ENDBRANCH   5   6
ENDBRANCH   4   5
ENDBRANCH   3   4
ENDBRANCH   2   3
ENDBRANCH   1   2
BRANCH   1  39
ATOM     39  C   UNL A   1      36.160  33.504  30.652  1.00  0.00     0.188 C 
BRANCH  39  40
ATOM     40  O   UNL A   1      35.569  33.363  29.362  1.00  0.00    -0.376 OA
BRANCH  40  41
ATOM     41  C   UNL A   1      35.153  32.064  28.971  1.00  0.00     0.202 C 
BRANCH  41  42
ATOM     42  C   UNL A   1      36.153  31.552  27.923  1.00  0.00     0.261 C 
BRANCH  42  43
ATOM     43  O   UNL A   1      36.198  30.108  27.974  1.00  0.00    -0.460 OA
BRANCH  43  44
ATOM     44  C   UNL A   1      36.970  29.518  28.935  1.00  0.00     0.338 C 
ATOM     45  O   UNL A   1      36.574  29.029  29.976  1.00  0.00    -0.246 OA
BRANCH  44  46
ATOM     46  C   UNL A   1      38.412  29.634  28.531  1.00  0.00     0.060 A 
ATOM     47  C   UNL A   1      38.854  29.264  27.251  1.00  0.00     0.016 A 
ATOM     48  C   UNL A   1      39.371  29.974  29.473  1.00  0.00     0.016 A 
ATOM     49  C   UNL A   1      40.237  29.079  26.976  1.00  0.00     0.010 A 
ATOM     50  C   UNL A   1      40.715  29.688  29.223  1.00  0.00     0.010 A 
ATOM     51  C   UNL A   1      41.184  29.125  28.006  1.00  0.00    -0.014 A 
BRANCH  51  52
ATOM     52  C   UNL A   1      42.722  28.816  28.005  1.00  0.00     0.031 A 
ATOM     53  C   UNL A   1      42.546  27.106  27.622  1.00  0.00     0.074 A 
ATOM     54  C   UNL A   1      43.979  29.778  27.963  1.00  0.00     0.049 A 
ATOM     55  N   UNL A   1      43.071  26.388  26.660  1.00  0.00    -0.248 NA
ATOM     56  C   UNL A   1      41.737  26.212  28.469  1.00  0.00     0.031 C 
ATOM     57  C   UNL A   1      45.435  29.776  27.085  1.00  0.00     0.029 A 
ATOM     58  N   UNL A   1      44.404  30.982  28.567  1.00  0.00    -0.354 N 
ATOM     59  C   UNL A   1      43.296  25.123  27.115  1.00  0.00     0.074 A 
ATOM     60  C   UNL A   1      42.196  25.000  28.091  1.00  0.00     0.031 C 
ATOM     61  C   UNL A   1      46.029  30.944  26.950  1.00  0.00     0.029 A 
ATOM     62  C   UNL A   1      45.574  31.592  28.111  1.00  0.00     0.049 A 
ATOM     63  H   UNL A   1      43.884  31.384  29.300  1.00  0.00     0.167 HD
ATOM     64  C   UNL A   1      44.538  24.477  27.176  1.00  0.00     0.031 A 
ATOM     65  C   UNL A   1      46.589  32.023  28.877  1.00  0.00     0.031 A 
ATOM     66  C   UNL A   1      45.896  25.215  27.162  1.00  0.00     0.049 A 
ATOM     67  C   UNL A   1      47.537  30.842  29.261  1.00  0.00     0.074 A 
ATOM     68  C   UNL A   1      46.708  25.785  26.181  1.00  0.00     0.029 A 
ATOM     69  N   UNL A   1      46.727  25.401  28.328  1.00  0.00    -0.354 N 
ATOM     70  N   UNL A   1      47.537  29.629  28.703  1.00  0.00    -0.248 NA
ATOM     71  C   UNL A   1      48.544  30.914  30.305  1.00  0.00     0.031 C 
ATOM     72  C   UNL A   1      47.723  26.625  26.789  1.00  0.00     0.029 A 
ATOM     73  C   UNL A   1      47.643  26.531  28.171  1.00  0.00     0.049 A 
ATOM     74  H   UNL A   1      46.682  24.836  29.133  1.00  0.00     0.167 HD
ATOM     75  C   UNL A   1      48.287  28.721  29.426  1.00  0.00     0.074 A 
ATOM     76  C   UNL A   1      48.984  29.638  30.350  1.00  0.00     0.031 C 
ATOM     77  C   UNL A   1      48.243  27.317  29.355  1.00  0.00     0.031 A 
BRANCH  64  78
ATOM     78  C   UNL A   1      44.450  23.030  26.714  1.00  0.00    -0.014 A 
ATOM     79  C   UNL A   1      45.611  22.406  26.219  1.00  0.00     0.010 A 
ATOM     80  C   UNL A   1      43.246  22.301  26.602  1.00  0.00     0.010 A 
ATOM     81  C   UNL A   1      45.565  21.154  25.594  1.00  0.00     0.020 A 
ATOM     82  C   UNL A   1      43.186  21.047  25.982  1.00  0.00     0.020 A 
ATOM     83  C   UNL A   1      44.348  20.488  25.466  1.00  0.00     0.054 A 
BRANCH  83  84
ATOM     84  S   UNL A   1      44.297  18.915  24.574  1.00  0.00     0.124 S 
ATOM     85  O   UNL A   1      44.298  19.346  23.178  1.00  0.00    -0.237 OA
ATOM     86  O   UNL A   1      45.517  18.259  25.034  1.00  0.00    -0.237 OA
ATOM     87  O   UNL A   1      43.052  18.298  25.028  1.00  0.00    -0.744 OA
ENDBRANCH  83  84
ENDBRANCH  64  78
BRANCH  65  88
ATOM     88  C   UNL A   1      46.264  33.474  29.071  1.00  0.00    -0.014 A 
ATOM     89  C   UNL A   1      46.560  34.321  27.941  1.00  0.00     0.010 A 
ATOM     90  C   UNL A   1      45.139  33.834  29.831  1.00  0.00     0.010 A 
ATOM     91  C   UNL A   1      45.658  35.296  27.471  1.00  0.00     0.020 A 
ATOM     92  C   UNL A   1      44.267  34.863  29.393  1.00  0.00     0.020 A 
ATOM     93  C   UNL A   1      44.491  35.534  28.183  1.00  0.00     0.054 A 
BRANCH  93  94
ATOM     94  S   UNL A   1      43.178  36.576  27.456  1.00  0.00     0.124 S 
ATOM     95  O   UNL A   1      42.732  35.782  26.319  1.00  0.00    -0.237 OA
ATOM     96  O   UNL A   1      42.211  36.735  28.540  1.00  0.00    -0.237 OA
ATOM     97  O   UNL A   1      43.907  37.794  27.132  1.00  0.00    -0.744 OA
ENDBRANCH  93  94
ENDBRANCH  65  88
BRANCH  77  98
ATOM     98  C   UNL A   1      48.783  26.512  30.536  1.00  0.00    -0.014 A 
ATOM     99  C   UNL A   1      48.050  26.245  31.713  1.00  0.00     0.010 A 
ATOM    100  C   UNL A   1      50.054  25.911  30.446  1.00  0.00     0.010 A 
ATOM    101  C   UNL A   1      48.612  25.569  32.803  1.00  0.00     0.020 A 
ATOM    102  C   UNL A   1      50.594  25.154  31.493  1.00  0.00     0.020 A 
ATOM    103  C   UNL A   1      49.893  25.043  32.689  1.00  0.00     0.054 A 
BRANCH 103 104
ATOM    104  S   UNL A   1      50.641  24.199  34.104  1.00  0.00     0.124 S 
ATOM    105  O   UNL A   1      52.063  24.290  33.784  1.00  0.00    -0.237 OA
ATOM    106  O   UNL A   1      50.204  25.006  35.241  1.00  0.00    -0.237 OA
ATOM    107  O   UNL A   1      50.066  22.859  34.039  1.00  0.00    -0.744 OA
ENDBRANCH 103 104
ENDBRANCH  77  98
ENDBRANCH  51  52
ENDBRANCH  44  46
ENDBRANCH  43  44
ENDBRANCH  42  43
ENDBRANCH  41  42
ENDBRANCH  40  41
ENDBRANCH  39  40
ENDBRANCH   1  39
TORSDOF 25
ENDMDL
MODEL 2
REMARK VINA RESULT:     -10.0      3.303      8.066
REMARK SMILES Cc1ccc(N2C(=O)N=C(OCCOCCOCCOC(=O)c3ccc(-c4c5nc(c(-c6ccc(S(=O)(=O)[O-])cc6)c6ccc([nH]6)c(-c6ccc(S(=O)(=O)[O-])cc6)c6nc(c(-c7ccc(S(=O)(=O)[O-])cc7)c7ccc4[nH]7)C=C6)C=C5)cc3)/C(=C/c3ccccc3OCc3cccc(C(=O)[O-])c3)C2=O)cc1
REMARK SMILES IDX 15 1 14 2 13 3 12 4 11 5 10 6 6 7 7 8 102 9 8 10 9 11 83 12
REMARK SMILES IDX 103 13 84 14 5 15 1 16 2 17 3 18 105 19 4 20 104 21 85 22
REMARK SMILES IDX 86 23 90 24 87 25 89 26 88 27 91 28 92 29 93 30 94 31 101 32
REMARK SMILES IDX 95 33 97 34 96 35 98 36 99 37 100 38 16 39 17 40 18 41 19 42
REMARK SMILES IDX 20 43 21 44 22 45 23 46 24 47 82 48 25 49 81 50 26 51 27 52
REMARK SMILES IDX 28 53 75 54 29 55 80 56 74 57 76 58 30 59 79 60 73 61 72 62
REMARK SMILES IDX 31 64 61 65 42 66 60 67 43 68 46 69 59 70 77 71 44 72 45 73
REMARK SMILES IDX 58 75 78 76 47 77 32 78 33 79 41 80 34 81 40 82 35 83 36 84
REMARK SMILES IDX 37 85 38 86 39 87 62 88 63 89 71 90 64 91 70 92 65 93 66 94
REMARK SMILES IDX 67 95 68 96 69 97 48 98 49 99 57 100 50 101 56 102 51 103
REMARK SMILES IDX 52 104 53 105 54 106 55 107
REMARK H PARENT 76 63 46 74
REMARK Flexibility Score: inf
ROOT
ATOM      1  C   UNL A   1      34.169  34.663  32.483  1.00  0.00     0.188 C 
ENDROOT
BRANCH   1   2
ATOM      2  O   UNL A   1      34.865  34.601  31.229  1.00  0.00    -0.376 OA
BRANCH   2   3
ATOM      3  C   UNL A   1      34.467  33.464  30.453  1.00  0.00     0.201 C 
BRANCH   3   4
ATOM      4  C   UNL A   1      35.662  32.684  29.900  1.00  0.00     0.260 C 
BRANCH   4   5
ATOM      5  O   UNL A   1      35.330  32.043  28.625  1.00  0.00    -0.475 OA
BRANCH   5   6
ATOM      6  C   UNL A   1      34.636  31.011  28.105  1.00  0.00     0.231 C 
ATOM      7  N   UNL A   1      33.050  29.246  26.655  1.00  0.00    -0.226 N 
ATOM      8  C   UNL A   1      32.680  30.560  26.888  1.00  0.00     0.358 C 
ATOM      9  C   UNL A   1      34.397  28.998  26.720  1.00  0.00     0.272 C 
ATOM     10  O   UNL A   1      31.760  31.082  26.252  1.00  0.00    -0.245 OA
ATOM     11  N   UNL A   1      33.487  31.366  27.648  1.00  0.00    -0.156 NA
ATOM     12  C   UNL A   1      35.280  29.688  27.886  1.00  0.00     0.103 C 
ATOM     13  O   UNL A   1      34.861  28.312  25.805  1.00  0.00    -0.268 OA
ATOM     14  C   UNL A   1      36.558  29.701  28.472  1.00  0.00     0.031 C 
BRANCH   7  15
ATOM     15  C   UNL A   1      32.122  28.326  25.946  1.00  0.00     0.054 A 
ATOM     16  C   UNL A   1      29.095  25.962  23.807  1.00  0.00     0.044 C 
ATOM     17  C   UNL A   1      30.136  26.764  24.532  1.00  0.00    -0.051 A 
ATOM     18  C   UNL A   1      30.480  26.458  25.845  1.00  0.00     0.005 A 
ATOM     19  C   UNL A   1      30.808  27.819  23.916  1.00  0.00     0.005 A 
ATOM     20  C   UNL A   1      31.440  27.230  26.534  1.00  0.00     0.027 A 
ATOM     21  C   UNL A   1      31.778  28.576  24.606  1.00  0.00     0.027 A 
ENDBRANCH   7  15
BRANCH  14  22
ATOM     22  C   UNL A   1      38.234  29.365  28.574  1.00  0.00     0.018 A 
ATOM     23  C   UNL A   1      38.833  30.348  29.412  1.00  0.00     0.012 A 
ATOM     24  C   UNL A   1      39.270  28.396  27.947  1.00  0.00     0.127 A 
ATOM     25  C   UNL A   1      40.219  30.552  29.500  1.00  0.00     0.001 A 
ATOM     26  C   UNL A   1      40.650  28.702  28.016  1.00  0.00     0.047 A 
ATOM     27  C   UNL A   1      41.109  29.784  28.759  1.00  0.00     0.004 A 
BRANCH  24  28
ATOM     28  O   UNL A   1      39.270  26.762  27.645  1.00  0.00    -0.488 OA
BRANCH  28  29
ATOM     29  C   UNL A   1      39.956  25.275  28.144  1.00  0.00     0.265 C 
BRANCH  29  30
ATOM     30  C   UNL A   1      41.147  24.299  27.755  1.00  0.00    -0.010 A 
ATOM     31  C   UNL A   1      41.766  23.519  28.751  1.00  0.00     0.007 A 
ATOM     32  C   UNL A   1      41.850  24.389  26.546  1.00  0.00     0.017 A 
ATOM     33  C   UNL A   1      43.008  22.891  28.534  1.00  0.00     0.001 A 
ATOM     34  C   UNL A   1      43.062  23.734  26.291  1.00  0.00    -0.002 A 
ATOM     35  C   UNL A   1      43.662  23.002  27.305  1.00  0.00     0.010 A 
BRANCH  34  36
ATOM     36  C   UNL A   1      43.734  23.875  24.972  1.00  0.00     0.071 C 
ATOM     37  O   UNL A   1      44.474  24.773  24.633  1.00  0.00    -0.545 OA
ATOM     38  O   UNL A   1      43.464  22.834  24.158  1.00  0.00    -0.545 OA
ENDBRANCH  34  36
ENDBRANCH  29  30
ENDBRANCH  28  29
ENDBRANCH  24  28
ENDBRANCH  14  22
ENDBRANCH   5   6
ENDBRANCH   4   5
ENDBRANCH   3   4
ENDBRANCH   2   3
ENDBRANCH   1   2
BRANCH   1  39
ATOM     39  C   UNL A   1      34.212  33.335  33.262  1.00  0.00     0.188 C 
BRANCH  39  40
ATOM     40  O   UNL A   1      35.236  33.152  34.237  1.00  0.00    -0.376 OA
BRANCH  40  41
ATOM     41  C   UNL A   1      36.570  33.032  33.770  1.00  0.00     0.202 C 
BRANCH  41  42
ATOM     42  C   UNL A   1      37.501  33.133  34.989  1.00  0.00     0.261 C 
BRANCH  42  43
ATOM     43  O   UNL A   1      38.741  32.452  34.697  1.00  0.00    -0.460 OA
BRANCH  43  44
ATOM     44  C   UNL A   1      39.772  33.180  34.173  1.00  0.00     0.338 C 
ATOM     45  O   UNL A   1      39.767  34.375  33.945  1.00  0.00    -0.246 OA
BRANCH  44  46
ATOM     46  C   UNL A   1      40.904  32.247  33.850  1.00  0.00     0.060 A 
ATOM     47  C   UNL A   1      42.242  32.594  34.093  1.00  0.00     0.016 A 
ATOM     48  C   UNL A   1      40.656  31.068  33.163  1.00  0.00     0.016 A 
ATOM     49  C   UNL A   1      43.310  31.858  33.510  1.00  0.00     0.010 A 
ATOM     50  C   UNL A   1      41.706  30.417  32.511  1.00  0.00     0.010 A 
ATOM     51  C   UNL A   1      43.057  30.853  32.570  1.00  0.00    -0.014 A 
BRANCH  51  52
ATOM     52  C   UNL A   1      44.033  30.005  31.681  1.00  0.00     0.031 A 
ATOM     53  C   UNL A   1      44.033  28.594  32.736  1.00  0.00     0.074 A 
ATOM     54  C   UNL A   1      44.514  30.197  30.185  1.00  0.00     0.049 A 
ATOM     55  N   UNL A   1      43.764  27.338  32.482  1.00  0.00    -0.248 NA
ATOM     56  C   UNL A   1      44.423  28.700  34.153  1.00  0.00     0.031 C 
ATOM     57  C   UNL A   1      44.690  29.147  28.860  1.00  0.00     0.029 A 
ATOM     58  N   UNL A   1      44.950  31.246  29.346  1.00  0.00    -0.354 N 
ATOM     59  C   UNL A   1      44.545  26.543  33.268  1.00  0.00     0.074 A 
ATOM     60  C   UNL A   1      44.683  27.410  34.454  1.00  0.00     0.031 C 
ATOM     61  C   UNL A   1      44.661  29.709  27.670  1.00  0.00     0.029 A 
ATOM     62  C   UNL A   1      45.141  30.992  27.987  1.00  0.00     0.049 A 
ATOM     63  H   UNL A   1      45.118  32.143  29.714  1.00  0.00     0.167 HD
ATOM     64  C   UNL A   1      45.473  25.595  32.818  1.00  0.00     0.031 A 
ATOM     65  C   UNL A   1      46.230  31.312  27.270  1.00  0.00     0.031 A 
ATOM     66  C   UNL A   1      46.088  25.595  31.400  1.00  0.00     0.049 A 
ATOM     67  C   UNL A   1      47.361  30.253  27.470  1.00  0.00     0.074 A 
ATOM     68  C   UNL A   1      45.672  25.175  30.136  1.00  0.00     0.029 A 
ATOM     69  N   UNL A   1      47.436  26.018  31.103  1.00  0.00    -0.354 N 
ATOM     70  N   UNL A   1      47.213  29.051  28.033  1.00  0.00    -0.248 NA
ATOM     71  C   UNL A   1      48.745  30.456  27.079  1.00  0.00     0.031 C 
ATOM     72  C   UNL A   1      46.543  25.718  29.110  1.00  0.00     0.029 A 
ATOM     73  C   UNL A   1      47.588  26.412  29.702  1.00  0.00     0.049 A 
ATOM     74  H   UNL A   1      48.165  26.040  31.763  1.00  0.00     0.167 HD
ATOM     75  C   UNL A   1      48.426  28.455  28.320  1.00  0.00     0.074 A 
ATOM     76  C   UNL A   1      49.336  29.350  27.579  1.00  0.00     0.031 C 
ATOM     77  C   UNL A   1      48.673  27.386  29.200  1.00  0.00     0.031 A 
BRANCH  64  78
ATOM     78  C   UNL A   1      45.402  24.304  33.621  1.00  0.00    -0.014 A 
ATOM     79  C   UNL A   1      46.541  23.889  34.337  1.00  0.00     0.010 A 
ATOM     80  C   UNL A   1      44.317  23.401  33.583  1.00  0.00     0.010 A 
ATOM     81  C   UNL A   1      46.618  22.623  34.930  1.00  0.00     0.020 A 
ATOM     82  C   UNL A   1      44.379  22.133  34.174  1.00  0.00     0.020 A 
ATOM     83  C   UNL A   1      45.540  21.746  34.831  1.00  0.00     0.054 A 
BRANCH  83  84
ATOM     84  S   UNL A   1      45.695  20.083  35.525  1.00  0.00     0.124 S 
ATOM     85  O   UNL A   1      44.526  19.403  34.974  1.00  0.00    -0.237 OA
ATOM     86  O   UNL A   1      46.986  19.647  34.999  1.00  0.00    -0.237 OA
ATOM     87  O   UNL A   1      45.656  20.303  36.970  1.00  0.00    -0.744 OA
ENDBRANCH  83  84
ENDBRANCH  64  78
BRANCH  65  88
ATOM     88  C   UNL A   1      45.850  32.630  26.663  1.00  0.00    -0.014 A 
ATOM     89  C   UNL A   1      44.492  32.709  26.180  1.00  0.00     0.010 A 
ATOM     90  C   UNL A   1      46.383  33.815  27.196  1.00  0.00     0.010 A 
ATOM     91  C   UNL A   1      43.661  33.816  26.441  1.00  0.00     0.020 A 
ATOM     92  C   UNL A   1      45.562  34.954  27.395  1.00  0.00     0.020 A 
ATOM     93  C   UNL A   1      44.194  34.922  27.086  1.00  0.00     0.054 A 
BRANCH  93  94
ATOM     94  S   UNL A   1      43.088  36.245  27.689  1.00  0.00     0.124 S 
ATOM     95  O   UNL A   1      42.314  36.582  26.501  1.00  0.00    -0.237 OA
ATOM     96  O   UNL A   1      42.342  35.616  28.778  1.00  0.00    -0.237 OA
ATOM     97  O   UNL A   1      44.040  37.254  28.132  1.00  0.00    -0.744 OA
ENDBRANCH  93  94
ENDBRANCH  65  88
BRANCH  77  98
ATOM     98  C   UNL A   1      50.094  27.194  29.729  1.00  0.00    -0.014 A 
ATOM     99  C   UNL A   1      50.510  27.553  31.030  1.00  0.00     0.010 A 
ATOM    100  C   UNL A   1      51.053  26.543  28.928  1.00  0.00     0.010 A 
ATOM    101  C   UNL A   1      51.841  27.430  31.446  1.00  0.00     0.020 A 
ATOM    102  C   UNL A   1      52.366  26.331  29.365  1.00  0.00     0.020 A 
ATOM    103  C   UNL A   1      52.767  26.835  30.598  1.00  0.00     0.054 A 
BRANCH 103 104
ATOM    104  S   UNL A   1      54.496  26.704  31.114  1.00  0.00     0.124 S 
ATOM    105  O   UNL A   1      54.360  26.475  32.549  1.00  0.00    -0.237 OA
ATOM    106  O   UNL A   1      54.987  25.564  30.343  1.00  0.00    -0.237 OA
ATOM    107  O   UNL A   1      55.059  27.997  30.733  1.00  0.00    -0.744 OA
ENDBRANCH 103 104
ENDBRANCH  77  98
ENDBRANCH  51  52
ENDBRANCH  44  46
ENDBRANCH  43  44
ENDBRANCH  42  43
ENDBRANCH  41  42
ENDBRANCH  40  41
ENDBRANCH  39  40
ENDBRANCH   1  39
TORSDOF 25
ENDMDL
MODEL 3
REMARK VINA RESULT:      -9.2      5.812     12.388
REMARK SMILES Cc1ccc(N2C(=O)N=C(OCCOCCOCCOC(=O)c3ccc(-c4c5nc(c(-c6ccc(S(=O)(=O)[O-])cc6)c6ccc([nH]6)c(-c6ccc(S(=O)(=O)[O-])cc6)c6nc(c(-c7ccc(S(=O)(=O)[O-])cc7)c7ccc4[nH]7)C=C6)C=C5)cc3)/C(=C/c3ccccc3OCc3cccc(C(=O)[O-])c3)C2=O)cc1
REMARK SMILES IDX 15 1 14 2 13 3 12 4 11 5 10 6 6 7 7 8 102 9 8 10 9 11 83 12
REMARK SMILES IDX 103 13 84 14 5 15 1 16 2 17 3 18 105 19 4 20 104 21 85 22
REMARK SMILES IDX 86 23 90 24 87 25 89 26 88 27 91 28 92 29 93 30 94 31 101 32
REMARK SMILES IDX 95 33 97 34 96 35 98 36 99 37 100 38 16 39 17 40 18 41 19 42
REMARK SMILES IDX 20 43 21 44 22 45 23 46 24 47 82 48 25 49 81 50 26 51 27 52
REMARK SMILES IDX 28 53 75 54 29 55 80 56 74 57 76 58 30 59 79 60 73 61 72 62
REMARK SMILES IDX 31 64 61 65 42 66 60 67 43 68 46 69 59 70 77 71 44 72 45 73
REMARK SMILES IDX 58 75 78 76 47 77 32 78 33 79 41 80 34 81 40 82 35 83 36 84
REMARK SMILES IDX 37 85 38 86 39 87 62 88 63 89 71 90 64 91 70 92 65 93 66 94
REMARK SMILES IDX 67 95 68 96 69 97 48 98 49 99 57 100 50 101 56 102 51 103
REMARK SMILES IDX 52 104 53 105 54 106 55 107
REMARK H PARENT 76 63 46 74
REMARK Flexibility Score: inf
ROOT
ATOM      1  C   UNL A   1      40.395  31.817  31.325  1.00  0.00     0.188 C 
ENDROOT
BRANCH   1   2
ATOM      2  O   UNL A   1      39.354  30.829  31.340  1.00  0.00    -0.376 OA
BRANCH   2   3
ATOM      3  C   UNL A   1      38.503  30.931  30.192  1.00  0.00     0.201 C 
BRANCH   3   4
ATOM      4  C   UNL A   1      37.093  30.400  30.457  1.00  0.00     0.260 C 
BRANCH   4   5
ATOM      5  O   UNL A   1      36.108  31.065  29.601  1.00  0.00    -0.475 OA
BRANCH   5   6
ATOM      6  C   UNL A   1      35.360  30.873  28.495  1.00  0.00     0.231 C 
ATOM      7  N   UNL A   1      33.734  29.978  26.425  1.00  0.00    -0.226 N 
ATOM      8  C   UNL A   1      34.682  29.171  27.029  1.00  0.00     0.358 C 
ATOM      9  C   UNL A   1      33.289  31.027  27.188  1.00  0.00     0.272 C 
ATOM     10  O   UNL A   1      34.677  27.948  26.856  1.00  0.00    -0.245 OA
ATOM     11  N   UNL A   1      35.482  29.686  28.015  1.00  0.00    -0.156 NA
ATOM     12  C   UNL A   1      34.343  31.873  28.075  1.00  0.00     0.103 C 
ATOM     13  O   UNL A   1      32.066  31.197  27.204  1.00  0.00    -0.268 OA
ATOM     14  C   UNL A   1      34.474  33.021  28.876  1.00  0.00     0.031 C 
BRANCH   7  15
ATOM     15  C   UNL A   1      32.953  29.471  25.266  1.00  0.00     0.054 A 
ATOM     16  C   UNL A   1      30.573  27.591  22.083  1.00  0.00     0.044 C 
ATOM     17  C   UNL A   1      31.382  28.242  23.168  1.00  0.00    -0.051 A 
ATOM     18  C   UNL A   1      32.721  28.554  22.964  1.00  0.00     0.005 A 
ATOM     19  C   UNL A   1      30.819  28.577  24.399  1.00  0.00     0.005 A 
ATOM     20  C   UNL A   1      33.487  29.142  23.994  1.00  0.00     0.027 A 
ATOM     21  C   UNL A   1      31.586  29.180  25.418  1.00  0.00     0.027 A 
ENDBRANCH   7  15
BRANCH  14  22
ATOM     22  C   UNL A   1      33.922  34.351  29.804  1.00  0.00     0.018 A 
ATOM     23  C   UNL A   1      33.114  35.172  28.966  1.00  0.00     0.012 A 
ATOM     24  C   UNL A   1      34.135  34.957  31.216  1.00  0.00     0.127 A 
ATOM     25  C   UNL A   1      32.724  36.477  29.302  1.00  0.00     0.001 A 
ATOM     26  C   UNL A   1      33.779  36.304  31.463  1.00  0.00     0.047 A 
ATOM     27  C   UNL A   1      33.110  37.058  30.504  1.00  0.00     0.004 A 
BRANCH  24  28
ATOM     28  O   UNL A   1      34.190  34.304  32.742  1.00  0.00    -0.488 OA
BRANCH  28  29
ATOM     29  C   UNL A   1      35.037  33.189  33.728  1.00  0.00     0.265 C 
BRANCH  29  30
ATOM     30  C   UNL A   1      36.476  32.988  34.368  1.00  0.00    -0.010 A 
ATOM     31  C   UNL A   1      37.262  31.883  33.988  1.00  0.00     0.007 A 
ATOM     32  C   UNL A   1      36.901  33.651  35.527  1.00  0.00     0.017 A 
ATOM     33  C   UNL A   1      38.385  31.480  34.738  1.00  0.00     0.001 A 
ATOM     34  C   UNL A   1      38.041  33.298  36.261  1.00  0.00    -0.002 A 
ATOM     35  C   UNL A   1      38.773  32.183  35.880  1.00  0.00     0.010 A 
BRANCH  34  36
ATOM     36  C   UNL A   1      38.427  34.067  37.474  1.00  0.00     0.071 C 
ATOM     37  O   UNL A   1      39.159  35.032  37.514  1.00  0.00    -0.545 OA
ATOM     38  O   UNL A   1      37.820  33.591  38.581  1.00  0.00    -0.545 OA
ENDBRANCH  34  36
ENDBRANCH  29  30
ENDBRANCH  28  29
ENDBRANCH  24  28
ENDBRANCH  14  22
ENDBRANCH   5   6
ENDBRANCH   4   5
ENDBRANCH   3   4
ENDBRANCH   2   3
ENDBRANCH   1   2
BRANCH   1  39
ATOM     39  C   UNL A   1      39.906  33.213  31.753  1.00  0.00     0.188 C 
BRANCH  39  40
ATOM     40  O   UNL A   1      40.351  34.346  31.011  1.00  0.00    -0.376 OA
BRANCH  40  41
ATOM     41  C   UNL A   1      41.025  34.101  29.786  1.00  0.00     0.202 C 
BRANCH  41  42
ATOM     42  C   UNL A   1      41.468  35.460  29.221  1.00  0.00     0.261 C 
BRANCH  42  43
ATOM     43  O   UNL A   1      41.604  35.356  27.786  1.00  0.00    -0.460 OA
BRANCH  43  44
ATOM     44  C   UNL A   1      42.738  35.849  27.205  1.00  0.00     0.338 C 
ATOM     45  O   UNL A   1      42.853  36.926  26.652  1.00  0.00    -0.246 OA
BRANCH  44  46
ATOM     46  C   UNL A   1      43.816  34.807  27.294  1.00  0.00     0.060 A 
ATOM     47  C   UNL A   1      44.792  34.835  28.302  1.00  0.00     0.016 A 
ATOM     48  C   UNL A   1      43.958  33.868  26.283  1.00  0.00     0.016 A 
ATOM     49  C   UNL A   1      45.972  34.048  28.205  1.00  0.00     0.010 A 
ATOM     50  C   UNL A   1      45.165  33.180  26.145  1.00  0.00     0.010 A 
ATOM     51  C   UNL A   1      46.260  33.330  27.039  1.00  0.00    -0.014 A 
BRANCH  51  52
ATOM     52  C   UNL A   1      47.534  32.518  26.617  1.00  0.00     0.031 A 
ATOM     53  C   UNL A   1      48.550  33.932  26.351  1.00  0.00     0.074 A 
ATOM     54  C   UNL A   1      47.890  30.983  26.770  1.00  0.00     0.049 A 
ATOM     55  N   UNL A   1      49.722  34.247  26.846  1.00  0.00    -0.248 NA
ATOM     56  C   UNL A   1      48.153  34.992  25.408  1.00  0.00     0.031 C 
ATOM     57  C   UNL A   1      49.278  30.140  27.274  1.00  0.00     0.029 A 
ATOM     58  N   UNL A   1      47.257  29.732  26.595  1.00  0.00    -0.354 N 
ATOM     59  C   UNL A   1      50.432  34.939  25.910  1.00  0.00     0.074 A 
ATOM     60  C   UNL A   1      49.331  35.618  25.200  1.00  0.00     0.031 C 
ATOM     61  C   UNL A   1      49.080  28.917  27.721  1.00  0.00     0.029 A 
ATOM     62  C   UNL A   1      47.918  28.574  27.006  1.00  0.00     0.049 A 
ATOM     63  H   UNL A   1      46.362  29.679  26.188  1.00  0.00     0.167 HD
ATOM     64  C   UNL A   1      51.665  34.561  25.364  1.00  0.00     0.031 A 
ATOM     65  C   UNL A   1      48.088  27.461  26.275  1.00  0.00     0.031 A 
ATOM     66  C   UNL A   1      52.212  33.115  25.387  1.00  0.00     0.049 A 
ATOM     67  C   UNL A   1      49.293  27.617  25.293  1.00  0.00     0.074 A 
ATOM     68  C   UNL A   1      52.851  32.309  26.328  1.00  0.00     0.029 A 
ATOM     69  N   UNL A   1      52.232  32.241  24.238  1.00  0.00    -0.354 N 
ATOM     70  N   UNL A   1      50.216  28.581  25.338  1.00  0.00    -0.248 NA
ATOM     71  C   UNL A   1      49.553  26.726  24.177  1.00  0.00     0.031 C 
ATOM     72  C   UNL A   1      52.847  30.924  25.895  1.00  0.00     0.029 A 
ATOM     73  C   UNL A   1      52.293  30.831  24.626  1.00  0.00     0.049 A 
ATOM     74  H   UNL A   1      52.206  32.555  23.306  1.00  0.00     0.167 HD
ATOM     75  C   UNL A   1      50.987  28.620  24.192  1.00  0.00     0.074 A 
ATOM     76  C   UNL A   1      50.586  27.345  23.566  1.00  0.00     0.031 C 
ATOM     77  C   UNL A   1      51.796  29.676  23.734  1.00  0.00     0.031 A 
BRANCH  64  78
ATOM     78  C   UNL A   1      52.624  35.738  25.252  1.00  0.00    -0.014 A 
ATOM     79  C   UNL A   1      53.789  35.739  26.041  1.00  0.00     0.010 A 
ATOM     80  C   UNL A   1      52.356  36.916  24.520  1.00  0.00     0.010 A 
ATOM     81  C   UNL A   1      54.610  36.869  26.141  1.00  0.00     0.020 A 
ATOM     82  C   UNL A   1      53.170  38.052  24.608  1.00  0.00     0.020 A 
ATOM     83  C   UNL A   1      54.286  38.025  25.435  1.00  0.00     0.054 A 
BRANCH  83  84
ATOM     84  S   UNL A   1      55.308  39.502  25.651  1.00  0.00     0.124 S 
ATOM     85  O   UNL A   1      55.123  39.807  27.067  1.00  0.00    -0.237 OA
ATOM     86  O   UNL A   1      56.634  39.019  25.277  1.00  0.00    -0.237 OA
ATOM     87  O   UNL A   1      54.718  40.471  24.729  1.00  0.00    -0.744 OA
ENDBRANCH  83  84
ENDBRANCH  64  78
BRANCH  65  88
ATOM     88  C   UNL A   1      46.940  26.600  26.713  1.00  0.00    -0.014 A 
ATOM     89  C   UNL A   1      45.844  26.526  25.778  1.00  0.00     0.010 A 
ATOM     90  C   UNL A   1      47.193  25.436  27.457  1.00  0.00     0.010 A 
ATOM     91  C   UNL A   1      45.218  25.309  25.442  1.00  0.00     0.020 A 
ATOM     92  C   UNL A   1      46.515  24.226  27.164  1.00  0.00     0.020 A 
ATOM     93  C   UNL A   1      45.589  24.153  26.114  1.00  0.00     0.054 A 
BRANCH  93  94
ATOM     94  S   UNL A   1      45.012  22.526  25.513  1.00  0.00     0.124 S 
ATOM     95  O   UNL A   1      46.227  21.723  25.547  1.00  0.00    -0.237 OA
ATOM     96  O   UNL A   1      43.971  22.146  26.467  1.00  0.00    -0.237 OA
ATOM     97  O   UNL A   1      44.507  22.857  24.188  1.00  0.00    -0.744 OA
ENDBRANCH  93  94
ENDBRANCH  65  88
BRANCH  77  98
ATOM     98  C   UNL A   1      52.175  29.711  22.254  1.00  0.00    -0.014 A 
ATOM     99  C   UNL A   1      51.273  30.025  21.213  1.00  0.00     0.010 A 
ATOM    100  C   UNL A   1      53.516  29.510  21.875  1.00  0.00     0.010 A 
ATOM    101  C   UNL A   1      51.646  29.969  19.865  1.00  0.00     0.020 A 
ATOM    102  C   UNL A   1      53.923  29.542  20.535  1.00  0.00     0.020 A 
ATOM    103  C   UNL A   1      52.970  29.708  19.535  1.00  0.00     0.054 A 
BRANCH 103 104
ATOM    104  S   UNL A   1      53.453  29.599  17.794  1.00  0.00     0.124 S 
ATOM    105  O   UNL A   1      52.238  29.068  17.184  1.00  0.00    -0.237 OA
ATOM    106  O   UNL A   1      53.770  30.984  17.452  1.00  0.00    -0.237 OA
ATOM    107  O   UNL A   1      54.595  28.691  17.818  1.00  0.00    -0.744 OA
ENDBRANCH 103 104
ENDBRANCH  77  98
ENDBRANCH  51  52
ENDBRANCH  44  46
ENDBRANCH  43  44
ENDBRANCH  42  43
ENDBRANCH  41  42
ENDBRANCH  40  41
ENDBRANCH  39  40
ENDBRANCH   1  39
TORSDOF 25
ENDMDL
