MODEL 1
REMARK VINA RESULT:      -9.9      0.000      0.000
REMARK SMILES CC(C)c1ccc([C@]2(C(=O)OCCOCCOCCOC(=O)c3ccc(-c4c5nc(c(-c6ccc(S(=O)(=O)[O-])cc6)c6ccc([nH]6)c(-c6ccc(S(=O)(=O)[O-])cc6)c6nc(c(-c7ccc(S(=O)(=O)[O-])cc7)c7ccc4[nH]7)C=C6)C=C5)cc3)CCC[C@@H]2C)cc1
REMARK SMILES IDX 16 1 15 2 14 3 13 4 12 5 11 6 9 7 10 8 8 9 83 10 86 11 84 12
REMARK SMILES IDX 85 13 87 14 7 15 4 16 5 17 89 18 6 19 88 20 2 21 1 22 3 23
REMARK SMILES IDX 17 24 18 25 19 26 20 27 21 28 22 29 23 30 24 31 82 32 25 33
REMARK SMILES IDX 81 34 26 35 27 36 28 37 75 38 29 39 80 40 74 41 76 42 30 43
REMARK SMILES IDX 79 44 73 45 72 46 31 48 61 49 42 50 60 51 43 52 46 53 59 54
REMARK SMILES IDX 77 55 44 56 45 57 58 59 78 60 47 61 32 62 33 63 41 64 34 65
REMARK SMILES IDX 40 66 35 67 36 68 37 69 38 70 39 71 62 72 63 73 71 74 64 75
REMARK SMILES IDX 70 76 65 77 66 78 67 79 68 80 69 81 48 82 49 83 57 84 50 85
REMARK SMILES IDX 56 86 51 87 52 88 53 89 54 90 55 91
REMARK H PARENT 76 47 46 58
REMARK Flexibility Score: inf
ROOT
ATOM      1  C   UNL A   1      34.732  21.730  25.323  1.00  0.00     0.188 C 
ENDROOT
BRANCH   1   2
ATOM      2  C   UNL A   1      33.262  21.870  24.911  1.00  0.00     0.188 C 
BRANCH   2   3
ATOM      3  O   UNL A   1      32.264  21.550  25.872  1.00  0.00    -0.376 OA
BRANCH   3   4
ATOM      4  C   UNL A   1      30.968  22.125  25.732  1.00  0.00     0.202 C 
BRANCH   4   5
ATOM      5  C   UNL A   1      30.734  23.544  26.273  1.00  0.00     0.261 C 
BRANCH   5   6
ATOM      6  O   UNL A   1      30.880  24.615  25.310  1.00  0.00    -0.463 OA
BRANCH   6   7
ATOM      7  C   UNL A   1      31.226  25.831  25.823  1.00  0.00     0.316 C 
ATOM      8  O   UNL A   1      30.928  26.181  26.962  1.00  0.00    -0.251 OA
BRANCH   7   9
ATOM      9  C   UNL A   1      31.966  26.791  24.828  1.00  0.00     0.095 C 
ATOM     10  C   UNL A   1      33.214  27.562  25.322  1.00  0.00     0.024 C 
ATOM     11  C   UNL A   1      32.684  25.833  23.809  1.00  0.00     0.008 C 
ATOM     12  C   UNL A   1      34.336  26.537  25.460  1.00  0.00     0.002 C 
ATOM     13  C   UNL A   1      33.901  25.340  24.619  1.00  0.00     0.005 C 
ATOM     14  C   UNL A   1      33.191  26.480  22.507  1.00  0.00     0.009 C 
BRANCH   9  15
ATOM     15  C   UNL A   1      30.899  27.740  24.255  1.00  0.00    -0.030 A 
ATOM     16  C   UNL A   1      28.940  29.502  23.157  1.00  0.00    -0.045 A 
ATOM     17  C   UNL A   1      30.115  30.000  23.723  1.00  0.00     0.004 A 
ATOM     18  C   UNL A   1      28.783  28.111  23.091  1.00  0.00     0.004 A 
ATOM     19  C   UNL A   1      31.085  29.131  24.240  1.00  0.00     0.005 A 
ATOM     20  C   UNL A   1      29.738  27.245  23.637  1.00  0.00     0.005 A 
BRANCH  16  21
ATOM     21  C   UNL A   1      27.883  30.399  22.537  1.00  0.00     0.013 C 
ATOM     22  C   UNL A   1      27.426  31.562  23.422  1.00  0.00     0.012 C 
ATOM     23  C   UNL A   1      28.387  30.935  21.203  1.00  0.00     0.012 C 
ENDBRANCH  16  21
ENDBRANCH   9  15
ENDBRANCH   7   9
ENDBRANCH   6   7
ENDBRANCH   5   6
ENDBRANCH   4   5
ENDBRANCH   3   4
ENDBRANCH   2   3
ENDBRANCH   1   2
BRANCH   1  24
ATOM     24  O   UNL A   1      35.336  20.507  24.954  1.00  0.00    -0.376 OA
BRANCH  24  25
ATOM     25  C   UNL A   1      36.746  20.423  25.021  1.00  0.00     0.202 C 
BRANCH  25  26
ATOM     26  C   UNL A   1      37.487  21.750  24.809  1.00  0.00     0.261 C 
BRANCH  26  27
ATOM     27  O   UNL A   1      37.997  22.368  26.004  1.00  0.00    -0.460 OA
BRANCH  27  28
ATOM     28  C   UNL A   1      39.290  22.125  26.326  1.00  0.00     0.338 C 
ATOM     29  O   UNL A   1      39.924  21.114  26.076  1.00  0.00    -0.246 OA
BRANCH  28  30
ATOM     30  C   UNL A   1      39.878  23.397  26.818  1.00  0.00     0.060 A 
ATOM     31  C   UNL A   1      39.702  24.563  26.060  1.00  0.00     0.016 A 
ATOM     32  C   UNL A   1      40.560  23.451  28.037  1.00  0.00     0.016 A 
ATOM     33  C   UNL A   1      40.227  25.776  26.516  1.00  0.00     0.010 A 
ATOM     34  C   UNL A   1      41.099  24.663  28.481  1.00  0.00     0.010 A 
ATOM     35  C   UNL A   1      40.952  25.830  27.717  1.00  0.00    -0.014 A 
BRANCH  35  36
ATOM     36  C   UNL A   1      41.710  27.059  28.075  1.00  0.00     0.031 A 
ATOM     37  C   UNL A   1      40.954  28.203  28.690  1.00  0.00     0.074 A 
ATOM     38  C   UNL A   1      43.028  27.181  27.837  1.00  0.00     0.049 A 
ATOM     39  N   UNL A   1      41.399  29.360  29.108  1.00  0.00    -0.248 NA
ATOM     40  C   UNL A   1      39.500  28.026  28.829  1.00  0.00     0.031 C 
ATOM     41  C   UNL A   1      43.869  26.164  27.214  1.00  0.00     0.029 A 
ATOM     42  N   UNL A   1      43.897  28.211  28.114  1.00  0.00    -0.354 N 
ATOM     43  C   UNL A   1      40.276  30.064  29.524  1.00  0.00     0.074 A 
ATOM     44  C   UNL A   1      39.133  29.198  29.326  1.00  0.00     0.031 C 
ATOM     45  C   UNL A   1      45.141  26.602  27.200  1.00  0.00     0.029 A 
ATOM     46  C   UNL A   1      45.211  27.926  27.814  1.00  0.00     0.049 A 
ATOM     47  H   UNL A   1      43.608  29.072  28.492  1.00  0.00     0.167 HD
ATOM     48  C   UNL A   1      40.194  31.330  29.996  1.00  0.00     0.031 A 
ATOM     49  C   UNL A   1      46.339  28.636  28.037  1.00  0.00     0.031 A 
ATOM     50  C   UNL A   1      41.318  32.216  30.142  1.00  0.00     0.049 A 
ATOM     51  C   UNL A   1      46.229  30.025  28.625  1.00  0.00     0.074 A 
ATOM     52  C   UNL A   1      41.325  33.530  30.573  1.00  0.00     0.029 A 
ATOM     53  N   UNL A   1      42.632  31.884  29.851  1.00  0.00    -0.354 N 
ATOM     54  N   UNL A   1      45.161  30.665  29.042  1.00  0.00    -0.248 NA
ATOM     55  C   UNL A   1      47.474  30.800  28.743  1.00  0.00     0.031 C 
ATOM     56  C   UNL A   1      42.635  34.011  30.491  1.00  0.00     0.029 A 
ATOM     57  C   UNL A   1      43.455  32.975  30.076  1.00  0.00     0.049 A 
ATOM     58  H   UNL A   1      42.935  31.003  29.530  1.00  0.00     0.167 HD
ATOM     59  C   UNL A   1      45.607  31.918  29.455  1.00  0.00     0.074 A 
ATOM     60  C   UNL A   1      47.044  31.927  29.293  1.00  0.00     0.031 C 
ATOM     61  C   UNL A   1      44.886  32.977  29.902  1.00  0.00     0.031 A 
BRANCH  48  62
ATOM     62  C   UNL A   1      38.820  31.854  30.309  1.00  0.00    -0.014 A 
ATOM     63  C   UNL A   1      38.029  32.470  29.322  1.00  0.00     0.010 A 
ATOM     64  C   UNL A   1      38.313  31.725  31.615  1.00  0.00     0.010 A 
ATOM     65  C   UNL A   1      36.773  32.985  29.649  1.00  0.00     0.020 A 
ATOM     66  C   UNL A   1      37.045  32.212  31.937  1.00  0.00     0.020 A 
ATOM     67  C   UNL A   1      36.291  32.855  30.955  1.00  0.00     0.054 A 
BRANCH  67  68
ATOM     68  S   UNL A   1      34.652  33.526  31.347  1.00  0.00     0.124 S 
ATOM     69  O   UNL A   1      34.034  33.601  30.026  1.00  0.00    -0.237 OA
ATOM     70  O   UNL A   1      34.099  32.514  32.243  1.00  0.00    -0.237 OA
ATOM     71  O   UNL A   1      34.945  34.814  31.971  1.00  0.00    -0.744 OA
ENDBRANCH  67  68
ENDBRANCH  48  62
BRANCH  49  72
ATOM     72  C   UNL A   1      47.685  28.058  27.737  1.00  0.00    -0.014 A 
ATOM     73  C   UNL A   1      48.239  28.188  26.447  1.00  0.00     0.010 A 
ATOM     74  C   UNL A   1      48.412  27.355  28.713  1.00  0.00     0.010 A 
ATOM     75  C   UNL A   1      49.475  27.611  26.136  1.00  0.00     0.020 A 
ATOM     76  C   UNL A   1      49.666  26.808  28.417  1.00  0.00     0.020 A 
ATOM     77  C   UNL A   1      50.182  26.924  27.124  1.00  0.00     0.054 A 
BRANCH  77  78
ATOM     78  S   UNL A   1      51.803  26.215  26.716  1.00  0.00     0.124 S 
ATOM     79  O   UNL A   1      52.160  26.952  25.508  1.00  0.00    -0.237 OA
ATOM     80  O   UNL A   1      52.595  26.526  27.903  1.00  0.00    -0.237 OA
ATOM     81  O   UNL A   1      51.514  24.796  26.523  1.00  0.00    -0.744 OA
ENDBRANCH  77  78
ENDBRANCH  49  72
BRANCH  61  82
ATOM     82  C   UNL A   1      45.630  34.244  30.241  1.00  0.00    -0.014 A 
ATOM     83  C   UNL A   1      46.147  34.461  31.531  1.00  0.00     0.010 A 
ATOM     84  C   UNL A   1      45.884  35.197  29.236  1.00  0.00     0.010 A 
ATOM     85  C   UNL A   1      46.880  35.618  31.817  1.00  0.00     0.020 A 
ATOM     86  C   UNL A   1      46.639  36.340  29.510  1.00  0.00     0.020 A 
ATOM     87  C   UNL A   1      47.123  36.550  30.803  1.00  0.00     0.054 A 
BRANCH  87  88
ATOM     88  S   UNL A   1      48.120  38.017  31.187  1.00  0.00     0.124 S 
ATOM     89  O   UNL A   1      47.837  38.884  30.047  1.00  0.00    -0.237 OA
ATOM     90  O   UNL A   1      47.562  38.458  32.464  1.00  0.00    -0.237 OA
ATOM     91  O   UNL A   1      49.485  37.501  31.256  1.00  0.00    -0.744 OA
ENDBRANCH  87  88
ENDBRANCH  61  82
ENDBRANCH  35  36
ENDBRANCH  28  30
ENDBRANCH  27  28
ENDBRANCH  26  27
ENDBRANCH  25  26
ENDBRANCH  24  25
ENDBRANCH   1  24
TORSDOF 22
ENDMDL
MODEL 2
REMARK VINA RESULT:      -9.7      1.348      8.261
REMARK SMILES CC(C)c1ccc([C@]2(C(=O)OCCOCCOCCOC(=O)c3ccc(-c4c5nc(c(-c6ccc(S(=O)(=O)[O-])cc6)c6ccc([nH]6)c(-c6ccc(S(=O)(=O)[O-])cc6)c6nc(c(-c7ccc(S(=O)(=O)[O-])cc7)c7ccc4[nH]7)C=C6)C=C5)cc3)CCC[C@@H]2C)cc1
REMARK SMILES IDX 16 1 15 2 14 3 13 4 12 5 11 6 9 7 10 8 8 9 83 10 86 11 84 12
REMARK SMILES IDX 85 13 87 14 7 15 4 16 5 17 89 18 6 19 88 20 2 21 1 22 3 23
REMARK SMILES IDX 17 24 18 25 19 26 20 27 21 28 22 29 23 30 24 31 82 32 25 33
REMARK SMILES IDX 81 34 26 35 27 36 28 37 75 38 29 39 80 40 74 41 76 42 30 43
REMARK SMILES IDX 79 44 73 45 72 46 31 48 61 49 42 50 60 51 43 52 46 53 59 54
REMARK SMILES IDX 77 55 44 56 45 57 58 59 78 60 47 61 32 62 33 63 41 64 34 65
REMARK SMILES IDX 40 66 35 67 36 68 37 69 38 70 39 71 62 72 63 73 71 74 64 75
REMARK SMILES IDX 70 76 65 77 66 78 67 79 68 80 69 81 48 82 49 83 57 84 50 85
REMARK SMILES IDX 56 86 51 87 52 88 53 89 54 90 55 91
REMARK H PARENT 76 47 46 58
REMARK Flexibility Score: inf
ROOT
ATOM      1  C   UNL A   1      34.666  21.726  24.205  1.00  0.00     0.188 C 
ENDROOT
BRANCH   1   2
ATOM      2  C   UNL A   1      33.145  21.883  24.098  1.00  0.00     0.188 C 
BRANCH   2   3
ATOM      3  O   UNL A   1      32.330  21.118  24.978  1.00  0.00    -0.376 OA
BRANCH   3   4
ATOM      4  C   UNL A   1      31.451  21.803  25.866  1.00  0.00     0.202 C 
BRANCH   4   5
ATOM      5  C   UNL A   1      32.023  22.933  26.736  1.00  0.00     0.261 C 
BRANCH   5   6
ATOM      6  O   UNL A   1      31.562  24.267  26.414  1.00  0.00    -0.463 OA
BRANCH   6   7
ATOM      7  C   UNL A   1      32.422  25.029  25.677  1.00  0.00     0.316 C 
ATOM      8  O   UNL A   1      33.643  24.946  25.782  1.00  0.00    -0.251 OA
BRANCH   7   9
ATOM      9  C   UNL A   1      31.741  26.084  24.735  1.00  0.00     0.095 C 
ATOM     10  C   UNL A   1      32.154  26.131  23.244  1.00  0.00     0.024 C 
ATOM     11  C   UNL A   1      30.272  25.559  24.545  1.00  0.00     0.008 C 
ATOM     12  C   UNL A   1      31.562  24.886  22.587  1.00  0.00     0.002 C 
ATOM     13  C   UNL A   1      30.458  24.413  23.529  1.00  0.00     0.005 C 
ATOM     14  C   UNL A   1      29.258  26.565  23.969  1.00  0.00     0.009 C 
BRANCH   9  15
ATOM     15  C   UNL A   1      31.907  27.454  25.417  1.00  0.00    -0.030 A 
ATOM     16  C   UNL A   1      32.176  30.005  26.667  1.00  0.00    -0.045 A 
ATOM     17  C   UNL A   1      32.437  29.843  25.306  1.00  0.00     0.004 A 
ATOM     18  C   UNL A   1      31.720  28.891  27.384  1.00  0.00     0.004 A 
ATOM     19  C   UNL A   1      32.282  28.595  24.690  1.00  0.00     0.005 A 
ATOM     20  C   UNL A   1      31.596  27.636  26.774  1.00  0.00     0.005 A 
BRANCH  16  21
ATOM     21  C   UNL A   1      32.280  31.348  27.370  1.00  0.00     0.013 C 
ATOM     22  C   UNL A   1      33.707  31.797  27.693  1.00  0.00     0.012 C 
ATOM     23  C   UNL A   1      31.581  32.415  26.535  1.00  0.00     0.012 C 
ENDBRANCH  16  21
ENDBRANCH   9  15
ENDBRANCH   7   9
ENDBRANCH   6   7
ENDBRANCH   5   6
ENDBRANCH   4   5
ENDBRANCH   3   4
ENDBRANCH   2   3
ENDBRANCH   1   2
BRANCH   1  24
ATOM     24  O   UNL A   1      35.101  20.445  24.614  1.00  0.00    -0.376 OA
BRANCH  24  25
ATOM     25  C   UNL A   1      36.389  20.341  25.191  1.00  0.00     0.202 C 
BRANCH  25  26
ATOM     26  C   UNL A   1      37.372  21.449  24.791  1.00  0.00     0.261 C 
BRANCH  26  27
ATOM     27  O   UNL A   1      37.855  22.263  25.875  1.00  0.00    -0.460 OA
BRANCH  27  28
ATOM     28  C   UNL A   1      39.138  22.076  26.268  1.00  0.00     0.338 C 
ATOM     29  O   UNL A   1      39.843  21.113  26.014  1.00  0.00    -0.246 OA
BRANCH  28  30
ATOM     30  C   UNL A   1      39.621  23.352  26.852  1.00  0.00     0.060 A 
ATOM     31  C   UNL A   1      39.009  24.551  26.461  1.00  0.00     0.016 A 
ATOM     32  C   UNL A   1      40.639  23.366  27.810  1.00  0.00     0.016 A 
ATOM     33  C   UNL A   1      39.431  25.763  27.016  1.00  0.00     0.010 A 
ATOM     34  C   UNL A   1      41.072  24.582  28.350  1.00  0.00     0.010 A 
ATOM     35  C   UNL A   1      40.484  25.790  27.946  1.00  0.00    -0.014 A 
BRANCH  35  36
ATOM     36  C   UNL A   1      41.089  27.087  28.348  1.00  0.00     0.031 A 
ATOM     37  C   UNL A   1      42.555  27.298  28.086  1.00  0.00     0.074 A 
ATOM     38  C   UNL A   1      40.376  28.051  28.958  1.00  0.00     0.049 A 
ATOM     39  N   UNL A   1      43.296  28.349  28.323  1.00  0.00    -0.248 NA
ATOM     40  C   UNL A   1      43.283  26.160  27.503  1.00  0.00     0.031 C 
ATOM     41  C   UNL A   1      38.961  27.960  29.302  1.00  0.00     0.029 A 
ATOM     42  N   UNL A   1      40.743  29.309  29.378  1.00  0.00    -0.354 N 
ATOM     43  C   UNL A   1      44.586  27.988  27.954  1.00  0.00     0.074 A 
ATOM     44  C   UNL A   1      44.521  26.629  27.461  1.00  0.00     0.031 C 
ATOM     45  C   UNL A   1      38.568  29.131  29.837  1.00  0.00     0.029 A 
ATOM     46  C   UNL A   1      39.697  30.058  29.872  1.00  0.00     0.049 A 
ATOM     47  H   UNL A   1      41.668  29.644  29.330  1.00  0.00     0.167 HD
ATOM     48  C   UNL A   1      45.728  28.707  28.049  1.00  0.00     0.031 A 
ATOM     49  C   UNL A   1      39.652  31.347  30.275  1.00  0.00     0.031 A 
ATOM     50  C   UNL A   1      45.808  30.037  28.591  1.00  0.00     0.049 A 
ATOM     51  C   UNL A   1      40.931  32.151  30.312  1.00  0.00     0.074 A 
ATOM     52  C   UNL A   1      46.930  30.827  28.764  1.00  0.00     0.029 A 
ATOM     53  N   UNL A   1      44.727  30.769  29.057  1.00  0.00    -0.354 N 
ATOM     54  N   UNL A   1      42.138  31.805  29.930  1.00  0.00    -0.248 NA
ATOM     55  C   UNL A   1      40.847  33.513  30.865  1.00  0.00     0.031 C 
ATOM     56  C   UNL A   1      46.536  32.016  29.386  1.00  0.00     0.029 A 
ATOM     57  C   UNL A   1      45.158  31.995  29.535  1.00  0.00     0.049 A 
ATOM     58  H   UNL A   1      43.791  30.461  29.050  1.00  0.00     0.167 HD
ATOM     59  C   UNL A   1      42.954  32.898  30.211  1.00  0.00     0.074 A 
ATOM     60  C   UNL A   1      42.097  33.936  30.740  1.00  0.00     0.031 C 
ATOM     61  C   UNL A   1      44.298  33.020  30.070  1.00  0.00     0.031 A 
BRANCH  48  62
ATOM     62  C   UNL A   1      47.000  28.025  27.627  1.00  0.00    -0.014 A 
ATOM     63  C   UNL A   1      47.652  27.107  28.469  1.00  0.00     0.010 A 
ATOM     64  C   UNL A   1      47.549  28.309  26.363  1.00  0.00     0.010 A 
ATOM     65  C   UNL A   1      48.855  26.518  28.071  1.00  0.00     0.020 A 
ATOM     66  C   UNL A   1      48.735  27.699  25.949  1.00  0.00     0.020 A 
ATOM     67  C   UNL A   1      49.389  26.821  26.814  1.00  0.00     0.054 A 
BRANCH  67  68
ATOM     68  S   UNL A   1      50.947  26.034  26.320  1.00  0.00     0.124 S 
ATOM     69  O   UNL A   1      50.881  24.762  27.035  1.00  0.00    -0.237 OA
ATOM     70  O   UNL A   1      50.814  25.946  24.868  1.00  0.00    -0.237 OA
ATOM     71  O   UNL A   1      51.970  26.963  26.794  1.00  0.00    -0.744 OA
ENDBRANCH  67  68
ENDBRANCH  48  62
BRANCH  49  72
ATOM     72  C   UNL A   1      38.355  31.989  30.656  1.00  0.00    -0.014 A 
ATOM     73  C   UNL A   1      37.633  32.741  29.707  1.00  0.00     0.010 A 
ATOM     74  C   UNL A   1      37.843  31.882  31.960  1.00  0.00     0.010 A 
ATOM     75  C   UNL A   1      36.444  33.388  30.060  1.00  0.00     0.020 A 
ATOM     76  C   UNL A   1      36.635  32.497  32.308  1.00  0.00     0.020 A 
ATOM     77  C   UNL A   1      35.951  33.261  31.360  1.00  0.00     0.054 A 
BRANCH  77  78
ATOM     78  S   UNL A   1      34.387  34.074  31.792  1.00  0.00     0.124 S 
ATOM     79  O   UNL A   1      33.707  34.129  30.502  1.00  0.00    -0.237 OA
ATOM     80  O   UNL A   1      33.810  33.157  32.772  1.00  0.00    -0.237 OA
ATOM     81  O   UNL A   1      34.812  35.364  32.332  1.00  0.00    -0.744 OA
ENDBRANCH  77  78
ENDBRANCH  49  72
BRANCH  61  82
ATOM     82  C   UNL A   1      44.938  34.316  30.501  1.00  0.00    -0.014 A 
ATOM     83  C   UNL A   1      45.427  34.485  31.809  1.00  0.00     0.010 A 
ATOM     84  C   UNL A   1      45.124  35.350  29.565  1.00  0.00     0.010 A 
ATOM     85  C   UNL A   1      46.065  35.673  32.181  1.00  0.00     0.020 A 
ATOM     86  C   UNL A   1      45.785  36.528  29.924  1.00  0.00     0.020 A 
ATOM     87  C   UNL A   1      46.242  36.687  31.234  1.00  0.00     0.054 A 
BRANCH  87  88
ATOM     88  S   UNL A   1      47.118  38.198  31.727  1.00  0.00     0.124 S 
ATOM     89  O   UNL A   1      48.372  38.076  30.989  1.00  0.00    -0.237 OA
ATOM     90  O   UNL A   1      46.219  39.254  31.267  1.00  0.00    -0.237 OA
ATOM     91  O   UNL A   1      47.234  38.075  33.178  1.00  0.00    -0.744 OA
ENDBRANCH  87  88
ENDBRANCH  61  82
ENDBRANCH  35  36
ENDBRANCH  28  30
ENDBRANCH  27  28
ENDBRANCH  26  27
ENDBRANCH  25  26
ENDBRANCH  24  25
ENDBRANCH   1  24
TORSDOF 22
ENDMDL
MODEL 3
REMARK VINA RESULT:      -9.7      5.464      7.809
REMARK SMILES CC(C)c1ccc([C@]2(C(=O)OCCOCCOCCOC(=O)c3ccc(-c4c5nc(c(-c6ccc(S(=O)(=O)[O-])cc6)c6ccc([nH]6)c(-c6ccc(S(=O)(=O)[O-])cc6)c6nc(c(-c7ccc(S(=O)(=O)[O-])cc7)c7ccc4[nH]7)C=C6)C=C5)cc3)CCC[C@@H]2C)cc1
REMARK SMILES IDX 16 1 15 2 14 3 13 4 12 5 11 6 9 7 10 8 8 9 83 10 86 11 84 12
REMARK SMILES IDX 85 13 87 14 7 15 4 16 5 17 89 18 6 19 88 20 2 21 1 22 3 23
REMARK SMILES IDX 17 24 18 25 19 26 20 27 21 28 22 29 23 30 24 31 82 32 25 33
REMARK SMILES IDX 81 34 26 35 27 36 28 37 75 38 29 39 80 40 74 41 76 42 30 43
REMARK SMILES IDX 79 44 73 45 72 46 31 48 61 49 42 50 60 51 43 52 46 53 59 54
REMARK SMILES IDX 77 55 44 56 45 57 58 59 78 60 47 61 32 62 33 63 41 64 34 65
REMARK SMILES IDX 40 66 35 67 36 68 37 69 38 70 39 71 62 72 63 73 71 74 64 75
REMARK SMILES IDX 70 76 65 77 66 78 67 79 68 80 69 81 48 82 49 83 57 84 50 85
REMARK SMILES IDX 56 86 51 87 52 88 53 89 54 90 55 91
REMARK H PARENT 76 47 46 58
REMARK Flexibility Score: inf
ROOT
ATOM      1  C   UNL A   1      39.383  21.390  25.785  1.00  0.00     0.188 C 
ENDROOT
BRANCH   1   2
ATOM      2  C   UNL A   1      37.856  21.312  25.684  1.00  0.00     0.188 C 
BRANCH   2   3
ATOM      3  O   UNL A   1      37.107  22.493  25.944  1.00  0.00    -0.376 OA
BRANCH   3   4
ATOM      4  C   UNL A   1      37.234  23.596  25.050  1.00  0.00     0.202 C 
BRANCH   4   5
ATOM      5  C   UNL A   1      36.534  23.516  23.685  1.00  0.00     0.261 C 
BRANCH   5   6
ATOM      6  O   UNL A   1      35.352  24.339  23.536  1.00  0.00    -0.463 OA
BRANCH   6   7
ATOM      7  C   UNL A   1      34.236  23.699  23.081  1.00  0.00     0.316 C 
ATOM      8  O   UNL A   1      33.990  23.560  21.885  1.00  0.00    -0.251 OA
BRANCH   7   9
ATOM      9  C   UNL A   1      33.241  23.216  24.194  1.00  0.00     0.095 C 
ATOM     10  C   UNL A   1      33.446  23.714  25.646  1.00  0.00     0.024 C 
ATOM     11  C   UNL A   1      31.899  23.973  23.885  1.00  0.00     0.008 C 
ATOM     12  C   UNL A   1      33.043  25.187  25.664  1.00  0.00     0.002 C 
ATOM     13  C   UNL A   1      32.187  25.391  24.417  1.00  0.00     0.005 C 
ATOM     14  C   UNL A   1      30.636  23.434  24.583  1.00  0.00     0.009 C 
BRANCH   9  15
ATOM     15  C   UNL A   1      33.207  21.680  24.117  1.00  0.00    -0.030 A 
ATOM     16  C   UNL A   1      33.120  18.829  24.010  1.00  0.00    -0.045 A 
ATOM     17  C   UNL A   1      34.047  19.487  24.819  1.00  0.00     0.004 A 
ATOM     18  C   UNL A   1      32.197  19.610  23.301  1.00  0.00     0.004 A 
ATOM     19  C   UNL A   1      34.072  20.886  24.888  1.00  0.00     0.005 A 
ATOM     20  C   UNL A   1      32.244  21.009  23.345  1.00  0.00     0.005 A 
BRANCH  16  21
ATOM     21  C   UNL A   1      33.019  17.315  23.941  1.00  0.00     0.013 C 
ATOM     22  C   UNL A   1      34.090  16.637  23.083  1.00  0.00     0.012 C 
ATOM     23  C   UNL A   1      33.047  16.737  25.351  1.00  0.00     0.012 C 
ENDBRANCH  16  21
ENDBRANCH   9  15
ENDBRANCH   7   9
ENDBRANCH   6   7
ENDBRANCH   5   6
ENDBRANCH   4   5
ENDBRANCH   3   4
ENDBRANCH   2   3
ENDBRANCH   1   2
BRANCH   1  24
ATOM     24  O   UNL A   1      39.868  22.001  26.963  1.00  0.00    -0.376 OA
BRANCH  24  25
ATOM     25  C   UNL A   1      41.256  22.259  27.047  1.00  0.00     0.202 C 
BRANCH  25  26
ATOM     26  C   UNL A   1      41.749  23.446  26.211  1.00  0.00     0.261 C 
BRANCH  26  27
ATOM     27  O   UNL A   1      40.943  24.635  26.296  1.00  0.00    -0.460 OA
BRANCH  27  28
ATOM     28  C   UNL A   1      41.565  25.823  26.099  1.00  0.00     0.338 C 
ATOM     29  O   UNL A   1      42.103  26.199  25.071  1.00  0.00    -0.246 OA
BRANCH  28  30
ATOM     30  C   UNL A   1      41.265  26.689  27.267  1.00  0.00     0.060 A 
ATOM     31  C   UNL A   1      41.751  28.003  27.278  1.00  0.00     0.016 A 
ATOM     32  C   UNL A   1      40.475  26.226  28.322  1.00  0.00     0.016 A 
ATOM     33  C   UNL A   1      41.460  28.845  28.356  1.00  0.00     0.010 A 
ATOM     34  C   UNL A   1      40.201  27.064  29.408  1.00  0.00     0.010 A 
ATOM     35  C   UNL A   1      40.705  28.373  29.442  1.00  0.00    -0.014 A 
BRANCH  35  36
ATOM     36  C   UNL A   1      40.603  29.182  30.686  1.00  0.00     0.031 A 
ATOM     37  C   UNL A   1      39.487  30.183  30.791  1.00  0.00     0.074 A 
ATOM     38  C   UNL A   1      41.489  29.062  31.691  1.00  0.00     0.049 A 
ATOM     39  N   UNL A   1      39.180  30.981  31.781  1.00  0.00    -0.248 NA
ATOM     40  C   UNL A   1      38.619  30.319  29.610  1.00  0.00     0.031 C 
ATOM     41  C   UNL A   1      42.635  28.160  31.701  1.00  0.00     0.029 A 
ATOM     42  N   UNL A   1      41.549  29.694  32.913  1.00  0.00    -0.354 N 
ATOM     43  C   UNL A   1      38.107  31.740  31.331  1.00  0.00     0.074 A 
ATOM     44  C   UNL A   1      37.806  31.295  29.987  1.00  0.00     0.031 C 
ATOM     45  C   UNL A   1      43.256  28.259  32.890  1.00  0.00     0.029 A 
ATOM     46  C   UNL A   1      42.556  29.228  33.730  1.00  0.00     0.049 A 
ATOM     47  H   UNL A   1      40.930  30.411  33.179  1.00  0.00     0.167 HD
ATOM     48  C   UNL A   1      37.452  32.742  31.962  1.00  0.00     0.031 A 
ATOM     49  C   UNL A   1      42.855  29.526  35.013  1.00  0.00     0.031 A 
ATOM     50  C   UNL A   1      37.783  33.227  33.275  1.00  0.00     0.049 A 
ATOM     51  C   UNL A   1      42.068  30.606  35.721  1.00  0.00     0.074 A 
ATOM     52  C   UNL A   1      37.200  34.266  33.978  1.00  0.00     0.029 A 
ATOM     53  N   UNL A   1      38.790  32.716  34.079  1.00  0.00    -0.354 N 
ATOM     54  N   UNL A   1      41.036  31.294  35.291  1.00  0.00    -0.248 NA
ATOM     55  C   UNL A   1      42.507  30.972  37.077  1.00  0.00     0.031 C 
ATOM     56  C   UNL A   1      37.890  34.420  35.184  1.00  0.00     0.029 A 
ATOM     57  C   UNL A   1      38.858  33.431  35.263  1.00  0.00     0.049 A 
ATOM     58  H   UNL A   1      39.372  31.958  33.841  1.00  0.00     0.167 HD
ATOM     59  C   UNL A   1      40.716  32.179  36.317  1.00  0.00     0.074 A 
ATOM     60  C   UNL A   1      41.623  31.903  37.409  1.00  0.00     0.031 C 
ATOM     61  C   UNL A   1      39.773  33.154  36.342  1.00  0.00     0.031 A 
BRANCH  48  62
ATOM     62  C   UNL A   1      36.361  33.434  31.194  1.00  0.00    -0.014 A 
ATOM     63  C   UNL A   1      36.555  33.859  29.867  1.00  0.00     0.010 A 
ATOM     64  C   UNL A   1      35.118  33.660  31.813  1.00  0.00     0.010 A 
ATOM     65  C   UNL A   1      35.539  34.536  29.189  1.00  0.00     0.020 A 
ATOM     66  C   UNL A   1      34.089  34.309  31.127  1.00  0.00     0.020 A 
ATOM     67  C   UNL A   1      34.313  34.759  29.825  1.00  0.00     0.054 A 
BRANCH  67  68
ATOM     68  S   UNL A   1      33.010  35.633  28.917  1.00  0.00     0.124 S 
ATOM     69  O   UNL A   1      33.776  36.628  28.173  1.00  0.00    -0.237 OA
ATOM     70  O   UNL A   1      32.413  34.569  28.113  1.00  0.00    -0.237 OA
ATOM     71  O   UNL A   1      32.152  36.169  29.971  1.00  0.00    -0.744 OA
ENDBRANCH  67  68
ENDBRANCH  48  62
BRANCH  49  72
ATOM     72  C   UNL A   1      43.932  28.787  35.744  1.00  0.00    -0.014 A 
ATOM     73  C   UNL A   1      45.265  29.243  35.691  1.00  0.00     0.010 A 
ATOM     74  C   UNL A   1      43.650  27.618  36.472  1.00  0.00     0.010 A 
ATOM     75  C   UNL A   1      46.290  28.537  36.328  1.00  0.00     0.020 A 
ATOM     76  C   UNL A   1      44.667  26.929  37.142  1.00  0.00     0.020 A 
ATOM     77  C   UNL A   1      45.984  27.383  37.051  1.00  0.00     0.054 A 
BRANCH  77  78
ATOM     78  S   UNL A   1      47.321  26.500  37.906  1.00  0.00     0.124 S 
ATOM     79  O   UNL A   1      47.117  25.128  37.451  1.00  0.00    -0.237 OA
ATOM     80  O   UNL A   1      48.518  27.163  37.396  1.00  0.00    -0.237 OA
ATOM     81  O   UNL A   1      47.038  26.740  39.319  1.00  0.00    -0.744 OA
ENDBRANCH  77  78
ENDBRANCH  49  72
BRANCH  61  82
ATOM     82  C   UNL A   1      39.672  34.008  37.581  1.00  0.00    -0.014 A 
ATOM     83  C   UNL A   1      38.847  33.634  38.657  1.00  0.00     0.010 A 
ATOM     84  C   UNL A   1      40.473  35.158  37.704  1.00  0.00     0.010 A 
ATOM     85  C   UNL A   1      38.803  34.408  39.821  1.00  0.00     0.020 A 
ATOM     86  C   UNL A   1      40.454  35.919  38.876  1.00  0.00     0.020 A 
ATOM     87  C   UNL A   1      39.610  35.546  39.923  1.00  0.00     0.054 A 
BRANCH  87  88
ATOM     88  S   UNL A   1      39.573  36.505  41.464  1.00  0.00     0.124 S 
ATOM     89  O   UNL A   1      38.471  35.878  42.187  1.00  0.00    -0.237 OA
ATOM     90  O   UNL A   1      40.904  36.268  42.020  1.00  0.00    -0.237 OA
ATOM     91  O   UNL A   1      39.327  37.873  41.016  1.00  0.00    -0.744 OA
ENDBRANCH  87  88
ENDBRANCH  61  82
ENDBRANCH  35  36
ENDBRANCH  28  30
ENDBRANCH  27  28
ENDBRANCH  26  27
ENDBRANCH  25  26
ENDBRANCH  24  25
ENDBRANCH   1  24
TORSDOF 22
ENDMDL
