MODEL 1
REMARK VINA RESULT:     -12.3      0.000      0.000
REMARK SMILES O=C(OCCOCCOCCOC(=O)c1ccc(-c2c3nc(c(-c4ccc(S(=O)(=O)[O-])cc4)c4ccc([nH]4)c(-c4ccc(S(=O)(=O)[O-])cc4)c4nc(c(-c5ccc(S(=O)(=O)[O-])cc5)c5ccc2[nH]5)C=C4)C=C3)cc1)C1=Cc2cc(Cl)cc(-c3ccc(O)cc3)c2O[C@@H]1C(F)(F)F
REMARK SMILES IDX 8 1 7 2 6 3 5 4 4 5 3 6 2 7 1 8 75 9 76 10 92 11 77 12 91 13
REMARK SMILES IDX 78 14 90 15 79 16 82 17 80 18 81 19 93 20 94 21 95 22 96 23
REMARK SMILES IDX 83 24 84 25 89 26 85 27 88 28 86 29 87 30 9 32 10 33 11 34
REMARK SMILES IDX 12 35 13 36 14 37 15 38 16 39 74 40 17 41 73 42 18 43 19 44
REMARK SMILES IDX 20 45 67 46 21 47 72 48 66 49 68 50 22 51 71 52 65 53 64 54
REMARK SMILES IDX 23 56 53 57 34 58 52 59 35 60 38 61 51 62 69 63 36 64 37 65
REMARK SMILES IDX 50 67 70 68 39 69 24 70 25 71 33 72 26 73 32 74 27 75 28 76
REMARK SMILES IDX 29 77 30 78 31 79 54 80 55 81 63 82 56 83 62 84 57 85 58 86
REMARK SMILES IDX 59 87 60 88 61 89 40 90 41 91 49 92 42 93 48 94 43 95 44 96
REMARK SMILES IDX 45 97 46 98 47 99
REMARK H PARENT 87 31 68 55 38 66
REMARK Flexibility Score: inf
ROOT
ATOM      1  C   UNL A   1      34.366  32.930  28.921  1.00  0.00     0.188 C 
ENDROOT
BRANCH   1   2
ATOM      2  C   UNL A   1      33.702  32.279  27.699  1.00  0.00     0.188 C 
BRANCH   2   3
ATOM      3  O   UNL A   1      33.514  30.784  27.517  1.00  0.00    -0.376 OA
BRANCH   3   4
ATOM      4  C   UNL A   1      32.073  29.956  26.911  1.00  0.00     0.202 C 
BRANCH   4   5
ATOM      5  C   UNL A   1      31.806  27.805  27.097  1.00  0.00     0.261 C 
BRANCH   5   6
ATOM      6  O   UNL A   1      32.664  26.728  26.440  1.00  0.00    -0.460 OA
BRANCH   6   7
ATOM      7  C   UNL A   1      32.004  25.568  26.311  1.00  0.00     0.338 C 
ATOM      8  O   UNL A   1      31.451  24.924  27.166  1.00  0.00    -0.246 OA
BRANCH   7   9
ATOM      9  C   UNL A   1      32.600  25.177  25.045  1.00  0.00     0.087 C 
ATOM     10  C   UNL A   1      34.032  24.975  25.046  1.00  0.00     0.027 C 
ATOM     11  C   UNL A   1      31.306  23.808  24.718  1.00  0.00     0.316 C 
ATOM     12  C   UNL A   1      34.819  23.373  25.078  1.00  0.00     0.019 A 
ATOM     13  O   UNL A   1      32.121  22.023  24.909  1.00  0.00    -0.475 OA
ATOM     14  C   UNL A   1      36.172  23.366  25.301  1.00  0.00     0.032 A 
ATOM     15  C   UNL A   1      33.942  21.877  25.077  1.00  0.00     0.135 A 
ATOM     16  C   UNL A   1      36.742  22.104  25.465  1.00  0.00     0.042 A 
ATOM     17  C   UNL A   1      34.613  20.663  25.185  1.00  0.00     0.026 A 
ATOM     18  Cl  UNL A   1      38.440  22.031  25.799  1.00  0.00    -0.084 Cl
ATOM     19  C   UNL A   1      36.020  20.858  25.390  1.00  0.00     0.033 A 
BRANCH  11  20
ATOM     20  C   UNL A   1      30.714  24.695  23.351  1.00  0.00     0.430 C 
ATOM     21  F   UNL A   1      30.269  25.952  23.453  1.00  0.00    -0.167 F 
ATOM     22  F   UNL A   1      31.691  24.704  22.405  1.00  0.00    -0.167 F 
ATOM     23  F   UNL A   1      29.661  24.051  22.752  1.00  0.00    -0.167 F 
ENDBRANCH  11  20
BRANCH  17  24
ATOM     24  C   UNL A   1      34.203  19.265  25.063  1.00  0.00    -0.014 A 
ATOM     25  C   UNL A   1      34.872  18.371  24.222  1.00  0.00     0.012 A 
ATOM     26  C   UNL A   1      32.951  18.858  25.575  1.00  0.00     0.012 A 
ATOM     27  C   UNL A   1      34.376  17.077  24.008  1.00  0.00     0.047 A 
ATOM     28  C   UNL A   1      32.472  17.552  25.403  1.00  0.00     0.047 A 
ATOM     29  C   UNL A   1      33.214  16.660  24.646  1.00  0.00     0.115 A 
BRANCH  29  30
ATOM     30  O   UNL A   1      32.834  15.359  24.517  1.00  0.00    -0.508 OA
ATOM     31  H   UNL A   1      33.254  14.694  25.026  1.00  0.00     0.293 HD
ENDBRANCH  29  30
ENDBRANCH  17  24
ENDBRANCH   7   9
ENDBRANCH   6   7
ENDBRANCH   5   6
ENDBRANCH   4   5
ENDBRANCH   3   4
ENDBRANCH   2   3
ENDBRANCH   1   2
BRANCH   1  32
ATOM     32  O   UNL A   1      34.656  32.166  30.052  1.00  0.00    -0.376 OA
BRANCH  32  33
ATOM     33  C   UNL A   1      34.781  32.898  31.249  1.00  0.00     0.202 C 
BRANCH  33  34
ATOM     34  C   UNL A   1      35.630  32.384  32.410  1.00  0.00     0.261 C 
BRANCH  34  35
ATOM     35  O   UNL A   1      36.715  31.542  32.019  1.00  0.00    -0.460 OA
BRANCH  35  36
ATOM     36  C   UNL A   1      37.824  32.194  31.606  1.00  0.00     0.338 C 
ATOM     37  O   UNL A   1      38.148  33.343  31.850  1.00  0.00    -0.246 OA
BRANCH  36  38
ATOM     38  C   UNL A   1      38.711  31.213  30.964  1.00  0.00     0.060 A 
ATOM     39  C   UNL A   1      39.615  30.492  31.759  1.00  0.00     0.016 A 
ATOM     40  C   UNL A   1      38.686  31.064  29.578  1.00  0.00     0.016 A 
ATOM     41  C   UNL A   1      40.521  29.630  31.163  1.00  0.00     0.010 A 
ATOM     42  C   UNL A   1      39.634  30.245  28.974  1.00  0.00     0.010 A 
ATOM     43  C   UNL A   1      40.583  29.574  29.768  1.00  0.00    -0.014 A 
BRANCH  43  44
ATOM     44  C   UNL A   1      41.851  29.127  29.166  1.00  0.00     0.031 A 
ATOM     45  C   UNL A   1      42.966  30.136  29.108  1.00  0.00     0.074 A 
ATOM     46  C   UNL A   1      42.023  27.862  28.754  1.00  0.00     0.049 A 
ATOM     47  N   UNL A   1      44.189  29.996  28.674  1.00  0.00    -0.248 NA
ATOM     48  C   UNL A   1      42.657  31.485  29.616  1.00  0.00     0.031 C 
ATOM     49  C   UNL A   1      41.024  26.799  28.838  1.00  0.00     0.029 A 
ATOM     50  N   UNL A   1      43.117  27.263  28.190  1.00  0.00    -0.354 N 
ATOM     51  C   UNL A   1      44.787  31.240  28.844  1.00  0.00     0.074 A 
ATOM     52  C   UNL A   1      43.788  32.129  29.389  1.00  0.00     0.031 C 
ATOM     53  C   UNL A   1      41.556  25.668  28.341  1.00  0.00     0.029 A 
ATOM     54  C   UNL A   1      42.916  25.940  27.880  1.00  0.00     0.049 A 
ATOM     55  H   UNL A   1      43.965  27.734  28.024  1.00  0.00     0.167 HD
ATOM     56  C   UNL A   1      46.058  31.608  28.568  1.00  0.00     0.031 A 
ATOM     57  C   UNL A   1      43.746  25.063  27.283  1.00  0.00     0.031 A 
ATOM     58  C   UNL A   1      47.027  30.716  27.991  1.00  0.00     0.049 A 
ATOM     59  C   UNL A   1      45.131  25.521  26.902  1.00  0.00     0.074 A 
ATOM     60  C   UNL A   1      48.346  30.971  27.672  1.00  0.00     0.029 A 
ATOM     61  N   UNL A   1      46.768  29.401  27.630  1.00  0.00    -0.354 N 
ATOM     62  N   UNL A   1      45.698  26.692  27.086  1.00  0.00    -0.248 NA
ATOM     63  C   UNL A   1      45.997  24.530  26.251  1.00  0.00     0.031 C 
ATOM     64  C   UNL A   1      48.862  29.836  27.038  1.00  0.00     0.029 A 
ATOM     65  C   UNL A   1      47.895  28.842  27.056  1.00  0.00     0.049 A 
ATOM     66  H   UNL A   1      45.911  28.936  27.763  1.00  0.00     0.167 HD
ATOM     67  C   UNL A   1      47.003  26.561  26.619  1.00  0.00     0.074 A 
ATOM     68  C   UNL A   1      47.138  25.197  26.150  1.00  0.00     0.031 C 
ATOM     69  C   UNL A   1      48.004  27.479  26.592  1.00  0.00     0.031 A 
BRANCH  56  70
ATOM     70  C   UNL A   1      46.435  33.045  28.818  1.00  0.00    -0.014 A 
ATOM     71  C   UNL A   1      46.275  34.037  27.833  1.00  0.00     0.010 A 
ATOM     72  C   UNL A   1      46.968  33.406  30.068  1.00  0.00     0.010 A 
ATOM     73  C   UNL A   1      46.686  35.352  28.078  1.00  0.00     0.020 A 
ATOM     74  C   UNL A   1      47.343  34.725  30.332  1.00  0.00     0.020 A 
ATOM     75  C   UNL A   1      47.217  35.685  29.328  1.00  0.00     0.054 A 
BRANCH  75  76
ATOM     76  S   UNL A   1      47.724  37.401  29.626  1.00  0.00     0.124 S 
ATOM     77  O   UNL A   1      46.454  38.114  29.521  1.00  0.00    -0.237 OA
ATOM     78  O   UNL A   1      48.298  37.335  30.966  1.00  0.00    -0.237 OA
ATOM     79  O   UNL A   1      48.679  37.672  28.554  1.00  0.00    -0.744 OA
ENDBRANCH  75  76
ENDBRANCH  56  70
BRANCH  57  80
ATOM     80  C   UNL A   1      43.296  23.669  27.023  1.00  0.00    -0.014 A 
ATOM     81  C   UNL A   1      43.148  22.753  28.080  1.00  0.00     0.010 A 
ATOM     82  C   UNL A   1      43.010  23.247  25.711  1.00  0.00     0.010 A 
ATOM     83  C   UNL A   1      42.741  21.439  27.828  1.00  0.00     0.020 A 
ATOM     84  C   UNL A   1      42.570  21.944  25.459  1.00  0.00     0.020 A 
ATOM     85  C   UNL A   1      42.448  21.045  26.519  1.00  0.00     0.054 A 
BRANCH  85  86
ATOM     86  S   UNL A   1      41.869  19.351  26.227  1.00  0.00     0.124 S 
ATOM     87  O   UNL A   1      40.454  19.558  25.935  1.00  0.00    -0.237 OA
ATOM     88  O   UNL A   1      42.693  18.929  25.098  1.00  0.00    -0.237 OA
ATOM     89  O   UNL A   1      42.153  18.669  27.488  1.00  0.00    -0.744 OA
ENDBRANCH  85  86
ENDBRANCH  57  80
BRANCH  69  90
ATOM     90  C   UNL A   1      49.355  27.019  26.106  1.00  0.00    -0.014 A 
ATOM     91  C   UNL A   1      49.745  27.136  24.761  1.00  0.00     0.010 A 
ATOM     92  C   UNL A   1      50.270  26.494  27.039  1.00  0.00     0.010 A 
ATOM     93  C   UNL A   1      51.003  26.684  24.349  1.00  0.00     0.020 A 
ATOM     94  C   UNL A   1      51.543  26.082  26.640  1.00  0.00     0.020 A 
ATOM     95  C   UNL A   1      51.892  26.158  25.292  1.00  0.00     0.054 A 
BRANCH  95  96
ATOM     96  S   UNL A   1      53.522  25.593  24.735  1.00  0.00     0.124 S 
ATOM     97  O   UNL A   1      54.418  26.339  25.614  1.00  0.00    -0.237 OA
ATOM     98  O   UNL A   1      53.459  24.153  24.975  1.00  0.00    -0.237 OA
ATOM     99  O   UNL A   1      53.563  25.984  23.327  1.00  0.00    -0.744 OA
ENDBRANCH  95  96
ENDBRANCH  69  90
ENDBRANCH  43  44
ENDBRANCH  36  38
ENDBRANCH  35  36
ENDBRANCH  34  35
ENDBRANCH  33  34
ENDBRANCH  32  33
ENDBRANCH   1  32
TORSDOF 23
ENDMDL
MODEL 2
REMARK VINA RESULT:     -10.8      3.044      4.439
REMARK SMILES O=C(OCCOCCOCCOC(=O)c1ccc(-c2c3nc(c(-c4ccc(S(=O)(=O)[O-])cc4)c4ccc([nH]4)c(-c4ccc(S(=O)(=O)[O-])cc4)c4nc(c(-c5ccc(S(=O)(=O)[O-])cc5)c5ccc2[nH]5)C=C4)C=C3)cc1)C1=Cc2cc(Cl)cc(-c3ccc(O)cc3)c2O[C@@H]1C(F)(F)F
REMARK SMILES IDX 8 1 7 2 6 3 5 4 4 5 3 6 2 7 1 8 75 9 76 10 92 11 77 12 91 13
REMARK SMILES IDX 78 14 90 15 79 16 82 17 80 18 81 19 93 20 94 21 95 22 96 23
REMARK SMILES IDX 83 24 84 25 89 26 85 27 88 28 86 29 87 30 9 32 10 33 11 34
REMARK SMILES IDX 12 35 13 36 14 37 15 38 16 39 74 40 17 41 73 42 18 43 19 44
REMARK SMILES IDX 20 45 67 46 21 47 72 48 66 49 68 50 22 51 71 52 65 53 64 54
REMARK SMILES IDX 23 56 53 57 34 58 52 59 35 60 38 61 51 62 69 63 36 64 37 65
REMARK SMILES IDX 50 67 70 68 39 69 24 70 25 71 33 72 26 73 32 74 27 75 28 76
REMARK SMILES IDX 29 77 30 78 31 79 54 80 55 81 63 82 56 83 62 84 57 85 58 86
REMARK SMILES IDX 59 87 60 88 61 89 40 90 41 91 49 92 42 93 48 94 43 95 44 96
REMARK SMILES IDX 45 97 46 98 47 99
REMARK H PARENT 87 31 68 55 38 66
REMARK Flexibility Score: inf
ROOT
ATOM      1  C   UNL A   1      34.293  33.376  29.238  1.00  0.00     0.188 C 
ENDROOT
BRANCH   1   2
ATOM      2  C   UNL A   1      33.727  32.601  28.039  1.00  0.00     0.188 C 
BRANCH   2   3
ATOM      3  O   UNL A   1      33.794  31.092  27.881  1.00  0.00    -0.376 OA
BRANCH   3   4
ATOM      4  C   UNL A   1      33.022  30.117  26.624  1.00  0.00     0.202 C 
BRANCH   4   5
ATOM      5  C   UNL A   1      32.422  28.052  26.961  1.00  0.00     0.261 C 
BRANCH   5   6
ATOM      6  O   UNL A   1      33.103  26.810  26.393  1.00  0.00    -0.460 OA
BRANCH   6   7
ATOM      7  C   UNL A   1      32.228  25.823  26.152  1.00  0.00     0.338 C 
ATOM      8  O   UNL A   1      31.505  25.258  26.933  1.00  0.00    -0.246 OA
BRANCH   7   9
ATOM      9  C   UNL A   1      32.804  25.394  24.889  1.00  0.00     0.087 C 
ATOM     10  C   UNL A   1      34.232  25.160  24.884  1.00  0.00     0.027 C 
ATOM     11  C   UNL A   1      31.478  24.049  24.598  1.00  0.00     0.316 C 
ATOM     12  C   UNL A   1      34.982  23.541  24.941  1.00  0.00     0.019 A 
ATOM     13  O   UNL A   1      32.254  22.250  24.818  1.00  0.00    -0.475 OA
ATOM     14  C   UNL A   1      36.336  23.507  25.154  1.00  0.00     0.032 A 
ATOM     15  C   UNL A   1      34.072  22.065  24.975  1.00  0.00     0.135 A 
ATOM     16  C   UNL A   1      36.879  22.236  25.338  1.00  0.00     0.042 A 
ATOM     17  C   UNL A   1      34.715  20.839  25.103  1.00  0.00     0.026 A 
ATOM     18  Cl  UNL A   1      38.578  22.131  25.662  1.00  0.00    -0.084 Cl
ATOM     19  C   UNL A   1      36.128  21.005  25.293  1.00  0.00     0.033 A 
BRANCH  11  20
ATOM     20  C   UNL A   1      30.895  24.923  23.218  1.00  0.00     0.430 C 
ATOM     21  F   UNL A   1      30.680  26.242  23.247  1.00  0.00    -0.167 F 
ATOM     22  F   UNL A   1      31.750  24.690  22.187  1.00  0.00    -0.167 F 
ATOM     23  F   UNL A   1      29.690  24.431  22.784  1.00  0.00    -0.167 F 
ENDBRANCH  11  20
BRANCH  17  24
ATOM     24  C   UNL A   1      34.273  19.449  25.010  1.00  0.00    -0.014 A 
ATOM     25  C   UNL A   1      35.145  18.419  24.642  1.00  0.00     0.012 A 
ATOM     26  C   UNL A   1      32.891  19.155  25.016  1.00  0.00     0.012 A 
ATOM     27  C   UNL A   1      34.669  17.119  24.419  1.00  0.00     0.047 A 
ATOM     28  C   UNL A   1      32.413  17.849  24.839  1.00  0.00     0.047 A 
ATOM     29  C   UNL A   1      33.318  16.834  24.576  1.00  0.00     0.115 A 
BRANCH  29  30
ATOM     30  O   UNL A   1      32.914  15.537  24.477  1.00  0.00    -0.508 OA
ATOM     31  H   UNL A   1      32.657  15.188  23.646  1.00  0.00     0.293 HD
ENDBRANCH  29  30
ENDBRANCH  17  24
ENDBRANCH   7   9
ENDBRANCH   6   7
ENDBRANCH   5   6
ENDBRANCH   4   5
ENDBRANCH   3   4
ENDBRANCH   2   3
ENDBRANCH   1   2
BRANCH   1  32
ATOM     32  O   UNL A   1      34.557  32.717  30.439  1.00  0.00    -0.376 OA
BRANCH  32  33
ATOM     33  C   UNL A   1      34.556  33.538  31.582  1.00  0.00     0.202 C 
BRANCH  33  34
ATOM     34  C   UNL A   1      34.609  32.944  32.988  1.00  0.00     0.261 C 
BRANCH  34  35
ATOM     35  O   UNL A   1      35.755  32.132  33.242  1.00  0.00    -0.460 OA
BRANCH  35  36
ATOM     36  C   UNL A   1      36.862  32.809  33.622  1.00  0.00     0.338 C 
ATOM     37  O   UNL A   1      36.999  33.524  34.599  1.00  0.00    -0.246 OA
BRANCH  36  38
ATOM     38  C   UNL A   1      37.972  32.377  32.763  1.00  0.00     0.060 A 
ATOM     39  C   UNL A   1      39.145  31.890  33.360  1.00  0.00     0.016 A 
ATOM     40  C   UNL A   1      37.869  32.517  31.379  1.00  0.00     0.016 A 
ATOM     41  C   UNL A   1      40.237  31.563  32.572  1.00  0.00     0.010 A 
ATOM     42  C   UNL A   1      38.983  32.246  30.592  1.00  0.00     0.010 A 
ATOM     43  C   UNL A   1      40.180  31.823  31.199  1.00  0.00    -0.014 A 
BRANCH  43  44
ATOM     44  C   UNL A   1      41.460  32.006  30.493  1.00  0.00     0.031 A 
ATOM     45  C   UNL A   1      42.080  33.375  30.561  1.00  0.00     0.074 A 
ATOM     46  C   UNL A   1      42.075  30.984  29.881  1.00  0.00     0.049 A 
ATOM     47  N   UNL A   1      43.214  33.797  30.071  1.00  0.00    -0.248 NA
ATOM     48  C   UNL A   1      41.315  34.407  31.285  1.00  0.00     0.031 C 
ATOM     49  C   UNL A   1      41.585  29.607  29.828  1.00  0.00     0.029 A 
ATOM     50  N   UNL A   1      43.259  30.954  29.195  1.00  0.00    -0.354 N 
ATOM     51  C   UNL A   1      43.289  35.142  30.416  1.00  0.00     0.074 A 
ATOM     52  C   UNL A   1      42.077  35.475  31.127  1.00  0.00     0.031 C 
ATOM     53  C   UNL A   1      42.469  28.862  29.142  1.00  0.00     0.029 A 
ATOM     54  C   UNL A   1      43.565  29.716  28.686  1.00  0.00     0.049 A 
ATOM     55  H   UNL A   1      43.835  31.743  29.079  1.00  0.00     0.167 HD
ATOM     56  C   UNL A   1      44.283  36.022  30.162  1.00  0.00     0.031 A 
ATOM     57  C   UNL A   1      44.613  29.333  27.931  1.00  0.00     0.031 A 
ATOM     58  C   UNL A   1      45.466  35.680  29.420  1.00  0.00     0.049 A 
ATOM     59  C   UNL A   1      45.666  30.354  27.584  1.00  0.00     0.074 A 
ATOM     60  C   UNL A   1      46.544  36.483  29.103  1.00  0.00     0.029 A 
ATOM     61  N   UNL A   1      45.711  34.432  28.864  1.00  0.00    -0.354 N 
ATOM     62  N   UNL A   1      45.742  31.619  27.932  1.00  0.00    -0.248 NA
ATOM     63  C   UNL A   1      46.786  29.890  26.756  1.00  0.00     0.031 C 
ATOM     64  C   UNL A   1      47.402  35.745  28.281  1.00  0.00     0.029 A 
ATOM     65  C   UNL A   1      46.909  34.453  28.172  1.00  0.00     0.049 A 
ATOM     66  H   UNL A   1      45.121  33.649  28.948  1.00  0.00     0.167 HD
ATOM     67  C   UNL A   1      46.945  32.086  27.408  1.00  0.00     0.074 A 
ATOM     68  C   UNL A   1      47.560  30.966  26.726  1.00  0.00     0.031 C 
ATOM     69  C   UNL A   1      47.499  33.323  27.496  1.00  0.00     0.031 A 
BRANCH  56  70
ATOM     70  C   UNL A   1      44.088  37.443  30.623  1.00  0.00    -0.014 A 
ATOM     71  C   UNL A   1      43.520  38.424  29.790  1.00  0.00     0.010 A 
ATOM     72  C   UNL A   1      44.490  37.802  31.922  1.00  0.00     0.010 A 
ATOM     73  C   UNL A   1      43.403  39.747  30.231  1.00  0.00     0.020 A 
ATOM     74  C   UNL A   1      44.339  39.113  32.381  1.00  0.00     0.020 A 
ATOM     75  C   UNL A   1      43.814  40.080  31.524  1.00  0.00     0.054 A 
BRANCH  75  76
ATOM     76  S   UNL A   1      43.633  41.798  32.077  1.00  0.00     0.124 S 
ATOM     77  O   UNL A   1      42.188  41.910  32.251  1.00  0.00    -0.237 OA
ATOM     78  O   UNL A   1      44.418  41.821  33.308  1.00  0.00    -0.237 OA
ATOM     79  O   UNL A   1      44.188  42.578  30.973  1.00  0.00    -0.744 OA
ENDBRANCH  75  76
ENDBRANCH  56  70
BRANCH  57  80
ATOM     80  C   UNL A   1      44.723  27.923  27.468  1.00  0.00    -0.014 A 
ATOM     81  C   UNL A   1      44.269  27.549  26.190  1.00  0.00     0.010 A 
ATOM     82  C   UNL A   1      45.287  26.942  28.305  1.00  0.00     0.010 A 
ATOM     83  C   UNL A   1      44.359  26.220  25.767  1.00  0.00     0.020 A 
ATOM     84  C   UNL A   1      45.410  25.619  27.872  1.00  0.00     0.020 A 
ATOM     85  C   UNL A   1      44.935  25.264  26.608  1.00  0.00     0.054 A 
BRANCH  85  86
ATOM     86  S   UNL A   1      45.091  23.558  26.012  1.00  0.00     0.124 S 
ATOM     87  O   UNL A   1      44.285  22.821  26.981  1.00  0.00    -0.237 OA
ATOM     88  O   UNL A   1      44.536  23.645  24.664  1.00  0.00    -0.237 OA
ATOM     89  O   UNL A   1      46.529  23.302  26.073  1.00  0.00    -0.744 OA
ENDBRANCH  85  86
ENDBRANCH  57  80
BRANCH  69  90
ATOM     90  C   UNL A   1      48.872  33.513  26.899  1.00  0.00    -0.014 A 
ATOM     91  C   UNL A   1      50.017  32.916  27.455  1.00  0.00     0.010 A 
ATOM     92  C   UNL A   1      49.002  34.279  25.725  1.00  0.00     0.010 A 
ATOM     93  C   UNL A   1      51.273  33.129  26.879  1.00  0.00     0.020 A 
ATOM     94  C   UNL A   1      50.247  34.458  25.122  1.00  0.00     0.020 A 
ATOM     95  C   UNL A   1      51.379  33.901  25.717  1.00  0.00     0.054 A 
BRANCH  95  96
ATOM     96  S   UNL A   1      53.017  34.150  24.981  1.00  0.00     0.124 S 
ATOM     97  O   UNL A   1      52.708  34.993  23.830  1.00  0.00    -0.237 OA
ATOM     98  O   UNL A   1      53.755  34.803  26.060  1.00  0.00    -0.237 OA
ATOM     99  O   UNL A   1      53.463  32.795  24.659  1.00  0.00    -0.744 OA
ENDBRANCH  95  96
ENDBRANCH  69  90
ENDBRANCH  43  44
ENDBRANCH  36  38
ENDBRANCH  35  36
ENDBRANCH  34  35
ENDBRANCH  33  34
ENDBRANCH  32  33
ENDBRANCH   1  32
TORSDOF 23
ENDMDL
MODEL 3
REMARK VINA RESULT:     -10.6      5.783     10.878
REMARK SMILES O=C(OCCOCCOCCOC(=O)c1ccc(-c2c3nc(c(-c4ccc(S(=O)(=O)[O-])cc4)c4ccc([nH]4)c(-c4ccc(S(=O)(=O)[O-])cc4)c4nc(c(-c5ccc(S(=O)(=O)[O-])cc5)c5ccc2[nH]5)C=C4)C=C3)cc1)C1=Cc2cc(Cl)cc(-c3ccc(O)cc3)c2O[C@@H]1C(F)(F)F
REMARK SMILES IDX 8 1 7 2 6 3 5 4 4 5 3 6 2 7 1 8 75 9 76 10 92 11 77 12 91 13
REMARK SMILES IDX 78 14 90 15 79 16 82 17 80 18 81 19 93 20 94 21 95 22 96 23
REMARK SMILES IDX 83 24 84 25 89 26 85 27 88 28 86 29 87 30 9 32 10 33 11 34
REMARK SMILES IDX 12 35 13 36 14 37 15 38 16 39 74 40 17 41 73 42 18 43 19 44
REMARK SMILES IDX 20 45 67 46 21 47 72 48 66 49 68 50 22 51 71 52 65 53 64 54
REMARK SMILES IDX 23 56 53 57 34 58 52 59 35 60 38 61 51 62 69 63 36 64 37 65
REMARK SMILES IDX 50 67 70 68 39 69 24 70 25 71 33 72 26 73 32 74 27 75 28 76
REMARK SMILES IDX 29 77 30 78 31 79 54 80 55 81 63 82 56 83 62 84 57 85 58 86
REMARK SMILES IDX 59 87 60 88 61 89 40 90 41 91 49 92 42 93 48 94 43 95 44 96
REMARK SMILES IDX 45 97 46 98 47 99
REMARK H PARENT 87 31 68 55 38 66
REMARK Flexibility Score: inf
ROOT
ATOM      1  C   UNL A   1      35.114  30.896  28.106  1.00  0.00     0.188 C 
ENDROOT
BRANCH   1   2
ATOM      2  C   UNL A   1      34.279  30.055  27.129  1.00  0.00     0.188 C 
BRANCH   2   3
ATOM      3  O   UNL A   1      33.135  30.594  26.290  1.00  0.00    -0.376 OA
BRANCH   3   4
ATOM      4  C   UNL A   1      31.684  29.723  25.780  1.00  0.00     0.202 C 
BRANCH   4   5
ATOM      5  C   UNL A   1      31.409  27.598  26.166  1.00  0.00     0.261 C 
BRANCH   5   6
ATOM      6  O   UNL A   1      32.516  26.571  26.385  1.00  0.00    -0.460 OA
BRANCH   6   7
ATOM      7  C   UNL A   1      32.046  25.315  26.367  1.00  0.00     0.338 C 
ATOM      8  O   UNL A   1      31.684  24.639  27.296  1.00  0.00    -0.246 OA
BRANCH   7   9
ATOM      9  C   UNL A   1      32.583  24.956  25.065  1.00  0.00     0.087 C 
ATOM     10  C   UNL A   1      34.010  24.731  25.001  1.00  0.00     0.027 C 
ATOM     11  C   UNL A   1      31.253  23.620  24.748  1.00  0.00     0.316 C 
ATOM     12  C   UNL A   1      34.769  23.115  24.950  1.00  0.00     0.019 A 
ATOM     13  O   UNL A   1      32.043  21.816  24.848  1.00  0.00    -0.475 OA
ATOM     14  C   UNL A   1      36.129  23.078  25.117  1.00  0.00     0.032 A 
ATOM     15  C   UNL A   1      33.867  21.634  24.937  1.00  0.00     0.135 A 
ATOM     16  C   UNL A   1      36.683  21.803  25.217  1.00  0.00     0.042 A 
ATOM     17  C   UNL A   1      34.519  20.407  24.979  1.00  0.00     0.026 A 
ATOM     18  Cl  UNL A   1      38.392  21.691  25.478  1.00  0.00    -0.084 Cl
ATOM     19  C   UNL A   1      35.937  20.572  25.132  1.00  0.00     0.033 A 
BRANCH  11  20
ATOM     20  C   UNL A   1      30.621  24.560  23.436  1.00  0.00     0.430 C 
ATOM     21  F   UNL A   1      31.405  25.074  22.483  1.00  0.00    -0.167 F 
ATOM     22  F   UNL A   1      29.680  23.811  22.802  1.00  0.00    -0.167 F 
ATOM     23  F   UNL A   1      29.938  25.660  23.889  1.00  0.00    -0.167 F 
ENDBRANCH  11  20
BRANCH  17  24
ATOM     24  C   UNL A   1      34.080  19.021  24.829  1.00  0.00    -0.014 A 
ATOM     25  C   UNL A   1      32.812  18.599  25.243  1.00  0.00     0.012 A 
ATOM     26  C   UNL A   1      35.027  18.018  24.525  1.00  0.00     0.012 A 
ATOM     27  C   UNL A   1      32.465  17.241  25.225  1.00  0.00     0.047 A 
ATOM     28  C   UNL A   1      34.674  16.663  24.460  1.00  0.00     0.047 A 
ATOM     29  C   UNL A   1      33.378  16.293  24.778  1.00  0.00     0.115 A 
BRANCH  29  30
ATOM     30  O   UNL A   1      32.963  15.002  24.653  1.00  0.00    -0.508 OA
ATOM     31  H   UNL A   1      32.049  14.807  24.583  1.00  0.00     0.293 HD
ENDBRANCH  29  30
ENDBRANCH  17  24
ENDBRANCH   7   9
ENDBRANCH   6   7
ENDBRANCH   5   6
ENDBRANCH   4   5
ENDBRANCH   3   4
ENDBRANCH   2   3
ENDBRANCH   1   2
BRANCH   1  32
ATOM     32  O   UNL A   1      35.916  31.934  27.630  1.00  0.00    -0.376 OA
BRANCH  32  33
ATOM     33  C   UNL A   1      35.518  33.224  28.027  1.00  0.00     0.202 C 
BRANCH  33  34
ATOM     34  C   UNL A   1      36.008  33.839  29.337  1.00  0.00     0.261 C 
BRANCH  34  35
ATOM     35  O   UNL A   1      35.003  33.960  30.343  1.00  0.00    -0.460 OA
BRANCH  35  36
ATOM     36  C   UNL A   1      35.044  33.014  31.308  1.00  0.00     0.338 C 
ATOM     37  O   UNL A   1      34.423  31.968  31.352  1.00  0.00    -0.246 OA
BRANCH  36  38
ATOM     38  C   UNL A   1      36.138  33.355  32.227  1.00  0.00     0.060 A 
ATOM     39  C   UNL A   1      36.294  34.689  32.634  1.00  0.00     0.016 A 
ATOM     40  C   UNL A   1      37.039  32.367  32.624  1.00  0.00     0.016 A 
ATOM     41  C   UNL A   1      37.372  35.047  33.427  1.00  0.00     0.010 A 
ATOM     42  C   UNL A   1      38.154  32.736  33.369  1.00  0.00     0.010 A 
ATOM     43  C   UNL A   1      38.343  34.085  33.720  1.00  0.00    -0.014 A 
BRANCH  43  44
ATOM     44  C   UNL A   1      39.694  34.569  34.052  1.00  0.00     0.031 A 
ATOM     45  C   UNL A   1      40.697  34.598  32.930  1.00  0.00     0.074 A 
ATOM     46  C   UNL A   1      39.994  35.027  35.276  1.00  0.00     0.049 A 
ATOM     47  N   UNL A   1      41.934  35.015  32.934  1.00  0.00    -0.248 NA
ATOM     48  C   UNL A   1      40.237  34.090  31.625  1.00  0.00     0.031 C 
ATOM     49  C   UNL A   1      39.066  35.105  36.403  1.00  0.00     0.029 A 
ATOM     50  N   UNL A   1      41.172  35.524  35.765  1.00  0.00    -0.354 N 
ATOM     51  C   UNL A   1      42.399  34.806  31.641  1.00  0.00     0.074 A 
ATOM     52  C   UNL A   1      41.328  34.198  30.888  1.00  0.00     0.031 C 
ATOM     53  C   UNL A   1      39.716  35.626  37.460  1.00  0.00     0.029 A 
ATOM     54  C   UNL A   1      41.106  35.885  37.088  1.00  0.00     0.049 A 
ATOM     55  H   UNL A   1      41.986  35.614  35.221  1.00  0.00     0.167 HD
ATOM     56  C   UNL A   1      43.615  35.097  31.127  1.00  0.00     0.031 A 
ATOM     57  C   UNL A   1      42.071  36.363  37.897  1.00  0.00     0.031 A 
ATOM     58  C   UNL A   1      44.681  35.669  31.903  1.00  0.00     0.049 A 
ATOM     59  C   UNL A   1      43.446  36.596  37.324  1.00  0.00     0.074 A 
ATOM     60  C   UNL A   1      45.955  36.012  31.493  1.00  0.00     0.029 A 
ATOM     61  N   UNL A   1      44.598  35.961  33.257  1.00  0.00    -0.354 N 
ATOM     62  N   UNL A   1      43.873  36.418  36.094  1.00  0.00    -0.248 NA
ATOM     63  C   UNL A   1      44.465  37.114  38.245  1.00  0.00     0.031 C 
ATOM     64  C   UNL A   1      46.670  36.433  32.619  1.00  0.00     0.029 A 
ATOM     65  C   UNL A   1      45.812  36.448  33.708  1.00  0.00     0.049 A 
ATOM     66  H   UNL A   1      43.795  35.840  33.814  1.00  0.00     0.167 HD
ATOM     67  C   UNL A   1      45.197  36.851  36.085  1.00  0.00     0.074 A 
ATOM     68  C   UNL A   1      45.493  37.302  37.429  1.00  0.00     0.031 C 
ATOM     69  C   UNL A   1      46.083  36.887  35.056  1.00  0.00     0.031 A 
BRANCH  56  70
ATOM     70  C   UNL A   1      43.867  34.728  29.688  1.00  0.00    -0.014 A 
ATOM     71  C   UNL A   1      44.881  33.824  29.318  1.00  0.00     0.010 A 
ATOM     72  C   UNL A   1      43.071  35.307  28.683  1.00  0.00     0.010 A 
ATOM     73  C   UNL A   1      45.124  33.545  27.969  1.00  0.00     0.020 A 
ATOM     74  C   UNL A   1      43.285  35.001  27.337  1.00  0.00     0.020 A 
ATOM     75  C   UNL A   1      44.322  34.136  26.988  1.00  0.00     0.054 A 
BRANCH  75  76
ATOM     76  S   UNL A   1      44.646  33.742  25.248  1.00  0.00     0.124 S 
ATOM     77  O   UNL A   1      45.943  34.377  25.030  1.00  0.00    -0.237 OA
ATOM     78  O   UNL A   1      44.653  32.282  25.248  1.00  0.00    -0.237 OA
ATOM     79  O   UNL A   1      43.527  34.357  24.538  1.00  0.00    -0.744 OA
ENDBRANCH  75  76
ENDBRANCH  56  70
BRANCH  57  80
ATOM     80  C   UNL A   1      41.768  36.665  39.322  1.00  0.00    -0.014 A 
ATOM     81  C   UNL A   1      41.620  37.993  39.760  1.00  0.00     0.010 A 
ATOM     82  C   UNL A   1      41.624  35.621  40.255  1.00  0.00     0.010 A 
ATOM     83  C   UNL A   1      41.353  38.272  41.104  1.00  0.00     0.020 A 
ATOM     84  C   UNL A   1      41.323  35.894  41.592  1.00  0.00     0.020 A 
ATOM     85  C   UNL A   1      41.200  37.219  42.011  1.00  0.00     0.054 A 
BRANCH  85  86
ATOM     86  S   UNL A   1      40.798  37.606  43.737  1.00  0.00     0.124 S 
ATOM     87  O   UNL A   1      40.461  36.292  44.274  1.00  0.00    -0.237 OA
ATOM     88  O   UNL A   1      42.045  38.189  44.225  1.00  0.00    -0.237 OA
ATOM     89  O   UNL A   1      39.681  38.543  43.628  1.00  0.00    -0.744 OA
ENDBRANCH  85  86
ENDBRANCH  57  80
BRANCH  69  90
ATOM     90  C   UNL A   1      47.435  37.501  35.325  1.00  0.00    -0.014 A 
ATOM     91  C   UNL A   1      47.635  38.892  35.335  1.00  0.00     0.010 A 
ATOM     92  C   UNL A   1      48.519  36.652  35.618  1.00  0.00     0.010 A 
ATOM     93  C   UNL A   1      48.908  39.419  35.574  1.00  0.00     0.020 A 
ATOM     94  C   UNL A   1      49.781  37.175  35.901  1.00  0.00     0.020 A 
ATOM     95  C   UNL A   1      49.972  38.556  35.855  1.00  0.00     0.054 A 
BRANCH  95  96
ATOM     96  S   UNL A   1      51.609  39.266  36.178  1.00  0.00     0.124 S 
ATOM     97  O   UNL A   1      52.307  38.147  36.805  1.00  0.00    -0.237 OA
ATOM     98  O   UNL A   1      52.071  39.624  34.838  1.00  0.00    -0.237 OA
ATOM     99  O   UNL A   1      51.330  40.398  37.059  1.00  0.00    -0.744 OA
ENDBRANCH  95  96
ENDBRANCH  69  90
ENDBRANCH  43  44
ENDBRANCH  36  38
ENDBRANCH  35  36
ENDBRANCH  34  35
ENDBRANCH  33  34
ENDBRANCH  32  33
ENDBRANCH   1  32
TORSDOF 23
ENDMDL
