MODEL 1
REMARK VINA RESULT:      -9.0      0.000      0.000
REMARK SMILES Cc1cc(F)ccc1S(=O)(=O)N1CCO[C@H](CC(=O)OCCOCCOCCOC(=O)c2ccc(-c3c4nc(c(-c5ccc(S(=O)(=O)[O-])cc5)c5ccc([nH]5)c(-c5ccc(S(=O)(=O)[O-])cc5)c5nc(c(-c6ccc(S(=O)(=O)[O-])cc6)c6ccc3[nH]6)C=C5)C=C4)cc2)C1
REMARK SMILES IDX 24 1 23 2 22 3 21 4 20 5 18 6 19 7 17 8 16 9 12 10 13 11
REMARK SMILES IDX 92 12 14 13 15 14 9 15 10 16 11 17 8 18 1 19 2 20 3 21 4 22
REMARK SMILES IDX 7 23 5 24 6 25 25 26 26 27 27 28 28 29 29 30 30 31 31 32
REMARK SMILES IDX 32 33 33 34 91 35 34 36 90 37 35 38 36 39 37 40 84 41 38 42
REMARK SMILES IDX 89 43 83 44 85 45 39 46 88 47 82 48 81 49 40 51 70 52 51 53
REMARK SMILES IDX 69 54 52 55 55 56 68 57 86 58 53 59 54 60 67 62 87 63 56 64
REMARK SMILES IDX 41 65 42 66 50 67 43 68 49 69 44 70 45 71 46 72 47 73 48 74
REMARK SMILES IDX 71 75 72 76 80 77 73 78 79 79 74 80 75 81 76 82 77 83 78 84
REMARK SMILES IDX 57 85 58 86 66 87 59 88 65 89 60 90 61 91 62 92 63 93 64 94
REMARK H PARENT 85 50 55 61
REMARK Flexibility Score: inf
ROOT
ATOM      1  C   UNL A   1      40.083  21.601  26.754  1.00  0.00     0.188 C 
ENDROOT
BRANCH   1   2
ATOM      2  O   UNL A   1      39.053  21.257  25.851  1.00  0.00    -0.376 OA
BRANCH   2   3
ATOM      3  C   UNL A   1      38.067  22.235  25.529  1.00  0.00     0.202 C 
BRANCH   3   4
ATOM      4  C   UNL A   1      36.602  22.106  26.001  1.00  0.00     0.261 C 
BRANCH   4   5
ATOM      5  O   UNL A   1      35.584  22.034  24.969  1.00  0.00    -0.463 OA
BRANCH   5   6
ATOM      6  C   UNL A   1      34.854  23.160  24.789  1.00  0.00     0.308 C 
ATOM      7  O   UNL A   1      34.300  23.759  25.707  1.00  0.00    -0.252 OA
BRANCH   6   8
ATOM      8  C   UNL A   1      34.659  23.631  23.358  1.00  0.00     0.156 C 
BRANCH   8   9
ATOM      9  C   UNL A   1      33.583  23.081  22.402  1.00  0.00     0.144 C 
ATOM     10  N   UNL A   1      32.074  24.981  22.693  1.00  0.00    -0.193 NA
ATOM     11  C   UNL A   1      30.977  24.164  23.242  1.00  0.00     0.131 C 
ATOM     12  C   UNL A   1      32.846  24.234  21.675  1.00  0.00     0.135 C 
ATOM     13  C   UNL A   1      31.535  22.824  23.770  1.00  0.00     0.177 C 
ATOM     14  O   UNL A   1      32.612  22.213  23.040  1.00  0.00    -0.375 OA
BRANCH  10  15
ATOM     15  S   UNL A   1      31.992  26.659  22.711  1.00  0.00     0.243 S 
ATOM     16  O   UNL A   1      30.616  27.051  22.538  1.00  0.00    -0.207 OA
ATOM     17  O   UNL A   1      33.036  27.115  21.805  1.00  0.00    -0.207 OA
BRANCH  15  18
ATOM     18  C   UNL A   1      32.471  27.233  24.361  1.00  0.00     0.085 A 
ATOM     19  C   UNL A   1      30.462  26.301  25.702  1.00  0.00     0.046 C 
ATOM     20  C   UNL A   1      31.799  26.950  25.570  1.00  0.00    -0.028 A 
ATOM     21  C   UNL A   1      32.367  27.393  26.782  1.00  0.00     0.044 A 
ATOM     22  C   UNL A   1      33.513  28.171  26.793  1.00  0.00     0.123 A 
ATOM     23  C   UNL A   1      33.624  28.045  24.396  1.00  0.00     0.025 A 
ATOM     24  F   UNL A   1      33.996  28.604  27.964  1.00  0.00    -0.207 F 
ATOM     25  C   UNL A   1      34.130  28.529  25.608  1.00  0.00     0.040 A 
ENDBRANCH  15  18
ENDBRANCH  10  15
ENDBRANCH   8   9
ENDBRANCH   6   8
ENDBRANCH   5   6
ENDBRANCH   4   5
ENDBRANCH   3   4
ENDBRANCH   2   3
ENDBRANCH   1   2
BRANCH   1  26
ATOM     26  C   UNL A   1      40.804  22.922  26.508  1.00  0.00     0.188 C 
BRANCH  26  27
ATOM     27  O   UNL A   1      40.760  23.872  27.544  1.00  0.00    -0.376 OA
BRANCH  27  28
ATOM     28  C   UNL A   1      40.266  25.177  27.296  1.00  0.00     0.202 C 
BRANCH  28  29
ATOM     29  C   UNL A   1      40.912  26.185  26.323  1.00  0.00     0.261 C 
BRANCH  29  30
ATOM     30  O   UNL A   1      40.527  27.563  26.410  1.00  0.00    -0.460 OA
BRANCH  30  31
ATOM     31  C   UNL A   1      41.514  28.475  26.597  1.00  0.00     0.338 C 
ATOM     32  O   UNL A   1      42.173  29.022  25.733  1.00  0.00    -0.246 OA
BRANCH  31  33
ATOM     33  C   UNL A   1      41.457  28.890  28.022  1.00  0.00     0.060 A 
ATOM     34  C   UNL A   1      40.552  28.246  28.881  1.00  0.00     0.016 A 
ATOM     35  C   UNL A   1      42.327  29.859  28.521  1.00  0.00     0.016 A 
ATOM     36  C   UNL A   1      40.516  28.567  30.239  1.00  0.00     0.010 A 
ATOM     37  C   UNL A   1      42.262  30.209  29.874  1.00  0.00     0.010 A 
ATOM     38  C   UNL A   1      41.346  29.578  30.737  1.00  0.00    -0.014 A 
BRANCH  38  39
ATOM     39  C   UNL A   1      41.152  30.094  32.115  1.00  0.00     0.031 A 
ATOM     40  C   UNL A   1      39.945  30.947  32.397  1.00  0.00     0.074 A 
ATOM     41  C   UNL A   1      42.025  29.815  33.100  1.00  0.00     0.049 A 
ATOM     42  N   UNL A   1      39.622  31.595  33.487  1.00  0.00    -0.248 NA
ATOM     43  C   UNL A   1      38.975  31.090  31.300  1.00  0.00     0.031 C 
ATOM     44  C   UNL A   1      43.194  28.946  32.978  1.00  0.00     0.029 A 
ATOM     45  N   UNL A   1      42.065  30.251  34.403  1.00  0.00    -0.354 N 
ATOM     46  C   UNL A   1      38.422  32.235  33.202  1.00  0.00     0.074 A 
ATOM     47  C   UNL A   1      38.086  31.918  31.831  1.00  0.00     0.031 C 
ATOM     48  C   UNL A   1      43.846  28.926  34.155  1.00  0.00     0.029 A 
ATOM     49  C   UNL A   1      43.167  29.814  35.098  1.00  0.00     0.049 A 
ATOM     50  H   UNL A   1      41.368  30.821  34.802  1.00  0.00     0.167 HD
ATOM     51  C   UNL A   1      37.666  33.018  34.010  1.00  0.00     0.031 A 
ATOM     52  C   UNL A   1      43.598  30.121  36.338  1.00  0.00     0.031 A 
ATOM     53  C   UNL A   1      38.011  33.342  35.369  1.00  0.00     0.049 A 
ATOM     54  C   UNL A   1      42.795  31.077  37.184  1.00  0.00     0.074 A 
ATOM     55  C   UNL A   1      37.305  34.118  36.271  1.00  0.00     0.029 A 
ATOM     56  N   UNL A   1      39.161  32.919  36.019  1.00  0.00    -0.354 N 
ATOM     57  N   UNL A   1      41.655  31.667  36.910  1.00  0.00    -0.248 NA
ATOM     58  C   UNL A   1      43.338  31.410  38.510  1.00  0.00     0.031 C 
ATOM     59  C   UNL A   1      38.063  34.223  37.443  1.00  0.00     0.029 A 
ATOM     60  C   UNL A   1      39.205  33.451  37.298  1.00  0.00     0.049 A 
ATOM     61  H   UNL A   1      39.845  32.327  35.630  1.00  0.00     0.167 HD
ATOM     62  C   UNL A   1      41.335  32.420  38.036  1.00  0.00     0.074 A 
ATOM     63  C   UNL A   1      42.388  32.194  39.003  1.00  0.00     0.031 C 
ATOM     64  C   UNL A   1      40.264  33.226  38.249  1.00  0.00     0.031 A 
BRANCH  51  65
ATOM     65  C   UNL A   1      36.414  33.620  33.425  1.00  0.00    -0.014 A 
ATOM     66  C   UNL A   1      35.192  32.924  33.432  1.00  0.00     0.010 A 
ATOM     67  C   UNL A   1      36.457  34.922  32.894  1.00  0.00     0.010 A 
ATOM     68  C   UNL A   1      34.044  33.506  32.884  1.00  0.00     0.020 A 
ATOM     69  C   UNL A   1      35.305  35.519  32.374  1.00  0.00     0.020 A 
ATOM     70  C   UNL A   1      34.109  34.800  32.359  1.00  0.00     0.054 A 
BRANCH  70  71
ATOM     71  S   UNL A   1      32.599  35.537  31.677  1.00  0.00     0.124 S 
ATOM     72  O   UNL A   1      32.872  36.966  31.815  1.00  0.00    -0.237 OA
ATOM     73  O   UNL A   1      32.587  35.031  30.307  1.00  0.00    -0.237 OA
ATOM     74  O   UNL A   1      31.538  35.021  32.539  1.00  0.00    -0.744 OA
ENDBRANCH  70  71
ENDBRANCH  51  65
BRANCH  52  75
ATOM     75  C   UNL A   1      44.879  29.552  36.847  1.00  0.00    -0.014 A 
ATOM     76  C   UNL A   1      44.903  28.316  37.514  1.00  0.00     0.010 A 
ATOM     77  C   UNL A   1      46.086  30.255  36.672  1.00  0.00     0.010 A 
ATOM     78  C   UNL A   1      46.106  27.800  38.010  1.00  0.00     0.020 A 
ATOM     79  C   UNL A   1      47.295  29.730  37.138  1.00  0.00     0.020 A 
ATOM     80  C   UNL A   1      47.295  28.508  37.813  1.00  0.00     0.054 A 
BRANCH  80  81
ATOM     81  S   UNL A   1      48.848  27.792  38.418  1.00  0.00     0.124 S 
ATOM     82  O   UNL A   1      49.088  28.564  39.633  1.00  0.00    -0.237 OA
ATOM     83  O   UNL A   1      48.489  26.390  38.618  1.00  0.00    -0.237 OA
ATOM     84  O   UNL A   1      49.787  28.038  37.325  1.00  0.00    -0.744 OA
ENDBRANCH  80  81
ENDBRANCH  52  75
BRANCH  64  85
ATOM     85  C   UNL A   1      40.162  33.914  39.589  1.00  0.00    -0.014 A 
ATOM     86  C   UNL A   1      40.747  35.174  39.809  1.00  0.00     0.010 A 
ATOM     87  C   UNL A   1      39.419  33.315  40.624  1.00  0.00     0.010 A 
ATOM     88  C   UNL A   1      40.616  35.807  41.048  1.00  0.00     0.020 A 
ATOM     89  C   UNL A   1      39.259  33.962  41.853  1.00  0.00     0.020 A 
ATOM     90  C   UNL A   1      39.870  35.199  42.062  1.00  0.00     0.054 A 
BRANCH  90  91
ATOM     91  S   UNL A   1      39.677  36.067  43.643  1.00  0.00     0.124 S 
ATOM     92  O   UNL A   1      40.736  35.467  44.451  1.00  0.00    -0.237 OA
ATOM     93  O   UNL A   1      39.886  37.463  43.269  1.00  0.00    -0.237 OA
ATOM     94  O   UNL A   1      38.315  35.736  44.058  1.00  0.00    -0.744 OA
ENDBRANCH  90  91
ENDBRANCH  64  85
ENDBRANCH  38  39
ENDBRANCH  31  33
ENDBRANCH  30  31
ENDBRANCH  29  30
ENDBRANCH  28  29
ENDBRANCH  27  28
ENDBRANCH  26  27
ENDBRANCH   1  26
TORSDOF 23
ENDMDL
MODEL 2
REMARK VINA RESULT:      -8.9      6.766     14.176
REMARK SMILES Cc1cc(F)ccc1S(=O)(=O)N1CCO[C@H](CC(=O)OCCOCCOCCOC(=O)c2ccc(-c3c4nc(c(-c5ccc(S(=O)(=O)[O-])cc5)c5ccc([nH]5)c(-c5ccc(S(=O)(=O)[O-])cc5)c5nc(c(-c6ccc(S(=O)(=O)[O-])cc6)c6ccc3[nH]6)C=C5)C=C4)cc2)C1
REMARK SMILES IDX 24 1 23 2 22 3 21 4 20 5 18 6 19 7 17 8 16 9 12 10 13 11
REMARK SMILES IDX 92 12 14 13 15 14 9 15 10 16 11 17 8 18 1 19 2 20 3 21 4 22
REMARK SMILES IDX 7 23 5 24 6 25 25 26 26 27 27 28 28 29 29 30 30 31 31 32
REMARK SMILES IDX 32 33 33 34 91 35 34 36 90 37 35 38 36 39 37 40 84 41 38 42
REMARK SMILES IDX 89 43 83 44 85 45 39 46 88 47 82 48 81 49 40 51 70 52 51 53
REMARK SMILES IDX 69 54 52 55 55 56 68 57 86 58 53 59 54 60 67 62 87 63 56 64
REMARK SMILES IDX 41 65 42 66 50 67 43 68 49 69 44 70 45 71 46 72 47 73 48 74
REMARK SMILES IDX 71 75 72 76 80 77 73 78 79 79 74 80 75 81 76 82 77 83 78 84
REMARK SMILES IDX 57 85 58 86 66 87 59 88 65 89 60 90 61 91 62 92 63 93 64 94
REMARK H PARENT 85 50 55 61
REMARK Flexibility Score: inf
ROOT
ATOM      1  C   UNL A   1      38.463  34.415  29.564  1.00  0.00     0.188 C 
ENDROOT
BRANCH   1   2
ATOM      2  O   UNL A   1      38.802  34.867  30.858  1.00  0.00    -0.376 OA
BRANCH   2   3
ATOM      3  C   UNL A   1      37.954  34.521  31.951  1.00  0.00     0.202 C 
BRANCH   3   4
ATOM      4  C   UNL A   1      38.490  33.795  33.205  1.00  0.00     0.261 C 
BRANCH   4   5
ATOM      5  O   UNL A   1      39.835  33.254  33.124  1.00  0.00    -0.463 OA
BRANCH   5   6
ATOM      6  C   UNL A   1      39.916  31.910  32.990  1.00  0.00     0.308 C 
ATOM      7  O   UNL A   1      38.988  31.215  32.581  1.00  0.00    -0.252 OA
BRANCH   6   8
ATOM      8  C   UNL A   1      41.200  31.249  33.457  1.00  0.00     0.156 C 
BRANCH   8   9
ATOM      9  C   UNL A   1      42.257  30.642  32.515  1.00  0.00     0.144 C 
ATOM     10  N   UNL A   1      42.819  28.795  34.013  1.00  0.00    -0.193 NA
ATOM     11  C   UNL A   1      44.227  29.200  34.161  1.00  0.00     0.131 C 
ATOM     12  C   UNL A   1      42.308  29.100  32.658  1.00  0.00     0.135 C 
ATOM     13  C   UNL A   1      44.388  30.687  33.776  1.00  0.00     0.177 C 
ATOM     14  O   UNL A   1      43.590  31.188  32.691  1.00  0.00    -0.375 OA
BRANCH  10  15
ATOM     15  S   UNL A   1      42.167  27.576  34.968  1.00  0.00     0.243 S 
ATOM     16  O   UNL A   1      40.784  27.399  34.602  1.00  0.00    -0.207 OA
ATOM     17  O   UNL A   1      42.562  27.890  36.334  1.00  0.00    -0.207 OA
BRANCH  15  18
ATOM     18  C   UNL A   1      42.997  26.022  34.549  1.00  0.00     0.085 A 
ATOM     19  C   UNL A   1      41.664  24.431  36.097  1.00  0.00     0.046 C 
ATOM     20  C   UNL A   1      42.647  24.736  35.016  1.00  0.00    -0.028 A 
ATOM     21  C   UNL A   1      43.337  23.617  34.508  1.00  0.00     0.044 A 
ATOM     22  C   UNL A   1      44.403  23.770  33.636  1.00  0.00     0.123 A 
ATOM     23  C   UNL A   1      44.100  26.153  33.677  1.00  0.00     0.025 A 
ATOM     24  F   UNL A   1      45.057  22.682  33.209  1.00  0.00    -0.207 F 
ATOM     25  C   UNL A   1      44.812  25.031  33.241  1.00  0.00     0.040 A 
ENDBRANCH  15  18
ENDBRANCH  10  15
ENDBRANCH   8   9
ENDBRANCH   6   8
ENDBRANCH   5   6
ENDBRANCH   4   5
ENDBRANCH   3   4
ENDBRANCH   2   3
ENDBRANCH   1   2
BRANCH   1  26
ATOM     26  C   UNL A   1      38.238  32.916  29.391  1.00  0.00     0.188 C 
BRANCH  26  27
ATOM     27  O   UNL A   1      36.922  32.449  29.553  1.00  0.00    -0.376 OA
BRANCH  27  28
ATOM     28  C   UNL A   1      36.106  32.205  28.420  1.00  0.00     0.202 C 
BRANCH  28  29
ATOM     29  C   UNL A   1      35.401  30.866  28.122  1.00  0.00     0.261 C 
BRANCH  29  30
ATOM     30  O   UNL A   1      36.167  29.657  28.200  1.00  0.00    -0.460 OA
BRANCH  30  31
ATOM     31  C   UNL A   1      36.822  29.408  29.362  1.00  0.00     0.338 C 
ATOM     32  O   UNL A   1      36.321  29.242  30.458  1.00  0.00    -0.246 OA
BRANCH  31  33
ATOM     33  C   UNL A   1      38.232  29.100  29.009  1.00  0.00     0.060 A 
ATOM     34  C   UNL A   1      39.060  28.511  29.978  1.00  0.00     0.016 A 
ATOM     35  C   UNL A   1      38.715  29.332  27.721  1.00  0.00     0.016 A 
ATOM     36  C   UNL A   1      40.371  28.151  29.661  1.00  0.00     0.010 A 
ATOM     37  C   UNL A   1      40.041  29.007  27.417  1.00  0.00     0.010 A 
ATOM     38  C   UNL A   1      40.882  28.431  28.389  1.00  0.00    -0.014 A 
BRANCH  38  39
ATOM     39  C   UNL A   1      42.332  28.276  28.113  1.00  0.00     0.031 A 
ATOM     40  C   UNL A   1      43.240  29.446  28.379  1.00  0.00     0.074 A 
ATOM     41  C   UNL A   1      42.839  27.124  27.639  1.00  0.00     0.049 A 
ATOM     42  N   UNL A   1      44.514  29.585  28.118  1.00  0.00    -0.248 NA
ATOM     43  C   UNL A   1      42.626  30.618  29.023  1.00  0.00     0.031 C 
ATOM     44  C   UNL A   1      42.082  25.896  27.404  1.00  0.00     0.029 A 
ATOM     45  N   UNL A   1      44.120  26.808  27.254  1.00  0.00    -0.354 N 
ATOM     46  C   UNL A   1      44.850  30.862  28.549  1.00  0.00     0.074 A 
ATOM     47  C   UNL A   1      43.642  31.467  29.067  1.00  0.00     0.031 C 
ATOM     48  C   UNL A   1      42.910  24.963  26.901  1.00  0.00     0.029 A 
ATOM     49  C   UNL A   1      44.244  25.541  26.735  1.00  0.00     0.049 A 
ATOM     50  H   UNL A   1      44.878  27.429  27.343  1.00  0.00     0.167 HD
ATOM     51  C   UNL A   1      46.057  31.477  28.517  1.00  0.00     0.031 A 
ATOM     52  C   UNL A   1      45.299  24.930  26.161  1.00  0.00     0.031 A 
ATOM     53  C   UNL A   1      47.253  30.877  27.989  1.00  0.00     0.049 A 
ATOM     54  C   UNL A   1      46.608  25.671  26.041  1.00  0.00     0.074 A 
ATOM     55  C   UNL A   1      48.526  31.416  27.921  1.00  0.00     0.029 A 
ATOM     56  N   UNL A   1      47.325  29.611  27.427  1.00  0.00    -0.354 N 
ATOM     57  N   UNL A   1      46.918  26.874  26.464  1.00  0.00    -0.248 NA
ATOM     58  C   UNL A   1      47.710  24.971  25.366  1.00  0.00     0.031 C 
ATOM     59  C   UNL A   1      49.351  30.504  27.255  1.00  0.00     0.029 A 
ATOM     60  C   UNL A   1      48.612  29.366  26.974  1.00  0.00     0.049 A 
ATOM     61  H   UNL A   1      46.573  28.978  27.362  1.00  0.00     0.167 HD
ATOM     62  C   UNL A   1      48.255  27.064  26.126  1.00  0.00     0.074 A 
ATOM     63  C   UNL A   1      48.701  25.845  25.485  1.00  0.00     0.031 C 
ATOM     64  C   UNL A   1      49.042  28.151  26.329  1.00  0.00     0.031 A 
BRANCH  51  65
ATOM     65  C   UNL A   1      46.131  32.894  29.025  1.00  0.00    -0.014 A 
ATOM     66  C   UNL A   1      46.461  33.180  30.362  1.00  0.00     0.010 A 
ATOM     67  C   UNL A   1      45.902  33.960  28.135  1.00  0.00     0.010 A 
ATOM     68  C   UNL A   1      46.524  34.504  30.807  1.00  0.00     0.020 A 
ATOM     69  C   UNL A   1      45.994  35.285  28.569  1.00  0.00     0.020 A 
ATOM     70  C   UNL A   1      46.290  35.548  29.907  1.00  0.00     0.054 A 
BRANCH  70  71
ATOM     71  S   UNL A   1      46.401  37.255  30.508  1.00  0.00     0.124 S 
ATOM     72  O   UNL A   1      45.819  38.005  29.397  1.00  0.00    -0.237 OA
ATOM     73  O   UNL A   1      45.600  37.217  31.728  1.00  0.00    -0.237 OA
ATOM     74  O   UNL A   1      47.834  37.460  30.712  1.00  0.00    -0.744 OA
ENDBRANCH  70  71
ENDBRANCH  51  65
BRANCH  52  75
ATOM     75  C   UNL A   1      45.158  23.550  25.613  1.00  0.00    -0.014 A 
ATOM     76  C   UNL A   1      45.377  22.426  26.426  1.00  0.00     0.010 A 
ATOM     77  C   UNL A   1      44.811  23.356  24.262  1.00  0.00     0.010 A 
ATOM     78  C   UNL A   1      45.266  21.135  25.898  1.00  0.00     0.020 A 
ATOM     79  C   UNL A   1      44.667  22.068  23.738  1.00  0.00     0.020 A 
ATOM     80  C   UNL A   1      44.906  20.965  24.558  1.00  0.00     0.054 A 
BRANCH  80  81
ATOM     81  S   UNL A   1      44.716  19.280  23.912  1.00  0.00     0.124 S 
ATOM     82  O   UNL A   1      44.522  19.520  22.486  1.00  0.00    -0.237 OA
ATOM     83  O   UNL A   1      45.984  18.658  24.283  1.00  0.00    -0.237 OA
ATOM     84  O   UNL A   1      43.546  18.770  24.625  1.00  0.00    -0.744 OA
ENDBRANCH  80  81
ENDBRANCH  52  75
BRANCH  64  85
ATOM     85  C   UNL A   1      50.477  28.070  25.870  1.00  0.00    -0.014 A 
ATOM     86  C   UNL A   1      51.503  27.677  26.748  1.00  0.00     0.010 A 
ATOM     87  C   UNL A   1      50.794  28.333  24.524  1.00  0.00     0.010 A 
ATOM     88  C   UNL A   1      52.822  27.579  26.296  1.00  0.00     0.020 A 
ATOM     89  C   UNL A   1      52.107  28.204  24.061  1.00  0.00     0.020 A 
ATOM     90  C   UNL A   1      53.116  27.840  24.954  1.00  0.00     0.054 A 
BRANCH  90  91
ATOM     91  S   UNL A   1      54.828  27.658  24.384  1.00  0.00     0.124 S 
ATOM     92  O   UNL A   1      54.826  26.306  23.835  1.00  0.00    -0.237 OA
ATOM     93  O   UNL A   1      54.954  28.735  23.405  1.00  0.00    -0.237 OA
ATOM     94  O   UNL A   1      55.620  27.835  25.600  1.00  0.00    -0.744 OA
ENDBRANCH  90  91
ENDBRANCH  64  85
ENDBRANCH  38  39
ENDBRANCH  31  33
ENDBRANCH  30  31
ENDBRANCH  29  30
ENDBRANCH  28  29
ENDBRANCH  27  28
ENDBRANCH  26  27
ENDBRANCH   1  26
TORSDOF 23
ENDMDL
MODEL 3
REMARK VINA RESULT:      -8.6      4.364     11.075
REMARK SMILES Cc1cc(F)ccc1S(=O)(=O)N1CCO[C@H](CC(=O)OCCOCCOCCOC(=O)c2ccc(-c3c4nc(c(-c5ccc(S(=O)(=O)[O-])cc5)c5ccc([nH]5)c(-c5ccc(S(=O)(=O)[O-])cc5)c5nc(c(-c6ccc(S(=O)(=O)[O-])cc6)c6ccc3[nH]6)C=C5)C=C4)cc2)C1
REMARK SMILES IDX 24 1 23 2 22 3 21 4 20 5 18 6 19 7 17 8 16 9 12 10 13 11
REMARK SMILES IDX 92 12 14 13 15 14 9 15 10 16 11 17 8 18 1 19 2 20 3 21 4 22
REMARK SMILES IDX 7 23 5 24 6 25 25 26 26 27 27 28 28 29 29 30 30 31 31 32
REMARK SMILES IDX 32 33 33 34 91 35 34 36 90 37 35 38 36 39 37 40 84 41 38 42
REMARK SMILES IDX 89 43 83 44 85 45 39 46 88 47 82 48 81 49 40 51 70 52 51 53
REMARK SMILES IDX 69 54 52 55 55 56 68 57 86 58 53 59 54 60 67 62 87 63 56 64
REMARK SMILES IDX 41 65 42 66 50 67 43 68 49 69 44 70 45 71 46 72 47 73 48 74
REMARK SMILES IDX 71 75 72 76 80 77 73 78 79 79 74 80 75 81 76 82 77 83 78 84
REMARK SMILES IDX 57 85 58 86 66 87 59 88 65 89 60 90 61 91 62 92 63 93 64 94
REMARK H PARENT 85 50 55 61
REMARK Flexibility Score: inf
ROOT
ATOM      1  C   UNL A   1      46.486  23.594  25.400  1.00  0.00     0.188 C 
ENDROOT
BRANCH   1   2
ATOM      2  O   UNL A   1      46.676  24.872  24.830  1.00  0.00    -0.376 OA
BRANCH   2   3
ATOM      3  C   UNL A   1      46.863  25.989  25.695  1.00  0.00     0.202 C 
BRANCH   3   4
ATOM      4  C   UNL A   1      47.899  25.972  26.841  1.00  0.00     0.261 C 
BRANCH   4   5
ATOM      5  O   UNL A   1      47.643  26.848  27.969  1.00  0.00    -0.463 OA
BRANCH   5   6
ATOM      6  C   UNL A   1      48.191  28.082  27.886  1.00  0.00     0.308 C 
ATOM      7  O   UNL A   1      49.227  28.401  28.464  1.00  0.00    -0.252 OA
BRANCH   6   8
ATOM      8  C   UNL A   1      47.416  29.126  27.102  1.00  0.00     0.156 C 
BRANCH   8   9
ATOM      9  C   UNL A   1      47.617  30.647  27.245  1.00  0.00     0.144 C 
ATOM     10  N   UNL A   1      45.552  31.001  28.503  1.00  0.00    -0.193 NA
ATOM     11  C   UNL A   1      44.964  31.900  27.494  1.00  0.00     0.131 C 
ATOM     12  C   UNL A   1      47.021  31.162  28.579  1.00  0.00     0.135 C 
ATOM     13  C   UNL A   1      45.666  31.692  26.134  1.00  0.00     0.177 C 
ATOM     14  O   UNL A   1      47.078  31.422  26.144  1.00  0.00    -0.375 OA
BRANCH  10  15
ATOM     15  S   UNL A   1      44.638  30.441  29.796  1.00  0.00     0.243 S 
ATOM     16  O   UNL A   1      43.247  30.470  29.419  1.00  0.00    -0.207 OA
ATOM     17  O   UNL A   1      45.127  31.157  30.965  1.00  0.00    -0.207 OA
BRANCH  15  18
ATOM     18  C   UNL A   1      45.045  28.697  30.066  1.00  0.00     0.085 A 
ATOM     19  C   UNL A   1      46.855  28.991  31.893  1.00  0.00     0.046 C 
ATOM     20  C   UNL A   1      45.933  28.188  31.039  1.00  0.00    -0.028 A 
ATOM     21  C   UNL A   1      46.058  26.791  31.180  1.00  0.00     0.044 A 
ATOM     22  C   UNL A   1      45.399  25.924  30.324  1.00  0.00     0.123 A 
ATOM     23  C   UNL A   1      44.402  27.794  29.191  1.00  0.00     0.025 A 
ATOM     24  F   UNL A   1      45.577  24.605  30.467  1.00  0.00    -0.207 F 
ATOM     25  C   UNL A   1      44.597  26.414  29.308  1.00  0.00     0.040 A 
ENDBRANCH  15  18
ENDBRANCH  10  15
ENDBRANCH   8   9
ENDBRANCH   6   8
ENDBRANCH   5   6
ENDBRANCH   4   5
ENDBRANCH   3   4
ENDBRANCH   2   3
ENDBRANCH   1   2
BRANCH   1  26
ATOM     26  C   UNL A   1      45.056  23.067  25.456  1.00  0.00     0.188 C 
BRANCH  26  27
ATOM     27  O   UNL A   1      44.189  23.679  26.377  1.00  0.00    -0.376 OA
BRANCH  27  28
ATOM     28  C   UNL A   1      43.098  22.955  26.921  1.00  0.00     0.202 C 
BRANCH  28  29
ATOM     29  C   UNL A   1      41.629  23.129  26.484  1.00  0.00     0.261 C 
BRANCH  29  30
ATOM     30  O   UNL A   1      41.161  24.446  26.166  1.00  0.00    -0.460 OA
BRANCH  30  31
ATOM     31  C   UNL A   1      39.900  24.768  26.547  1.00  0.00     0.338 C 
ATOM     32  O   UNL A   1      38.874  24.194  26.233  1.00  0.00    -0.246 OA
BRANCH  31  33
ATOM     33  C   UNL A   1      40.020  25.773  27.635  1.00  0.00     0.060 A 
ATOM     34  C   UNL A   1      39.120  25.717  28.712  1.00  0.00     0.016 A 
ATOM     35  C   UNL A   1      41.042  26.721  27.625  1.00  0.00     0.016 A 
ATOM     36  C   UNL A   1      39.242  26.605  29.781  1.00  0.00     0.010 A 
ATOM     37  C   UNL A   1      41.139  27.637  28.678  1.00  0.00     0.010 A 
ATOM     38  C   UNL A   1      40.231  27.596  29.754  1.00  0.00    -0.014 A 
BRANCH  38  39
ATOM     39  C   UNL A   1      40.223  28.690  30.757  1.00  0.00     0.031 A 
ATOM     40  C   UNL A   1      41.170  28.598  31.923  1.00  0.00     0.074 A 
ATOM     41  C   UNL A   1      39.397  29.745  30.641  1.00  0.00     0.049 A 
ATOM     42  N   UNL A   1      41.270  29.370  32.974  1.00  0.00    -0.248 NA
ATOM     43  C   UNL A   1      42.130  27.483  31.899  1.00  0.00     0.031 C 
ATOM     44  C   UNL A   1      38.482  29.989  29.528  1.00  0.00     0.029 A 
ATOM     45  N   UNL A   1      39.186  30.807  31.488  1.00  0.00    -0.354 N 
ATOM     46  C   UNL A   1      42.291  28.826  33.745  1.00  0.00     0.074 A 
ATOM     47  C   UNL A   1      42.762  27.646  33.053  1.00  0.00     0.031 C 
ATOM     48  C   UNL A   1      37.797  31.122  29.768  1.00  0.00     0.029 A 
ATOM     49  C   UNL A   1      38.190  31.657  31.071  1.00  0.00     0.049 A 
ATOM     50  H   UNL A   1      39.702  30.946  32.316  1.00  0.00     0.167 HD
ATOM     51  C   UNL A   1      42.791  29.270  34.923  1.00  0.00     0.031 A 
ATOM     52  C   UNL A   1      37.635  32.722  31.684  1.00  0.00     0.031 A 
ATOM     53  C   UNL A   1      42.310  30.436  35.614  1.00  0.00     0.049 A 
ATOM     54  C   UNL A   1      38.138  33.137  33.044  1.00  0.00     0.074 A 
ATOM     55  C   UNL A   1      42.758  30.972  36.809  1.00  0.00     0.029 A 
ATOM     56  N   UNL A   1      41.266  31.242  35.182  1.00  0.00    -0.354 N 
ATOM     57  N   UNL A   1      39.111  32.624  33.758  1.00  0.00    -0.248 NA
ATOM     58  C   UNL A   1      37.464  34.278  33.682  1.00  0.00     0.031 C 
ATOM     59  C   UNL A   1      41.940  32.059  37.135  1.00  0.00     0.029 A 
ATOM     60  C   UNL A   1      41.029  32.247  36.107  1.00  0.00     0.049 A 
ATOM     61  H   UNL A   1      40.768  31.118  34.342  1.00  0.00     0.167 HD
ATOM     62  C   UNL A   1      39.182  33.392  34.916  1.00  0.00     0.074 A 
ATOM     63  C   UNL A   1      38.167  34.419  34.798  1.00  0.00     0.031 C 
ATOM     64  C   UNL A   1      40.011  33.259  35.982  1.00  0.00     0.031 A 
BRANCH  51  65
ATOM     65  C   UNL A   1      43.886  28.457  35.565  1.00  0.00    -0.014 A 
ATOM     66  C   UNL A   1      43.615  27.551  36.607  1.00  0.00     0.010 A 
ATOM     67  C   UNL A   1      45.204  28.578  35.089  1.00  0.00     0.010 A 
ATOM     68  C   UNL A   1      44.650  26.809  37.184  1.00  0.00     0.020 A 
ATOM     69  C   UNL A   1      46.236  27.814  35.643  1.00  0.00     0.020 A 
ATOM     70  C   UNL A   1      45.954  26.945  36.698  1.00  0.00     0.054 A 
BRANCH  70  71
ATOM     71  S   UNL A   1      47.271  25.952  37.451  1.00  0.00     0.124 S 
ATOM     72  O   UNL A   1      47.540  26.692  38.682  1.00  0.00    -0.237 OA
ATOM     73  O   UNL A   1      46.629  24.653  37.628  1.00  0.00    -0.237 OA
ATOM     74  O   UNL A   1      48.344  25.985  36.459  1.00  0.00    -0.744 OA
ENDBRANCH  70  71
ENDBRANCH  51  65
BRANCH  52  75
ATOM     75  C   UNL A   1      36.508  33.453  31.037  1.00  0.00    -0.014 A 
ATOM     76  C   UNL A   1      36.589  33.860  29.694  1.00  0.00     0.010 A 
ATOM     77  C   UNL A   1      35.345  33.755  31.771  1.00  0.00     0.010 A 
ATOM     78  C   UNL A   1      35.536  34.567  29.102  1.00  0.00     0.020 A 
ATOM     79  C   UNL A   1      34.278  34.433  31.175  1.00  0.00     0.020 A 
ATOM     80  C   UNL A   1      34.385  34.844  29.845  1.00  0.00     0.054 A 
BRANCH  80  81
ATOM     81  S   UNL A   1      33.013  35.714  29.037  1.00  0.00     0.124 S 
ATOM     82  O   UNL A   1      32.484  34.689  28.144  1.00  0.00    -0.237 OA
ATOM     83  O   UNL A   1      32.161  36.071  30.168  1.00  0.00    -0.237 OA
ATOM     84  O   UNL A   1      33.665  36.843  28.377  1.00  0.00    -0.744 OA
ENDBRANCH  80  81
ENDBRANCH  52  75
BRANCH  64  85
ATOM     85  C   UNL A   1      39.874  34.259  37.104  1.00  0.00    -0.014 A 
ATOM     86  C   UNL A   1      40.505  35.514  37.044  1.00  0.00     0.010 A 
ATOM     87  C   UNL A   1      39.052  33.960  38.207  1.00  0.00     0.010 A 
ATOM     88  C   UNL A   1      40.342  36.439  38.079  1.00  0.00     0.020 A 
ATOM     89  C   UNL A   1      38.860  34.895  39.228  1.00  0.00     0.020 A 
ATOM     90  C   UNL A   1      39.517  36.125  39.164  1.00  0.00     0.054 A 
BRANCH  90  91
ATOM     91  S   UNL A   1      39.286  37.362  40.470  1.00  0.00     0.124 S 
ATOM     92  O   UNL A   1      38.255  38.223  39.897  1.00  0.00    -0.237 OA
ATOM     93  O   UNL A   1      38.864  36.550  41.608  1.00  0.00    -0.237 OA
ATOM     94  O   UNL A   1      40.605  37.976  40.606  1.00  0.00    -0.744 OA
ENDBRANCH  90  91
ENDBRANCH  64  85
ENDBRANCH  38  39
ENDBRANCH  31  33
ENDBRANCH  30  31
ENDBRANCH  29  30
ENDBRANCH  28  29
ENDBRANCH  27  28
ENDBRANCH  26  27
ENDBRANCH   1  26
TORSDOF 23
ENDMDL
