MODEL 1
REMARK VINA RESULT:      -9.5      0.000      0.000
REMARK SMILES C[C@@H](C(=O)OCCOCCOCCOC(=O)c1ccc(-c2c3nc(c(-c4ccc(S(=O)(=O)[O-])cc4)c4ccc([nH]4)c(-c4ccc(S(=O)(=O)[O-])cc4)c4nc(c(-c5ccc(S(=O)(=O)[O-])cc5)c5ccc2[nH]5)C=C4)C=C3)cc1)c1ccc(OC2CCCC2)cc1F
REMARK SMILES IDX 9 1 8 2 7 3 6 4 5 5 3 6 4 7 2 8 1 9 77 10 78 11 88 12 79 13
REMARK SMILES IDX 87 14 89 15 80 16 81 17 82 18 83 19 86 20 84 21 85 22 10 23
REMARK SMILES IDX 11 24 12 25 13 26 14 27 15 28 16 29 17 30 18 31 76 32 19 33
REMARK SMILES IDX 75 34 20 35 21 36 22 37 69 38 23 39 74 40 68 41 70 42 24 43
REMARK SMILES IDX 73 44 67 45 66 46 25 48 55 49 36 50 54 51 37 52 40 53 53 54
REMARK SMILES IDX 71 55 38 56 39 57 52 59 72 60 41 61 26 62 27 63 35 64 28 65
REMARK SMILES IDX 34 66 29 67 30 68 31 69 32 70 33 71 56 72 57 73 65 74 58 75
REMARK SMILES IDX 64 76 59 77 60 78 61 79 62 80 63 81 42 82 43 83 51 84 44 85
REMARK SMILES IDX 50 86 45 87 46 88 47 89 48 90 49 91
REMARK H PARENT 70 47 40 58
REMARK Flexibility Score: inf
ROOT
ATOM      1  C   UNL A   1      40.710  20.539  26.725  1.00  0.00     0.188 C 
ENDROOT
BRANCH   1   2
ATOM      2  O   UNL A   1      40.230  21.662  25.996  1.00  0.00    -0.376 OA
BRANCH   2   3
ATOM      3  C   UNL A   1      38.917  22.141  26.278  1.00  0.00     0.202 C 
BRANCH   3   4
ATOM      4  C   UNL A   1      37.839  22.077  25.177  1.00  0.00     0.261 C 
BRANCH   4   5
ATOM      5  O   UNL A   1      37.285  23.358  24.802  1.00  0.00    -0.463 OA
BRANCH   5   6
ATOM      6  C   UNL A   1      36.390  23.369  23.776  1.00  0.00     0.313 C 
ATOM      7  O   UNL A   1      36.687  23.094  22.617  1.00  0.00    -0.252 OA
BRANCH   6   8
ATOM      8  C   UNL A   1      34.951  23.713  24.204  1.00  0.00     0.129 C 
ATOM      9  C   UNL A   1      34.898  24.809  25.285  1.00  0.00     0.025 C 
BRANCH   8  10
ATOM     10  C   UNL A   1      34.030  22.501  24.422  1.00  0.00     0.002 A 
ATOM     11  C   UNL A   1      34.174  21.664  25.541  1.00  0.00     0.011 A 
ATOM     12  C   UNL A   1      33.102  22.076  23.456  1.00  0.00     0.130 A 
ATOM     13  C   UNL A   1      33.428  20.481  25.671  1.00  0.00     0.047 A 
ATOM     14  C   UNL A   1      32.357  20.892  23.583  1.00  0.00     0.086 A 
ATOM     15  F   UNL A   1      32.916  22.788  22.335  1.00  0.00    -0.207 F 
ATOM     16  C   UNL A   1      32.520  20.076  24.689  1.00  0.00     0.122 A 
BRANCH  16  17
ATOM     17  O   UNL A   1      31.921  18.883  24.942  1.00  0.00    -0.490 OA
BRANCH  17  18
ATOM     18  C   UNL A   1      32.464  17.605  24.630  1.00  0.00     0.173 C 
ATOM     19  C   UNL A   1      33.437  17.553  23.462  1.00  0.00     0.045 C 
ATOM     20  C   UNL A   1      33.137  16.847  25.772  1.00  0.00     0.045 C 
ATOM     21  C   UNL A   1      34.114  16.202  23.606  1.00  0.00     0.004 C 
ATOM     22  C   UNL A   1      34.155  15.919  25.106  1.00  0.00     0.004 C 
ENDBRANCH  17  18
ENDBRANCH  16  17
ENDBRANCH   8  10
ENDBRANCH   6   8
ENDBRANCH   5   6
ENDBRANCH   4   5
ENDBRANCH   3   4
ENDBRANCH   2   3
ENDBRANCH   1   2
BRANCH   1  23
ATOM     23  C   UNL A   1      41.355  19.381  25.944  1.00  0.00     0.188 C 
BRANCH  23  24
ATOM     24  O   UNL A   1      42.667  19.061  26.348  1.00  0.00    -0.376 OA
BRANCH  24  25
ATOM     25  C   UNL A   1      43.706  19.096  25.386  1.00  0.00     0.202 C 
BRANCH  25  26
ATOM     26  C   UNL A   1      44.317  20.427  24.899  1.00  0.00     0.261 C 
BRANCH  26  27
ATOM     27  O   UNL A   1      44.218  21.566  25.766  1.00  0.00    -0.460 OA
BRANCH  27  28
ATOM     28  C   UNL A   1      43.758  22.718  25.225  1.00  0.00     0.338 C 
ATOM     29  O   UNL A   1      43.414  22.896  24.066  1.00  0.00    -0.246 OA
BRANCH  28  30
ATOM     30  C   UNL A   1      43.505  23.660  26.339  1.00  0.00     0.060 A 
ATOM     31  C   UNL A   1      44.007  24.965  26.250  1.00  0.00     0.016 A 
ATOM     32  C   UNL A   1      42.749  23.275  27.447  1.00  0.00     0.016 A 
ATOM     33  C   UNL A   1      43.760  25.882  27.271  1.00  0.00     0.010 A 
ATOM     34  C   UNL A   1      42.539  24.186  28.489  1.00  0.00     0.010 A 
ATOM     35  C   UNL A   1      43.066  25.488  28.420  1.00  0.00    -0.014 A 
BRANCH  35  36
ATOM     36  C   UNL A   1      43.065  26.362  29.624  1.00  0.00     0.031 A 
ATOM     37  C   UNL A   1      41.922  27.328  29.803  1.00  0.00     0.074 A 
ATOM     38  C   UNL A   1      44.022  26.282  30.567  1.00  0.00     0.049 A 
ATOM     39  N   UNL A   1      41.738  28.237  30.726  1.00  0.00    -0.248 NA
ATOM     40  C   UNL A   1      40.840  27.252  28.807  1.00  0.00     0.031 C 
ATOM     41  C   UNL A   1      45.125  25.323  30.581  1.00  0.00     0.029 A 
ATOM     42  N   UNL A   1      44.205  27.021  31.712  1.00  0.00    -0.354 N 
ATOM     43  C   UNL A   1      40.539  28.864  30.403  1.00  0.00     0.074 A 
ATOM     44  C   UNL A   1      40.045  28.238  29.196  1.00  0.00     0.031 C 
ATOM     45  C   UNL A   1      45.875  25.537  31.677  1.00  0.00     0.029 A 
ATOM     46  C   UNL A   1      45.336  26.679  32.416  1.00  0.00     0.049 A 
ATOM     47  H   UNL A   1      43.585  27.729  32.000  1.00  0.00     0.167 HD
ATOM     48  C   UNL A   1      39.908  29.873  31.048  1.00  0.00     0.031 A 
ATOM     49  C   UNL A   1      45.889  27.239  33.512  1.00  0.00     0.031 A 
ATOM     50  C   UNL A   1      40.400  30.500  32.246  1.00  0.00     0.049 A 
ATOM     51  C   UNL A   1      45.220  28.429  34.157  1.00  0.00     0.074 A 
ATOM     52  C   UNL A   1      39.823  31.525  32.977  1.00  0.00     0.029 A 
ATOM     53  N   UNL A   1      41.584  30.171  32.887  1.00  0.00    -0.354 N 
ATOM     54  N   UNL A   1      44.089  29.014  33.841  1.00  0.00    -0.248 NA
ATOM     55  C   UNL A   1      45.904  29.033  35.310  1.00  0.00     0.031 C 
ATOM     56  C   UNL A   1      40.694  31.864  34.017  1.00  0.00     0.029 A 
ATOM     57  C   UNL A   1      41.774  30.996  33.983  1.00  0.00     0.049 A 
ATOM     58  H   UNL A   1      42.200  29.456  32.604  1.00  0.00     0.167 HD
ATOM     59  C   UNL A   1      43.911  30.031  34.776  1.00  0.00     0.074 A 
ATOM     60  C   UNL A   1      45.042  29.973  35.677  1.00  0.00     0.031 C 
ATOM     61  C   UNL A   1      42.900  30.930  34.880  1.00  0.00     0.031 A 
BRANCH  48  62
ATOM     62  C   UNL A   1      38.639  30.408  30.436  1.00  0.00    -0.014 A 
ATOM     63  C   UNL A   1      37.372  29.969  30.861  1.00  0.00     0.010 A 
ATOM     64  C   UNL A   1      38.720  31.403  29.444  1.00  0.00     0.010 A 
ATOM     65  C   UNL A   1      36.213  30.490  30.280  1.00  0.00     0.020 A 
ATOM     66  C   UNL A   1      37.564  31.949  28.883  1.00  0.00     0.020 A 
ATOM     67  C   UNL A   1      36.316  31.478  29.295  1.00  0.00     0.054 A 
BRANCH  67  68
ATOM     68  S   UNL A   1      34.793  32.156  28.580  1.00  0.00     0.124 S 
ATOM     69  O   UNL A   1      34.102  32.659  29.765  1.00  0.00    -0.237 OA
ATOM     70  O   UNL A   1      35.298  33.177  27.666  1.00  0.00    -0.237 OA
ATOM     71  O   UNL A   1      34.167  31.003  27.938  1.00  0.00    -0.744 OA
ENDBRANCH  67  68
ENDBRANCH  48  62
BRANCH  49  72
ATOM     72  C   UNL A   1      47.174  26.713  34.057  1.00  0.00    -0.014 A 
ATOM     73  C   UNL A   1      48.409  27.199  33.592  1.00  0.00     0.010 A 
ATOM     74  C   UNL A   1      47.167  25.697  35.031  1.00  0.00     0.010 A 
ATOM     75  C   UNL A   1      49.609  26.666  34.074  1.00  0.00     0.020 A 
ATOM     76  C   UNL A   1      48.365  25.185  35.539  1.00  0.00     0.020 A 
ATOM     77  C   UNL A   1      49.579  25.665  35.048  1.00  0.00     0.054 A 
BRANCH  77  78
ATOM     78  S   UNL A   1      51.149  25.021  35.691  1.00  0.00     0.124 S 
ATOM     79  O   UNL A   1      50.968  25.159  37.132  1.00  0.00    -0.237 OA
ATOM     80  O   UNL A   1      51.158  23.652  35.182  1.00  0.00    -0.237 OA
ATOM     81  O   UNL A   1      52.150  25.904  35.098  1.00  0.00    -0.744 OA
ENDBRANCH  77  78
ENDBRANCH  49  72
BRANCH  61  82
ATOM     82  C   UNL A   1      42.933  31.899  36.036  1.00  0.00    -0.014 A 
ATOM     83  C   UNL A   1      43.454  33.197  35.898  1.00  0.00     0.010 A 
ATOM     84  C   UNL A   1      42.370  31.519  37.270  1.00  0.00     0.010 A 
ATOM     85  C   UNL A   1      43.444  34.084  36.979  1.00  0.00     0.020 A 
ATOM     86  C   UNL A   1      42.327  32.414  38.343  1.00  0.00     0.020 A 
ATOM     87  C   UNL A   1      42.877  33.687  38.194  1.00  0.00     0.054 A 
BRANCH  87  88
ATOM     88  S   UNL A   1      42.836  34.873  39.568  1.00  0.00     0.124 S 
ATOM     89  O   UNL A   1      43.430  34.100  40.655  1.00  0.00    -0.237 OA
ATOM     90  O   UNL A   1      43.649  35.976  39.062  1.00  0.00    -0.237 OA
ATOM     91  O   UNL A   1      41.415  35.175  39.724  1.00  0.00    -0.744 OA
ENDBRANCH  87  88
ENDBRANCH  61  82
ENDBRANCH  35  36
ENDBRANCH  28  30
ENDBRANCH  27  28
ENDBRANCH  26  27
ENDBRANCH  25  26
ENDBRANCH  24  25
ENDBRANCH  23  24
ENDBRANCH   1  23
TORSDOF 23
ENDMDL
MODEL 2
REMARK VINA RESULT:      -9.3      0.631      8.053
REMARK SMILES C[C@@H](C(=O)OCCOCCOCCOC(=O)c1ccc(-c2c3nc(c(-c4ccc(S(=O)(=O)[O-])cc4)c4ccc([nH]4)c(-c4ccc(S(=O)(=O)[O-])cc4)c4nc(c(-c5ccc(S(=O)(=O)[O-])cc5)c5ccc2[nH]5)C=C4)C=C3)cc1)c1ccc(OC2CCCC2)cc1F
REMARK SMILES IDX 9 1 8 2 7 3 6 4 5 5 3 6 4 7 2 8 1 9 77 10 78 11 88 12 79 13
REMARK SMILES IDX 87 14 89 15 80 16 81 17 82 18 83 19 86 20 84 21 85 22 10 23
REMARK SMILES IDX 11 24 12 25 13 26 14 27 15 28 16 29 17 30 18 31 76 32 19 33
REMARK SMILES IDX 75 34 20 35 21 36 22 37 69 38 23 39 74 40 68 41 70 42 24 43
REMARK SMILES IDX 73 44 67 45 66 46 25 48 55 49 36 50 54 51 37 52 40 53 53 54
REMARK SMILES IDX 71 55 38 56 39 57 52 59 72 60 41 61 26 62 27 63 35 64 28 65
REMARK SMILES IDX 34 66 29 67 30 68 31 69 32 70 33 71 56 72 57 73 65 74 58 75
REMARK SMILES IDX 64 76 59 77 60 78 61 79 62 80 63 81 42 82 43 83 51 84 44 85
REMARK SMILES IDX 50 86 45 87 46 88 47 89 48 90 49 91
REMARK H PARENT 70 47 40 58
REMARK Flexibility Score: inf
ROOT
ATOM      1  C   UNL A   1      40.627  20.428  26.671  1.00  0.00     0.188 C 
ENDROOT
BRANCH   1   2
ATOM      2  O   UNL A   1      40.177  21.434  25.771  1.00  0.00    -0.376 OA
BRANCH   2   3
ATOM      3  C   UNL A   1      39.003  22.169  26.110  1.00  0.00     0.202 C 
BRANCH   3   4
ATOM      4  C   UNL A   1      37.767  22.081  25.192  1.00  0.00     0.261 C 
BRANCH   4   5
ATOM      5  O   UNL A   1      37.268  23.356  24.730  1.00  0.00    -0.463 OA
BRANCH   5   6
ATOM      6  C   UNL A   1      36.369  23.336  23.708  1.00  0.00     0.313 C 
ATOM      7  O   UNL A   1      36.663  23.037  22.554  1.00  0.00    -0.252 OA
BRANCH   6   8
ATOM      8  C   UNL A   1      34.928  23.676  24.135  1.00  0.00     0.129 C 
ATOM      9  C   UNL A   1      34.874  24.722  25.265  1.00  0.00     0.025 C 
BRANCH   8  10
ATOM     10  C   UNL A   1      33.992  22.466  24.286  1.00  0.00     0.002 A 
ATOM     11  C   UNL A   1      34.081  21.605  25.392  1.00  0.00     0.011 A 
ATOM     12  C   UNL A   1      33.105  22.067  23.272  1.00  0.00     0.130 A 
ATOM     13  C   UNL A   1      33.323  20.424  25.464  1.00  0.00     0.047 A 
ATOM     14  C   UNL A   1      32.348  20.886  23.341  1.00  0.00     0.086 A 
ATOM     15  F   UNL A   1      32.973  22.804  22.159  1.00  0.00    -0.207 F 
ATOM     16  C   UNL A   1      32.458  20.046  24.435  1.00  0.00     0.122 A 
BRANCH  16  17
ATOM     17  O   UNL A   1      31.841  18.852  24.636  1.00  0.00    -0.490 OA
BRANCH  17  18
ATOM     18  C   UNL A   1      32.447  17.574  24.476  1.00  0.00     0.173 C 
ATOM     19  C   UNL A   1      33.618  17.499  23.508  1.00  0.00     0.045 C 
ATOM     20  C   UNL A   1      32.908  16.868  25.749  1.00  0.00     0.045 C 
ATOM     21  C   UNL A   1      34.273  16.167  23.823  1.00  0.00     0.004 C 
ATOM     22  C   UNL A   1      34.042  15.937  25.315  1.00  0.00     0.004 C 
ENDBRANCH  17  18
ENDBRANCH  16  17
ENDBRANCH   8  10
ENDBRANCH   6   8
ENDBRANCH   5   6
ENDBRANCH   4   5
ENDBRANCH   3   4
ENDBRANCH   2   3
ENDBRANCH   1   2
BRANCH   1  23
ATOM     23  C   UNL A   1      41.374  19.212  26.094  1.00  0.00     0.188 C 
BRANCH  23  24
ATOM     24  O   UNL A   1      42.683  19.043  26.586  1.00  0.00    -0.376 OA
BRANCH  24  25
ATOM     25  C   UNL A   1      43.765  19.065  25.671  1.00  0.00     0.202 C 
BRANCH  25  26
ATOM     26  C   UNL A   1      44.286  20.382  25.061  1.00  0.00     0.261 C 
BRANCH  26  27
ATOM     27  O   UNL A   1      44.132  21.584  25.831  1.00  0.00    -0.460 OA
BRANCH  27  28
ATOM     28  C   UNL A   1      43.494  22.621  25.239  1.00  0.00     0.338 C 
ATOM     29  O   UNL A   1      43.020  22.641  24.112  1.00  0.00    -0.246 OA
BRANCH  28  30
ATOM     30  C   UNL A   1      43.246  23.642  26.282  1.00  0.00     0.060 A 
ATOM     31  C   UNL A   1      43.627  24.968  26.036  1.00  0.00     0.016 A 
ATOM     32  C   UNL A   1      42.613  23.305  27.480  1.00  0.00     0.016 A 
ATOM     33  C   UNL A   1      43.380  25.955  26.990  1.00  0.00     0.010 A 
ATOM     34  C   UNL A   1      42.405  24.293  28.450  1.00  0.00     0.010 A 
ATOM     35  C   UNL A   1      42.812  25.620  28.223  1.00  0.00    -0.014 A 
BRANCH  35  36
ATOM     36  C   UNL A   1      42.827  26.601  29.340  1.00  0.00     0.031 A 
ATOM     37  C   UNL A   1      43.956  26.529  30.337  1.00  0.00     0.074 A 
ATOM     38  C   UNL A   1      41.897  27.567  29.457  1.00  0.00     0.049 A 
ATOM     39  N   UNL A   1      44.146  27.224  31.429  1.00  0.00    -0.248 NA
ATOM     40  C   UNL A   1      45.013  25.543  30.057  1.00  0.00     0.031 C 
ATOM     41  C   UNL A   1      40.813  27.824  28.511  1.00  0.00     0.029 A 
ATOM     42  N   UNL A   1      41.729  28.526  30.429  1.00  0.00    -0.354 N 
ATOM     43  C   UNL A   1      45.324  26.736  31.985  1.00  0.00     0.074 A 
ATOM     44  C   UNL A   1      45.799  25.681  31.115  1.00  0.00     0.031 C 
ATOM     45  C   UNL A   1      40.088  28.868  28.952  1.00  0.00     0.029 A 
ATOM     46  C   UNL A   1      40.624  29.321  30.235  1.00  0.00     0.049 A 
ATOM     47  H   UNL A   1      42.343  28.633  31.190  1.00  0.00     0.167 HD
ATOM     48  C   UNL A   1      45.952  27.124  33.119  1.00  0.00     0.031 A 
ATOM     49  C   UNL A   1      40.089  30.283  31.016  1.00  0.00     0.031 A 
ATOM     50  C   UNL A   1      45.479  28.169  33.988  1.00  0.00     0.049 A 
ATOM     51  C   UNL A   1      40.751  30.630  32.327  1.00  0.00     0.074 A 
ATOM     52  C   UNL A   1      46.055  28.638  35.157  1.00  0.00     0.029 A 
ATOM     53  N   UNL A   1      44.319  28.900  33.794  1.00  0.00    -0.354 N 
ATOM     54  N   UNL A   1      41.862  30.160  32.843  1.00  0.00    -0.248 NA
ATOM     55  C   UNL A   1      40.086  31.642  33.162  1.00  0.00     0.031 C 
ATOM     56  C   UNL A   1      45.205  29.604  35.705  1.00  0.00     0.029 A 
ATOM     57  C   UNL A   1      44.142  29.794  34.838  1.00  0.00     0.049 A 
ATOM     58  H   UNL A   1      43.710  28.800  33.026  1.00  0.00     0.167 HD
ATOM     59  C   UNL A   1      42.044  30.842  34.044  1.00  0.00     0.074 A 
ATOM     60  C   UNL A   1      40.938  31.767  34.171  1.00  0.00     0.031 C 
ATOM     61  C   UNL A   1      43.041  30.716  34.956  1.00  0.00     0.031 A 
BRANCH  48  62
ATOM     62  C   UNL A   1      47.194  26.371  33.522  1.00  0.00    -0.014 A 
ATOM     63  C   UNL A   1      47.125  25.127  34.175  1.00  0.00     0.010 A 
ATOM     64  C   UNL A   1      48.456  26.904  33.199  1.00  0.00     0.010 A 
ATOM     65  C   UNL A   1      48.295  24.449  34.528  1.00  0.00     0.020 A 
ATOM     66  C   UNL A   1      49.627  26.215  33.522  1.00  0.00     0.020 A 
ATOM     67  C   UNL A   1      49.539  24.998  34.199  1.00  0.00     0.054 A 
BRANCH  67  68
ATOM     68  S   UNL A   1      51.039  24.081  34.644  1.00  0.00     0.124 S 
ATOM     69  O   UNL A   1      50.665  22.709  34.307  1.00  0.00    -0.237 OA
ATOM     70  O   UNL A   1      52.050  24.686  33.781  1.00  0.00    -0.237 OA
ATOM     71  O   UNL A   1      51.200  24.349  36.071  1.00  0.00    -0.744 OA
ENDBRANCH  67  68
ENDBRANCH  48  62
BRANCH  49  72
ATOM     72  C   UNL A   1      38.829  30.968  30.606  1.00  0.00    -0.014 A 
ATOM     73  C   UNL A   1      37.573  30.408  30.902  1.00  0.00     0.010 A 
ATOM     74  C   UNL A   1      38.881  32.178  29.890  1.00  0.00     0.010 A 
ATOM     75  C   UNL A   1      36.398  31.033  30.472  1.00  0.00     0.020 A 
ATOM     76  C   UNL A   1      37.708  32.823  29.487  1.00  0.00     0.020 A 
ATOM     77  C   UNL A   1      36.473  32.239  29.770  1.00  0.00     0.054 A 
BRANCH  77  78
ATOM     78  S   UNL A   1      34.933  33.054  29.263  1.00  0.00     0.124 S 
ATOM     79  O   UNL A   1      34.168  33.062  30.506  1.00  0.00    -0.237 OA
ATOM     80  O   UNL A   1      35.405  34.358  28.803  1.00  0.00    -0.237 OA
ATOM     81  O   UNL A   1      34.414  32.182  28.212  1.00  0.00    -0.744 OA
ENDBRANCH  77  78
ENDBRANCH  49  72
BRANCH  61  82
ATOM     82  C   UNL A   1      43.019  31.631  36.156  1.00  0.00    -0.014 A 
ATOM     83  C   UNL A   1      42.290  31.313  37.315  1.00  0.00     0.010 A 
ATOM     84  C   UNL A   1      43.798  32.804  36.142  1.00  0.00     0.010 A 
ATOM     85  C   UNL A   1      42.314  32.165  38.423  1.00  0.00     0.020 A 
ATOM     86  C   UNL A   1      43.851  33.642  37.260  1.00  0.00     0.020 A 
ATOM     87  C   UNL A   1      43.096  33.324  38.389  1.00  0.00     0.054 A 
BRANCH  87  88
ATOM     88  S   UNL A   1      43.144  34.390  39.857  1.00  0.00     0.124 S 
ATOM     89  O   UNL A   1      42.831  35.699  39.293  1.00  0.00    -0.237 OA
ATOM     90  O   UNL A   1      42.110  33.808  40.708  1.00  0.00    -0.237 OA
ATOM     91  O   UNL A   1      44.510  34.238  40.354  1.00  0.00    -0.744 OA
ENDBRANCH  87  88
ENDBRANCH  61  82
ENDBRANCH  35  36
ENDBRANCH  28  30
ENDBRANCH  27  28
ENDBRANCH  26  27
ENDBRANCH  25  26
ENDBRANCH  24  25
ENDBRANCH  23  24
ENDBRANCH   1  23
TORSDOF 23
ENDMDL
MODEL 3
REMARK VINA RESULT:      -8.5      2.662      4.692
REMARK SMILES C[C@@H](C(=O)OCCOCCOCCOC(=O)c1ccc(-c2c3nc(c(-c4ccc(S(=O)(=O)[O-])cc4)c4ccc([nH]4)c(-c4ccc(S(=O)(=O)[O-])cc4)c4nc(c(-c5ccc(S(=O)(=O)[O-])cc5)c5ccc2[nH]5)C=C4)C=C3)cc1)c1ccc(OC2CCCC2)cc1F
REMARK SMILES IDX 9 1 8 2 7 3 6 4 5 5 3 6 4 7 2 8 1 9 77 10 78 11 88 12 79 13
REMARK SMILES IDX 87 14 89 15 80 16 81 17 82 18 83 19 86 20 84 21 85 22 10 23
REMARK SMILES IDX 11 24 12 25 13 26 14 27 15 28 16 29 17 30 18 31 76 32 19 33
REMARK SMILES IDX 75 34 20 35 21 36 22 37 69 38 23 39 74 40 68 41 70 42 24 43
REMARK SMILES IDX 73 44 67 45 66 46 25 48 55 49 36 50 54 51 37 52 40 53 53 54
REMARK SMILES IDX 71 55 38 56 39 57 52 59 72 60 41 61 26 62 27 63 35 64 28 65
REMARK SMILES IDX 34 66 29 67 30 68 31 69 32 70 33 71 56 72 57 73 65 74 58 75
REMARK SMILES IDX 64 76 59 77 60 78 61 79 62 80 63 81 42 82 43 83 51 84 44 85
REMARK SMILES IDX 50 86 45 87 46 88 47 89 48 90 49 91
REMARK H PARENT 70 47 40 58
REMARK Flexibility Score: inf
ROOT
ATOM      1  C   UNL A   1      41.630  21.125  26.594  1.00  0.00     0.188 C 
ENDROOT
BRANCH   1   2
ATOM      2  O   UNL A   1      40.306  20.772  26.207  1.00  0.00    -0.376 OA
BRANCH   2   3
ATOM      3  C   UNL A   1      39.321  21.801  26.153  1.00  0.00     0.202 C 
BRANCH   3   4
ATOM      4  C   UNL A   1      38.107  21.634  25.216  1.00  0.00     0.261 C 
BRANCH   4   5
ATOM      5  O   UNL A   1      37.278  22.810  25.089  1.00  0.00    -0.463 OA
BRANCH   5   6
ATOM      6  C   UNL A   1      36.281  22.768  24.163  1.00  0.00     0.313 C 
ATOM      7  O   UNL A   1      36.472  22.904  22.958  1.00  0.00    -0.252 OA
BRANCH   6   8
ATOM      8  C   UNL A   1      34.887  22.485  24.755  1.00  0.00     0.129 C 
ATOM      9  C   UNL A   1      34.246  21.207  24.183  1.00  0.00     0.025 C 
BRANCH   8  10
ATOM     10  C   UNL A   1      33.967  23.713  24.868  1.00  0.00     0.002 A 
ATOM     11  C   UNL A   1      33.545  24.199  26.117  1.00  0.00     0.011 A 
ATOM     12  C   UNL A   1      33.383  24.323  23.745  1.00  0.00     0.130 A 
ATOM     13  C   UNL A   1      32.598  25.231  26.218  1.00  0.00     0.047 A 
ATOM     14  C   UNL A   1      32.434  25.353  23.844  1.00  0.00     0.086 A 
ATOM     15  F   UNL A   1      33.695  23.907  22.509  1.00  0.00    -0.207 F 
ATOM     16  C   UNL A   1      32.023  25.811  25.084  1.00  0.00     0.122 A 
BRANCH  16  17
ATOM     17  O   UNL A   1      31.086  26.757  25.356  1.00  0.00    -0.490 OA
BRANCH  17  18
ATOM     18  C   UNL A   1      31.359  28.107  25.716  1.00  0.00     0.173 C 
ATOM     19  C   UNL A   1      31.662  28.366  27.184  1.00  0.00     0.045 C 
ATOM     20  C   UNL A   1      32.455  28.820  24.928  1.00  0.00     0.045 C 
ATOM     21  C   UNL A   1      32.264  29.759  27.197  1.00  0.00     0.004 C 
ATOM     22  C   UNL A   1      32.995  29.904  25.864  1.00  0.00     0.004 C 
ENDBRANCH  17  18
ENDBRANCH  16  17
ENDBRANCH   8  10
ENDBRANCH   6   8
ENDBRANCH   5   6
ENDBRANCH   4   5
ENDBRANCH   3   4
ENDBRANCH   2   3
ENDBRANCH   1   2
BRANCH   1  23
ATOM     23  C   UNL A   1      41.813  22.130  27.743  1.00  0.00     0.188 C 
BRANCH  23  24
ATOM     24  O   UNL A   1      42.603  23.251  27.421  1.00  0.00    -0.376 OA
BRANCH  24  25
ATOM     25  C   UNL A   1      42.827  23.561  26.057  1.00  0.00     0.202 C 
BRANCH  25  26
ATOM     26  C   UNL A   1      42.442  24.931  25.461  1.00  0.00     0.261 C 
BRANCH  26  27
ATOM     27  O   UNL A   1      43.431  25.970  25.479  1.00  0.00    -0.460 OA
BRANCH  27  28
ATOM     28  C   UNL A   1      42.991  27.246  25.376  1.00  0.00     0.338 C 
ATOM     29  O   UNL A   1      42.570  27.796  24.368  1.00  0.00    -0.246 OA
BRANCH  28  30
ATOM     30  C   UNL A   1      42.870  27.785  26.749  1.00  0.00     0.060 A 
ATOM     31  C   UNL A   1      42.380  26.952  27.763  1.00  0.00     0.016 A 
ATOM     32  C   UNL A   1      43.270  29.090  27.046  1.00  0.00     0.016 A 
ATOM     33  C   UNL A   1      42.283  27.425  29.072  1.00  0.00     0.010 A 
ATOM     34  C   UNL A   1      43.131  29.572  28.353  1.00  0.00     0.010 A 
ATOM     35  C   UNL A   1      42.611  28.751  29.370  1.00  0.00    -0.014 A 
BRANCH  35  36
ATOM     36  C   UNL A   1      42.225  29.336  30.681  1.00  0.00     0.031 A 
ATOM     37  C   UNL A   1      40.953  30.141  30.757  1.00  0.00     0.074 A 
ATOM     38  C   UNL A   1      42.950  29.131  31.798  1.00  0.00     0.049 A 
ATOM     39  N   UNL A   1      40.448  30.806  31.764  1.00  0.00    -0.248 NA
ATOM     40  C   UNL A   1      40.140  30.196  29.530  1.00  0.00     0.031 C 
ATOM     41  C   UNL A   1      44.140  28.289  31.896  1.00  0.00     0.029 A 
ATOM     42  N   UNL A   1      42.772  29.614  33.073  1.00  0.00    -0.354 N 
ATOM     43  C   UNL A   1      39.279  31.387  31.283  1.00  0.00     0.074 A 
ATOM     44  C   UNL A   1      39.154  31.002  29.894  1.00  0.00     0.031 C 
ATOM     45  C   UNL A   1      44.590  28.318  33.164  1.00  0.00     0.029 A 
ATOM     46  C   UNL A   1      43.753  29.221  33.953  1.00  0.00     0.049 A 
ATOM     47  H   UNL A   1      42.015  30.187  33.330  1.00  0.00     0.167 HD
ATOM     48  C   UNL A   1      38.391  32.174  31.936  1.00  0.00     0.031 A 
ATOM     49  C   UNL A   1      43.968  29.572  35.239  1.00  0.00     0.031 A 
ATOM     50  C   UNL A   1      38.516  32.561  33.316  1.00  0.00     0.049 A 
ATOM     51  C   UNL A   1      43.020  30.531  35.917  1.00  0.00     0.074 A 
ATOM     52  C   UNL A   1      37.660  33.350  34.066  1.00  0.00     0.029 A 
ATOM     53  N   UNL A   1      39.560  32.200  34.152  1.00  0.00    -0.354 N 
ATOM     54  N   UNL A   1      41.920  31.075  35.451  1.00  0.00    -0.248 NA
ATOM     55  C   UNL A   1      43.343  30.922  37.297  1.00  0.00     0.031 C 
ATOM     56  C   UNL A   1      38.223  33.523  35.334  1.00  0.00     0.029 A 
ATOM     57  C   UNL A   1      39.389  32.777  35.400  1.00  0.00     0.049 A 
ATOM     58  H   UNL A   1      40.313  31.619  33.897  1.00  0.00     0.167 HD
ATOM     59  C   UNL A   1      41.405  31.844  36.492  1.00  0.00     0.074 A 
ATOM     60  C   UNL A   1      42.304  31.684  37.615  1.00  0.00     0.031 C 
ATOM     61  C   UNL A   1      40.285  32.610  36.516  1.00  0.00     0.031 A 
BRANCH  48  62
ATOM     62  C   UNL A   1      37.231  32.722  31.145  1.00  0.00    -0.014 A 
ATOM     63  C   UNL A   1      37.362  33.869  30.341  1.00  0.00     0.010 A 
ATOM     64  C   UNL A   1      35.998  32.046  31.176  1.00  0.00     0.010 A 
ATOM     65  C   UNL A   1      36.270  34.348  29.612  1.00  0.00     0.020 A 
ATOM     66  C   UNL A   1      34.913  32.503  30.424  1.00  0.00     0.020 A 
ATOM     67  C   UNL A   1      35.052  33.662  29.658  1.00  0.00     0.054 A 
BRANCH  67  68
ATOM     68  S   UNL A   1      33.661  34.292  28.679  1.00  0.00     0.124 S 
ATOM     69  O   UNL A   1      32.745  34.754  29.720  1.00  0.00    -0.237 OA
ATOM     70  O   UNL A   1      34.285  35.342  27.879  1.00  0.00    -0.237 OA
ATOM     71  O   UNL A   1      33.209  33.124  27.927  1.00  0.00    -0.744 OA
ENDBRANCH  67  68
ENDBRANCH  48  62
BRANCH  49  72
ATOM     72  C   UNL A   1      45.158  29.047  35.971  1.00  0.00    -0.014 A 
ATOM     73  C   UNL A   1      46.389  29.725  35.926  1.00  0.00     0.010 A 
ATOM     74  C   UNL A   1      45.069  27.846  36.698  1.00  0.00     0.010 A 
ATOM     75  C   UNL A   1      47.511  29.201  36.577  1.00  0.00     0.020 A 
ATOM     76  C   UNL A   1      46.180  27.336  37.376  1.00  0.00     0.020 A 
ATOM     77  C   UNL A   1      47.399  28.011  37.301  1.00  0.00     0.054 A 
BRANCH  77  78
ATOM     78  S   UNL A   1      48.857  27.375  38.174  1.00  0.00     0.124 S 
ATOM     79  O   UNL A   1      49.015  26.052  37.577  1.00  0.00    -0.237 OA
ATOM     80  O   UNL A   1      49.883  28.354  37.824  1.00  0.00    -0.237 OA
ATOM     81  O   UNL A   1      48.449  27.386  39.576  1.00  0.00    -0.744 OA
ENDBRANCH  77  78
ENDBRANCH  49  72
BRANCH  61  82
ATOM     82  C   UNL A   1      39.930  33.301  37.809  1.00  0.00    -0.014 A 
ATOM     83  C   UNL A   1      38.983  32.763  38.699  1.00  0.00     0.010 A 
ATOM     84  C   UNL A   1      40.609  34.481  38.170  1.00  0.00     0.010 A 
ATOM     85  C   UNL A   1      38.697  33.410  39.905  1.00  0.00     0.020 A 
ATOM     86  C   UNL A   1      40.350  35.112  39.391  1.00  0.00     0.020 A 
ATOM     87  C   UNL A   1      39.384  34.579  40.244  1.00  0.00     0.054 A 
BRANCH  87  88
ATOM     88  S   UNL A   1      39.026  35.373  41.836  1.00  0.00     0.124 S 
ATOM     89  O   UNL A   1      37.979  36.324  41.473  1.00  0.00    -0.237 OA
ATOM     90  O   UNL A   1      38.596  34.250  42.664  1.00  0.00    -0.237 OA
ATOM     91  O   UNL A   1      40.302  35.971  42.222  1.00  0.00    -0.744 OA
ENDBRANCH  87  88
ENDBRANCH  61  82
ENDBRANCH  35  36
ENDBRANCH  28  30
ENDBRANCH  27  28
ENDBRANCH  26  27
ENDBRANCH  25  26
ENDBRANCH  24  25
ENDBRANCH  23  24
ENDBRANCH   1  23
TORSDOF 23
ENDMDL
