MODEL 1
REMARK VINA RESULT:      -8.2      0.000      0.000
REMARK SMILES CC(C)(C)c1ccc(OCC(=O)N/N=C/c2ccc(C(=O)OCCOCCOCCOC(=O)c3ccc(-c4c5nc(c(-c6ccc(S(=O)(=O)[O-])cc6)c6ccc([nH]6)c(-c6ccc(S(=O)(=O)[O-])cc6)c6nc(c(-c7ccc(S(=O)(=O)[O-])cc7)c7ccc4[nH]7)C=C6)C=C5)cc3)cc2)cc1
REMARK SMILES IDX 25 1 24 2 23 3 22 4 20 5 21 6 19 7 16 8 17 9 95 10 18 11
REMARK SMILES IDX 94 12 15 13 14 14 13 15 11 16 12 17 10 19 9 20 8 21 5 22
REMARK SMILES IDX 6 23 97 24 7 25 96 26 2 27 1 28 3 29 4 30 26 31 27 32 28 33
REMARK SMILES IDX 29 34 30 35 31 36 32 37 33 38 34 39 35 40 93 41 36 42 92 43
REMARK SMILES IDX 37 44 38 45 39 46 86 47 40 48 91 49 85 50 87 51 41 52 90 53
REMARK SMILES IDX 84 54 83 55 42 57 72 58 53 59 71 60 54 61 57 62 70 63 88 64
REMARK SMILES IDX 55 65 56 66 69 68 89 69 58 70 43 71 44 72 52 73 45 74 51 75
REMARK SMILES IDX 46 76 47 77 48 78 49 79 50 80 73 81 74 82 82 83 75 84 81 85
REMARK SMILES IDX 76 86 77 87 78 88 79 89 80 90 59 91 60 92 68 93 61 94 67 95
REMARK SMILES IDX 62 96 63 97 64 98 65 99 66 100
REMARK H PARENT 13 18 87 56 57 67
REMARK Flexibility Score: inf
ROOT
ATOM      1  O   UNL A   1      36.624  22.755  26.200  1.00  0.00    -0.376 OA
ENDROOT
BRANCH   1   2
ATOM      2  C   UNL A   1      35.313  22.993  25.715  1.00  0.00     0.202 C 
BRANCH   2   3
ATOM      3  C   UNL A   1      34.872  24.151  24.798  1.00  0.00     0.261 C 
BRANCH   3   4
ATOM      4  O   UNL A   1      33.777  24.962  25.223  1.00  0.00    -0.460 OA
BRANCH   4   5
ATOM      5  C   UNL A   1      33.277  25.797  24.280  1.00  0.00     0.338 C 
ATOM      6  O   UNL A   1      32.913  25.501  23.151  1.00  0.00    -0.246 OA
BRANCH   5   7
ATOM      7  C   UNL A   1      33.041  27.124  24.880  1.00  0.00     0.060 A 
ATOM      8  C   UNL A   1      32.686  29.610  26.063  1.00  0.00    -0.005 A 
ATOM      9  C   UNL A   1      33.510  28.666  26.683  1.00  0.00     0.010 A 
ATOM     10  C   UNL A   1      32.053  29.329  24.848  1.00  0.00     0.010 A 
ATOM     11  C   UNL A   1      33.669  27.412  26.100  1.00  0.00     0.016 A 
ATOM     12  C   UNL A   1      32.248  28.086  24.241  1.00  0.00     0.016 A 
BRANCH   8  13
ATOM     13  C   UNL A   1      32.487  30.900  26.744  1.00  0.00     0.141 C 
ATOM     14  N   UNL A   1      33.431  31.421  27.447  1.00  0.00    -0.181 NA
BRANCH  14  15
ATOM     15  N   UNL A   1      33.353  32.649  28.027  1.00  0.00    -0.244 N 
ATOM     16  C   UNL A   1      34.061  33.336  28.976  1.00  0.00     0.277 C 
ATOM     17  O   UNL A   1      33.679  34.486  29.243  1.00  0.00    -0.269 OA
ATOM     18  H   UNL A   1      32.599  33.175  27.676  1.00  0.00     0.193 HD
BRANCH  16  19
ATOM     19  C   UNL A   1      35.298  32.777  29.674  1.00  0.00     0.331 C 
BRANCH  19  20
ATOM     20  O   UNL A   1      36.561  33.071  29.098  1.00  0.00    -0.484 OA
BRANCH  20  21
ATOM     21  C   UNL A   1      37.633  33.158  29.939  1.00  0.00     0.120 A 
ATOM     22  C   UNL A   1      39.686  33.403  31.882  1.00  0.00    -0.042 A 
ATOM     23  C   UNL A   1      38.339  33.589  32.224  1.00  0.00     0.008 A 
ATOM     24  C   UNL A   1      39.970  33.083  30.541  1.00  0.00     0.008 A 
ATOM     25  C   UNL A   1      37.327  33.462  31.264  1.00  0.00     0.047 A 
ATOM     26  C   UNL A   1      38.961  32.954  29.583  1.00  0.00     0.047 A 
BRANCH  22  27
ATOM     27  C   UNL A   1      40.832  33.517  32.898  1.00  0.00    -0.013 C 
ATOM     28  C   UNL A   1      41.760  34.685  32.496  1.00  0.00     0.016 C 
ATOM     29  C   UNL A   1      41.709  32.251  33.002  1.00  0.00     0.016 C 
ATOM     30  C   UNL A   1      40.249  33.788  34.303  1.00  0.00     0.016 C 
ENDBRANCH  22  27
ENDBRANCH  20  21
ENDBRANCH  19  20
ENDBRANCH  16  19
ENDBRANCH  14  15
ENDBRANCH   8  13
ENDBRANCH   5   7
ENDBRANCH   4   5
ENDBRANCH   3   4
ENDBRANCH   2   3
ENDBRANCH   1   2
BRANCH   1  31
ATOM     31  C   UNL A   1      37.700  22.543  25.318  1.00  0.00     0.188 C 
BRANCH  31  32
ATOM     32  C   UNL A   1      38.531  21.260  25.524  1.00  0.00     0.188 C 
BRANCH  32  33
ATOM     33  O   UNL A   1      39.748  21.302  26.243  1.00  0.00    -0.376 OA
BRANCH  33  34
ATOM     34  C   UNL A   1      40.331  20.100  26.721  1.00  0.00     0.202 C 
BRANCH  34  35
ATOM     35  C   UNL A   1      41.310  19.236  25.905  1.00  0.00     0.261 C 
BRANCH  35  36
ATOM     36  O   UNL A   1      42.703  19.357  26.212  1.00  0.00    -0.460 OA
BRANCH  36  37
ATOM     37  C   UNL A   1      43.448  19.992  25.277  1.00  0.00     0.338 C 
ATOM     38  O   UNL A   1      43.751  19.581  24.164  1.00  0.00    -0.246 OA
BRANCH  37  39
ATOM     39  C   UNL A   1      43.718  21.367  25.728  1.00  0.00     0.060 A 
ATOM     40  C   UNL A   1      44.100  22.326  24.778  1.00  0.00     0.016 A 
ATOM     41  C   UNL A   1      43.641  21.697  27.080  1.00  0.00     0.016 A 
ATOM     42  C   UNL A   1      44.416  23.622  25.182  1.00  0.00     0.010 A 
ATOM     43  C   UNL A   1      43.983  22.990  27.486  1.00  0.00     0.010 A 
ATOM     44  C   UNL A   1      44.394  23.950  26.543  1.00  0.00    -0.014 A 
BRANCH  44  45
ATOM     45  C   UNL A   1      44.955  25.241  27.007  1.00  0.00     0.031 A 
ATOM     46  C   UNL A   1      44.097  26.134  27.859  1.00  0.00     0.074 A 
ATOM     47  C   UNL A   1      46.202  25.619  26.670  1.00  0.00     0.049 A 
ATOM     48  N   UNL A   1      44.338  27.340  28.301  1.00  0.00    -0.248 NA
ATOM     49  C   UNL A   1      42.787  25.593  28.263  1.00  0.00     0.031 C 
ATOM     50  C   UNL A   1      47.148  24.822  25.893  1.00  0.00     0.029 A 
ATOM     51  N   UNL A   1      46.877  26.786  26.931  1.00  0.00    -0.354 N 
ATOM     52  C   UNL A   1      43.207  27.711  29.019  1.00  0.00     0.074 A 
ATOM     53  C   UNL A   1      42.272  26.610  28.936  1.00  0.00     0.031 C 
ATOM     54  C   UNL A   1      48.278  25.531  25.724  1.00  0.00     0.029 A 
ATOM     55  C   UNL A   1      48.118  26.846  26.344  1.00  0.00     0.049 A 
ATOM     56  H   UNL A   1      46.507  27.510  27.485  1.00  0.00     0.167 HD
ATOM     57  C   UNL A   1      42.969  28.865  29.686  1.00  0.00     0.031 A 
ATOM     58  C   UNL A   1      49.008  27.857  26.285  1.00  0.00     0.031 A 
ATOM     59  C   UNL A   1      43.895  29.964  29.748  1.00  0.00     0.049 A 
ATOM     60  C   UNL A   1      48.687  29.165  26.964  1.00  0.00     0.074 A 
ATOM     61  C   UNL A   1      43.753  31.171  30.411  1.00  0.00     0.029 A 
ATOM     62  N   UNL A   1      45.130  29.997  29.117  1.00  0.00    -0.354 N 
ATOM     63  N   UNL A   1      47.624  29.495  27.659  1.00  0.00    -0.248 NA
ATOM     64  C   UNL A   1      49.688  30.237  26.853  1.00  0.00     0.031 C 
ATOM     65  C   UNL A   1      44.872  31.958  30.127  1.00  0.00     0.029 A 
ATOM     66  C   UNL A   1      45.745  31.215  29.348  1.00  0.00     0.049 A 
ATOM     67  H   UNL A   1      45.512  29.264  28.584  1.00  0.00     0.167 HD
ATOM     68  C   UNL A   1      47.844  30.799  28.095  1.00  0.00     0.074 A 
ATOM     69  C   UNL A   1      49.144  31.193  27.594  1.00  0.00     0.031 C 
ATOM     70  C   UNL A   1      47.044  31.595  28.848  1.00  0.00     0.031 A 
BRANCH  57  71
ATOM     71  C   UNL A   1      41.634  29.015  30.364  1.00  0.00    -0.014 A 
ATOM     72  C   UNL A   1      40.498  29.453  29.658  1.00  0.00     0.010 A 
ATOM     73  C   UNL A   1      41.504  28.674  31.724  1.00  0.00     0.010 A 
ATOM     74  C   UNL A   1      39.268  29.584  30.309  1.00  0.00     0.020 A 
ATOM     75  C   UNL A   1      40.270  28.775  32.370  1.00  0.00     0.020 A 
ATOM     76  C   UNL A   1      39.163  29.246  31.661  1.00  0.00     0.054 A 
BRANCH  76  77
ATOM     77  S   UNL A   1      37.549  29.402  32.473  1.00  0.00     0.124 S 
ATOM     78  O   UNL A   1      37.451  28.134  33.195  1.00  0.00    -0.237 OA
ATOM     79  O   UNL A   1      37.725  30.587  33.309  1.00  0.00    -0.237 OA
ATOM     80  O   UNL A   1      36.614  29.559  31.363  1.00  0.00    -0.744 OA
ENDBRANCH  76  77
ENDBRANCH  57  71
BRANCH  58  81
ATOM     81  C   UNL A   1      50.282  27.686  25.531  1.00  0.00    -0.014 A 
ATOM     82  C   UNL A   1      51.433  27.190  26.169  1.00  0.00     0.010 A 
ATOM     83  C   UNL A   1      50.349  28.020  24.166  1.00  0.00     0.010 A 
ATOM     84  C   UNL A   1      52.631  27.049  25.461  1.00  0.00     0.020 A 
ATOM     85  C   UNL A   1      51.536  27.851  23.447  1.00  0.00     0.020 A 
ATOM     86  C   UNL A   1      52.672  27.375  24.102  1.00  0.00     0.054 A 
BRANCH  86  87
ATOM     87  S   UNL A   1      54.223  27.131  23.192  1.00  0.00     0.124 S 
ATOM     88  O   UNL A   1      54.596  28.500  22.854  1.00  0.00    -0.237 OA
ATOM     89  O   UNL A   1      55.067  26.470  24.184  1.00  0.00    -0.237 OA
ATOM     90  O   UNL A   1      53.828  26.292  22.062  1.00  0.00    -0.744 OA
ENDBRANCH  86  87
ENDBRANCH  58  81
BRANCH  70  91
ATOM     91  C   UNL A   1      47.561  32.961  29.221  1.00  0.00    -0.014 A 
ATOM     92  C   UNL A   1      48.481  33.138  30.268  1.00  0.00     0.010 A 
ATOM     93  C   UNL A   1      47.176  34.076  28.453  1.00  0.00     0.010 A 
ATOM     94  C   UNL A   1      48.989  34.408  30.556  1.00  0.00     0.020 A 
ATOM     95  C   UNL A   1      47.704  35.343  28.718  1.00  0.00     0.020 A 
ATOM     96  C   UNL A   1      48.600  35.503  29.775  1.00  0.00     0.054 A 
BRANCH  96  97
ATOM     97  S   UNL A   1      49.319  37.130  30.132  1.00  0.00     0.124 S 
ATOM     98  O   UNL A   1      48.611  37.990  29.188  1.00  0.00    -0.237 OA
ATOM     99  O   UNL A   1      48.980  37.327  31.539  1.00  0.00    -0.237 OA
ATOM    100  O   UNL A   1      50.743  36.947  29.860  1.00  0.00    -0.744 OA
ENDBRANCH  96  97
ENDBRANCH  70  91
ENDBRANCH  44  45
ENDBRANCH  37  39
ENDBRANCH  36  37
ENDBRANCH  35  36
ENDBRANCH  34  35
ENDBRANCH  33  34
ENDBRANCH  32  33
ENDBRANCH  31  32
ENDBRANCH   1  31
TORSDOF 26
ENDMDL
MODEL 2
REMARK VINA RESULT:      -8.2      5.230      7.449
REMARK SMILES CC(C)(C)c1ccc(OCC(=O)N/N=C/c2ccc(C(=O)OCCOCCOCCOC(=O)c3ccc(-c4c5nc(c(-c6ccc(S(=O)(=O)[O-])cc6)c6ccc([nH]6)c(-c6ccc(S(=O)(=O)[O-])cc6)c6nc(c(-c7ccc(S(=O)(=O)[O-])cc7)c7ccc4[nH]7)C=C6)C=C5)cc3)cc2)cc1
REMARK SMILES IDX 25 1 24 2 23 3 22 4 20 5 21 6 19 7 16 8 17 9 95 10 18 11
REMARK SMILES IDX 94 12 15 13 14 14 13 15 11 16 12 17 10 19 9 20 8 21 5 22
REMARK SMILES IDX 6 23 97 24 7 25 96 26 2 27 1 28 3 29 4 30 26 31 27 32 28 33
REMARK SMILES IDX 29 34 30 35 31 36 32 37 33 38 34 39 35 40 93 41 36 42 92 43
REMARK SMILES IDX 37 44 38 45 39 46 86 47 40 48 91 49 85 50 87 51 41 52 90 53
REMARK SMILES IDX 84 54 83 55 42 57 72 58 53 59 71 60 54 61 57 62 70 63 88 64
REMARK SMILES IDX 55 65 56 66 69 68 89 69 58 70 43 71 44 72 52 73 45 74 51 75
REMARK SMILES IDX 46 76 47 77 48 78 49 79 50 80 73 81 74 82 82 83 75 84 81 85
REMARK SMILES IDX 76 86 77 87 78 88 79 89 80 90 59 91 60 92 68 93 61 94 67 95
REMARK SMILES IDX 62 96 63 97 64 98 65 99 66 100
REMARK H PARENT 13 18 87 56 57 67
REMARK Flexibility Score: inf
ROOT
ATOM      1  O   UNL A   1      34.441  22.416  24.470  1.00  0.00    -0.376 OA
ENDROOT
BRANCH   1   2
ATOM      2  C   UNL A   1      34.485  23.831  24.404  1.00  0.00     0.202 C 
BRANCH   2   3
ATOM      3  C   UNL A   1      34.121  24.704  23.186  1.00  0.00     0.261 C 
BRANCH   3   4
ATOM      4  O   UNL A   1      32.942  24.372  22.453  1.00  0.00    -0.460 OA
BRANCH   4   5
ATOM      5  C   UNL A   1      31.783  24.476  23.147  1.00  0.00     0.338 C 
ATOM      6  O   UNL A   1      31.056  23.562  23.511  1.00  0.00    -0.246 OA
BRANCH   5   7
ATOM      7  C   UNL A   1      31.603  25.872  23.590  1.00  0.00     0.060 A 
ATOM      8  C   UNL A   1      31.305  28.472  24.515  1.00  0.00    -0.005 A 
ATOM      9  C   UNL A   1      31.404  27.424  25.434  1.00  0.00     0.010 A 
ATOM     10  C   UNL A   1      31.372  28.235  23.138  1.00  0.00     0.010 A 
ATOM     11  C   UNL A   1      31.531  26.118  24.968  1.00  0.00     0.016 A 
ATOM     12  C   UNL A   1      31.544  26.929  22.673  1.00  0.00     0.016 A 
BRANCH   8  13
ATOM     13  C   UNL A   1      31.103  29.831  25.044  1.00  0.00     0.141 C 
ATOM     14  N   UNL A   1      31.914  30.322  25.914  1.00  0.00    -0.181 NA
BRANCH  14  15
ATOM     15  N   UNL A   1      31.845  31.599  26.378  1.00  0.00    -0.244 N 
ATOM     16  C   UNL A   1      32.559  32.367  27.257  1.00  0.00     0.277 C 
ATOM     17  O   UNL A   1      32.185  33.539  27.416  1.00  0.00    -0.269 OA
ATOM     18  H   UNL A   1      31.093  32.095  25.981  1.00  0.00     0.193 HD
BRANCH  16  19
ATOM     19  C   UNL A   1      33.796  31.869  28.000  1.00  0.00     0.331 C 
BRANCH  19  20
ATOM     20  O   UNL A   1      34.675  31.004  27.299  1.00  0.00    -0.484 OA
BRANCH  20  21
ATOM     21  C   UNL A   1      35.683  30.417  28.009  1.00  0.00     0.120 A 
ATOM     22  C   UNL A   1      37.679  29.324  29.703  1.00  0.00    -0.042 A 
ATOM     23  C   UNL A   1      36.679  30.165  30.211  1.00  0.00     0.008 A 
ATOM     24  C   UNL A   1      37.643  29.042  28.324  1.00  0.00     0.008 A 
ATOM     25  C   UNL A   1      35.691  30.699  29.374  1.00  0.00     0.047 A 
ATOM     26  C   UNL A   1      36.656  29.573  27.489  1.00  0.00     0.047 A 
BRANCH  22  27
ATOM     27  C   UNL A   1      38.777  28.702  30.580  1.00  0.00    -0.013 C 
ATOM     28  C   UNL A   1      39.476  27.568  29.798  1.00  0.00     0.016 C 
ATOM     29  C   UNL A   1      38.257  28.094  31.900  1.00  0.00     0.016 C 
ATOM     30  C   UNL A   1      39.815  29.784  30.949  1.00  0.00     0.016 C 
ENDBRANCH  22  27
ENDBRANCH  20  21
ENDBRANCH  19  20
ENDBRANCH  16  19
ENDBRANCH  14  15
ENDBRANCH   8  13
ENDBRANCH   5   7
ENDBRANCH   4   5
ENDBRANCH   3   4
ENDBRANCH   2   3
ENDBRANCH   1   2
BRANCH   1  31
ATOM     31  C   UNL A   1      34.987  21.720  25.564  1.00  0.00     0.188 C 
BRANCH  31  32
ATOM     32  C   UNL A   1      35.940  20.550  25.245  1.00  0.00     0.188 C 
BRANCH  32  33
ATOM     33  O   UNL A   1      37.197  20.794  24.644  1.00  0.00    -0.376 OA
BRANCH  33  34
ATOM     34  C   UNL A   1      38.023  21.843  25.126  1.00  0.00     0.202 C 
BRANCH  34  35
ATOM     35  C   UNL A   1      39.252  21.623  26.027  1.00  0.00     0.261 C 
BRANCH  35  36
ATOM     36  O   UNL A   1      40.248  22.650  26.037  1.00  0.00    -0.460 OA
BRANCH  36  37
ATOM     37  C   UNL A   1      41.528  22.214  26.115  1.00  0.00     0.338 C 
ATOM     38  O   UNL A   1      42.118  21.499  25.317  1.00  0.00    -0.246 OA
BRANCH  37  39
ATOM     39  C   UNL A   1      42.195  22.879  27.247  1.00  0.00     0.060 A 
ATOM     40  C   UNL A   1      41.439  23.714  28.081  1.00  0.00     0.016 A 
ATOM     41  C   UNL A   1      43.564  22.717  27.456  1.00  0.00     0.016 A 
ATOM     42  C   UNL A   1      42.054  24.400  29.127  1.00  0.00     0.010 A 
ATOM     43  C   UNL A   1      44.184  23.425  28.489  1.00  0.00     0.010 A 
ATOM     44  C   UNL A   1      43.437  24.287  29.312  1.00  0.00    -0.014 A 
BRANCH  44  45
ATOM     45  C   UNL A   1      44.138  25.189  30.258  1.00  0.00     0.031 A 
ATOM     46  C   UNL A   1      44.412  26.605  29.831  1.00  0.00     0.074 A 
ATOM     47  C   UNL A   1      44.531  24.758  31.470  1.00  0.00     0.049 A 
ATOM     48  N   UNL A   1      45.086  27.540  30.447  1.00  0.00    -0.248 NA
ATOM     49  C   UNL A   1      43.855  27.018  28.532  1.00  0.00     0.031 C 
ATOM     50  C   UNL A   1      44.279  23.426  32.017  1.00  0.00     0.029 A 
ATOM     51  N   UNL A   1      45.244  25.399  32.453  1.00  0.00    -0.354 N 
ATOM     52  C   UNL A   1      45.050  28.647  29.606  1.00  0.00     0.074 A 
ATOM     53  C   UNL A   1      44.305  28.259  28.427  1.00  0.00     0.031 C 
ATOM     54  C   UNL A   1      44.846  23.344  33.235  1.00  0.00     0.029 A 
ATOM     55  C   UNL A   1      45.535  24.599  33.532  1.00  0.00     0.049 A 
ATOM     56  H   UNL A   1      45.520  26.342  32.390  1.00  0.00     0.167 HD
ATOM     57  C   UNL A   1      45.589  29.873  29.798  1.00  0.00     0.031 A 
ATOM     58  C   UNL A   1      46.296  24.841  34.618  1.00  0.00     0.031 A 
ATOM     59  C   UNL A   1      46.345  30.246  30.963  1.00  0.00     0.049 A 
ATOM     60  C   UNL A   1      46.958  26.188  34.771  1.00  0.00     0.074 A 
ATOM     61  C   UNL A   1      46.920  31.471  31.258  1.00  0.00     0.029 A 
ATOM     62  N   UNL A   1      46.641  29.400  32.021  1.00  0.00    -0.354 N 
ATOM     63  N   UNL A   1      46.897  27.233  33.980  1.00  0.00    -0.248 NA
ATOM     64  C   UNL A   1      47.789  26.389  35.967  1.00  0.00     0.031 C 
ATOM     65  C   UNL A   1      47.619  31.344  32.462  1.00  0.00     0.029 A 
ATOM     66  C   UNL A   1      47.418  30.064  32.954  1.00  0.00     0.049 A 
ATOM     67  H   UNL A   1      46.344  28.465  32.097  1.00  0.00     0.167 HD
ATOM     68  C   UNL A   1      47.654  28.224  34.599  1.00  0.00     0.074 A 
ATOM     69  C   UNL A   1      48.154  27.657  35.835  1.00  0.00     0.031 C 
ATOM     70  C   UNL A   1      47.906  29.491  34.184  1.00  0.00     0.031 A 
BRANCH  57  71
ATOM     71  C   UNL A   1      45.419  30.888  28.699  1.00  0.00    -0.014 A 
ATOM     72  C   UNL A   1      46.341  30.984  27.641  1.00  0.00     0.010 A 
ATOM     73  C   UNL A   1      44.294  31.735  28.706  1.00  0.00     0.010 A 
ATOM     74  C   UNL A   1      46.162  31.935  26.632  1.00  0.00     0.020 A 
ATOM     75  C   UNL A   1      44.096  32.665  27.683  1.00  0.00     0.020 A 
ATOM     76  C   UNL A   1      45.041  32.770  26.661  1.00  0.00     0.054 A 
BRANCH  76  77
ATOM     77  S   UNL A   1      44.822  33.977  25.325  1.00  0.00     0.124 S 
ATOM     78  O   UNL A   1      46.191  34.446  25.116  1.00  0.00    -0.237 OA
ATOM     79  O   UNL A   1      44.267  33.163  24.246  1.00  0.00    -0.237 OA
ATOM     80  O   UNL A   1      43.908  34.963  25.892  1.00  0.00    -0.744 OA
ENDBRANCH  76  77
ENDBRANCH  57  71
BRANCH  58  81
ATOM     81  C   UNL A   1      46.500  23.774  35.638  1.00  0.00    -0.014 A 
ATOM     82  C   UNL A   1      45.627  23.652  36.733  1.00  0.00     0.010 A 
ATOM     83  C   UNL A   1      47.573  22.873  35.517  1.00  0.00     0.010 A 
ATOM     84  C   UNL A   1      45.834  22.660  37.697  1.00  0.00     0.020 A 
ATOM     85  C   UNL A   1      47.766  21.861  36.461  1.00  0.00     0.020 A 
ATOM     86  C   UNL A   1      46.900  21.767  37.552  1.00  0.00     0.054 A 
BRANCH  86  87
ATOM     87  S   UNL A   1      47.115  20.454  38.786  1.00  0.00     0.124 S 
ATOM     88  O   UNL A   1      47.433  21.217  39.988  1.00  0.00    -0.237 OA
ATOM     89  O   UNL A   1      45.809  19.800  38.777  1.00  0.00    -0.237 OA
ATOM     90  O   UNL A   1      48.210  19.652  38.245  1.00  0.00    -0.744 OA
ENDBRANCH  86  87
ENDBRANCH  58  81
BRANCH  70  91
ATOM     91  C   UNL A   1      48.723  30.377  35.089  1.00  0.00    -0.014 A 
ATOM     92  C   UNL A   1      50.105  30.548  34.898  1.00  0.00     0.010 A 
ATOM     93  C   UNL A   1      48.077  31.115  36.098  1.00  0.00     0.010 A 
ATOM     94  C   UNL A   1      50.829  31.421  35.715  1.00  0.00     0.020 A 
ATOM     95  C   UNL A   1      48.791  32.012  36.898  1.00  0.00     0.020 A 
ATOM     96  C   UNL A   1      50.166  32.152  36.708  1.00  0.00     0.054 A 
BRANCH  96  97
ATOM     97  S   UNL A   1      51.118  33.322  37.715  1.00  0.00     0.124 S 
ATOM     98  O   UNL A   1      51.705  32.448  38.726  1.00  0.00    -0.237 OA
ATOM     99  O   UNL A   1      52.058  33.884  36.748  1.00  0.00    -0.237 OA
ATOM    100  O   UNL A   1      50.109  34.256  38.209  1.00  0.00    -0.744 OA
ENDBRANCH  96  97
ENDBRANCH  70  91
ENDBRANCH  44  45
ENDBRANCH  37  39
ENDBRANCH  36  37
ENDBRANCH  35  36
ENDBRANCH  34  35
ENDBRANCH  33  34
ENDBRANCH  32  33
ENDBRANCH  31  32
ENDBRANCH   1  31
TORSDOF 26
ENDMDL
MODEL 3
REMARK VINA RESULT:      -8.1      2.579      4.327
REMARK SMILES CC(C)(C)c1ccc(OCC(=O)N/N=C/c2ccc(C(=O)OCCOCCOCCOC(=O)c3ccc(-c4c5nc(c(-c6ccc(S(=O)(=O)[O-])cc6)c6ccc([nH]6)c(-c6ccc(S(=O)(=O)[O-])cc6)c6nc(c(-c7ccc(S(=O)(=O)[O-])cc7)c7ccc4[nH]7)C=C6)C=C5)cc3)cc2)cc1
REMARK SMILES IDX 25 1 24 2 23 3 22 4 20 5 21 6 19 7 16 8 17 9 95 10 18 11
REMARK SMILES IDX 94 12 15 13 14 14 13 15 11 16 12 17 10 19 9 20 8 21 5 22
REMARK SMILES IDX 6 23 97 24 7 25 96 26 2 27 1 28 3 29 4 30 26 31 27 32 28 33
REMARK SMILES IDX 29 34 30 35 31 36 32 37 33 38 34 39 35 40 93 41 36 42 92 43
REMARK SMILES IDX 37 44 38 45 39 46 86 47 40 48 91 49 85 50 87 51 41 52 90 53
REMARK SMILES IDX 84 54 83 55 42 57 72 58 53 59 71 60 54 61 57 62 70 63 88 64
REMARK SMILES IDX 55 65 56 66 69 68 89 69 58 70 43 71 44 72 52 73 45 74 51 75
REMARK SMILES IDX 46 76 47 77 48 78 49 79 50 80 73 81 74 82 82 83 75 84 81 85
REMARK SMILES IDX 76 86 77 87 78 88 79 89 80 90 59 91 60 92 68 93 61 94 67 95
REMARK SMILES IDX 62 96 63 97 64 98 65 99 66 100
REMARK H PARENT 13 18 87 56 57 67
REMARK Flexibility Score: inf
ROOT
ATOM      1  O   UNL A   1      35.817  21.531  26.071  1.00  0.00    -0.376 OA
ENDROOT
BRANCH   1   2
ATOM      2  C   UNL A   1      34.521  21.983  25.718  1.00  0.00     0.202 C 
BRANCH   2   3
ATOM      3  C   UNL A   1      34.180  23.078  24.688  1.00  0.00     0.261 C 
BRANCH   3   4
ATOM      4  O   UNL A   1      32.879  23.662  24.738  1.00  0.00    -0.460 OA
BRANCH   4   5
ATOM      5  C   UNL A   1      32.667  24.675  23.863  1.00  0.00     0.338 C 
ATOM      6  O   UNL A   1      32.202  24.589  22.735  1.00  0.00    -0.246 OA
BRANCH   5   7
ATOM      7  C   UNL A   1      32.899  25.963  24.542  1.00  0.00     0.060 A 
ATOM      8  C   UNL A   1      33.318  28.341  25.913  1.00  0.00    -0.005 A 
ATOM      9  C   UNL A   1      32.583  27.319  26.521  1.00  0.00     0.010 A 
ATOM     10  C   UNL A   1      33.860  28.179  24.634  1.00  0.00     0.010 A 
ATOM     11  C   UNL A   1      32.355  26.135  25.823  1.00  0.00     0.016 A 
ATOM     12  C   UNL A   1      33.668  26.974  23.953  1.00  0.00     0.016 A 
BRANCH   8  13
ATOM     13  C   UNL A   1      33.480  29.603  26.654  1.00  0.00     0.141 C 
ATOM     14  N   UNL A   1      34.193  29.645  27.724  1.00  0.00    -0.181 NA
BRANCH  14  15
ATOM     15  N   UNL A   1      34.463  30.790  28.408  1.00  0.00    -0.244 N 
ATOM     16  C   UNL A   1      35.590  31.472  28.780  1.00  0.00     0.277 C 
ATOM     17  O   UNL A   1      35.429  32.529  29.410  1.00  0.00    -0.269 OA
ATOM     18  H   UNL A   1      33.643  31.241  28.712  1.00  0.00     0.193 HD
BRANCH  16  19
ATOM     19  C   UNL A   1      37.005  31.022  28.422  1.00  0.00     0.331 C 
BRANCH  19  20
ATOM     20  O   UNL A   1      37.690  30.213  29.365  1.00  0.00    -0.484 OA
BRANCH  20  21
ATOM     21  C   UNL A   1      38.488  29.217  28.880  1.00  0.00     0.120 A 
ATOM     22  C   UNL A   1      40.201  27.311  27.662  1.00  0.00    -0.042 A 
ATOM     23  C   UNL A   1      39.986  28.568  27.079  1.00  0.00     0.008 A 
ATOM     24  C   UNL A   1      39.539  27.043  28.875  1.00  0.00     0.008 A 
ATOM     25  C   UNL A   1      39.144  29.510  27.685  1.00  0.00     0.047 A 
ATOM     26  C   UNL A   1      38.701  27.983  29.482  1.00  0.00     0.047 A 
BRANCH  22  27
ATOM     27  C   UNL A   1      41.124  26.249  27.046  1.00  0.00    -0.013 C 
ATOM     28  C   UNL A   1      41.954  25.580  28.164  1.00  0.00     0.016 C 
ATOM     29  C   UNL A   1      42.122  26.808  26.008  1.00  0.00     0.016 C 
ATOM     30  C   UNL A   1      40.271  25.177  26.332  1.00  0.00     0.016 C 
ENDBRANCH  22  27
ENDBRANCH  20  21
ENDBRANCH  19  20
ENDBRANCH  16  19
ENDBRANCH  14  15
ENDBRANCH   8  13
ENDBRANCH   5   7
ENDBRANCH   4   5
ENDBRANCH   3   4
ENDBRANCH   2   3
ENDBRANCH   1   2
BRANCH   1  31
ATOM     31  C   UNL A   1      36.961  22.297  25.777  1.00  0.00     0.188 C 
BRANCH  31  32
ATOM     32  C   UNL A   1      38.166  21.550  25.170  1.00  0.00     0.188 C 
BRANCH  32  33
ATOM     33  O   UNL A   1      39.107  20.908  26.007  1.00  0.00    -0.376 OA
BRANCH  33  34
ATOM     34  C   UNL A   1      40.217  21.633  26.514  1.00  0.00     0.202 C 
BRANCH  34  35
ATOM     35  C   UNL A   1      41.684  21.304  26.181  1.00  0.00     0.261 C 
BRANCH  35  36
ATOM     36  O   UNL A   1      42.665  22.297  26.494  1.00  0.00    -0.460 OA
BRANCH  36  37
ATOM     37  C   UNL A   1      43.341  22.798  25.434  1.00  0.00     0.338 C 
ATOM     38  O   UNL A   1      43.056  22.681  24.249  1.00  0.00    -0.246 OA
BRANCH  37  39
ATOM     39  C   UNL A   1      44.413  23.682  25.919  1.00  0.00     0.060 A 
ATOM     40  C   UNL A   1      44.898  23.503  27.223  1.00  0.00     0.016 A 
ATOM     41  C   UNL A   1      44.904  24.708  25.113  1.00  0.00     0.016 A 
ATOM     42  C   UNL A   1      45.874  24.359  27.730  1.00  0.00     0.010 A 
ATOM     43  C   UNL A   1      45.864  25.582  25.632  1.00  0.00     0.010 A 
ATOM     44  C   UNL A   1      46.335  25.426  26.949  1.00  0.00    -0.014 A 
BRANCH  44  45
ATOM     45  C   UNL A   1      47.185  26.479  27.554  1.00  0.00     0.031 A 
ATOM     46  C   UNL A   1      46.517  27.670  28.183  1.00  0.00     0.074 A 
ATOM     47  C   UNL A   1      48.527  26.384  27.538  1.00  0.00     0.049 A 
ATOM     48  N   UNL A   1      47.052  28.750  28.688  1.00  0.00    -0.248 NA
ATOM     49  C   UNL A   1      45.046  27.638  28.246  1.00  0.00     0.031 C 
ATOM     50  C   UNL A   1      49.291  25.258  27.005  1.00  0.00     0.029 A 
ATOM     51  N   UNL A   1      49.485  27.266  27.973  1.00  0.00    -0.354 N 
ATOM     52  C   UNL A   1      45.987  29.535  29.113  1.00  0.00     0.074 A 
ATOM     53  C   UNL A   1      44.774  28.816  28.787  1.00  0.00     0.031 C 
ATOM     54  C   UNL A   1      50.603  25.525  27.129  1.00  0.00     0.029 A 
ATOM     55  C   UNL A   1      50.770  26.857  27.709  1.00  0.00     0.049 A 
ATOM     56  H   UNL A   1      49.272  28.111  28.430  1.00  0.00     0.167 HD
ATOM     57  C   UNL A   1      46.016  30.746  29.717  1.00  0.00     0.031 A 
ATOM     58  C   UNL A   1      51.944  27.497  27.884  1.00  0.00     0.031 A 
ATOM     59  C   UNL A   1      47.224  31.465  30.019  1.00  0.00     0.049 A 
ATOM     60  C   UNL A   1      51.948  28.882  28.482  1.00  0.00     0.074 A 
ATOM     61  C   UNL A   1      47.360  32.693  30.645  1.00  0.00     0.029 A 
ATOM     62  N   UNL A   1      48.504  31.029  29.711  1.00  0.00    -0.354 N 
ATOM     63  N   UNL A   1      50.935  29.604  28.901  1.00  0.00    -0.248 NA
ATOM     64  C   UNL A   1      53.256  29.537  28.635  1.00  0.00     0.031 C 
ATOM     65  C   UNL A   1      48.717  33.029  30.655  1.00  0.00     0.029 A 
ATOM     66  C   UNL A   1      49.433  31.978  30.103  1.00  0.00     0.049 A 
ATOM     67  H   UNL A   1      48.721  30.173  29.277  1.00  0.00     0.167 HD
ATOM     68  C   UNL A   1      51.487  30.782  29.396  1.00  0.00     0.074 A 
ATOM     69  C   UNL A   1      52.922  30.672  29.234  1.00  0.00     0.031 C 
ATOM     70  C   UNL A   1      50.861  31.855  29.941  1.00  0.00     0.031 A 
BRANCH  57  71
ATOM     71  C   UNL A   1      44.697  31.390  30.049  1.00  0.00    -0.014 A 
ATOM     72  C   UNL A   1      44.033  31.118  31.259  1.00  0.00     0.010 A 
ATOM     73  C   UNL A   1      44.131  32.315  29.151  1.00  0.00     0.010 A 
ATOM     74  C   UNL A   1      42.808  31.729  31.546  1.00  0.00     0.020 A 
ATOM     75  C   UNL A   1      42.923  32.950  29.448  1.00  0.00     0.020 A 
ATOM     76  C   UNL A   1      42.261  32.640  30.638  1.00  0.00     0.054 A 
BRANCH  76  77
ATOM     77  S   UNL A   1      40.684  33.435  31.048  1.00  0.00     0.124 S 
ATOM     78  O   UNL A   1      39.879  32.297  31.489  1.00  0.00    -0.237 OA
ATOM     79  O   UNL A   1      41.065  34.377  32.098  1.00  0.00    -0.237 OA
ATOM     80  O   UNL A   1      40.262  34.044  29.790  1.00  0.00    -0.744 OA
ENDBRANCH  76  77
ENDBRANCH  57  71
BRANCH  58  81
ATOM     81  C   UNL A   1      53.217  26.848  27.463  1.00  0.00    -0.014 A 
ATOM     82  C   UNL A   1      53.638  26.897  26.123  1.00  0.00     0.010 A 
ATOM     83  C   UNL A   1      54.016  26.175  28.405  1.00  0.00     0.010 A 
ATOM     84  C   UNL A   1      54.826  26.270  25.730  1.00  0.00     0.020 A 
ATOM     85  C   UNL A   1      55.219  25.574  28.023  1.00  0.00     0.020 A 
ATOM     86  C   UNL A   1      55.611  25.617  26.684  1.00  0.00     0.054 A 
BRANCH  86  87
ATOM     87  S   UNL A   1      57.174  24.860  26.159  1.00  0.00     0.124 S 
ATOM     88  O   UNL A   1      57.353  23.810  27.156  1.00  0.00    -0.237 OA
ATOM     89  O   UNL A   1      56.863  24.405  24.807  1.00  0.00    -0.237 OA
ATOM     90  O   UNL A   1      58.130  25.963  26.233  1.00  0.00    -0.744 OA
ENDBRANCH  86  87
ENDBRANCH  58  81
BRANCH  70  91
ATOM     91  C   UNL A   1      51.718  32.987  30.449  1.00  0.00    -0.014 A 
ATOM     92  C   UNL A   1      52.002  34.109  29.653  1.00  0.00     0.010 A 
ATOM     93  C   UNL A   1      52.180  32.958  31.779  1.00  0.00     0.010 A 
ATOM     94  C   UNL A   1      52.751  35.171  30.169  1.00  0.00     0.020 A 
ATOM     95  C   UNL A   1      52.903  34.030  32.308  1.00  0.00     0.020 A 
ATOM     96  C   UNL A   1      53.194  35.126  31.496  1.00  0.00     0.054 A 
BRANCH  96  97
ATOM     97  S   UNL A   1      54.113  36.543  32.159  1.00  0.00     0.124 S 
ATOM     98  O   UNL A   1      53.907  37.551  31.124  1.00  0.00    -0.237 OA
ATOM     99  O   UNL A   1      53.436  36.797  33.428  1.00  0.00    -0.237 OA
ATOM    100  O   UNL A   1      55.481  36.044  32.278  1.00  0.00    -0.744 OA
ENDBRANCH  96  97
ENDBRANCH  70  91
ENDBRANCH  44  45
ENDBRANCH  37  39
ENDBRANCH  36  37
ENDBRANCH  35  36
ENDBRANCH  34  35
ENDBRANCH  33  34
ENDBRANCH  32  33
ENDBRANCH  31  32
ENDBRANCH   1  31
TORSDOF 26
ENDMDL
