MODEL 1
REMARK VINA RESULT:      -8.5      0.000      0.000
REMARK SMILES COc1ccc(C(=O)/C=C(\Nc2cccc(C(F)(F)F)c2)C(=O)OCCOCCOCCOC(=O)c2ccc(-c3c4nc(c(-c5ccc(S(=O)(=O)[O-])cc5)c5ccc([nH]5)c(-c5ccc(S(=O)(=O)[O-])cc5)c5nc(c(-c6ccc(S(=O)(=O)[O-])cc6)c6ccc3[nH]6)C=C5)C=C4)cc2)cc1
REMARK SMILES IDX 28 1 27 2 26 3 25 4 24 5 22 6 23 7 10 8 9 9 7 10 8 11 6 12
REMARK SMILES IDX 3 13 4 14 97 15 5 16 96 17 2 18 1 19 11 20 12 22 13 23 21 24
REMARK SMILES IDX 14 25 16 26 15 27 17 28 18 29 19 30 20 31 29 32 30 33 31 34
REMARK SMILES IDX 32 35 33 36 34 37 35 38 36 39 37 40 95 41 38 42 94 43 39 44
REMARK SMILES IDX 40 45 41 46 88 47 42 48 93 49 87 50 89 51 43 52 92 53 86 54
REMARK SMILES IDX 85 55 44 57 74 58 55 59 73 60 56 61 59 62 72 63 90 64 57 65
REMARK SMILES IDX 58 66 71 68 91 69 60 70 45 71 46 72 54 73 47 74 53 75 48 76
REMARK SMILES IDX 49 77 50 78 51 79 52 80 75 81 76 82 84 83 77 84 83 85 78 86
REMARK SMILES IDX 79 87 80 88 81 89 82 90 61 91 62 92 70 93 63 94 69 95 64 96
REMARK SMILES IDX 65 97 66 98 67 99 68 100
REMARK H PARENT 11 21 89 56 59 67
REMARK Flexibility Score: inf
ROOT
ATOM      1  C   UNL A   1      37.681  29.720  29.553  1.00  0.00     0.188 C 
ENDROOT
BRANCH   1   2
ATOM      2  O   UNL A   1      37.196  29.096  28.376  1.00  0.00    -0.376 OA
BRANCH   2   3
ATOM      3  C   UNL A   1      36.393  29.863  27.485  1.00  0.00     0.202 C 
BRANCH   3   4
ATOM      4  C   UNL A   1      34.882  29.843  27.699  1.00  0.00     0.261 C 
BRANCH   4   5
ATOM      5  O   UNL A   1      34.342  28.579  27.278  1.00  0.00    -0.459 OA
BRANCH   5   6
ATOM      6  C   UNL A   1      33.844  28.532  26.020  1.00  0.00     0.354 C 
ATOM      7  O   UNL A   1      33.957  29.403  25.169  1.00  0.00    -0.244 OA
BRANCH   6   8
ATOM      8  C   UNL A   1      33.200  27.194  25.759  1.00  0.00     0.129 C 
ATOM      9  C   UNL A   1      34.125  26.297  25.352  1.00  0.00     0.086 C 
BRANCH   9  10
ATOM     10  C   UNL A   1      34.052  24.844  25.011  1.00  0.00     0.188 C 
ATOM     11  O   UNL A   1      32.965  24.321  24.799  1.00  0.00    -0.289 OA
BRANCH  10  12
ATOM     12  C   UNL A   1      35.257  24.004  24.967  1.00  0.00     0.022 A 
ATOM     13  C   UNL A   1      37.350  22.190  25.055  1.00  0.00     0.118 A 
ATOM     14  C   UNL A   1      36.377  22.065  24.066  1.00  0.00     0.047 A 
ATOM     15  C   UNL A   1      37.357  23.292  25.911  1.00  0.00     0.047 A 
ATOM     16  C   UNL A   1      35.319  22.972  24.024  1.00  0.00     0.016 A 
ATOM     17  C   UNL A   1      36.317  24.220  25.851  1.00  0.00     0.016 A 
BRANCH  13  18
ATOM     18  O   UNL A   1      38.320  21.228  25.139  1.00  0.00    -0.497 OA
ATOM     19  C   UNL A   1      37.775  19.942  24.833  1.00  0.00     0.278 C 
ENDBRANCH  13  18
ENDBRANCH  10  12
ENDBRANCH   9  10
BRANCH   8  20
ATOM     20  N   UNL A   1      31.838  27.011  25.949  1.00  0.00    -0.349 N 
ATOM     21  H   UNL A   1      31.565  26.733  26.853  1.00  0.00     0.167 HD
BRANCH  20  22
ATOM     22  C   UNL A   1      30.797  27.172  25.017  1.00  0.00     0.039 A 
ATOM     23  C   UNL A   1      29.789  26.198  24.953  1.00  0.00     0.026 A 
ATOM     24  C   UNL A   1      30.688  28.291  24.189  1.00  0.00     0.039 A 
ATOM     25  C   UNL A   1      28.706  26.326  24.085  1.00  0.00     0.003 A 
ATOM     26  C   UNL A   1      29.591  28.447  23.323  1.00  0.00     0.058 A 
ATOM     27  C   UNL A   1      28.609  27.447  23.269  1.00  0.00     0.013 A 
BRANCH  26  28
ATOM     28  C   UNL A   1      29.469  29.666  22.449  1.00  0.00     0.416 C 
ATOM     29  F   UNL A   1      28.323  29.662  21.712  1.00  0.00    -0.166 F 
ATOM     30  F   UNL A   1      29.444  30.827  23.164  1.00  0.00    -0.166 F 
ATOM     31  F   UNL A   1      30.490  29.806  21.558  1.00  0.00    -0.166 F 
ENDBRANCH  26  28
ENDBRANCH  20  22
ENDBRANCH   8  20
ENDBRANCH   6   8
ENDBRANCH   5   6
ENDBRANCH   4   5
ENDBRANCH   3   4
ENDBRANCH   2   3
ENDBRANCH   1   2
BRANCH   1  32
ATOM     32  C   UNL A   1      37.262  29.163  30.931  1.00  0.00     0.188 C 
BRANCH  32  33
ATOM     33  O   UNL A   1      36.992  30.011  32.029  1.00  0.00    -0.376 OA
BRANCH  33  34
ATOM     34  C   UNL A   1      36.378  31.275  31.852  1.00  0.00     0.202 C 
BRANCH  34  35
ATOM     35  C   UNL A   1      36.385  32.373  32.924  1.00  0.00     0.261 C 
BRANCH  35  36
ATOM     36  O   UNL A   1      37.023  33.599  32.570  1.00  0.00    -0.460 OA
BRANCH  36  37
ATOM     37  C   UNL A   1      37.019  33.882  31.244  1.00  0.00     0.338 C 
ATOM     38  O   UNL A   1      36.046  34.051  30.529  1.00  0.00    -0.246 OA
BRANCH  37  39
ATOM     39  C   UNL A   1      38.401  34.145  30.808  1.00  0.00     0.060 A 
ATOM     40  C   UNL A   1      38.624  34.432  29.456  1.00  0.00     0.016 A 
ATOM     41  C   UNL A   1      39.464  34.096  31.712  1.00  0.00     0.016 A 
ATOM     42  C   UNL A   1      39.921  34.650  28.996  1.00  0.00     0.010 A 
ATOM     43  C   UNL A   1      40.766  34.292  31.246  1.00  0.00     0.010 A 
ATOM     44  C   UNL A   1      41.000  34.542  29.883  1.00  0.00    -0.014 A 
BRANCH  44  45
ATOM     45  C   UNL A   1      42.382  34.535  29.351  1.00  0.00     0.031 A 
ATOM     46  C   UNL A   1      43.116  33.227  29.261  1.00  0.00     0.074 A 
ATOM     47  C   UNL A   1      42.973  35.672  28.946  1.00  0.00     0.049 A 
ATOM     48  N   UNL A   1      44.324  32.982  28.824  1.00  0.00    -0.248 NA
ATOM     49  C   UNL A   1      42.389  32.036  29.731  1.00  0.00     0.031 C 
ATOM     50  C   UNL A   1      42.361  36.997  28.966  1.00  0.00     0.029 A 
ATOM     51  N   UNL A   1      44.233  35.885  28.445  1.00  0.00    -0.354 N 
ATOM     52  C   UNL A   1      44.502  31.611  28.961  1.00  0.00     0.074 A 
ATOM     53  C   UNL A   1      43.293  31.084  29.558  1.00  0.00     0.031 C 
ATOM     54  C   UNL A   1      43.254  37.894  28.513  1.00  0.00     0.029 A 
ATOM     55  C   UNL A   1      44.505  37.206  28.192  1.00  0.00     0.049 A 
ATOM     56  H   UNL A   1      44.880  35.161  28.283  1.00  0.00     0.167 HD
ATOM     57  C   UNL A   1      45.573  30.856  28.617  1.00  0.00     0.031 A 
ATOM     58  C   UNL A   1      45.638  37.798  27.765  1.00  0.00     0.031 A 
ATOM     59  C   UNL A   1      46.789  31.385  28.061  1.00  0.00     0.049 A 
ATOM     60  C   UNL A   1      46.841  36.951  27.445  1.00  0.00     0.074 A 
ATOM     61  C   UNL A   1      47.925  30.701  27.665  1.00  0.00     0.029 A 
ATOM     62  N   UNL A   1      47.035  32.732  27.839  1.00  0.00    -0.354 N 
ATOM     63  N   UNL A   1      46.980  35.649  27.533  1.00  0.00    -0.248 NA
ATOM     64  C   UNL A   1      48.034  37.653  26.953  1.00  0.00     0.031 C 
ATOM     65  C   UNL A   1      48.880  31.641  27.258  1.00  0.00     0.029 A 
ATOM     66  C   UNL A   1      48.317  32.905  27.344  1.00  0.00     0.049 A 
ATOM     67  H   UNL A   1      46.394  33.459  28.010  1.00  0.00     0.167 HD
ATOM     68  C   UNL A   1      48.272  35.374  27.095  1.00  0.00     0.074 A 
ATOM     69  C   UNL A   1      48.864  36.644  26.726  1.00  0.00     0.031 C 
ATOM     70  C   UNL A   1      48.906  34.178  27.003  1.00  0.00     0.031 A 
BRANCH  57  71
ATOM     71  C   UNL A   1      45.474  29.379  28.888  1.00  0.00    -0.014 A 
ATOM     72  C   UNL A   1      45.072  28.478  27.883  1.00  0.00     0.010 A 
ATOM     73  C   UNL A   1      45.761  28.885  30.173  1.00  0.00     0.010 A 
ATOM     74  C   UNL A   1      44.895  27.124  28.177  1.00  0.00     0.020 A 
ATOM     75  C   UNL A   1      45.613  27.527  30.463  1.00  0.00     0.020 A 
ATOM     76  C   UNL A   1      45.154  26.659  29.469  1.00  0.00     0.054 A 
BRANCH  76  77
ATOM     77  S   UNL A   1      44.886  24.903  29.835  1.00  0.00     0.124 S 
ATOM     78  O   UNL A   1      45.783  24.257  28.879  1.00  0.00    -0.237 OA
ATOM     79  O   UNL A   1      45.284  24.800  31.236  1.00  0.00    -0.237 OA
ATOM     80  O   UNL A   1      43.461  24.709  29.579  1.00  0.00    -0.744 OA
ENDBRANCH  76  77
ENDBRANCH  57  71
BRANCH  58  81
ATOM     81  C   UNL A   1      45.680  39.279  27.636  1.00  0.00    -0.014 A 
ATOM     82  C   UNL A   1      45.331  39.909  26.430  1.00  0.00     0.010 A 
ATOM     83  C   UNL A   1      46.027  40.071  28.748  1.00  0.00     0.010 A 
ATOM     84  C   UNL A   1      45.321  41.304  26.339  1.00  0.00     0.020 A 
ATOM     85  C   UNL A   1      45.995  41.465  28.667  1.00  0.00     0.020 A 
ATOM     86  C   UNL A   1      45.645  42.074  27.461  1.00  0.00     0.054 A 
BRANCH  86  87
ATOM     87  S   UNL A   1      45.533  43.882  27.348  1.00  0.00     0.124 S 
ATOM     88  O   UNL A   1      44.806  44.064  26.095  1.00  0.00    -0.237 OA
ATOM     89  O   UNL A   1      44.797  44.230  28.562  1.00  0.00    -0.237 OA
ATOM     90  O   UNL A   1      46.929  44.310  27.331  1.00  0.00    -0.744 OA
ENDBRANCH  86  87
ENDBRANCH  58  81
BRANCH  70  91
ATOM     91  C   UNL A   1      50.318  34.181  26.476  1.00  0.00    -0.014 A 
ATOM     92  C   UNL A   1      51.421  34.223  27.348  1.00  0.00     0.010 A 
ATOM     93  C   UNL A   1      50.545  34.096  25.090  1.00  0.00     0.010 A 
ATOM     94  C   UNL A   1      52.724  34.214  26.841  1.00  0.00     0.020 A 
ATOM     95  C   UNL A   1      51.846  34.060  24.580  1.00  0.00     0.020 A 
ATOM     96  C   UNL A   1      52.928  34.136  25.460  1.00  0.00     0.054 A 
BRANCH  96  97
ATOM     97  S   UNL A   1      54.628  34.095  24.826  1.00  0.00     0.124 S 
ATOM     98  O   UNL A   1      54.657  32.818  24.119  1.00  0.00    -0.237 OA
ATOM     99  O   UNL A   1      54.686  35.284  23.980  1.00  0.00    -0.237 OA
ATOM    100  O   UNL A   1      55.449  34.158  26.033  1.00  0.00    -0.744 OA
ENDBRANCH  96  97
ENDBRANCH  70  91
ENDBRANCH  44  45
ENDBRANCH  37  39
ENDBRANCH  36  37
ENDBRANCH  35  36
ENDBRANCH  34  35
ENDBRANCH  33  34
ENDBRANCH  32  33
ENDBRANCH   1  32
TORSDOF 26
ENDMDL
MODEL 2
REMARK VINA RESULT:      -8.3      0.706      7.712
REMARK SMILES COc1ccc(C(=O)/C=C(\Nc2cccc(C(F)(F)F)c2)C(=O)OCCOCCOCCOC(=O)c2ccc(-c3c4nc(c(-c5ccc(S(=O)(=O)[O-])cc5)c5ccc([nH]5)c(-c5ccc(S(=O)(=O)[O-])cc5)c5nc(c(-c6ccc(S(=O)(=O)[O-])cc6)c6ccc3[nH]6)C=C5)C=C4)cc2)cc1
REMARK SMILES IDX 28 1 27 2 26 3 25 4 24 5 22 6 23 7 10 8 9 9 7 10 8 11 6 12
REMARK SMILES IDX 3 13 4 14 97 15 5 16 96 17 2 18 1 19 11 20 12 22 13 23 21 24
REMARK SMILES IDX 14 25 16 26 15 27 17 28 18 29 19 30 20 31 29 32 30 33 31 34
REMARK SMILES IDX 32 35 33 36 34 37 35 38 36 39 37 40 95 41 38 42 94 43 39 44
REMARK SMILES IDX 40 45 41 46 88 47 42 48 93 49 87 50 89 51 43 52 92 53 86 54
REMARK SMILES IDX 85 55 44 57 74 58 55 59 73 60 56 61 59 62 72 63 90 64 57 65
REMARK SMILES IDX 58 66 71 68 91 69 60 70 45 71 46 72 54 73 47 74 53 75 48 76
REMARK SMILES IDX 49 77 50 78 51 79 52 80 75 81 76 82 84 83 77 84 83 85 78 86
REMARK SMILES IDX 79 87 80 88 81 89 82 90 61 91 62 92 70 93 63 94 69 95 64 96
REMARK SMILES IDX 65 97 66 98 67 99 68 100
REMARK H PARENT 11 21 89 56 59 67
REMARK Flexibility Score: inf
ROOT
ATOM      1  C   UNL A   1      37.704  29.707  29.564  1.00  0.00     0.188 C 
ENDROOT
BRANCH   1   2
ATOM      2  O   UNL A   1      37.240  29.090  28.375  1.00  0.00    -0.376 OA
BRANCH   2   3
ATOM      3  C   UNL A   1      36.428  29.853  27.489  1.00  0.00     0.202 C 
BRANCH   3   4
ATOM      4  C   UNL A   1      34.919  29.832  27.718  1.00  0.00     0.261 C 
BRANCH   4   5
ATOM      5  O   UNL A   1      34.378  28.562  27.319  1.00  0.00    -0.459 OA
BRANCH   5   6
ATOM      6  C   UNL A   1      33.933  28.476  26.043  1.00  0.00     0.354 C 
ATOM      7  O   UNL A   1      34.106  29.310  25.165  1.00  0.00    -0.244 OA
BRANCH   6   8
ATOM      8  C   UNL A   1      33.268  27.145  25.806  1.00  0.00     0.129 C 
ATOM      9  C   UNL A   1      34.178  26.224  25.421  1.00  0.00     0.086 C 
BRANCH   9  10
ATOM     10  C   UNL A   1      34.081  24.766  25.109  1.00  0.00     0.188 C 
ATOM     11  O   UNL A   1      32.982  24.248  24.948  1.00  0.00    -0.289 OA
BRANCH  10  12
ATOM     12  C   UNL A   1      35.277  23.916  25.034  1.00  0.00     0.022 A 
ATOM     13  C   UNL A   1      37.360  22.087  25.079  1.00  0.00     0.118 A 
ATOM     14  C   UNL A   1      36.340  21.941  24.140  1.00  0.00     0.047 A 
ATOM     15  C   UNL A   1      37.414  23.214  25.900  1.00  0.00     0.047 A 
ATOM     16  C   UNL A   1      35.287  22.856  24.121  1.00  0.00     0.016 A 
ATOM     17  C   UNL A   1      36.378  24.148  25.861  1.00  0.00     0.016 A 
BRANCH  13  18
ATOM     18  O   UNL A   1      38.325  21.120  25.147  1.00  0.00    -0.497 OA
ATOM     19  C   UNL A   1      37.761  19.833  24.887  1.00  0.00     0.278 C 
ENDBRANCH  13  18
ENDBRANCH  10  12
ENDBRANCH   9  10
BRANCH   8  20
ATOM     20  N   UNL A   1      31.902  26.990  25.992  1.00  0.00    -0.349 N 
ATOM     21  H   UNL A   1      31.620  26.727  26.897  1.00  0.00     0.167 HD
BRANCH  20  22
ATOM     22  C   UNL A   1      30.867  27.162  25.055  1.00  0.00     0.039 A 
ATOM     23  C   UNL A   1      29.868  26.182  24.962  1.00  0.00     0.026 A 
ATOM     24  C   UNL A   1      30.756  28.298  24.250  1.00  0.00     0.039 A 
ATOM     25  C   UNL A   1      28.791  26.320  24.087  1.00  0.00     0.003 A 
ATOM     26  C   UNL A   1      29.665  28.463  23.377  1.00  0.00     0.058 A 
ATOM     27  C   UNL A   1      28.691  27.457  23.294  1.00  0.00     0.013 A 
BRANCH  26  28
ATOM     28  C   UNL A   1      29.540  29.700  22.528  1.00  0.00     0.416 C 
ATOM     29  F   UNL A   1      28.400  29.702  21.782  1.00  0.00    -0.166 F 
ATOM     30  F   UNL A   1      29.501  30.845  23.267  1.00  0.00    -0.166 F 
ATOM     31  F   UNL A   1      30.566  29.865  21.648  1.00  0.00    -0.166 F 
ENDBRANCH  26  28
ENDBRANCH  20  22
ENDBRANCH   8  20
ENDBRANCH   6   8
ENDBRANCH   5   6
ENDBRANCH   4   5
ENDBRANCH   3   4
ENDBRANCH   2   3
ENDBRANCH   1   2
BRANCH   1  32
ATOM     32  C   UNL A   1      37.265  29.139  30.932  1.00  0.00     0.188 C 
BRANCH  32  33
ATOM     33  O   UNL A   1      36.956  29.979  32.025  1.00  0.00    -0.376 OA
BRANCH  33  34
ATOM     34  C   UNL A   1      36.333  31.238  31.837  1.00  0.00     0.202 C 
BRANCH  34  35
ATOM     35  C   UNL A   1      36.292  32.327  32.917  1.00  0.00     0.261 C 
BRANCH  35  36
ATOM     36  O   UNL A   1      36.976  33.543  32.615  1.00  0.00    -0.460 OA
BRANCH  36  37
ATOM     37  C   UNL A   1      37.061  33.836  31.294  1.00  0.00     0.338 C 
ATOM     38  O   UNL A   1      36.144  34.104  30.537  1.00  0.00    -0.246 OA
BRANCH  37  39
ATOM     39  C   UNL A   1      38.482  33.970  30.926  1.00  0.00     0.060 A 
ATOM     40  C   UNL A   1      38.791  34.376  29.622  1.00  0.00     0.016 A 
ATOM     41  C   UNL A   1      39.494  33.687  31.845  1.00  0.00     0.016 A 
ATOM     42  C   UNL A   1      40.121  34.478  29.223  1.00  0.00     0.010 A 
ATOM     43  C   UNL A   1      40.828  33.769  31.437  1.00  0.00     0.010 A 
ATOM     44  C   UNL A   1      41.144  34.138  30.118  1.00  0.00    -0.014 A 
BRANCH  44  45
ATOM     45  C   UNL A   1      42.535  34.016  29.623  1.00  0.00     0.031 A 
ATOM     46  C   UNL A   1      43.319  35.269  29.356  1.00  0.00     0.074 A 
ATOM     47  C   UNL A   1      43.094  32.811  29.423  1.00  0.00     0.049 A 
ATOM     48  N   UNL A   1      44.548  35.401  28.928  1.00  0.00    -0.248 NA
ATOM     49  C   UNL A   1      42.623  36.541  29.601  1.00  0.00     0.031 C 
ATOM     50  C   UNL A   1      42.443  31.525  29.662  1.00  0.00     0.029 A 
ATOM     51  N   UNL A   1      44.343  32.479  28.960  1.00  0.00    -0.354 N 
ATOM     52  C   UNL A   1      44.775  36.770  28.857  1.00  0.00     0.074 A 
ATOM     53  C   UNL A   1      43.544  37.425  29.247  1.00  0.00     0.031 C 
ATOM     54  C   UNL A   1      43.293  30.540  29.328  1.00  0.00     0.029 A 
ATOM     55  C   UNL A   1      44.539  31.127  28.833  1.00  0.00     0.049 A 
ATOM     56  H   UNL A   1      45.032  33.147  28.741  1.00  0.00     0.167 HD
ATOM     57  C   UNL A   1      45.906  37.426  28.503  1.00  0.00     0.031 A 
ATOM     58  C   UNL A   1      45.595  30.440  28.355  1.00  0.00     0.031 A 
ATOM     59  C   UNL A   1      47.117  36.776  28.077  1.00  0.00     0.049 A 
ATOM     60  C   UNL A   1      46.823  31.186  27.908  1.00  0.00     0.074 A 
ATOM     61  C   UNL A   1      48.321  37.351  27.712  1.00  0.00     0.029 A 
ATOM     62  N   UNL A   1      47.270  35.404  27.939  1.00  0.00    -0.354 N 
ATOM     63  N   UNL A   1      47.043  32.480  27.892  1.00  0.00    -0.248 NA
ATOM     64  C   UNL A   1      47.953  30.377  27.429  1.00  0.00     0.031 C 
ATOM     65  C   UNL A   1      49.185  36.328  27.298  1.00  0.00     0.029 A 
ATOM     66  C   UNL A   1      48.537  35.113  27.462  1.00  0.00     0.049 A 
ATOM     67  H   UNL A   1      46.578  34.735  28.148  1.00  0.00     0.167 HD
ATOM     68  C   UNL A   1      48.340  32.640  27.413  1.00  0.00     0.074 A 
ATOM     69  C   UNL A   1      48.860  31.309  27.171  1.00  0.00     0.031 C 
ATOM     70  C   UNL A   1      49.036  33.785  27.200  1.00  0.00     0.031 A 
BRANCH  57  71
ATOM     71  C   UNL A   1      45.851  38.930  28.522  1.00  0.00    -0.014 A 
ATOM     72  C   UNL A   1      46.275  39.661  29.649  1.00  0.00     0.010 A 
ATOM     73  C   UNL A   1      45.343  39.622  27.408  1.00  0.00     0.010 A 
ATOM     74  C   UNL A   1      46.129  41.050  29.685  1.00  0.00     0.020 A 
ATOM     75  C   UNL A   1      45.222  41.014  27.431  1.00  0.00     0.020 A 
ATOM     76  C   UNL A   1      45.591  41.716  28.581  1.00  0.00     0.054 A 
BRANCH  76  77
ATOM     77  S   UNL A   1      45.381  43.516  28.664  1.00  0.00     0.124 S 
ATOM     78  O   UNL A   1      46.736  43.961  28.983  1.00  0.00    -0.237 OA
ATOM     79  O   UNL A   1      44.912  43.850  27.322  1.00  0.00    -0.237 OA
ATOM     80  O   UNL A   1      44.399  43.701  29.729  1.00  0.00    -0.744 OA
ENDBRANCH  76  77
ENDBRANCH  57  71
BRANCH  58  81
ATOM     81  C   UNL A   1      45.516  28.957  28.266  1.00  0.00    -0.014 A 
ATOM     82  C   UNL A   1      45.876  28.148  29.356  1.00  0.00     0.010 A 
ATOM     83  C   UNL A   1      45.029  28.350  27.093  1.00  0.00     0.010 A 
ATOM     84  C   UNL A   1      45.745  26.758  29.278  1.00  0.00     0.020 A 
ATOM     85  C   UNL A   1      44.875  26.963  27.020  1.00  0.00     0.020 A 
ATOM     86  C   UNL A   1      45.236  26.175  28.113  1.00  0.00     0.054 A 
BRANCH  86  87
ATOM     87  S   UNL A   1      44.985  24.378  28.068  1.00  0.00     0.124 S 
ATOM     88  O   UNL A   1      45.004  24.033  29.487  1.00  0.00    -0.237 OA
ATOM     89  O   UNL A   1      43.688  24.256  27.405  1.00  0.00    -0.237 OA
ATOM     90  O   UNL A   1      46.121  23.893  27.289  1.00  0.00    -0.744 OA
ENDBRANCH  86  87
ENDBRANCH  58  81
BRANCH  70  91
ATOM     91  C   UNL A   1      50.445  33.652  26.682  1.00  0.00    -0.014 A 
ATOM     92  C   UNL A   1      50.723  33.716  25.305  1.00  0.00     0.010 A 
ATOM     93  C   UNL A   1      51.511  33.507  27.588  1.00  0.00     0.010 A 
ATOM     94  C   UNL A   1      52.038  33.602  24.842  1.00  0.00     0.020 A 
ATOM     95  C   UNL A   1      52.830  33.420  27.132  1.00  0.00     0.020 A 
ATOM     96  C   UNL A   1      53.083  33.451  25.759  1.00  0.00     0.054 A 
BRANCH  96  97
ATOM     97  S   UNL A   1      54.784  33.336  25.138  1.00  0.00     0.124 S 
ATOM     98  O   UNL A   1      55.419  34.483  25.780  1.00  0.00    -0.237 OA
ATOM     99  O   UNL A   1      55.216  32.027  25.621  1.00  0.00    -0.237 OA
ATOM    100  O   UNL A   1      54.631  33.438  23.689  1.00  0.00    -0.744 OA
ENDBRANCH  96  97
ENDBRANCH  70  91
ENDBRANCH  44  45
ENDBRANCH  37  39
ENDBRANCH  36  37
ENDBRANCH  35  36
ENDBRANCH  34  35
ENDBRANCH  33  34
ENDBRANCH  32  33
ENDBRANCH   1  32
TORSDOF 26
ENDMDL
MODEL 3
REMARK VINA RESULT:      -8.2      8.593     15.067
REMARK SMILES COc1ccc(C(=O)/C=C(\Nc2cccc(C(F)(F)F)c2)C(=O)OCCOCCOCCOC(=O)c2ccc(-c3c4nc(c(-c5ccc(S(=O)(=O)[O-])cc5)c5ccc([nH]5)c(-c5ccc(S(=O)(=O)[O-])cc5)c5nc(c(-c6ccc(S(=O)(=O)[O-])cc6)c6ccc3[nH]6)C=C5)C=C4)cc2)cc1
REMARK SMILES IDX 28 1 27 2 26 3 25 4 24 5 22 6 23 7 10 8 9 9 7 10 8 11 6 12
REMARK SMILES IDX 3 13 4 14 97 15 5 16 96 17 2 18 1 19 11 20 12 22 13 23 21 24
REMARK SMILES IDX 14 25 16 26 15 27 17 28 18 29 19 30 20 31 29 32 30 33 31 34
REMARK SMILES IDX 32 35 33 36 34 37 35 38 36 39 37 40 95 41 38 42 94 43 39 44
REMARK SMILES IDX 40 45 41 46 88 47 42 48 93 49 87 50 89 51 43 52 92 53 86 54
REMARK SMILES IDX 85 55 44 57 74 58 55 59 73 60 56 61 59 62 72 63 90 64 57 65
REMARK SMILES IDX 58 66 71 68 91 69 60 70 45 71 46 72 54 73 47 74 53 75 48 76
REMARK SMILES IDX 49 77 50 78 51 79 52 80 75 81 76 82 84 83 77 84 83 85 78 86
REMARK SMILES IDX 79 87 80 88 81 89 82 90 61 91 62 92 70 93 63 94 69 95 64 96
REMARK SMILES IDX 65 97 66 98 67 99 68 100
REMARK H PARENT 11 21 89 56 59 67
REMARK Flexibility Score: inf
ROOT
ATOM      1  C   UNL A   1      51.616  19.702  35.010  1.00  0.00     0.188 C 
ENDROOT
BRANCH   1   2
ATOM      2  O   UNL A   1      52.029  18.732  35.958  1.00  0.00    -0.376 OA
BRANCH   2   3
ATOM      3  C   UNL A   1      51.428  18.747  37.248  1.00  0.00     0.202 C 
BRANCH   3   4
ATOM      4  C   UNL A   1      50.192  19.622  37.442  1.00  0.00     0.261 C 
BRANCH   4   5
ATOM      5  O   UNL A   1      49.589  19.348  38.716  1.00  0.00    -0.459 OA
BRANCH   5   6
ATOM      6  C   UNL A   1      48.343  19.844  38.906  1.00  0.00     0.354 C 
ATOM      7  O   UNL A   1      47.400  19.244  39.403  1.00  0.00    -0.244 OA
BRANCH   6   8
ATOM      8  C   UNL A   1      48.289  21.297  38.510  1.00  0.00     0.129 C 
ATOM      9  C   UNL A   1      48.425  22.088  39.596  1.00  0.00     0.086 C 
BRANCH   9  10
ATOM     10  C   UNL A   1      48.491  23.570  39.774  1.00  0.00     0.188 C 
ATOM     11  O   UNL A   1      49.384  24.063  40.454  1.00  0.00    -0.289 OA
BRANCH  10  12
ATOM     12  C   UNL A   1      47.480  24.461  39.189  1.00  0.00     0.022 A 
ATOM     13  C   UNL A   1      45.513  25.893  37.862  1.00  0.00     0.118 A 
ATOM     14  C   UNL A   1      45.146  24.968  38.837  1.00  0.00     0.047 A 
ATOM     15  C   UNL A   1      46.856  26.204  37.646  1.00  0.00     0.047 A 
ATOM     16  C   UNL A   1      46.134  24.240  39.501  1.00  0.00     0.016 A 
ATOM     17  C   UNL A   1      47.847  25.500  38.332  1.00  0.00     0.016 A 
BRANCH  13  18
ATOM     18  O   UNL A   1      44.524  26.518  37.153  1.00  0.00    -0.497 OA
ATOM     19  C   UNL A   1      43.243  26.224  37.718  1.00  0.00     0.278 C 
ENDBRANCH  13  18
ENDBRANCH  10  12
ENDBRANCH   9  10
BRANCH   8  20
ATOM     20  N   UNL A   1      48.126  21.666  37.182  1.00  0.00    -0.349 N 
ATOM     21  H   UNL A   1      48.869  22.174  36.785  1.00  0.00     0.167 HD
BRANCH  20  22
ATOM     22  C   UNL A   1      47.037  21.408  36.331  1.00  0.00     0.039 A 
ATOM     23  C   UNL A   1      46.641  20.078  36.122  1.00  0.00     0.026 A 
ATOM     24  C   UNL A   1      46.292  22.422  35.725  1.00  0.00     0.039 A 
ATOM     25  C   UNL A   1      45.540  19.761  35.328  1.00  0.00     0.003 A 
ATOM     26  C   UNL A   1      45.165  22.122  34.938  1.00  0.00     0.058 A 
ATOM     27  C   UNL A   1      44.806  20.781  34.734  1.00  0.00     0.013 A 
BRANCH  26  28
ATOM     28  C   UNL A   1      44.354  23.221  34.306  1.00  0.00     0.416 C 
ATOM     29  F   UNL A   1      43.233  22.748  33.693  1.00  0.00    -0.166 F 
ATOM     30  F   UNL A   1      43.919  24.142  35.213  1.00  0.00    -0.166 F 
ATOM     31  F   UNL A   1      45.032  23.927  33.361  1.00  0.00    -0.166 F 
ENDBRANCH  26  28
ENDBRANCH  20  22
ENDBRANCH   8  20
ENDBRANCH   6   8
ENDBRANCH   5   6
ENDBRANCH   4   5
ENDBRANCH   3   4
ENDBRANCH   2   3
ENDBRANCH   1   2
BRANCH   1  32
ATOM     32  C   UNL A   1      52.678  20.587  34.322  1.00  0.00     0.188 C 
BRANCH  32  33
ATOM     33  O   UNL A   1      52.835  21.954  34.645  1.00  0.00    -0.376 OA
BRANCH  33  34
ATOM     34  C   UNL A   1      52.386  22.476  35.883  1.00  0.00     0.202 C 
BRANCH  34  35
ATOM     35  C   UNL A   1      52.487  23.961  36.258  1.00  0.00     0.261 C 
BRANCH  35  36
ATOM     36  O   UNL A   1      51.361  24.774  35.930  1.00  0.00    -0.460 OA
BRANCH  36  37
ATOM     37  C   UNL A   1      51.344  25.236  34.655  1.00  0.00     0.338 C 
ATOM     38  O   UNL A   1      52.174  25.035  33.786  1.00  0.00    -0.246 OA
BRANCH  37  39
ATOM     39  C   UNL A   1      50.046  25.886  34.402  1.00  0.00     0.060 A 
ATOM     40  C   UNL A   1      48.880  25.152  34.653  1.00  0.00     0.016 A 
ATOM     41  C   UNL A   1      49.976  27.192  33.913  1.00  0.00     0.016 A 
ATOM     42  C   UNL A   1      47.634  25.716  34.391  1.00  0.00     0.010 A 
ATOM     43  C   UNL A   1      48.727  27.748  33.630  1.00  0.00     0.010 A 
ATOM     44  C   UNL A   1      47.555  27.002  33.842  1.00  0.00    -0.014 A 
BRANCH  44  45
ATOM     45  C   UNL A   1      46.253  27.503  33.344  1.00  0.00     0.031 A 
ATOM     46  C   UNL A   1      45.709  26.949  32.058  1.00  0.00     0.074 A 
ATOM     47  C   UNL A   1      45.561  28.430  34.028  1.00  0.00     0.049 A 
ATOM     48  N   UNL A   1      44.593  27.233  31.438  1.00  0.00    -0.248 NA
ATOM     49  C   UNL A   1      46.538  25.941  31.378  1.00  0.00     0.031 C 
ATOM     50  C   UNL A   1      45.973  29.030  35.294  1.00  0.00     0.029 A 
ATOM     51  N   UNL A   1      44.362  29.032  33.739  1.00  0.00    -0.354 N 
ATOM     52  C   UNL A   1      44.582  26.438  30.299  1.00  0.00     0.074 A 
ATOM     53  C   UNL A   1      45.821  25.689  30.293  1.00  0.00     0.031 C 
ATOM     54  C   UNL A   1      45.049  29.932  35.667  1.00  0.00     0.029 A 
ATOM     55  C   UNL A   1      43.993  29.984  34.656  1.00  0.00     0.049 A 
ATOM     56  H   UNL A   1      43.819  28.804  32.950  1.00  0.00     0.167 HD
ATOM     57  C   UNL A   1      43.626  26.335  29.345  1.00  0.00     0.031 A 
ATOM     58  C   UNL A   1      42.933  30.816  34.671  1.00  0.00     0.031 A 
ATOM     59  C   UNL A   1      42.413  27.108  29.330  1.00  0.00     0.049 A 
ATOM     60  C   UNL A   1      41.909  30.732  33.570  1.00  0.00     0.074 A 
ATOM     61  C   UNL A   1      41.375  27.066  28.416  1.00  0.00     0.029 A 
ATOM     62  N   UNL A   1      42.084  28.079  30.265  1.00  0.00    -0.354 N 
ATOM     63  N   UNL A   1      41.886  29.940  32.524  1.00  0.00    -0.248 NA
ATOM     64  C   UNL A   1      40.760  31.644  33.662  1.00  0.00     0.031 C 
ATOM     65  C   UNL A   1      40.445  28.053  28.767  1.00  0.00     0.029 A 
ATOM     66  C   UNL A   1      40.875  28.668  29.933  1.00  0.00     0.049 A 
ATOM     67  H   UNL A   1      42.630  28.315  31.050  1.00  0.00     0.167 HD
ATOM     68  C   UNL A   1      40.714  30.249  31.838  1.00  0.00     0.074 A 
ATOM     69  C   UNL A   1      40.049  31.286  32.601  1.00  0.00     0.031 C 
ATOM     70  C   UNL A   1      40.234  29.718  30.686  1.00  0.00     0.031 A 
BRANCH  57  71
ATOM     71  C   UNL A   1      43.896  25.377  28.217  1.00  0.00    -0.014 A 
ATOM     72  C   UNL A   1      43.556  24.014  28.320  1.00  0.00     0.010 A 
ATOM     73  C   UNL A   1      44.525  25.838  27.047  1.00  0.00     0.010 A 
ATOM     74  C   UNL A   1      43.899  23.121  27.300  1.00  0.00     0.020 A 
ATOM     75  C   UNL A   1      44.845  24.953  26.014  1.00  0.00     0.020 A 
ATOM     76  C   UNL A   1      44.554  23.595  26.161  1.00  0.00     0.054 A 
BRANCH  76  77
ATOM     77  S   UNL A   1      45.018  22.411  24.866  1.00  0.00     0.124 S 
ATOM     78  O   UNL A   1      45.240  23.292  23.721  1.00  0.00    -0.237 OA
ATOM     79  O   UNL A   1      46.217  21.785  25.416  1.00  0.00    -0.237 OA
ATOM     80  O   UNL A   1      43.853  21.537  24.762  1.00  0.00    -0.744 OA
ENDBRANCH  76  77
ENDBRANCH  57  71
BRANCH  58  81
ATOM     81  C   UNL A   1      42.806  31.812  35.768  1.00  0.00    -0.014 A 
ATOM     82  C   UNL A   1      43.323  33.111  35.628  1.00  0.00     0.010 A 
ATOM     83  C   UNL A   1      42.118  31.472  36.948  1.00  0.00     0.010 A 
ATOM     84  C   UNL A   1      43.148  34.054  36.645  1.00  0.00     0.020 A 
ATOM     85  C   UNL A   1      41.921  32.419  37.956  1.00  0.00     0.020 A 
ATOM     86  C   UNL A   1      42.440  33.705  37.800  1.00  0.00     0.054 A 
BRANCH  86  87
ATOM     87  S   UNL A   1      42.143  34.972  39.064  1.00  0.00     0.124 S 
ATOM     88  O   UNL A   1      42.136  36.198  38.271  1.00  0.00    -0.237 OA
ATOM     89  O   UNL A   1      40.852  34.570  39.618  1.00  0.00    -0.237 OA
ATOM     90  O   UNL A   1      43.276  34.820  39.973  1.00  0.00    -0.744 OA
ENDBRANCH  86  87
ENDBRANCH  58  81
BRANCH  70  91
ATOM     91  C   UNL A   1      38.916  30.244  30.178  1.00  0.00    -0.014 A 
ATOM     92  C   UNL A   1      38.862  31.317  29.270  1.00  0.00     0.010 A 
ATOM     93  C   UNL A   1      37.717  29.628  30.579  1.00  0.00     0.010 A 
ATOM     94  C   UNL A   1      37.631  31.786  28.800  1.00  0.00     0.020 A 
ATOM     95  C   UNL A   1      36.486  30.075  30.091  1.00  0.00     0.020 A 
ATOM     96  C   UNL A   1      36.450  31.163  29.217  1.00  0.00     0.054 A 
BRANCH  96  97
ATOM     97  S   UNL A   1      34.867  31.768  28.570  1.00  0.00     0.124 S 
ATOM     98  O   UNL A   1      35.298  32.760  27.590  1.00  0.00    -0.237 OA
ATOM     99  O   UNL A   1      34.262  30.559  28.016  1.00  0.00    -0.237 OA
ATOM    100  O   UNL A   1      34.194  32.308  29.749  1.00  0.00    -0.744 OA
ENDBRANCH  96  97
ENDBRANCH  70  91
ENDBRANCH  44  45
ENDBRANCH  37  39
ENDBRANCH  36  37
ENDBRANCH  35  36
ENDBRANCH  34  35
ENDBRANCH  33  34
ENDBRANCH  32  33
ENDBRANCH   1  32
TORSDOF 26
ENDMDL
