MODEL 1
REMARK VINA RESULT:     -10.6      0.000      0.000
REMARK SMILES O=C(OCCOCCOCCOC(=O)[C@@H](Cc1c[nH]c2ccccc12)Nc1ncnc2ccccc12)c1ccc(-c2c3nc(c(-c4ccc(S(=O)(=O)[O-])cc4)c4ccc([nH]4)c(-c4ccc(S(=O)(=O)[O-])cc4)c4nc(c(-c5ccc(S(=O)(=O)[O-])cc5)c5ccc2[nH]5)C=C4)C=C3)cc1
REMARK SMILES IDX 7 1 6 2 5 3 4 4 3 5 2 6 1 7 37 8 38 9 96 10 39 11 95 12
REMARK SMILES IDX 40 13 41 14 42 15 89 16 43 17 94 18 88 19 90 20 44 21 93 22
REMARK SMILES IDX 87 23 86 24 45 26 75 27 56 28 74 29 57 30 60 31 73 32 91 33
REMARK SMILES IDX 58 34 59 35 72 37 92 38 61 39 46 40 47 41 55 42 48 43 54 44
REMARK SMILES IDX 49 45 50 46 51 47 52 48 53 49 76 50 77 51 85 52 78 53 84 54
REMARK SMILES IDX 79 55 80 56 81 57 82 58 83 59 62 60 63 61 71 62 64 63 70 64
REMARK SMILES IDX 65 65 66 66 67 67 68 68 69 69 8 70 9 71 10 72 11 73 12 74
REMARK SMILES IDX 13 75 14 76 15 77 16 78 17 79 18 80 25 81 19 82 20 83 24 84
REMARK SMILES IDX 21 86 23 87 22 88 26 89 27 91 28 92 36 93 29 94 31 95 35 96
REMARK SMILES IDX 30 97 32 98 34 99 33 100
REMARK H PARENT 90 25 60 36 19 85 26 90
REMARK Flexibility Score: inf
ROOT
ATOM      1  C   UNL A   1      33.815  31.253  27.639  1.00  0.00     0.188 C 
ENDROOT
BRANCH   1   2
ATOM      2  O   UNL A   1      34.629  31.383  28.810  1.00  0.00    -0.376 OA
BRANCH   2   3
ATOM      3  C   UNL A   1      34.699  32.727  29.300  1.00  0.00     0.202 C 
BRANCH   3   4
ATOM      4  C   UNL A   1      35.223  32.829  30.738  1.00  0.00     0.261 C 
BRANCH   4   5
ATOM      5  O   UNL A   1      35.494  31.518  31.288  1.00  0.00    -0.460 OA
BRANCH   5   6
ATOM      6  C   UNL A   1      36.610  31.158  31.979  1.00  0.00     0.338 C 
ATOM      7  O   UNL A   1      36.675  31.337  33.191  1.00  0.00    -0.246 OA
BRANCH   6   8
ATOM      8  C   UNL A   1      37.778  30.566  31.271  1.00  0.00     0.060 A 
ATOM      9  C   UNL A   1      38.691  29.761  31.937  1.00  0.00     0.016 A 
ATOM     10  C   UNL A   1      37.958  30.780  29.898  1.00  0.00     0.016 A 
ATOM     11  C   UNL A   1      39.871  29.370  31.310  1.00  0.00     0.010 A 
ATOM     12  C   UNL A   1      39.103  30.292  29.242  1.00  0.00     0.010 A 
ATOM     13  C   UNL A   1      40.116  29.639  29.964  1.00  0.00    -0.014 A 
BRANCH  13  14
ATOM     14  C   UNL A   1      41.492  29.402  29.427  1.00  0.00     0.031 A 
ATOM     15  C   UNL A   1      41.773  28.116  28.692  1.00  0.00     0.074 A 
ATOM     16  C   UNL A   1      42.439  30.367  29.411  1.00  0.00     0.049 A 
ATOM     17  N   UNL A   1      42.911  27.642  28.255  1.00  0.00    -0.248 NA
ATOM     18  C   UNL A   1      40.621  27.240  28.422  1.00  0.00     0.031 C 
ATOM     19  C   UNL A   1      42.282  31.718  29.950  1.00  0.00     0.029 A 
ATOM     20  N   UNL A   1      43.691  30.392  28.842  1.00  0.00    -0.354 N 
ATOM     21  C   UNL A   1      42.631  26.366  27.782  1.00  0.00     0.074 A 
ATOM     22  C   UNL A   1      41.208  26.160  27.932  1.00  0.00     0.031 C 
ATOM     23  C   UNL A   1      43.314  32.478  29.546  1.00  0.00     0.029 A 
ATOM     24  C   UNL A   1      44.280  31.639  28.846  1.00  0.00     0.049 A 
ATOM     25  H   UNL A   1      44.127  29.593  28.467  1.00  0.00     0.167 HD
ATOM     26  C   UNL A   1      43.492  25.436  27.306  1.00  0.00     0.031 A 
ATOM     27  C   UNL A   1      45.471  32.049  28.359  1.00  0.00     0.031 A 
ATOM     28  C   UNL A   1      44.888  25.682  27.077  1.00  0.00     0.049 A 
ATOM     29  C   UNL A   1      46.417  31.011  27.808  1.00  0.00     0.074 A 
ATOM     30  C   UNL A   1      45.874  24.793  26.690  1.00  0.00     0.029 A 
ATOM     31  N   UNL A   1      45.487  26.929  27.173  1.00  0.00    -0.354 N 
ATOM     32  N   UNL A   1      46.200  29.742  27.560  1.00  0.00    -0.248 NA
ATOM     33  C   UNL A   1      47.793  31.452  27.527  1.00  0.00     0.031 C 
ATOM     34  C   UNL A   1      47.077  25.500  26.573  1.00  0.00     0.029 A 
ATOM     35  C   UNL A   1      46.827  26.836  26.845  1.00  0.00     0.049 A 
ATOM     36  H   UNL A   1      45.025  27.758  27.437  1.00  0.00     0.167 HD
ATOM     37  C   UNL A   1      47.415  29.229  27.118  1.00  0.00     0.074 A 
ATOM     38  C   UNL A   1      48.348  30.335  27.078  1.00  0.00     0.031 C 
ATOM     39  C   UNL A   1      47.739  27.949  26.804  1.00  0.00     0.031 A 
BRANCH  26  40
ATOM     40  C   UNL A   1      42.955  24.043  27.141  1.00  0.00    -0.014 A 
ATOM     41  C   UNL A   1      42.799  23.159  28.221  1.00  0.00     0.010 A 
ATOM     42  C   UNL A   1      42.649  23.601  25.840  1.00  0.00     0.010 A 
ATOM     43  C   UNL A   1      42.406  21.835  27.992  1.00  0.00     0.020 A 
ATOM     44  C   UNL A   1      42.230  22.290  25.611  1.00  0.00     0.020 A 
ATOM     45  C   UNL A   1      42.138  21.406  26.688  1.00  0.00     0.054 A 
BRANCH  45  46
ATOM     46  S   UNL A   1      41.668  19.677  26.407  1.00  0.00     0.124 S 
ATOM     47  O   UNL A   1      42.454  19.344  25.221  1.00  0.00    -0.237 OA
ATOM     48  O   UNL A   1      42.089  19.024  27.643  1.00  0.00    -0.237 OA
ATOM     49  O   UNL A   1      40.224  19.742  26.200  1.00  0.00    -0.744 OA
ENDBRANCH  45  46
ENDBRANCH  26  40
BRANCH  27  50
ATOM     50  C   UNL A   1      45.887  33.483  28.425  1.00  0.00    -0.014 A 
ATOM     51  C   UNL A   1      45.676  34.334  27.322  1.00  0.00     0.010 A 
ATOM     52  C   UNL A   1      46.538  34.000  29.560  1.00  0.00     0.010 A 
ATOM     53  C   UNL A   1      46.123  35.661  27.348  1.00  0.00     0.020 A 
ATOM     54  C   UNL A   1      46.953  35.335  29.605  1.00  0.00     0.020 A 
ATOM     55  C   UNL A   1      46.760  36.152  28.491  1.00  0.00     0.054 A 
BRANCH  55  56
ATOM     56  S   UNL A   1      47.308  37.883  28.519  1.00  0.00     0.124 S 
ATOM     57  O   UNL A   1      48.595  37.781  29.201  1.00  0.00    -0.237 OA
ATOM     58  O   UNL A   1      47.370  38.220  27.099  1.00  0.00    -0.237 OA
ATOM     59  O   UNL A   1      46.254  38.561  29.269  1.00  0.00    -0.744 OA
ENDBRANCH  55  56
ENDBRANCH  27  50
BRANCH  39  60
ATOM     60  C   UNL A   1      49.156  27.677  26.384  1.00  0.00    -0.014 A 
ATOM     61  C   UNL A   1      50.131  27.313  27.330  1.00  0.00     0.010 A 
ATOM     62  C   UNL A   1      49.501  27.724  25.022  1.00  0.00     0.010 A 
ATOM     63  C   UNL A   1      51.436  27.027  26.922  1.00  0.00     0.020 A 
ATOM     64  C   UNL A   1      50.800  27.418  24.609  1.00  0.00     0.020 A 
ATOM     65  C   UNL A   1      51.763  27.084  25.563  1.00  0.00     0.054 A 
BRANCH  65  66
ATOM     66  S   UNL A   1      53.452  26.664  25.050  1.00  0.00     0.124 S 
ATOM     67  O   UNL A   1      53.464  27.106  23.658  1.00  0.00    -0.237 OA
ATOM     68  O   UNL A   1      54.273  27.450  25.967  1.00  0.00    -0.237 OA
ATOM     69  O   UNL A   1      53.523  25.218  25.247  1.00  0.00    -0.744 OA
ENDBRANCH  65  66
ENDBRANCH  39  60
ENDBRANCH  13  14
ENDBRANCH   6   8
ENDBRANCH   5   6
ENDBRANCH   4   5
ENDBRANCH   3   4
ENDBRANCH   2   3
ENDBRANCH   1   2
BRANCH   1  70
ATOM     70  C   UNL A   1      34.242  30.058  26.779  1.00  0.00     0.188 C 
BRANCH  70  71
ATOM     71  O   UNL A   1      33.164  29.217  26.355  1.00  0.00    -0.376 OA
BRANCH  71  72
ATOM     72  C   UNL A   1      32.597  28.342  27.338  1.00  0.00     0.202 C 
BRANCH  72  73
ATOM     73  C   UNL A   1      31.288  27.669  26.914  1.00  0.00     0.261 C 
BRANCH  73  74
ATOM     74  O   UNL A   1      31.566  26.662  25.932  1.00  0.00    -0.462 OA
BRANCH  74  75
ATOM     75  C   UNL A   1      30.631  25.680  25.782  1.00  0.00     0.329 C 
ATOM     76  O   UNL A   1      29.605  25.604  26.450  1.00  0.00    -0.250 OA
BRANCH  75  77
ATOM     77  C   UNL A   1      30.975  24.781  24.580  1.00  0.00     0.195 C 
BRANCH  77  78
ATOM     78  C   UNL A   1      30.442  25.362  23.265  1.00  0.00     0.074 C 
BRANCH  78  79
ATOM     79  C   UNL A   1      30.544  26.843  23.013  1.00  0.00    -0.020 A 
ATOM     80  C   UNL A   1      31.638  27.541  22.544  1.00  0.00     0.087 A 
ATOM     81  C   UNL A   1      29.456  27.790  23.059  1.00  0.00     0.003 A 
ATOM     82  N   UNL A   1      31.258  28.829  22.274  1.00  0.00    -0.361 N 
ATOM     83  C   UNL A   1      29.919  28.995  22.535  1.00  0.00     0.046 A 
ATOM     84  C   UNL A   1      28.093  27.714  23.424  1.00  0.00     0.010 A 
ATOM     85  H   UNL A   1      31.857  29.536  21.941  1.00  0.00     0.166 HD
ATOM     86  C   UNL A   1      29.085  30.100  22.316  1.00  0.00     0.026 A 
ATOM     87  C   UNL A   1      27.236  28.794  23.185  1.00  0.00     0.001 A 
ATOM     88  C   UNL A   1      27.729  29.969  22.630  1.00  0.00     0.002 A 
ENDBRANCH  78  79
ENDBRANCH  77  78
BRANCH  77  89
ATOM     89  N   UNL A   1      32.420  24.506  24.487  1.00  0.00    -0.356 N 
ATOM     90  H   UNL A   1      32.986  25.061  23.902  1.00  0.00     0.163 HD
BRANCH  89  91
ATOM     91  C   UNL A   1      32.990  23.473  25.214  1.00  0.00     0.137 A 
ATOM     92  N   UNL A   1      33.661  23.907  26.290  1.00  0.00    -0.219 NA
ATOM     93  C   UNL A   1      32.939  22.113  24.857  1.00  0.00     0.043 A 
ATOM     94  C   UNL A   1      34.263  22.982  27.039  1.00  0.00     0.224 A 
ATOM     95  C   UNL A   1      33.619  21.245  25.728  1.00  0.00     0.076 A 
ATOM     96  C   UNL A   1      32.332  21.575  23.693  1.00  0.00     0.014 A 
ATOM     97  N   UNL A   1      34.255  21.662  26.826  1.00  0.00    -0.236 NA
ATOM     98  C   UNL A   1      33.666  19.889  25.430  1.00  0.00     0.029 A 
ATOM     99  C   UNL A   1      32.394  20.208  23.412  1.00  0.00     0.001 A 
ATOM    100  C   UNL A   1      33.065  19.363  24.285  1.00  0.00     0.002 A 
ENDBRANCH  89  91
ENDBRANCH  77  89
ENDBRANCH  75  77
ENDBRANCH  74  75
ENDBRANCH  73  74
ENDBRANCH  72  73
ENDBRANCH  71  72
ENDBRANCH  70  71
ENDBRANCH   1  70
TORSDOF 24
ENDMDL
MODEL 2
REMARK VINA RESULT:     -10.3      5.862      8.176
REMARK SMILES O=C(OCCOCCOCCOC(=O)[C@@H](Cc1c[nH]c2ccccc12)Nc1ncnc2ccccc12)c1ccc(-c2c3nc(c(-c4ccc(S(=O)(=O)[O-])cc4)c4ccc([nH]4)c(-c4ccc(S(=O)(=O)[O-])cc4)c4nc(c(-c5ccc(S(=O)(=O)[O-])cc5)c5ccc2[nH]5)C=C4)C=C3)cc1
REMARK SMILES IDX 7 1 6 2 5 3 4 4 3 5 2 6 1 7 37 8 38 9 96 10 39 11 95 12
REMARK SMILES IDX 40 13 41 14 42 15 89 16 43 17 94 18 88 19 90 20 44 21 93 22
REMARK SMILES IDX 87 23 86 24 45 26 75 27 56 28 74 29 57 30 60 31 73 32 91 33
REMARK SMILES IDX 58 34 59 35 72 37 92 38 61 39 46 40 47 41 55 42 48 43 54 44
REMARK SMILES IDX 49 45 50 46 51 47 52 48 53 49 76 50 77 51 85 52 78 53 84 54
REMARK SMILES IDX 79 55 80 56 81 57 82 58 83 59 62 60 63 61 71 62 64 63 70 64
REMARK SMILES IDX 65 65 66 66 67 67 68 68 69 69 8 70 9 71 10 72 11 73 12 74
REMARK SMILES IDX 13 75 14 76 15 77 16 78 17 79 18 80 25 81 19 82 20 83 24 84
REMARK SMILES IDX 21 86 23 87 22 88 26 89 27 91 28 92 36 93 29 94 31 95 35 96
REMARK SMILES IDX 30 97 32 98 34 99 33 100
REMARK H PARENT 90 25 60 36 19 85 26 90
REMARK Flexibility Score: inf
ROOT
ATOM      1  C   UNL A   1      32.797  30.386  26.673  1.00  0.00     0.188 C 
ENDROOT
BRANCH   1   2
ATOM      2  O   UNL A   1      31.698  31.299  26.759  1.00  0.00    -0.376 OA
BRANCH   2   3
ATOM      3  C   UNL A   1      32.097  32.626  27.120  1.00  0.00     0.202 C 
BRANCH   3   4
ATOM      4  C   UNL A   1      33.560  32.728  27.569  1.00  0.00     0.261 C 
BRANCH   4   5
ATOM      5  O   UNL A   1      33.818  33.997  28.216  1.00  0.00    -0.460 OA
BRANCH   5   6
ATOM      6  C   UNL A   1      33.640  34.269  29.538  1.00  0.00     0.338 C 
ATOM      7  O   UNL A   1      32.679  34.934  29.910  1.00  0.00    -0.246 OA
BRANCH   6   8
ATOM      8  C   UNL A   1      34.623  33.788  30.547  1.00  0.00     0.060 A 
ATOM      9  C   UNL A   1      35.477  34.668  31.196  1.00  0.00     0.016 A 
ATOM     10  C   UNL A   1      34.678  32.431  30.891  1.00  0.00     0.016 A 
ATOM     11  C   UNL A   1      36.511  34.184  31.993  1.00  0.00     0.010 A 
ATOM     12  C   UNL A   1      35.660  31.959  31.783  1.00  0.00     0.010 A 
ATOM     13  C   UNL A   1      36.640  32.828  32.290  1.00  0.00    -0.014 A 
BRANCH  13  14
ATOM     14  C   UNL A   1      37.899  32.358  32.949  1.00  0.00     0.031 A 
ATOM     15  C   UNL A   1      38.986  31.758  32.094  1.00  0.00     0.074 A 
ATOM     16  C   UNL A   1      38.177  32.619  34.247  1.00  0.00     0.049 A 
ATOM     17  N   UNL A   1      40.098  31.173  32.456  1.00  0.00    -0.248 NA
ATOM     18  C   UNL A   1      38.790  31.813  30.636  1.00  0.00     0.031 C 
ATOM     19  C   UNL A   1      37.295  33.320  35.179  1.00  0.00     0.029 A 
ATOM     20  N   UNL A   1      39.318  32.403  34.985  1.00  0.00    -0.354 N 
ATOM     21  C   UNL A   1      40.662  30.679  31.287  1.00  0.00     0.074 A 
ATOM     22  C   UNL A   1      39.802  31.081  30.197  1.00  0.00     0.031 C 
ATOM     23  C   UNL A   1      37.979  33.620  36.296  1.00  0.00     0.029 A 
ATOM     24  C   UNL A   1      39.300  33.006  36.225  1.00  0.00     0.049 A 
ATOM     25  H   UNL A   1      40.077  31.869  34.657  1.00  0.00     0.167 HD
ATOM     26  C   UNL A   1      41.776  29.922  31.143  1.00  0.00     0.031 A 
ATOM     27  C   UNL A   1      40.236  33.040  37.198  1.00  0.00     0.031 A 
ATOM     28  C   UNL A   1      42.671  29.604  32.219  1.00  0.00     0.049 A 
ATOM     29  C   UNL A   1      41.486  32.213  37.021  1.00  0.00     0.074 A 
ATOM     30  C   UNL A   1      43.775  28.770  32.212  1.00  0.00     0.029 A 
ATOM     31  N   UNL A   1      42.588  30.150  33.490  1.00  0.00    -0.354 N 
ATOM     32  N   UNL A   1      41.908  31.569  35.960  1.00  0.00    -0.248 NA
ATOM     33  C   UNL A   1      42.357  32.069  38.199  1.00  0.00     0.031 C 
ATOM     34  C   UNL A   1      44.347  28.795  33.490  1.00  0.00     0.029 A 
ATOM     35  C   UNL A   1      43.624  29.678  34.276  1.00  0.00     0.049 A 
ATOM     36  H   UNL A   1      41.893  30.781  33.789  1.00  0.00     0.167 HD
ATOM     37  C   UNL A   1      43.079  30.925  36.349  1.00  0.00     0.074 A 
ATOM     38  C   UNL A   1      43.329  31.303  37.724  1.00  0.00     0.031 C 
ATOM     39  C   UNL A   1      43.860  30.071  35.641  1.00  0.00     0.031 A 
BRANCH  26  40
ATOM     40  C   UNL A   1      41.988  29.286  29.798  1.00  0.00    -0.014 A 
ATOM     41  C   UNL A   1      42.629  29.950  28.739  1.00  0.00     0.010 A 
ATOM     42  C   UNL A   1      41.475  27.992  29.589  1.00  0.00     0.010 A 
ATOM     43  C   UNL A   1      42.694  29.354  27.475  1.00  0.00     0.020 A 
ATOM     44  C   UNL A   1      41.562  27.383  28.337  1.00  0.00     0.020 A 
ATOM     45  C   UNL A   1      42.148  28.080  27.279  1.00  0.00     0.054 A 
BRANCH  45  46
ATOM     46  S   UNL A   1      42.207  27.340  25.625  1.00  0.00     0.124 S 
ATOM     47  O   UNL A   1      40.978  26.549  25.608  1.00  0.00    -0.237 OA
ATOM     48  O   UNL A   1      42.214  28.508  24.749  1.00  0.00    -0.237 OA
ATOM     49  O   UNL A   1      43.446  26.567  25.637  1.00  0.00    -0.744 OA
ENDBRANCH  45  46
ENDBRANCH  26  40
BRANCH  27  50
ATOM     50  C   UNL A   1      40.022  33.814  38.458  1.00  0.00    -0.014 A 
ATOM     51  C   UNL A   1      40.517  35.128  38.577  1.00  0.00     0.010 A 
ATOM     52  C   UNL A   1      39.370  33.238  39.564  1.00  0.00     0.010 A 
ATOM     53  C   UNL A   1      40.381  35.837  39.777  1.00  0.00     0.020 A 
ATOM     54  C   UNL A   1      39.199  33.956  40.752  1.00  0.00     0.020 A 
ATOM     55  C   UNL A   1      39.723  35.244  40.857  1.00  0.00     0.054 A 
BRANCH  55  56
ATOM     56  S   UNL A   1      39.529  36.188  42.396  1.00  0.00     0.124 S 
ATOM     57  O   UNL A   1      39.414  37.555  41.899  1.00  0.00    -0.237 OA
ATOM     58  O   UNL A   1      38.312  35.618  42.968  1.00  0.00    -0.237 OA
ATOM     59  O   UNL A   1      40.755  35.890  43.134  1.00  0.00    -0.744 OA
ENDBRANCH  55  56
ENDBRANCH  27  50
BRANCH  39  60
ATOM     60  C   UNL A   1      45.060  29.493  36.336  1.00  0.00    -0.014 A 
ATOM     61  C   UNL A   1      46.311  30.132  36.268  1.00  0.00     0.010 A 
ATOM     62  C   UNL A   1      44.922  28.332  37.118  1.00  0.00     0.010 A 
ATOM     63  C   UNL A   1      47.411  29.604  36.948  1.00  0.00     0.020 A 
ATOM     64  C   UNL A   1      46.015  27.814  37.816  1.00  0.00     0.020 A 
ATOM     65  C   UNL A   1      47.257  28.446  37.716  1.00  0.00     0.054 A 
BRANCH  65  66
ATOM     66  S   UNL A   1      48.687  27.803  38.629  1.00  0.00     0.124 S 
ATOM     67  O   UNL A   1      49.773  28.632  38.112  1.00  0.00    -0.237 OA
ATOM     68  O   UNL A   1      48.318  28.046  40.021  1.00  0.00    -0.237 OA
ATOM     69  O   UNL A   1      48.738  26.395  38.243  1.00  0.00    -0.744 OA
ENDBRANCH  65  66
ENDBRANCH  39  60
ENDBRANCH  13  14
ENDBRANCH   6   8
ENDBRANCH   5   6
ENDBRANCH   4   5
ENDBRANCH   3   4
ENDBRANCH   2   3
ENDBRANCH   1   2
BRANCH   1  70
ATOM     70  C   UNL A   1      32.895  29.743  25.284  1.00  0.00     0.188 C 
BRANCH  70  71
ATOM     71  O   UNL A   1      32.694  28.326  25.270  1.00  0.00    -0.376 OA
BRANCH  71  72
ATOM     72  C   UNL A   1      32.519  27.682  26.538  1.00  0.00     0.202 C 
BRANCH  72  73
ATOM     73  C   UNL A   1      31.380  26.659  26.583  1.00  0.00     0.261 C 
BRANCH  73  74
ATOM     74  O   UNL A   1      31.859  25.391  26.113  1.00  0.00    -0.462 OA
BRANCH  74  75
ATOM     75  C   UNL A   1      30.927  24.411  25.943  1.00  0.00     0.329 C 
ATOM     76  O   UNL A   1      29.996  24.210  26.716  1.00  0.00    -0.250 OA
BRANCH  75  77
ATOM     77  C   UNL A   1      31.127  23.699  24.593  1.00  0.00     0.195 C 
BRANCH  77  78
ATOM     78  C   UNL A   1      30.420  24.437  23.450  1.00  0.00     0.074 C 
BRANCH  78  79
ATOM     79  C   UNL A   1      30.843  25.838  23.098  1.00  0.00    -0.020 A 
ATOM     80  C   UNL A   1      32.050  26.241  22.563  1.00  0.00     0.087 A 
ATOM     81  C   UNL A   1      29.998  27.007  23.102  1.00  0.00     0.003 A 
ATOM     82  N   UNL A   1      31.960  27.563  22.216  1.00  0.00    -0.361 N 
ATOM     83  C   UNL A   1      30.702  28.043  22.490  1.00  0.00     0.046 A 
ATOM     84  C   UNL A   1      28.666  27.264  23.497  1.00  0.00     0.010 A 
ATOM     85  H   UNL A   1      32.691  28.095  21.825  1.00  0.00     0.166 HD
ATOM     86  C   UNL A   1      30.131  29.292  22.215  1.00  0.00     0.026 A 
ATOM     87  C   UNL A   1      28.065  28.494  23.204  1.00  0.00     0.001 A 
ATOM     88  C   UNL A   1      28.791  29.491  22.562  1.00  0.00     0.002 A 
ENDBRANCH  78  79
ENDBRANCH  77  78
BRANCH  77  89
ATOM     89  N   UNL A   1      32.553  23.488  24.281  1.00  0.00    -0.356 N 
ATOM     90  H   UNL A   1      33.086  24.229  23.911  1.00  0.00     0.163 HD
BRANCH  89  91
ATOM     91  C   UNL A   1      33.149  22.257  24.503  1.00  0.00     0.137 A 
ATOM     92  N   UNL A   1      32.258  21.287  24.749  1.00  0.00    -0.219 NA
ATOM     93  C   UNL A   1      34.537  22.028  24.533  1.00  0.00     0.043 A 
ATOM     94  C   UNL A   1      32.745  20.070  24.998  1.00  0.00     0.224 A 
ATOM     95  C   UNL A   1      34.915  20.704  24.811  1.00  0.00     0.076 A 
ATOM     96  C   UNL A   1      35.551  23.009  24.374  1.00  0.00     0.014 A 
ATOM     97  N   UNL A   1      34.035  19.721  25.016  1.00  0.00    -0.236 NA
ATOM     98  C   UNL A   1      36.266  20.394  24.911  1.00  0.00     0.029 A 
ATOM     99  C   UNL A   1      36.903  22.673  24.481  1.00  0.00     0.001 A 
ATOM    100  C   UNL A   1      37.260  21.360  24.751  1.00  0.00     0.002 A 
ENDBRANCH  89  91
ENDBRANCH  77  89
ENDBRANCH  75  77
ENDBRANCH  74  75
ENDBRANCH  73  74
ENDBRANCH  72  73
ENDBRANCH  71  72
ENDBRANCH  70  71
ENDBRANCH   1  70
TORSDOF 24
ENDMDL
MODEL 3
REMARK VINA RESULT:      -9.2      6.593     13.249
REMARK SMILES O=C(OCCOCCOCCOC(=O)[C@@H](Cc1c[nH]c2ccccc12)Nc1ncnc2ccccc12)c1ccc(-c2c3nc(c(-c4ccc(S(=O)(=O)[O-])cc4)c4ccc([nH]4)c(-c4ccc(S(=O)(=O)[O-])cc4)c4nc(c(-c5ccc(S(=O)(=O)[O-])cc5)c5ccc2[nH]5)C=C4)C=C3)cc1
REMARK SMILES IDX 7 1 6 2 5 3 4 4 3 5 2 6 1 7 37 8 38 9 96 10 39 11 95 12
REMARK SMILES IDX 40 13 41 14 42 15 89 16 43 17 94 18 88 19 90 20 44 21 93 22
REMARK SMILES IDX 87 23 86 24 45 26 75 27 56 28 74 29 57 30 60 31 73 32 91 33
REMARK SMILES IDX 58 34 59 35 72 37 92 38 61 39 46 40 47 41 55 42 48 43 54 44
REMARK SMILES IDX 49 45 50 46 51 47 52 48 53 49 76 50 77 51 85 52 78 53 84 54
REMARK SMILES IDX 79 55 80 56 81 57 82 58 83 59 62 60 63 61 71 62 64 63 70 64
REMARK SMILES IDX 65 65 66 66 67 67 68 68 69 69 8 70 9 71 10 72 11 73 12 74
REMARK SMILES IDX 13 75 14 76 15 77 16 78 17 79 18 80 25 81 19 82 20 83 24 84
REMARK SMILES IDX 21 86 23 87 22 88 26 89 27 91 28 92 36 93 29 94 31 95 35 96
REMARK SMILES IDX 30 97 32 98 34 99 33 100
REMARK H PARENT 90 25 60 36 19 85 26 90
REMARK Flexibility Score: inf
ROOT
ATOM      1  C   UNL A   1      43.390  24.493  26.596  1.00  0.00     0.188 C 
ENDROOT
BRANCH   1   2
ATOM      2  O   UNL A   1      44.751  24.162  26.891  1.00  0.00    -0.376 OA
BRANCH   2   3
ATOM      3  C   UNL A   1      45.573  24.063  25.722  1.00  0.00     0.202 C 
BRANCH   3   4
ATOM      4  C   UNL A   1      46.549  25.234  25.557  1.00  0.00     0.261 C 
BRANCH   4   5
ATOM      5  O   UNL A   1      45.933  26.327  24.835  1.00  0.00    -0.460 OA
BRANCH   5   6
ATOM      6  C   UNL A   1      46.398  27.605  24.773  1.00  0.00     0.338 C 
ATOM      7  O   UNL A   1      47.263  27.913  23.959  1.00  0.00    -0.246 OA
BRANCH   6   8
ATOM      8  C   UNL A   1      45.883  28.641  25.710  1.00  0.00     0.060 A 
ATOM      9  C   UNL A   1      46.713  29.634  26.211  1.00  0.00     0.016 A 
ATOM     10  C   UNL A   1      44.532  28.656  26.077  1.00  0.00     0.016 A 
ATOM     11  C   UNL A   1      46.266  30.478  27.224  1.00  0.00     0.010 A 
ATOM     12  C   UNL A   1      44.058  29.582  27.026  1.00  0.00     0.010 A 
ATOM     13  C   UNL A   1      44.945  30.462  27.668  1.00  0.00    -0.014 A 
BRANCH  13  14
ATOM     14  C   UNL A   1      44.600  31.221  28.911  1.00  0.00     0.031 A 
ATOM     15  C   UNL A   1      44.257  32.685  28.796  1.00  0.00     0.074 A 
ATOM     16  C   UNL A   1      44.402  30.610  30.101  1.00  0.00     0.049 A 
ATOM     17  N   UNL A   1      44.053  33.565  29.741  1.00  0.00    -0.248 NA
ATOM     18  C   UNL A   1      44.141  33.234  27.436  1.00  0.00     0.031 C 
ATOM     19  C   UNL A   1      44.548  29.177  30.353  1.00  0.00     0.029 A 
ATOM     20  N   UNL A   1      43.948  31.102  31.302  1.00  0.00    -0.354 N 
ATOM     21  C   UNL A   1      43.916  34.787  29.094  1.00  0.00     0.074 A 
ATOM     22  C   UNL A   1      44.003  34.529  27.675  1.00  0.00     0.031 C 
ATOM     23  C   UNL A   1      44.040  28.885  31.562  1.00  0.00     0.029 A 
ATOM     24  C   UNL A   1      43.666  30.125  32.234  1.00  0.00     0.049 A 
ATOM     25  H   UNL A   1      43.834  32.063  31.481  1.00  0.00     0.167 HD
ATOM     26  C   UNL A   1      43.773  36.018  29.640  1.00  0.00     0.031 A 
ATOM     27  C   UNL A   1      43.183  30.223  33.491  1.00  0.00     0.031 A 
ATOM     28  C   UNL A   1      43.598  36.254  31.046  1.00  0.00     0.049 A 
ATOM     29  C   UNL A   1      43.003  31.598  34.086  1.00  0.00     0.074 A 
ATOM     30  C   UNL A   1      43.540  37.459  31.723  1.00  0.00     0.029 A 
ATOM     31  N   UNL A   1      43.406  35.255  31.987  1.00  0.00    -0.354 N 
ATOM     32  N   UNL A   1      43.086  32.770  33.501  1.00  0.00    -0.248 NA
ATOM     33  C   UNL A   1      42.725  31.664  35.529  1.00  0.00     0.031 C 
ATOM     34  C   UNL A   1      43.334  37.185  33.081  1.00  0.00     0.029 A 
ATOM     35  C   UNL A   1      43.221  35.813  33.238  1.00  0.00     0.049 A 
ATOM     36  H   UNL A   1      43.403  34.289  31.792  1.00  0.00     0.167 HD
ATOM     37  C   UNL A   1      42.893  33.709  34.509  1.00  0.00     0.074 A 
ATOM     38  C   UNL A   1      42.633  32.972  35.727  1.00  0.00     0.031 C 
ATOM     39  C   UNL A   1      42.957  35.063  34.438  1.00  0.00     0.031 A 
BRANCH  26  40
ATOM     40  C   UNL A   1      43.943  37.189  28.714  1.00  0.00    -0.014 A 
ATOM     41  C   UNL A   1      45.203  37.704  28.368  1.00  0.00     0.010 A 
ATOM     42  C   UNL A   1      42.784  37.818  28.223  1.00  0.00     0.010 A 
ATOM     43  C   UNL A   1      45.297  38.867  27.596  1.00  0.00     0.020 A 
ATOM     44  C   UNL A   1      42.874  38.963  27.430  1.00  0.00     0.020 A 
ATOM     45  C   UNL A   1      44.131  39.497  27.145  1.00  0.00     0.054 A 
BRANCH  45  46
ATOM     46  S   UNL A   1      44.271  41.026  26.179  1.00  0.00     0.124 S 
ATOM     47  O   UNL A   1      42.908  41.187  25.677  1.00  0.00    -0.237 OA
ATOM     48  O   UNL A   1      44.691  42.002  27.181  1.00  0.00    -0.237 OA
ATOM     49  O   UNL A   1      45.275  40.705  25.168  1.00  0.00    -0.744 OA
ENDBRANCH  45  46
ENDBRANCH  26  40
BRANCH  27  50
ATOM     50  C   UNL A   1      42.897  29.008  34.313  1.00  0.00    -0.014 A 
ATOM     51  C   UNL A   1      43.717  28.685  35.412  1.00  0.00     0.010 A 
ATOM     52  C   UNL A   1      41.841  28.140  33.983  1.00  0.00     0.010 A 
ATOM     53  C   UNL A   1      43.499  27.513  36.147  1.00  0.00     0.020 A 
ATOM     54  C   UNL A   1      41.595  26.988  34.737  1.00  0.00     0.020 A 
ATOM     55  C   UNL A   1      42.438  26.672  35.803  1.00  0.00     0.054 A 
BRANCH  55  56
ATOM     56  S   UNL A   1      42.150  25.171  36.783  1.00  0.00     0.124 S 
ATOM     57  O   UNL A   1      41.306  25.674  37.863  1.00  0.00    -0.237 OA
ATOM     58  O   UNL A   1      41.492  24.287  35.826  1.00  0.00    -0.237 OA
ATOM     59  O   UNL A   1      43.495  24.760  37.178  1.00  0.00    -0.744 OA
ENDBRANCH  55  56
ENDBRANCH  27  50
BRANCH  39  60
ATOM     60  C   UNL A   1      42.737  35.834  35.710  1.00  0.00    -0.014 A 
ATOM     61  C   UNL A   1      41.449  35.967  36.258  1.00  0.00     0.010 A 
ATOM     62  C   UNL A   1      43.838  36.377  36.396  1.00  0.00     0.010 A 
ATOM     63  C   UNL A   1      41.263  36.656  37.460  1.00  0.00     0.020 A 
ATOM     64  C   UNL A   1      43.657  37.047  37.608  1.00  0.00     0.020 A 
ATOM     65  C   UNL A   1      42.368  37.193  38.126  1.00  0.00     0.054 A 
BRANCH  65  66
ATOM     66  S   UNL A   1      42.109  38.043  39.708  1.00  0.00     0.124 S 
ATOM     67  O   UNL A   1      42.370  36.976  40.671  1.00  0.00    -0.237 OA
ATOM     68  O   UNL A   1      43.105  39.111  39.668  1.00  0.00    -0.237 OA
ATOM     69  O   UNL A   1      40.721  38.493  39.634  1.00  0.00    -0.744 OA
ENDBRANCH  65  66
ENDBRANCH  39  60
ENDBRANCH  13  14
ENDBRANCH   6   8
ENDBRANCH   5   6
ENDBRANCH   4   5
ENDBRANCH   3   4
ENDBRANCH   2   3
ENDBRANCH   1   2
BRANCH   1  70
ATOM     70  C   UNL A   1      42.497  24.386  27.838  1.00  0.00     0.188 C 
BRANCH  70  71
ATOM     71  O   UNL A   1      41.490  25.398  27.933  1.00  0.00    -0.376 OA
BRANCH  71  72
ATOM     72  C   UNL A   1      41.619  26.528  27.060  1.00  0.00     0.202 C 
BRANCH  72  73
ATOM     73  C   UNL A   1      40.811  27.758  27.484  1.00  0.00     0.261 C 
BRANCH  73  74
ATOM     74  O   UNL A   1      40.044  27.444  28.654  1.00  0.00    -0.462 OA
BRANCH  74  75
ATOM     75  C   UNL A   1      40.480  27.977  29.832  1.00  0.00     0.329 C 
ATOM     76  O   UNL A   1      41.438  27.547  30.464  1.00  0.00    -0.250 OA
BRANCH  75  77
ATOM     77  C   UNL A   1      39.695  29.258  30.172  1.00  0.00     0.195 C 
BRANCH  77  78
ATOM     78  C   UNL A   1      38.197  28.979  30.341  1.00  0.00     0.074 C 
BRANCH  78  79
ATOM     79  C   UNL A   1      37.289  30.077  30.828  1.00  0.00    -0.020 A 
ATOM     80  C   UNL A   1      36.616  30.137  32.031  1.00  0.00     0.087 A 
ATOM     81  C   UNL A   1      37.082  31.354  30.190  1.00  0.00     0.003 A 
ATOM     82  N   UNL A   1      36.056  31.381  32.162  1.00  0.00    -0.361 N 
ATOM     83  C   UNL A   1      36.366  32.160  31.073  1.00  0.00     0.046 A 
ATOM     84  C   UNL A   1      37.506  31.932  28.972  1.00  0.00     0.010 A 
ATOM     85  H   UNL A   1      35.511  31.676  32.927  1.00  0.00     0.166 HD
ATOM     86  C   UNL A   1      36.098  33.512  30.823  1.00  0.00     0.026 A 
ATOM     87  C   UNL A   1      37.276  33.289  28.715  1.00  0.00     0.001 A 
ATOM     88  C   UNL A   1      36.586  34.068  29.637  1.00  0.00     0.002 A 
ENDBRANCH  78  79
ENDBRANCH  77  78
BRANCH  77  89
ATOM     89  N   UNL A   1      40.240  29.946  31.356  1.00  0.00    -0.356 N 
ATOM     90  H   UNL A   1      40.616  29.418  32.098  1.00  0.00     0.163 HD
BRANCH  89  91
ATOM     91  C   UNL A   1      40.228  31.329  31.436  1.00  0.00     0.137 A 
ATOM     92  N   UNL A   1      40.759  31.915  30.354  1.00  0.00    -0.219 NA
ATOM     93  C   UNL A   1      39.770  32.068  32.542  1.00  0.00     0.043 A 
ATOM     94  C   UNL A   1      40.811  33.247  30.353  1.00  0.00     0.224 A 
ATOM     95  C   UNL A   1      39.886  33.463  32.414  1.00  0.00     0.076 A 
ATOM     96  C   UNL A   1      39.277  31.533  33.761  1.00  0.00     0.014 A 
ATOM     97  N   UNL A   1      40.374  34.058  31.323  1.00  0.00    -0.236 NA
ATOM     98  C   UNL A   1      39.505  34.272  33.477  1.00  0.00     0.029 A 
ATOM     99  C   UNL A   1      38.903  32.367  34.817  1.00  0.00     0.001 A 
ATOM    100  C   UNL A   1      39.019  33.743  34.673  1.00  0.00     0.002 A 
ENDBRANCH  89  91
ENDBRANCH  77  89
ENDBRANCH  75  77
ENDBRANCH  74  75
ENDBRANCH  73  74
ENDBRANCH  72  73
ENDBRANCH  71  72
ENDBRANCH  70  71
ENDBRANCH   1  70
TORSDOF 24
ENDMDL
