MODEL 1
REMARK VINA RESULT:      -8.3      0.000      0.000
REMARK SMILES C[C@@H](C(=O)OCCOCCOCCOC(=O)c1ccc(-c2c3nc(c(-c4ccc(S(=O)(=O)[O-])cc4)c4ccc([nH]4)c(-c4ccc(S(=O)(=O)[O-])cc4)c4nc(c(-c5ccc(S(=O)(=O)[O-])cc5)c5ccc2[nH]5)C=C4)C=C3)cc1)c1ccc(C[C@H]2CCC[C@@H]2O)cc1Br
REMARK SMILES IDX 9 1 8 2 7 3 6 4 5 5 3 6 4 7 2 8 1 9 77 10 78 11 89 12 79 13
REMARK SMILES IDX 88 14 90 15 80 16 81 17 82 18 83 19 86 20 84 21 85 22 87 23
REMARK SMILES IDX 10 25 11 26 12 27 13 28 14 29 15 30 16 31 17 32 18 33 76 34
REMARK SMILES IDX 19 35 75 36 20 37 21 38 22 39 69 40 23 41 74 42 68 43 70 44
REMARK SMILES IDX 24 45 73 46 67 47 66 48 25 50 55 51 36 52 54 53 37 54 40 55
REMARK SMILES IDX 53 56 71 57 38 58 39 59 52 61 72 62 41 63 26 64 27 65 35 66
REMARK SMILES IDX 28 67 34 68 29 69 30 70 31 71 32 72 33 73 56 74 57 75 65 76
REMARK SMILES IDX 58 77 64 78 59 79 60 80 61 81 62 82 63 83 42 84 43 85 51 86
REMARK SMILES IDX 44 87 50 88 45 89 46 90 47 91 48 92 49 93
REMARK H PARENT 87 24 70 49 40 60
REMARK Flexibility Score: inf
ROOT
ATOM      1  C   UNL A   1      42.168  21.432  27.347  1.00  0.00     0.188 C 
ENDROOT
BRANCH   1   2
ATOM      2  O   UNL A   1      40.754  21.331  27.414  1.00  0.00    -0.376 OA
BRANCH   2   3
ATOM      3  C   UNL A   1      39.994  21.215  26.224  1.00  0.00     0.202 C 
BRANCH   3   4
ATOM      4  C   UNL A   1      38.668  21.965  26.111  1.00  0.00     0.261 C 
BRANCH   4   5
ATOM      5  O   UNL A   1      38.080  21.879  24.810  1.00  0.00    -0.463 OA
BRANCH   5   6
ATOM      6  C   UNL A   1      36.831  21.338  24.784  1.00  0.00     0.313 C 
ATOM      7  O   UNL A   1      36.536  20.261  25.292  1.00  0.00    -0.252 OA
BRANCH   6   8
ATOM      8  C   UNL A   1      35.849  22.183  23.996  1.00  0.00     0.127 C 
ATOM      9  C   UNL A   1      36.612  23.201  23.121  1.00  0.00     0.025 C 
BRANCH   8  10
ATOM     10  C   UNL A   1      34.634  22.814  24.686  1.00  0.00    -0.020 A 
ATOM     11  C   UNL A   1      34.832  24.142  25.130  1.00  0.00     0.006 A 
ATOM     12  C   UNL A   1      33.344  22.291  24.882  1.00  0.00     0.022 A 
ATOM     13  C   UNL A   1      33.828  24.897  25.748  1.00  0.00     0.004 A 
ATOM     14  C   UNL A   1      32.354  23.037  25.568  1.00  0.00     0.019 A 
ATOM     15  Br  UNL A   1      32.718  20.640  24.179  1.00  0.00    -0.050 Br
ATOM     16  C   UNL A   1      32.581  24.346  26.018  1.00  0.00    -0.047 A 
BRANCH  16  17
ATOM     17  C   UNL A   1      31.450  25.176  26.597  1.00  0.00     0.041 C 
BRANCH  17  18
ATOM     18  C   UNL A   1      30.768  26.273  25.749  1.00  0.00     0.022 C 
ATOM     19  C   UNL A   1      31.405  27.661  25.871  1.00  0.00     0.007 C 
ATOM     20  C   UNL A   1      30.633  26.033  24.241  1.00  0.00     0.117 C 
ATOM     21  C   UNL A   1      31.513  28.214  24.450  1.00  0.00     0.003 C 
ATOM     22  C   UNL A   1      30.476  27.433  23.666  1.00  0.00     0.032 C 
BRANCH  20  23
ATOM     23  O   UNL A   1      29.524  25.219  23.907  1.00  0.00    -0.393 OA
ATOM     24  H   UNL A   1      29.840  24.371  23.556  1.00  0.00     0.210 HD
ENDBRANCH  20  23
ENDBRANCH  17  18
ENDBRANCH  16  17
ENDBRANCH   8  10
ENDBRANCH   6   8
ENDBRANCH   5   6
ENDBRANCH   4   5
ENDBRANCH   3   4
ENDBRANCH   2   3
ENDBRANCH   1   2
BRANCH   1  25
ATOM     25  C   UNL A   1      42.916  22.636  27.952  1.00  0.00     0.188 C 
BRANCH  25  26
ATOM     26  O   UNL A   1      42.654  23.043  29.285  1.00  0.00    -0.376 OA
BRANCH  26  27
ATOM     27  C   UNL A   1      43.525  23.999  29.877  1.00  0.00     0.202 C 
BRANCH  27  28
ATOM     28  C   UNL A   1      44.358  23.535  31.072  1.00  0.00     0.261 C 
BRANCH  28  29
ATOM     29  O   UNL A   1      43.562  23.451  32.268  1.00  0.00    -0.460 OA
BRANCH  29  30
ATOM     30  C   UNL A   1      44.196  23.830  33.403  1.00  0.00     0.338 C 
ATOM     31  O   UNL A   1      45.183  23.322  33.902  1.00  0.00    -0.246 OA
BRANCH  30  32
ATOM     32  C   UNL A   1      43.627  25.102  33.887  1.00  0.00     0.060 A 
ATOM     33  C   UNL A   1      44.053  26.278  33.266  1.00  0.00     0.016 A 
ATOM     34  C   UNL A   1      42.769  25.154  34.988  1.00  0.00     0.016 A 
ATOM     35  C   UNL A   1      43.650  27.512  33.770  1.00  0.00     0.010 A 
ATOM     36  C   UNL A   1      42.382  26.402  35.501  1.00  0.00     0.010 A 
ATOM     37  C   UNL A   1      42.844  27.591  34.914  1.00  0.00    -0.014 A 
BRANCH  37  38
ATOM     38  C   UNL A   1      42.647  28.902  35.590  1.00  0.00     0.031 A 
ATOM     39  C   UNL A   1      43.639  29.334  36.641  1.00  0.00     0.074 A 
ATOM     40  C   UNL A   1      41.647  29.736  35.250  1.00  0.00     0.049 A 
ATOM     41  N   UNL A   1      43.658  30.423  37.365  1.00  0.00    -0.248 NA
ATOM     42  C   UNL A   1      44.759  28.416  36.899  1.00  0.00     0.031 C 
ATOM     43  C   UNL A   1      40.673  29.505  34.185  1.00  0.00     0.029 A 
ATOM     44  N   UNL A   1      41.312  30.974  35.748  1.00  0.00    -0.354 N 
ATOM     45  C   UNL A   1      44.775  30.312  38.185  1.00  0.00     0.074 A 
ATOM     46  C   UNL A   1      45.413  29.053  37.859  1.00  0.00     0.031 C 
ATOM     47  C   UNL A   1      39.866  30.578  34.094  1.00  0.00     0.029 A 
ATOM     48  C   UNL A   1      40.234  31.553  35.121  1.00  0.00     0.049 A 
ATOM     49  H   UNL A   1      41.800  31.405  36.486  1.00  0.00     0.167 HD
ATOM     50  C   UNL A   1      45.223  31.162  39.140  1.00  0.00     0.031 A 
ATOM     51  C   UNL A   1      39.607  32.724  35.357  1.00  0.00     0.031 A 
ATOM     52  C   UNL A   1      44.589  32.403  39.494  1.00  0.00     0.049 A 
ATOM     53  C   UNL A   1      40.074  33.617  36.482  1.00  0.00     0.074 A 
ATOM     54  C   UNL A   1      44.962  33.309  40.473  1.00  0.00     0.029 A 
ATOM     55  N   UNL A   1      43.448  32.911  38.895  1.00  0.00    -0.354 N 
ATOM     56  N   UNL A   1      41.118  33.484  37.264  1.00  0.00    -0.248 NA
ATOM     57  C   UNL A   1      39.264  34.813  36.762  1.00  0.00     0.031 C 
ATOM     58  C   UNL A   1      44.017  34.339  40.500  1.00  0.00     0.029 A 
ATOM     59  C   UNL A   1      43.087  34.103  39.501  1.00  0.00     0.049 A 
ATOM     60  H   UNL A   1      42.967  32.488  38.148  1.00  0.00     0.167 HD
ATOM     61  C   UNL A   1      41.095  34.584  38.119  1.00  0.00     0.074 A 
ATOM     62  C   UNL A   1      39.949  35.384  37.745  1.00  0.00     0.031 C 
ATOM     63  C   UNL A   1      41.944  34.898  39.128  1.00  0.00     0.031 A 
BRANCH  50  64
ATOM     64  C   UNL A   1      46.429  30.733  39.928  1.00  0.00    -0.014 A 
ATOM     65  C   UNL A   1      47.727  31.112  39.546  1.00  0.00     0.010 A 
ATOM     66  C   UNL A   1      46.250  29.949  41.082  1.00  0.00     0.010 A 
ATOM     67  C   UNL A   1      48.832  30.679  40.287  1.00  0.00     0.020 A 
ATOM     68  C   UNL A   1      47.349  29.534  41.837  1.00  0.00     0.020 A 
ATOM     69  C   UNL A   1      48.635  29.886  41.422  1.00  0.00     0.054 A 
BRANCH  69  70
ATOM     70  S   UNL A   1      50.082  29.339  42.369  1.00  0.00     0.124 S 
ATOM     71  O   UNL A   1      50.510  28.165  41.611  1.00  0.00    -0.237 OA
ATOM     72  O   UNL A   1      50.973  30.494  42.292  1.00  0.00    -0.237 OA
ATOM     73  O   UNL A   1      49.543  29.059  43.696  1.00  0.00    -0.744 OA
ENDBRANCH  69  70
ENDBRANCH  50  64
BRANCH  51  74
ATOM     74  C   UNL A   1      38.431  33.125  34.535  1.00  0.00    -0.014 A 
ATOM     75  C   UNL A   1      38.572  34.071  33.504  1.00  0.00     0.010 A 
ATOM     76  C   UNL A   1      37.159  32.590  34.803  1.00  0.00     0.010 A 
ATOM     77  C   UNL A   1      37.459  34.486  32.767  1.00  0.00     0.020 A 
ATOM     78  C   UNL A   1      36.048  32.982  34.051  1.00  0.00     0.020 A 
ATOM     79  C   UNL A   1      36.203  33.939  33.045  1.00  0.00     0.054 A 
BRANCH  79  80
ATOM     80  S   UNL A   1      34.777  34.456  32.050  1.00  0.00     0.124 S 
ATOM     81  O   UNL A   1      35.220  34.133  30.698  1.00  0.00    -0.237 OA
ATOM     82  O   UNL A   1      33.701  33.623  32.581  1.00  0.00    -0.237 OA
ATOM     83  O   UNL A   1      34.655  35.882  32.348  1.00  0.00    -0.744 OA
ENDBRANCH  79  80
ENDBRANCH  51  74
BRANCH  63  84
ATOM     84  C   UNL A   1      41.691  36.168  39.898  1.00  0.00    -0.014 A 
ATOM     85  C   UNL A   1      42.147  37.411  39.420  1.00  0.00     0.010 A 
ATOM     86  C   UNL A   1      40.927  36.131  41.079  1.00  0.00     0.010 A 
ATOM     87  C   UNL A   1      41.863  38.587  40.123  1.00  0.00     0.020 A 
ATOM     88  C   UNL A   1      40.621  37.306  41.771  1.00  0.00     0.020 A 
ATOM     89  C   UNL A   1      41.103  38.527  41.294  1.00  0.00     0.054 A 
BRANCH  89  90
ATOM     90  S   UNL A   1      40.703  40.072  42.161  1.00  0.00     0.124 S 
ATOM     91  O   UNL A   1      41.078  41.080  41.173  1.00  0.00    -0.237 OA
ATOM     92  O   UNL A   1      39.270  39.940  42.411  1.00  0.00    -0.237 OA
ATOM     93  O   UNL A   1      41.544  40.026  43.354  1.00  0.00    -0.744 OA
ENDBRANCH  89  90
ENDBRANCH  63  84
ENDBRANCH  37  38
ENDBRANCH  30  32
ENDBRANCH  29  30
ENDBRANCH  28  29
ENDBRANCH  27  28
ENDBRANCH  26  27
ENDBRANCH  25  26
ENDBRANCH   1  25
TORSDOF 24
ENDMDL
MODEL 2
REMARK VINA RESULT:      -8.3      5.814     12.605
REMARK SMILES C[C@@H](C(=O)OCCOCCOCCOC(=O)c1ccc(-c2c3nc(c(-c4ccc(S(=O)(=O)[O-])cc4)c4ccc([nH]4)c(-c4ccc(S(=O)(=O)[O-])cc4)c4nc(c(-c5ccc(S(=O)(=O)[O-])cc5)c5ccc2[nH]5)C=C4)C=C3)cc1)c1ccc(C[C@H]2CCC[C@@H]2O)cc1Br
REMARK SMILES IDX 9 1 8 2 7 3 6 4 5 5 3 6 4 7 2 8 1 9 77 10 78 11 89 12 79 13
REMARK SMILES IDX 88 14 90 15 80 16 81 17 82 18 83 19 86 20 84 21 85 22 87 23
REMARK SMILES IDX 10 25 11 26 12 27 13 28 14 29 15 30 16 31 17 32 18 33 76 34
REMARK SMILES IDX 19 35 75 36 20 37 21 38 22 39 69 40 23 41 74 42 68 43 70 44
REMARK SMILES IDX 24 45 73 46 67 47 66 48 25 50 55 51 36 52 54 53 37 54 40 55
REMARK SMILES IDX 53 56 71 57 38 58 39 59 52 61 72 62 41 63 26 64 27 65 35 66
REMARK SMILES IDX 28 67 34 68 29 69 30 70 31 71 32 72 33 73 56 74 57 75 65 76
REMARK SMILES IDX 58 77 64 78 59 79 60 80 61 81 62 82 63 83 42 84 43 85 51 86
REMARK SMILES IDX 44 87 50 88 45 89 46 90 47 91 48 92 49 93
REMARK H PARENT 87 24 70 49 40 60
REMARK Flexibility Score: inf
ROOT
ATOM      1  C   UNL A   1      35.034  33.563  30.336  1.00  0.00     0.188 C 
ENDROOT
BRANCH   1   2
ATOM      2  O   UNL A   1      35.808  33.645  29.149  1.00  0.00    -0.376 OA
BRANCH   2   3
ATOM      3  C   UNL A   1      35.499  32.818  28.042  1.00  0.00     0.202 C 
BRANCH   3   4
ATOM      4  C   UNL A   1      35.216  31.335  28.277  1.00  0.00     0.261 C 
BRANCH   4   5
ATOM      5  O   UNL A   1      33.957  30.910  27.746  1.00  0.00    -0.463 OA
BRANCH   5   6
ATOM      6  C   UNL A   1      34.007  29.765  27.010  1.00  0.00     0.313 C 
ATOM      7  O   UNL A   1      34.718  28.803  27.279  1.00  0.00    -0.252 OA
BRANCH   6   8
ATOM      8  C   UNL A   1      33.133  29.834  25.773  1.00  0.00     0.127 C 
ATOM      9  C   UNL A   1      31.770  30.469  26.123  1.00  0.00     0.025 C 
BRANCH   8  10
ATOM     10  C   UNL A   1      32.980  28.614  24.856  1.00  0.00    -0.020 A 
ATOM     11  C   UNL A   1      33.707  28.693  23.645  1.00  0.00     0.006 A 
ATOM     12  C   UNL A   1      32.282  27.414  25.071  1.00  0.00     0.022 A 
ATOM     13  C   UNL A   1      33.724  27.663  22.698  1.00  0.00     0.004 A 
ATOM     14  C   UNL A   1      32.250  26.403  24.078  1.00  0.00     0.019 A 
ATOM     15  Br  UNL A   1      31.424  26.927  26.696  1.00  0.00    -0.050 Br
ATOM     16  C   UNL A   1      32.962  26.514  22.875  1.00  0.00    -0.047 A 
BRANCH  16  17
ATOM     17  C   UNL A   1      33.043  25.346  21.910  1.00  0.00     0.041 C 
BRANCH  17  18
ATOM     18  C   UNL A   1      33.404  23.932  22.417  1.00  0.00     0.022 C 
ATOM     19  C   UNL A   1      34.682  23.864  23.260  1.00  0.00     0.007 C 
ATOM     20  C   UNL A   1      32.352  23.175  23.235  1.00  0.00     0.117 C 
ATOM     21  C   UNL A   1      34.358  22.986  24.468  1.00  0.00     0.003 C 
ATOM     22  C   UNL A   1      33.169  22.157  24.019  1.00  0.00     0.032 C 
BRANCH  20  23
ATOM     23  O   UNL A   1      31.380  22.534  22.431  1.00  0.00    -0.393 OA
ATOM     24  H   UNL A   1      31.053  23.156  21.762  1.00  0.00     0.210 HD
ENDBRANCH  20  23
ENDBRANCH  17  18
ENDBRANCH  16  17
ENDBRANCH   8  10
ENDBRANCH   6   8
ENDBRANCH   5   6
ENDBRANCH   4   5
ENDBRANCH   3   4
ENDBRANCH   2   3
ENDBRANCH   1   2
BRANCH   1  25
ATOM     25  C   UNL A   1      35.590  32.901  31.612  1.00  0.00     0.188 C 
BRANCH  25  26
ATOM     26  O   UNL A   1      36.288  33.675  32.573  1.00  0.00    -0.376 OA
BRANCH  26  27
ATOM     27  C   UNL A   1      35.529  34.358  33.564  1.00  0.00     0.202 C 
BRANCH  27  28
ATOM     28  C   UNL A   1      35.750  33.943  35.018  1.00  0.00     0.261 C 
BRANCH  28  29
ATOM     29  O   UNL A   1      37.150  33.906  35.349  1.00  0.00    -0.460 OA
BRANCH  29  30
ATOM     30  C   UNL A   1      37.535  32.837  36.086  1.00  0.00     0.338 C 
ATOM     31  O   UNL A   1      37.011  32.414  37.099  1.00  0.00    -0.246 OA
BRANCH  30  32
ATOM     32  C   UNL A   1      38.605  32.108  35.380  1.00  0.00     0.060 A 
ATOM     33  C   UNL A   1      39.914  32.281  35.837  1.00  0.00     0.016 A 
ATOM     34  C   UNL A   1      38.350  31.349  34.236  1.00  0.00     0.016 A 
ATOM     35  C   UNL A   1      40.974  31.724  35.126  1.00  0.00     0.010 A 
ATOM     36  C   UNL A   1      39.425  30.806  33.515  1.00  0.00     0.010 A 
ATOM     37  C   UNL A   1      40.748  31.015  33.939  1.00  0.00    -0.014 A 
BRANCH  37  38
ATOM     38  C   UNL A   1      41.894  30.661  33.059  1.00  0.00     0.031 A 
ATOM     39  C   UNL A   1      42.398  31.687  32.075  1.00  0.00     0.074 A 
ATOM     40  C   UNL A   1      42.531  29.479  33.158  1.00  0.00     0.049 A 
ATOM     41  N   UNL A   1      43.371  31.595  31.204  1.00  0.00    -0.248 NA
ATOM     42  C   UNL A   1      41.717  32.991  32.083  1.00  0.00     0.031 C 
ATOM     43  C   UNL A   1      42.227  28.430  34.128  1.00  0.00     0.029 A 
ATOM     44  N   UNL A   1      43.599  28.982  32.447  1.00  0.00    -0.354 N 
ATOM     45  C   UNL A   1      43.402  32.816  30.542  1.00  0.00     0.074 A 
ATOM     46  C   UNL A   1      42.357  33.636  31.119  1.00  0.00     0.031 C 
ATOM     47  C   UNL A   1      43.107  27.423  33.968  1.00  0.00     0.029 A 
ATOM     48  C   UNL A   1      44.006  27.733  32.856  1.00  0.00     0.049 A 
ATOM     49  H   UNL A   1      44.032  29.475  31.714  1.00  0.00     0.167 HD
ATOM     50  C   UNL A   1      44.207  33.218  29.528  1.00  0.00     0.031 A 
ATOM     51  C   UNL A   1      44.979  26.929  32.381  1.00  0.00     0.031 A 
ATOM     52  C   UNL A   1      45.232  32.409  28.926  1.00  0.00     0.049 A 
ATOM     53  C   UNL A   1      45.807  27.365  31.196  1.00  0.00     0.074 A 
ATOM     54  C   UNL A   1      46.071  32.731  27.872  1.00  0.00     0.029 A 
ATOM     55  N   UNL A   1      45.552  31.118  29.311  1.00  0.00    -0.354 N 
ATOM     56  N   UNL A   1      45.807  28.514  30.565  1.00  0.00    -0.248 NA
ATOM     57  C   UNL A   1      46.760  26.383  30.653  1.00  0.00     0.031 C 
ATOM     58  C   UNL A   1      46.864  31.615  27.587  1.00  0.00     0.029 A 
ATOM     59  C   UNL A   1      46.557  30.619  28.498  1.00  0.00     0.049 A 
ATOM     60  H   UNL A   1      45.129  30.629  30.053  1.00  0.00     0.167 HD
ATOM     61  C   UNL A   1      46.765  28.396  29.561  1.00  0.00     0.074 A 
ATOM     62  C   UNL A   1      47.341  27.074  29.681  1.00  0.00     0.031 C 
ATOM     63  C   UNL A   1      47.128  29.301  28.619  1.00  0.00     0.031 A 
BRANCH  50  64
ATOM     64  C   UNL A   1      43.952  34.583  28.953  1.00  0.00    -0.014 A 
ATOM     65  C   UNL A   1      43.091  34.769  27.857  1.00  0.00     0.010 A 
ATOM     66  C   UNL A   1      44.577  35.700  29.536  1.00  0.00     0.010 A 
ATOM     67  C   UNL A   1      42.891  36.048  27.330  1.00  0.00     0.020 A 
ATOM     68  C   UNL A   1      44.361  36.982  29.027  1.00  0.00     0.020 A 
ATOM     69  C   UNL A   1      43.535  37.145  27.914  1.00  0.00     0.054 A 
BRANCH  69  70
ATOM     70  S   UNL A   1      43.257  38.795  27.215  1.00  0.00     0.124 S 
ATOM     71  O   UNL A   1      44.448  38.974  26.387  1.00  0.00    -0.237 OA
ATOM     72  O   UNL A   1      42.003  38.630  26.484  1.00  0.00    -0.237 OA
ATOM     73  O   UNL A   1      43.180  39.660  28.389  1.00  0.00    -0.744 OA
ENDBRANCH  69  70
ENDBRANCH  50  64
BRANCH  51  74
ATOM     74  C   UNL A   1      45.215  25.593  32.997  1.00  0.00    -0.014 A 
ATOM     75  C   UNL A   1      44.492  24.469  32.561  1.00  0.00     0.010 A 
ATOM     76  C   UNL A   1      46.136  25.448  34.049  1.00  0.00     0.010 A 
ATOM     77  C   UNL A   1      44.677  23.226  33.175  1.00  0.00     0.020 A 
ATOM     78  C   UNL A   1      46.343  24.202  34.648  1.00  0.00     0.020 A 
ATOM     79  C   UNL A   1      45.601  23.101  34.216  1.00  0.00     0.054 A 
BRANCH  79  80
ATOM     80  S   UNL A   1      45.860  21.472  34.972  1.00  0.00     0.124 S 
ATOM     81  O   UNL A   1      46.936  20.926  34.153  1.00  0.00    -0.237 OA
ATOM     82  O   UNL A   1      46.219  21.814  36.346  1.00  0.00    -0.237 OA
ATOM     83  O   UNL A   1      44.561  20.818  34.820  1.00  0.00    -0.744 OA
ENDBRANCH  79  80
ENDBRANCH  51  74
BRANCH  63  84
ATOM     84  C   UNL A   1      48.213  28.915  27.646  1.00  0.00    -0.014 A 
ATOM     85  C   UNL A   1      47.909  28.249  26.444  1.00  0.00     0.010 A 
ATOM     86  C   UNL A   1      49.547  29.282  27.903  1.00  0.00     0.010 A 
ATOM     87  C   UNL A   1      48.922  27.938  25.531  1.00  0.00     0.020 A 
ATOM     88  C   UNL A   1      50.558  28.995  26.982  1.00  0.00     0.020 A 
ATOM     89  C   UNL A   1      50.241  28.313  25.806  1.00  0.00     0.054 A 
BRANCH  89  90
ATOM     90  S   UNL A   1      51.530  27.945  24.582  1.00  0.00     0.124 S 
ATOM     91  O   UNL A   1      51.009  28.601  23.385  1.00  0.00    -0.237 OA
ATOM     92  O   UNL A   1      52.717  28.561  25.169  1.00  0.00    -0.237 OA
ATOM     93  O   UNL A   1      51.554  26.486  24.532  1.00  0.00    -0.744 OA
ENDBRANCH  89  90
ENDBRANCH  63  84
ENDBRANCH  37  38
ENDBRANCH  30  32
ENDBRANCH  29  30
ENDBRANCH  28  29
ENDBRANCH  27  28
ENDBRANCH  26  27
ENDBRANCH  25  26
ENDBRANCH   1  25
TORSDOF 24
ENDMDL
MODEL 3
REMARK VINA RESULT:      -8.3      6.926      8.464
REMARK SMILES C[C@@H](C(=O)OCCOCCOCCOC(=O)c1ccc(-c2c3nc(c(-c4ccc(S(=O)(=O)[O-])cc4)c4ccc([nH]4)c(-c4ccc(S(=O)(=O)[O-])cc4)c4nc(c(-c5ccc(S(=O)(=O)[O-])cc5)c5ccc2[nH]5)C=C4)C=C3)cc1)c1ccc(C[C@H]2CCC[C@@H]2O)cc1Br
REMARK SMILES IDX 9 1 8 2 7 3 6 4 5 5 3 6 4 7 2 8 1 9 77 10 78 11 89 12 79 13
REMARK SMILES IDX 88 14 90 15 80 16 81 17 82 18 83 19 86 20 84 21 85 22 87 23
REMARK SMILES IDX 10 25 11 26 12 27 13 28 14 29 15 30 16 31 17 32 18 33 76 34
REMARK SMILES IDX 19 35 75 36 20 37 21 38 22 39 69 40 23 41 74 42 68 43 70 44
REMARK SMILES IDX 24 45 73 46 67 47 66 48 25 50 55 51 36 52 54 53 37 54 40 55
REMARK SMILES IDX 53 56 71 57 38 58 39 59 52 61 72 62 41 63 26 64 27 65 35 66
REMARK SMILES IDX 28 67 34 68 29 69 30 70 31 71 32 72 33 73 56 74 57 75 65 76
REMARK SMILES IDX 58 77 64 78 59 79 60 80 61 81 62 82 63 83 42 84 43 85 51 86
REMARK SMILES IDX 44 87 50 88 45 89 46 90 47 91 48 92 49 93
REMARK H PARENT 87 24 70 49 40 60
REMARK Flexibility Score: inf
ROOT
ATOM      1  C   UNL A   1      42.943  20.229  26.507  1.00  0.00     0.188 C 
ENDROOT
BRANCH   1   2
ATOM      2  O   UNL A   1      41.776  20.905  26.947  1.00  0.00    -0.376 OA
BRANCH   2   3
ATOM      3  C   UNL A   1      40.566  20.776  26.222  1.00  0.00     0.202 C 
BRANCH   3   4
ATOM      4  C   UNL A   1      39.538  21.905  26.280  1.00  0.00     0.261 C 
BRANCH   4   5
ATOM      5  O   UNL A   1      38.355  21.631  25.524  1.00  0.00    -0.463 OA
BRANCH   5   6
ATOM      6  C   UNL A   1      37.381  22.577  25.627  1.00  0.00     0.313 C 
ATOM      7  O   UNL A   1      37.595  23.768  25.825  1.00  0.00    -0.252 OA
BRANCH   6   8
ATOM      8  C   UNL A   1      35.988  21.985  25.537  1.00  0.00     0.127 C 
ATOM      9  C   UNL A   1      36.062  20.537  25.004  1.00  0.00     0.025 C 
BRANCH   8  10
ATOM     10  C   UNL A   1      34.843  22.777  24.894  1.00  0.00    -0.020 A 
ATOM     11  C   UNL A   1      35.004  23.027  23.511  1.00  0.00     0.006 A 
ATOM     12  C   UNL A   1      33.640  23.232  25.460  1.00  0.00     0.022 A 
ATOM     13  C   UNL A   1      34.049  23.702  22.743  1.00  0.00     0.004 A 
ATOM     14  C   UNL A   1      32.709  23.972  24.691  1.00  0.00     0.019 A 
ATOM     15  Br  UNL A   1      33.044  22.833  27.221  1.00  0.00    -0.050 Br
ATOM     16  C   UNL A   1      32.901  24.226  23.325  1.00  0.00    -0.047 A 
BRANCH  16  17
ATOM     17  C   UNL A   1      31.808  24.873  22.494  1.00  0.00     0.041 C 
BRANCH  17  18
ATOM     18  C   UNL A   1      31.648  26.409  22.467  1.00  0.00     0.022 C 
ATOM     19  C   UNL A   1      30.644  26.964  23.483  1.00  0.00     0.007 C 
ATOM     20  C   UNL A   1      32.907  27.264  22.652  1.00  0.00     0.117 C 
ATOM     21  C   UNL A   1      31.310  28.175  24.134  1.00  0.00     0.003 C 
ATOM     22  C   UNL A   1      32.367  28.603  23.133  1.00  0.00     0.032 C 
BRANCH  20  23
ATOM     23  O   UNL A   1      33.653  27.416  21.459  1.00  0.00    -0.393 OA
ATOM     24  H   UNL A   1      33.514  26.643  20.890  1.00  0.00     0.210 HD
ENDBRANCH  20  23
ENDBRANCH  17  18
ENDBRANCH  16  17
ENDBRANCH   8  10
ENDBRANCH   6   8
ENDBRANCH   5   6
ENDBRANCH   4   5
ENDBRANCH   3   4
ENDBRANCH   2   3
ENDBRANCH   1   2
BRANCH   1  25
ATOM     25  C   UNL A   1      43.753  20.730  25.295  1.00  0.00     0.188 C 
BRANCH  25  26
ATOM     26  O   UNL A   1      43.375  21.923  24.627  1.00  0.00    -0.376 OA
BRANCH  26  27
ATOM     27  C   UNL A   1      44.389  22.874  24.327  1.00  0.00     0.202 C 
BRANCH  27  28
ATOM     28  C   UNL A   1      44.306  24.226  25.036  1.00  0.00     0.261 C 
BRANCH  28  29
ATOM     29  O   UNL A   1      42.945  24.675  25.157  1.00  0.00    -0.460 OA
BRANCH  29  30
ATOM     30  C   UNL A   1      42.567  25.021  26.410  1.00  0.00     0.338 C 
ATOM     31  O   UNL A   1      42.030  24.313  27.241  1.00  0.00    -0.246 OA
BRANCH  30  32
ATOM     32  C   UNL A   1      43.072  26.371  26.724  1.00  0.00     0.060 A 
ATOM     33  C   UNL A   1      43.894  26.509  27.844  1.00  0.00     0.016 A 
ATOM     34  C   UNL A   1      42.672  27.495  25.997  1.00  0.00     0.016 A 
ATOM     35  C   UNL A   1      44.288  27.779  28.261  1.00  0.00     0.010 A 
ATOM     36  C   UNL A   1      43.057  28.772  26.435  1.00  0.00     0.010 A 
ATOM     37  C   UNL A   1      43.844  28.925  27.588  1.00  0.00    -0.014 A 
BRANCH  37  38
ATOM     38  C   UNL A   1      44.050  30.267  28.197  1.00  0.00     0.031 A 
ATOM     39  C   UNL A   1      45.284  31.051  27.828  1.00  0.00     0.074 A 
ATOM     40  C   UNL A   1      43.139  30.825  29.017  1.00  0.00     0.049 A 
ATOM     41  N   UNL A   1      45.673  32.229  28.243  1.00  0.00    -0.248 NA
ATOM     42  C   UNL A   1      46.191  30.423  26.856  1.00  0.00     0.031 C 
ATOM     43  C   UNL A   1      41.853  30.235  29.384  1.00  0.00     0.029 A 
ATOM     44  N   UNL A   1      43.148  32.040  29.661  1.00  0.00    -0.354 N 
ATOM     45  C   UNL A   1      46.884  32.473  27.606  1.00  0.00     0.074 A 
ATOM     46  C   UNL A   1      47.157  31.324  26.767  1.00  0.00     0.031 C 
ATOM     47  C   UNL A   1      41.186  31.103  30.168  1.00  0.00     0.029 A 
ATOM     48  C   UNL A   1      42.014  32.288  30.398  1.00  0.00     0.049 A 
ATOM     49  H   UNL A   1      43.898  32.674  29.600  1.00  0.00     0.167 HD
ATOM     50  C   UNL A   1      47.710  33.541  27.719  1.00  0.00     0.031 A 
ATOM     51  C   UNL A   1      41.686  33.339  31.177  1.00  0.00     0.031 A 
ATOM     52  C   UNL A   1      47.467  34.678  28.565  1.00  0.00     0.049 A 
ATOM     53  C   UNL A   1      42.660  34.480  31.355  1.00  0.00     0.074 A 
ATOM     54  C   UNL A   1      48.270  35.790  28.762  1.00  0.00     0.029 A 
ATOM     55  N   UNL A   1      46.348  34.849  29.362  1.00  0.00    -0.354 N 
ATOM     56  N   UNL A   1      43.812  34.683  30.762  1.00  0.00    -0.248 NA
ATOM     57  C   UNL A   1      42.289  35.527  32.319  1.00  0.00     0.031 C 
ATOM     58  C   UNL A   1      47.660  36.608  29.717  1.00  0.00     0.029 A 
ATOM     59  C   UNL A   1      46.451  36.034  30.073  1.00  0.00     0.049 A 
ATOM     60  H   UNL A   1      45.590  34.223  29.414  1.00  0.00     0.167 HD
ATOM     61  C   UNL A   1      44.295  35.885  31.275  1.00  0.00     0.074 A 
ATOM     62  C   UNL A   1      43.303  36.376  32.207  1.00  0.00     0.031 C 
ATOM     63  C   UNL A   1      45.462  36.520  31.002  1.00  0.00     0.031 A 
BRANCH  50  64
ATOM     64  C   UNL A   1      49.004  33.490  26.957  1.00  0.00    -0.014 A 
ATOM     65  C   UNL A   1      50.084  32.704  27.398  1.00  0.00     0.010 A 
ATOM     66  C   UNL A   1      49.130  34.230  25.768  1.00  0.00     0.010 A 
ATOM     67  C   UNL A   1      51.283  32.693  26.679  1.00  0.00     0.020 A 
ATOM     68  C   UNL A   1      50.318  34.203  25.035  1.00  0.00     0.020 A 
ATOM     69  C   UNL A   1      51.395  33.449  25.507  1.00  0.00     0.054 A 
BRANCH  69  70
ATOM     70  S   UNL A   1      52.959  33.416  24.590  1.00  0.00     0.124 S 
ATOM     71  O   UNL A   1      52.514  33.705  23.228  1.00  0.00    -0.237 OA
ATOM     72  O   UNL A   1      53.734  34.473  25.235  1.00  0.00    -0.237 OA
ATOM     73  O   UNL A   1      53.459  32.061  24.807  1.00  0.00    -0.744 OA
ENDBRANCH  69  70
ENDBRANCH  50  64
BRANCH  51  74
ATOM     74  C   UNL A   1      40.381  33.363  31.895  1.00  0.00    -0.014 A 
ATOM     75  C   UNL A   1      40.283  32.882  33.213  1.00  0.00     0.010 A 
ATOM     76  C   UNL A   1      39.222  33.831  31.250  1.00  0.00     0.010 A 
ATOM     77  C   UNL A   1      39.048  32.856  33.868  1.00  0.00     0.020 A 
ATOM     78  C   UNL A   1      37.990  33.831  31.910  1.00  0.00     0.020 A 
ATOM     79  C   UNL A   1      37.909  33.330  33.212  1.00  0.00     0.054 A 
BRANCH  79  80
ATOM     80  S   UNL A   1      36.322  33.329  34.091  1.00  0.00     0.124 S 
ATOM     81  O   UNL A   1      35.506  32.469  33.241  1.00  0.00    -0.237 OA
ATOM     82  O   UNL A   1      36.682  32.776  35.394  1.00  0.00    -0.237 OA
ATOM     83  O   UNL A   1      35.942  34.741  34.107  1.00  0.00    -0.744 OA
ENDBRANCH  79  80
ENDBRANCH  51  74
BRANCH  63  84
ATOM     84  C   UNL A   1      45.735  37.828  31.699  1.00  0.00    -0.014 A 
ATOM     85  C   UNL A   1      45.292  39.048  31.155  1.00  0.00     0.010 A 
ATOM     86  C   UNL A   1      46.383  37.834  32.948  1.00  0.00     0.010 A 
ATOM     87  C   UNL A   1      45.513  40.249  31.837  1.00  0.00     0.020 A 
ATOM     88  C   UNL A   1      46.585  39.030  33.643  1.00  0.00     0.020 A 
ATOM     89  C   UNL A   1      46.159  40.233  33.076  1.00  0.00     0.054 A 
BRANCH  89  90
ATOM     90  S   UNL A   1      46.388  41.799  33.966  1.00  0.00     0.124 S 
ATOM     91  O   UNL A   1      45.958  42.779  32.973  1.00  0.00    -0.237 OA
ATOM     92  O   UNL A   1      45.505  41.646  35.120  1.00  0.00    -0.237 OA
ATOM     93  O   UNL A   1      47.814  41.813  34.280  1.00  0.00    -0.744 OA
ENDBRANCH  89  90
ENDBRANCH  63  84
ENDBRANCH  37  38
ENDBRANCH  30  32
ENDBRANCH  29  30
ENDBRANCH  28  29
ENDBRANCH  27  28
ENDBRANCH  26  27
ENDBRANCH  25  26
ENDBRANCH   1  25
TORSDOF 24
ENDMDL
