MODEL 1
REMARK VINA RESULT:     -10.6      0.000      0.000
REMARK SMILES Cc1nn(CC(=O)OCCOCCOCCOC(=O)c2ccc(-c3c4nc(c(-c5ccc(S(=O)(=O)[O-])cc5)c5ccc([nH]5)c(-c5ccc(S(=O)(=O)[O-])cc5)c5nc(c(-c6ccc(S(=O)(=O)[O-])cc6)c6ccc3[nH]6)C=C5)C=C4)cc2)c(C)c1S(=O)(=O)N1CCC(C)(C)C1
REMARK SMILES IDX 12 1 11 2 10 3 9 4 8 5 6 6 7 7 5 8 4 9 1 10 2 11 3 12 82 13
REMARK SMILES IDX 80 14 81 15 83 16 84 17 85 18 86 19 87 20 92 21 88 22 89 23
REMARK SMILES IDX 90 24 91 25 13 26 14 27 15 28 16 29 17 30 18 31 19 32 20 33
REMARK SMILES IDX 21 34 79 35 22 36 78 37 23 38 24 39 25 40 72 41 26 42 77 43
REMARK SMILES IDX 71 44 73 45 27 46 76 47 70 48 69 49 28 51 58 52 39 53 57 54
REMARK SMILES IDX 40 55 43 56 56 57 74 58 41 59 42 60 55 62 75 63 44 64 29 65
REMARK SMILES IDX 30 66 38 67 31 68 37 69 32 70 33 71 34 72 35 73 36 74 59 75
REMARK SMILES IDX 60 76 68 77 61 78 67 79 62 80 63 81 64 82 65 83 66 84 45 85
REMARK SMILES IDX 46 86 54 87 47 88 53 89 48 90 49 91 50 92 51 93 52 94
REMARK H PARENT 73 50 43 61
REMARK Flexibility Score: inf
ROOT
ATOM      1  C   UNL A   1      31.423  27.840  27.074  1.00  0.00     0.188 C 
ENDROOT
BRANCH   1   2
ATOM      2  O   UNL A   1      31.245  26.506  26.615  1.00  0.00    -0.376 OA
BRANCH   2   3
ATOM      3  C   UNL A   1      30.397  26.323  25.481  1.00  0.00     0.202 C 
BRANCH   3   4
ATOM      4  C   UNL A   1      30.473  27.360  24.334  1.00  0.00     0.261 C 
BRANCH   4   5
ATOM      5  O   UNL A   1      30.981  26.856  23.071  1.00  0.00    -0.462 OA
BRANCH   5   6
ATOM      6  C   UNL A   1      32.239  26.357  23.043  1.00  0.00     0.327 C 
ATOM      7  O   UNL A   1      33.206  26.950  23.521  1.00  0.00    -0.250 OA
BRANCH   6   8
ATOM      8  C   UNL A   1      32.384  24.941  22.541  1.00  0.00     0.266 C 
BRANCH   8   9
ATOM      9  N   UNL A   1      33.335  24.055  23.202  1.00  0.00    -0.257 N 
ATOM     10  C   UNL A   1      36.641  22.900  23.176  1.00  0.00     0.070 C 
ATOM     11  C   UNL A   1      35.192  23.034  23.399  1.00  0.00     0.080 A 
ATOM     12  N   UNL A   1      34.542  23.918  22.637  1.00  0.00    -0.176 NA
ATOM     13  C   UNL A   1      34.308  22.393  24.289  1.00  0.00     0.126 A 
ATOM     14  C   UNL A   1      33.093  23.064  24.126  1.00  0.00     0.056 A 
ATOM     15  C   UNL A   1      31.763  22.850  24.743  1.00  0.00     0.068 C 
BRANCH  13  16
ATOM     16  S   UNL A   1      34.604  21.056  25.347  1.00  0.00     0.246 S 
ATOM     17  O   UNL A   1      36.033  20.854  25.215  1.00  0.00    -0.207 OA
ATOM     18  O   UNL A   1      34.029  21.503  26.600  1.00  0.00    -0.207 OA
BRANCH  16  19
ATOM     19  N   UNL A   1      33.854  19.627  24.928  1.00  0.00    -0.197 NA
ATOM     20  C   UNL A   1      32.463  19.546  24.480  1.00  0.00     0.103 C 
ATOM     21  C   UNL A   1      34.613  18.418  24.610  1.00  0.00     0.109 C 
ATOM     22  C   UNL A   1      32.408  18.317  23.574  1.00  0.00     0.024 C 
ATOM     23  C   UNL A   1      33.595  17.436  23.993  1.00  0.00    -0.020 C 
ATOM     24  C   UNL A   1      33.124  16.389  25.012  1.00  0.00     0.012 C 
ATOM     25  C   UNL A   1      34.217  16.720  22.788  1.00  0.00     0.012 C 
ENDBRANCH  16  19
ENDBRANCH  13  16
ENDBRANCH   8   9
ENDBRANCH   6   8
ENDBRANCH   5   6
ENDBRANCH   4   5
ENDBRANCH   3   4
ENDBRANCH   2   3
ENDBRANCH   1   2
BRANCH   1  26
ATOM     26  C   UNL A   1      32.866  28.298  27.324  1.00  0.00     0.188 C 
BRANCH  26  27
ATOM     27  O   UNL A   1      33.145  29.581  26.797  1.00  0.00    -0.376 OA
BRANCH  27  28
ATOM     28  C   UNL A   1      34.107  30.501  27.286  1.00  0.00     0.202 C 
BRANCH  28  29
ATOM     29  C   UNL A   1      33.746  31.808  27.982  1.00  0.00     0.261 C 
BRANCH  29  30
ATOM     30  O   UNL A   1      34.831  32.487  28.562  1.00  0.00    -0.460 OA
BRANCH  30  31
ATOM     31  C   UNL A   1      34.631  33.021  29.786  1.00  0.00     0.338 C 
ATOM     32  O   UNL A   1      33.767  33.796  30.125  1.00  0.00    -0.246 OA
BRANCH  31  33
ATOM     33  C   UNL A   1      35.730  32.520  30.627  1.00  0.00     0.060 A 
ATOM     34  C   UNL A   1      36.832  33.352  30.809  1.00  0.00     0.016 A 
ATOM     35  C   UNL A   1      35.771  31.143  30.885  1.00  0.00     0.016 A 
ATOM     36  C   UNL A   1      38.062  32.749  30.915  1.00  0.00     0.010 A 
ATOM     37  C   UNL A   1      36.992  30.545  30.904  1.00  0.00     0.010 A 
ATOM     38  C   UNL A   1      38.118  31.356  30.816  1.00  0.00    -0.014 A 
BRANCH  38  39
ATOM     39  C   UNL A   1      39.396  30.698  30.736  1.00  0.00     0.031 A 
ATOM     40  C   UNL A   1      40.018  30.620  32.073  1.00  0.00     0.074 A 
ATOM     41  C   UNL A   1      39.813  30.113  29.595  1.00  0.00     0.049 A 
ATOM     42  N   UNL A   1      40.972  31.360  32.530  1.00  0.00    -0.248 NA
ATOM     43  C   UNL A   1      39.308  29.849  33.119  1.00  0.00     0.031 C 
ATOM     44  C   UNL A   1      39.073  29.939  28.339  1.00  0.00     0.029 A 
ATOM     45  N   UNL A   1      40.964  29.439  29.349  1.00  0.00    -0.354 N 
ATOM     46  C   UNL A   1      41.168  30.906  33.826  1.00  0.00     0.074 A 
ATOM     47  C   UNL A   1      39.940  30.267  34.214  1.00  0.00     0.031 C 
ATOM     48  C   UNL A   1      39.690  28.998  27.582  1.00  0.00     0.029 A 
ATOM     49  C   UNL A   1      40.922  28.594  28.242  1.00  0.00     0.049 A 
ATOM     50  H   UNL A   1      41.767  29.537  29.909  1.00  0.00     0.167 HD
ATOM     51  C   UNL A   1      42.427  30.691  34.298  1.00  0.00     0.031 A 
ATOM     52  C   UNL A   1      41.802  27.594  27.955  1.00  0.00     0.031 A 
ATOM     53  C   UNL A   1      43.406  31.377  33.491  1.00  0.00     0.049 A 
ATOM     54  C   UNL A   1      43.008  27.833  28.791  1.00  0.00     0.074 A 
ATOM     55  C   UNL A   1      43.586  32.689  33.095  1.00  0.00     0.029 A 
ATOM     56  N   UNL A   1      44.126  30.604  32.612  1.00  0.00    -0.354 N 
ATOM     57  N   UNL A   1      43.811  28.845  28.618  1.00  0.00    -0.248 NA
ATOM     58  C   UNL A   1      43.036  27.232  30.116  1.00  0.00     0.031 C 
ATOM     59  C   UNL A   1      44.041  32.610  31.748  1.00  0.00     0.029 A 
ATOM     60  C   UNL A   1      44.213  31.265  31.417  1.00  0.00     0.049 A 
ATOM     61  H   UNL A   1      44.516  29.722  32.809  1.00  0.00     0.167 HD
ATOM     62  C   UNL A   1      44.098  29.289  29.901  1.00  0.00     0.074 A 
ATOM     63  C   UNL A   1      43.660  28.208  30.785  1.00  0.00     0.031 C 
ATOM     64  C   UNL A   1      44.378  30.605  30.139  1.00  0.00     0.031 A 
BRANCH  51  65
ATOM     65  C   UNL A   1      42.779  29.491  35.149  1.00  0.00    -0.014 A 
ATOM     66  C   UNL A   1      43.412  29.709  36.386  1.00  0.00     0.010 A 
ATOM     67  C   UNL A   1      42.755  28.158  34.678  1.00  0.00     0.010 A 
ATOM     68  C   UNL A   1      44.029  28.662  37.081  1.00  0.00     0.020 A 
ATOM     69  C   UNL A   1      43.325  27.101  35.382  1.00  0.00     0.020 A 
ATOM     70  C   UNL A   1      43.982  27.364  36.571  1.00  0.00     0.054 A 
BRANCH  70  71
ATOM     71  S   UNL A   1      44.811  26.026  37.455  1.00  0.00     0.124 S 
ATOM     72  O   UNL A   1      45.872  25.663  36.522  1.00  0.00    -0.237 OA
ATOM     73  O   UNL A   1      45.239  26.691  38.682  1.00  0.00    -0.237 OA
ATOM     74  O   UNL A   1      43.757  25.028  37.629  1.00  0.00    -0.744 OA
ENDBRANCH  70  71
ENDBRANCH  51  65
BRANCH  52  75
ATOM     75  C   UNL A   1      41.569  26.277  27.294  1.00  0.00    -0.014 A 
ATOM     76  C   UNL A   1      42.592  25.306  27.250  1.00  0.00     0.010 A 
ATOM     77  C   UNL A   1      40.263  25.853  26.983  1.00  0.00     0.010 A 
ATOM     78  C   UNL A   1      42.306  23.952  26.992  1.00  0.00     0.020 A 
ATOM     79  C   UNL A   1      39.971  24.507  26.716  1.00  0.00     0.020 A 
ATOM     80  C   UNL A   1      40.989  23.557  26.752  1.00  0.00     0.054 A 
BRANCH  80  81
ATOM     81  S   UNL A   1      40.590  21.784  26.632  1.00  0.00     0.124 S 
ATOM     82  O   UNL A   1      39.207  21.805  26.164  1.00  0.00    -0.237 OA
ATOM     83  O   UNL A   1      41.575  21.300  25.669  1.00  0.00    -0.237 OA
ATOM     84  O   UNL A   1      40.774  21.297  27.998  1.00  0.00    -0.744 OA
ENDBRANCH  80  81
ENDBRANCH  52  75
BRANCH  64  85
ATOM     85  C   UNL A   1      44.728  31.493  28.968  1.00  0.00    -0.014 A 
ATOM     86  C   UNL A   1      43.796  32.099  28.102  1.00  0.00     0.010 A 
ATOM     87  C   UNL A   1      46.086  31.830  28.832  1.00  0.00     0.010 A 
ATOM     88  C   UNL A   1      44.225  32.990  27.103  1.00  0.00     0.020 A 
ATOM     89  C   UNL A   1      46.516  32.729  27.859  1.00  0.00     0.020 A 
ATOM     90  C   UNL A   1      45.587  33.293  26.986  1.00  0.00     0.054 A 
BRANCH  90  91
ATOM     91  S   UNL A   1      46.149  34.443  25.700  1.00  0.00     0.124 S 
ATOM     92  O   UNL A   1      45.915  35.746  26.316  1.00  0.00    -0.237 OA
ATOM     93  O   UNL A   1      47.552  34.072  25.523  1.00  0.00    -0.237 OA
ATOM     94  O   UNL A   1      45.288  34.136  24.558  1.00  0.00    -0.744 OA
ENDBRANCH  90  91
ENDBRANCH  64  85
ENDBRANCH  38  39
ENDBRANCH  31  33
ENDBRANCH  30  31
ENDBRANCH  29  30
ENDBRANCH  28  29
ENDBRANCH  27  28
ENDBRANCH  26  27
ENDBRANCH   1  26
TORSDOF 23
ENDMDL
MODEL 2
REMARK VINA RESULT:     -10.1      5.841     13.015
REMARK SMILES Cc1nn(CC(=O)OCCOCCOCCOC(=O)c2ccc(-c3c4nc(c(-c5ccc(S(=O)(=O)[O-])cc5)c5ccc([nH]5)c(-c5ccc(S(=O)(=O)[O-])cc5)c5nc(c(-c6ccc(S(=O)(=O)[O-])cc6)c6ccc3[nH]6)C=C5)C=C4)cc2)c(C)c1S(=O)(=O)N1CCC(C)(C)C1
REMARK SMILES IDX 12 1 11 2 10 3 9 4 8 5 6 6 7 7 5 8 4 9 1 10 2 11 3 12 82 13
REMARK SMILES IDX 80 14 81 15 83 16 84 17 85 18 86 19 87 20 92 21 88 22 89 23
REMARK SMILES IDX 90 24 91 25 13 26 14 27 15 28 16 29 17 30 18 31 19 32 20 33
REMARK SMILES IDX 21 34 79 35 22 36 78 37 23 38 24 39 25 40 72 41 26 42 77 43
REMARK SMILES IDX 71 44 73 45 27 46 76 47 70 48 69 49 28 51 58 52 39 53 57 54
REMARK SMILES IDX 40 55 43 56 56 57 74 58 41 59 42 60 55 62 75 63 44 64 29 65
REMARK SMILES IDX 30 66 38 67 31 68 37 69 32 70 33 71 34 72 35 73 36 74 59 75
REMARK SMILES IDX 60 76 68 77 61 78 67 79 62 80 63 81 64 82 65 83 66 84 45 85
REMARK SMILES IDX 46 86 54 87 47 88 53 89 48 90 49 91 50 92 51 93 52 94
REMARK H PARENT 73 50 43 61
REMARK Flexibility Score: inf
ROOT
ATOM      1  C   UNL A   1      46.256  23.424  24.933  1.00  0.00     0.188 C 
ENDROOT
BRANCH   1   2
ATOM      2  O   UNL A   1      47.010  24.306  24.111  1.00  0.00    -0.376 OA
BRANCH   2   3
ATOM      3  C   UNL A   1      47.593  25.442  24.751  1.00  0.00     0.202 C 
BRANCH   3   4
ATOM      4  C   UNL A   1      48.953  25.961  24.226  1.00  0.00     0.261 C 
BRANCH   4   5
ATOM      5  O   UNL A   1      48.959  27.336  23.761  1.00  0.00    -0.462 OA
BRANCH   5   6
ATOM      6  C   UNL A   1      47.799  27.854  23.292  1.00  0.00     0.327 C 
ATOM      7  O   UNL A   1      46.947  28.359  24.022  1.00  0.00    -0.250 OA
BRANCH   6   8
ATOM      8  C   UNL A   1      47.667  27.939  21.791  1.00  0.00     0.266 C 
BRANCH   8   9
ATOM      9  N   UNL A   1      48.727  27.383  20.959  1.00  0.00    -0.257 N 
ATOM     10  C   UNL A   1      49.881  24.475  19.383  1.00  0.00     0.070 C 
ATOM     11  C   UNL A   1      49.794  25.807  20.005  1.00  0.00     0.080 A 
ATOM     12  N   UNL A   1      48.710  26.061  20.744  1.00  0.00    -0.176 NA
ATOM     13  C   UNL A   1      50.657  26.920  19.983  1.00  0.00     0.126 A 
ATOM     14  C   UNL A   1      49.946  27.932  20.633  1.00  0.00     0.056 A 
ATOM     15  C   UNL A   1      50.312  29.329  20.969  1.00  0.00     0.068 C 
BRANCH  13  16
ATOM     16  S   UNL A   1      52.256  27.049  19.333  1.00  0.00     0.246 S 
ATOM     17  O   UNL A   1      52.730  25.680  19.379  1.00  0.00    -0.207 OA
ATOM     18  O   UNL A   1      52.037  27.718  18.066  1.00  0.00    -0.207 OA
BRANCH  16  19
ATOM     19  N   UNL A   1      53.320  27.978  20.219  1.00  0.00    -0.197 NA
ATOM     20  C   UNL A   1      54.026  27.490  21.403  1.00  0.00     0.103 C 
ATOM     21  C   UNL A   1      53.914  29.202  19.680  1.00  0.00     0.109 C 
ATOM     22  C   UNL A   1      55.320  28.302  21.458  1.00  0.00     0.024 C 
ATOM     23  C   UNL A   1      55.040  29.587  20.663  1.00  0.00    -0.020 C 
ATOM     24  C   UNL A   1      54.603  30.700  21.624  1.00  0.00     0.012 C 
ATOM     25  C   UNL A   1      56.280  30.050  19.887  1.00  0.00     0.012 C 
ENDBRANCH  16  19
ENDBRANCH  13  16
ENDBRANCH   8   9
ENDBRANCH   6   8
ENDBRANCH   5   6
ENDBRANCH   4   5
ENDBRANCH   3   4
ENDBRANCH   2   3
ENDBRANCH   1   2
BRANCH   1  26
ATOM     26  C   UNL A   1      45.877  22.067  24.325  1.00  0.00     0.188 C 
BRANCH  26  27
ATOM     27  O   UNL A   1      46.552  20.977  24.924  1.00  0.00    -0.376 OA
BRANCH  27  28
ATOM     28  C   UNL A   1      46.110  19.630  24.960  1.00  0.00     0.202 C 
BRANCH  28  29
ATOM     29  C   UNL A   1      44.640  19.224  24.945  1.00  0.00     0.261 C 
BRANCH  29  30
ATOM     30  O   UNL A   1      43.886  19.702  26.030  1.00  0.00    -0.460 OA
BRANCH  30  31
ATOM     31  C   UNL A   1      42.552  19.502  25.978  1.00  0.00     0.338 C 
ATOM     32  O   UNL A   1      41.964  18.489  25.678  1.00  0.00    -0.246 OA
BRANCH  31  33
ATOM     33  C   UNL A   1      41.938  20.801  26.299  1.00  0.00     0.060 A 
ATOM     34  C   UNL A   1      42.314  21.898  25.527  1.00  0.00     0.016 A 
ATOM     35  C   UNL A   1      41.317  20.932  27.547  1.00  0.00     0.016 A 
ATOM     36  C   UNL A   1      42.382  23.115  26.160  1.00  0.00     0.010 A 
ATOM     37  C   UNL A   1      41.464  22.116  28.199  1.00  0.00     0.010 A 
ATOM     38  C   UNL A   1      42.088  23.160  27.525  1.00  0.00    -0.014 A 
BRANCH  38  39
ATOM     39  C   UNL A   1      42.324  24.372  28.266  1.00  0.00     0.031 A 
ATOM     40  C   UNL A   1      41.259  25.358  27.991  1.00  0.00     0.074 A 
ATOM     41  C   UNL A   1      43.304  24.450  29.189  1.00  0.00     0.049 A 
ATOM     42  N   UNL A   1      41.336  26.388  27.218  1.00  0.00    -0.248 NA
ATOM     43  C   UNL A   1      39.873  24.998  28.368  1.00  0.00     0.031 C 
ATOM     44  C   UNL A   1      44.185  23.380  29.672  1.00  0.00     0.029 A 
ATOM     45  N   UNL A   1      43.650  25.491  29.985  1.00  0.00    -0.354 N 
ATOM     46  C   UNL A   1      40.075  26.962  27.284  1.00  0.00     0.074 A 
ATOM     47  C   UNL A   1      39.181  25.913  27.693  1.00  0.00     0.031 C 
ATOM     48  C   UNL A   1      44.765  23.767  30.835  1.00  0.00     0.029 A 
ATOM     49  C   UNL A   1      44.391  25.146  31.113  1.00  0.00     0.049 A 
ATOM     50  H   UNL A   1      43.396  26.421  29.783  1.00  0.00     0.167 HD
ATOM     51  C   UNL A   1      39.937  28.307  27.439  1.00  0.00     0.031 A 
ATOM     52  C   UNL A   1      44.599  25.923  32.213  1.00  0.00     0.031 A 
ATOM     53  C   UNL A   1      41.155  28.996  27.091  1.00  0.00     0.049 A 
ATOM     54  C   UNL A   1      44.251  27.315  31.824  1.00  0.00     0.074 A 
ATOM     55  C   UNL A   1      41.963  29.029  25.970  1.00  0.00     0.029 A 
ATOM     56  N   UNL A   1      41.926  29.444  28.138  1.00  0.00    -0.354 N 
ATOM     57  N   UNL A   1      44.941  28.013  30.967  1.00  0.00    -0.248 NA
ATOM     58  C   UNL A   1      42.871  27.739  32.009  1.00  0.00     0.031 C 
ATOM     59  C   UNL A   1      43.294  29.073  26.474  1.00  0.00     0.029 A 
ATOM     60  C   UNL A   1      43.238  29.167  27.865  1.00  0.00     0.049 A 
ATOM     61  H   UNL A   1      41.590  29.891  28.948  1.00  0.00     0.167 HD
ATOM     62  C   UNL A   1      43.989  28.653  30.187  1.00  0.00     0.074 A 
ATOM     63  C   UNL A   1      42.734  28.512  30.926  1.00  0.00     0.031 C 
ATOM     64  C   UNL A   1      44.249  28.965  28.882  1.00  0.00     0.031 A 
BRANCH  51  65
ATOM     65  C   UNL A   1      38.899  28.914  28.358  1.00  0.00    -0.014 A 
ATOM     66  C   UNL A   1      38.082  29.945  27.857  1.00  0.00     0.010 A 
ATOM     67  C   UNL A   1      38.866  28.704  29.755  1.00  0.00     0.010 A 
ATOM     68  C   UNL A   1      37.319  30.748  28.714  1.00  0.00     0.020 A 
ATOM     69  C   UNL A   1      38.077  29.467  30.612  1.00  0.00     0.020 A 
ATOM     70  C   UNL A   1      37.325  30.504  30.087  1.00  0.00     0.054 A 
BRANCH  70  71
ATOM     71  S   UNL A   1      36.368  31.566  31.189  1.00  0.00     0.124 S 
ATOM     72  O   UNL A   1      35.146  31.772  30.419  1.00  0.00    -0.237 OA
ATOM     73  O   UNL A   1      36.240  30.732  32.380  1.00  0.00    -0.237 OA
ATOM     74  O   UNL A   1      37.217  32.745  31.349  1.00  0.00    -0.744 OA
ENDBRANCH  70  71
ENDBRANCH  51  65
BRANCH  52  75
ATOM     75  C   UNL A   1      44.737  25.533  33.646  1.00  0.00    -0.014 A 
ATOM     76  C   UNL A   1      45.918  25.829  34.359  1.00  0.00     0.010 A 
ATOM     77  C   UNL A   1      43.608  25.152  34.396  1.00  0.00     0.010 A 
ATOM     78  C   UNL A   1      45.943  25.830  35.766  1.00  0.00     0.020 A 
ATOM     79  C   UNL A   1      43.627  25.142  35.799  1.00  0.00     0.020 A 
ATOM     80  C   UNL A   1      44.786  25.512  36.479  1.00  0.00     0.054 A 
BRANCH  80  81
ATOM     81  S   UNL A   1      44.757  25.721  38.288  1.00  0.00     0.124 S 
ATOM     82  O   UNL A   1      43.499  26.429  38.502  1.00  0.00    -0.237 OA
ATOM     83  O   UNL A   1      44.795  24.342  38.769  1.00  0.00    -0.237 OA
ATOM     84  O   UNL A   1      45.962  26.501  38.563  1.00  0.00    -0.744 OA
ENDBRANCH  80  81
ENDBRANCH  52  75
BRANCH  64  85
ATOM     85  C   UNL A   1      45.682  28.942  28.404  1.00  0.00    -0.014 A 
ATOM     86  C   UNL A   1      46.526  30.067  28.314  1.00  0.00     0.010 A 
ATOM     87  C   UNL A   1      46.231  27.671  28.160  1.00  0.00     0.010 A 
ATOM     88  C   UNL A   1      47.875  29.918  27.950  1.00  0.00     0.020 A 
ATOM     89  C   UNL A   1      47.573  27.515  27.820  1.00  0.00     0.020 A 
ATOM     90  C   UNL A   1      48.387  28.639  27.700  1.00  0.00     0.054 A 
BRANCH  90  91
ATOM     91  S   UNL A   1      50.128  28.439  27.232  1.00  0.00     0.124 S 
ATOM     92  O   UNL A   1      50.257  26.991  27.099  1.00  0.00    -0.237 OA
ATOM     93  O   UNL A   1      50.219  29.197  25.986  1.00  0.00    -0.237 OA
ATOM     94  O   UNL A   1      50.860  29.023  28.356  1.00  0.00    -0.744 OA
ENDBRANCH  90  91
ENDBRANCH  64  85
ENDBRANCH  38  39
ENDBRANCH  31  33
ENDBRANCH  30  31
ENDBRANCH  29  30
ENDBRANCH  28  29
ENDBRANCH  27  28
ENDBRANCH  26  27
ENDBRANCH   1  26
TORSDOF 23
ENDMDL
MODEL 3
REMARK VINA RESULT:     -10.1      5.390     13.080
REMARK SMILES Cc1nn(CC(=O)OCCOCCOCCOC(=O)c2ccc(-c3c4nc(c(-c5ccc(S(=O)(=O)[O-])cc5)c5ccc([nH]5)c(-c5ccc(S(=O)(=O)[O-])cc5)c5nc(c(-c6ccc(S(=O)(=O)[O-])cc6)c6ccc3[nH]6)C=C5)C=C4)cc2)c(C)c1S(=O)(=O)N1CCC(C)(C)C1
REMARK SMILES IDX 12 1 11 2 10 3 9 4 8 5 6 6 7 7 5 8 4 9 1 10 2 11 3 12 82 13
REMARK SMILES IDX 80 14 81 15 83 16 84 17 85 18 86 19 87 20 92 21 88 22 89 23
REMARK SMILES IDX 90 24 91 25 13 26 14 27 15 28 16 29 17 30 18 31 19 32 20 33
REMARK SMILES IDX 21 34 79 35 22 36 78 37 23 38 24 39 25 40 72 41 26 42 77 43
REMARK SMILES IDX 71 44 73 45 27 46 76 47 70 48 69 49 28 51 58 52 39 53 57 54
REMARK SMILES IDX 40 55 43 56 56 57 74 58 41 59 42 60 55 62 75 63 44 64 29 65
REMARK SMILES IDX 30 66 38 67 31 68 37 69 32 70 33 71 34 72 35 73 36 74 59 75
REMARK SMILES IDX 60 76 68 77 61 78 67 79 62 80 63 81 64 82 65 83 66 84 45 85
REMARK SMILES IDX 46 86 54 87 47 88 53 89 48 90 49 91 50 92 51 93 52 94
REMARK H PARENT 73 50 43 61
REMARK Flexibility Score: inf
ROOT
ATOM      1  C   UNL A   1      46.250  23.645  25.242  1.00  0.00     0.188 C 
ENDROOT
BRANCH   1   2
ATOM      2  O   UNL A   1      46.519  24.835  24.511  1.00  0.00    -0.376 OA
BRANCH   2   3
ATOM      3  C   UNL A   1      47.850  25.344  24.577  1.00  0.00     0.202 C 
BRANCH   3   4
ATOM      4  C   UNL A   1      48.057  26.873  24.443  1.00  0.00     0.261 C 
BRANCH   4   5
ATOM      5  O   UNL A   1      47.203  27.535  23.474  1.00  0.00    -0.462 OA
BRANCH   5   6
ATOM      6  C   UNL A   1      47.768  27.988  22.330  1.00  0.00     0.327 C 
ATOM      7  O   UNL A   1      47.290  28.905  21.662  1.00  0.00    -0.250 OA
BRANCH   6   8
ATOM      8  C   UNL A   1      49.125  27.421  21.989  1.00  0.00     0.266 C 
BRANCH   8   9
ATOM      9  N   UNL A   1      50.305  28.255  22.191  1.00  0.00    -0.257 N 
ATOM     10  C   UNL A   1      52.002  31.107  21.070  1.00  0.00     0.070 C 
ATOM     11  C   UNL A   1      51.664  29.814  21.689  1.00  0.00     0.080 A 
ATOM     12  N   UNL A   1      50.517  29.243  21.312  1.00  0.00    -0.176 NA
ATOM     13  C   UNL A   1      52.332  29.016  22.639  1.00  0.00     0.126 A 
ATOM     14  C   UNL A   1      51.431  27.990  22.935  1.00  0.00     0.056 A 
ATOM     15  C   UNL A   1      51.544  26.812  23.828  1.00  0.00     0.068 C 
BRANCH  13  16
ATOM     16  S   UNL A   1      53.919  29.207  23.302  1.00  0.00     0.246 S 
ATOM     17  O   UNL A   1      54.774  28.770  22.216  1.00  0.00    -0.207 OA
ATOM     18  O   UNL A   1      53.922  30.589  23.741  1.00  0.00    -0.207 OA
BRANCH  16  19
ATOM     19  N   UNL A   1      54.265  28.255  24.627  1.00  0.00    -0.197 NA
ATOM     20  C   UNL A   1      53.758  28.528  25.971  1.00  0.00     0.103 C 
ATOM     21  C   UNL A   1      54.773  26.890  24.488  1.00  0.00     0.109 C 
ATOM     22  C   UNL A   1      53.685  27.162  26.654  1.00  0.00     0.024 C 
ATOM     23  C   UNL A   1      54.673  26.263  25.894  1.00  0.00    -0.020 C 
ATOM     24  C   UNL A   1      56.028  26.265  26.616  1.00  0.00     0.012 C 
ATOM     25  C   UNL A   1      54.160  24.821  25.794  1.00  0.00     0.012 C 
ENDBRANCH  16  19
ENDBRANCH  13  16
ENDBRANCH   8   9
ENDBRANCH   6   8
ENDBRANCH   5   6
ENDBRANCH   4   5
ENDBRANCH   3   4
ENDBRANCH   2   3
ENDBRANCH   1   2
BRANCH   1  26
ATOM     26  C   UNL A   1      45.972  22.378  24.423  1.00  0.00     0.188 C 
BRANCH  26  27
ATOM     27  O   UNL A   1      46.387  21.190  25.070  1.00  0.00    -0.376 OA
BRANCH  27  28
ATOM     28  C   UNL A   1      46.067  19.864  24.684  1.00  0.00     0.202 C 
BRANCH  28  29
ATOM     29  C   UNL A   1      44.683  19.247  24.855  1.00  0.00     0.261 C 
BRANCH  29  30
ATOM     30  O   UNL A   1      43.959  19.720  25.962  1.00  0.00    -0.460 OA
BRANCH  30  31
ATOM     31  C   UNL A   1      42.627  19.508  25.954  1.00  0.00     0.338 C 
ATOM     32  O   UNL A   1      42.040  18.480  25.705  1.00  0.00    -0.246 OA
BRANCH  31  33
ATOM     33  C   UNL A   1      42.010  20.811  26.247  1.00  0.00     0.060 A 
ATOM     34  C   UNL A   1      42.435  21.907  25.499  1.00  0.00     0.016 A 
ATOM     35  C   UNL A   1      41.327  20.945  27.463  1.00  0.00     0.016 A 
ATOM     36  C   UNL A   1      42.483  23.122  26.138  1.00  0.00     0.010 A 
ATOM     37  C   UNL A   1      41.452  22.126  28.125  1.00  0.00     0.010 A 
ATOM     38  C   UNL A   1      42.119  23.165  27.487  1.00  0.00    -0.014 A 
BRANCH  38  39
ATOM     39  C   UNL A   1      42.329  24.373  28.243  1.00  0.00     0.031 A 
ATOM     40  C   UNL A   1      41.260  25.351  27.956  1.00  0.00     0.074 A 
ATOM     41  C   UNL A   1      43.290  24.453  29.185  1.00  0.00     0.049 A 
ATOM     42  N   UNL A   1      41.343  26.389  27.194  1.00  0.00    -0.248 NA
ATOM     43  C   UNL A   1      39.871  24.974  28.303  1.00  0.00     0.031 C 
ATOM     44  C   UNL A   1      44.172  23.387  29.676  1.00  0.00     0.029 A 
ATOM     45  N   UNL A   1      43.610  25.490  29.997  1.00  0.00    -0.354 N 
ATOM     46  C   UNL A   1      40.074  26.950  27.240  1.00  0.00     0.074 A 
ATOM     47  C   UNL A   1      39.183  25.889  27.621  1.00  0.00     0.031 C 
ATOM     48  C   UNL A   1      44.725  23.769  30.853  1.00  0.00     0.029 A 
ATOM     49  C   UNL A   1      44.333  25.142  31.137  1.00  0.00     0.049 A 
ATOM     50  H   UNL A   1      43.352  26.419  29.799  1.00  0.00     0.167 HD
ATOM     51  C   UNL A   1      39.920  28.293  27.403  1.00  0.00     0.031 A 
ATOM     52  C   UNL A   1      44.511  25.911  32.247  1.00  0.00     0.031 A 
ATOM     53  C   UNL A   1      41.139  28.996  27.086  1.00  0.00     0.049 A 
ATOM     54  C   UNL A   1      44.158  27.303  31.863  1.00  0.00     0.074 A 
ATOM     55  C   UNL A   1      41.967  29.047  25.981  1.00  0.00     0.029 A 
ATOM     56  N   UNL A   1      41.884  29.442  28.151  1.00  0.00    -0.354 N 
ATOM     57  N   UNL A   1      44.858  28.016  31.026  1.00  0.00    -0.248 NA
ATOM     58  C   UNL A   1      42.771  27.713  32.024  1.00  0.00     0.031 C 
ATOM     59  C   UNL A   1      43.288  29.099  26.511  1.00  0.00     0.029 A 
ATOM     60  C   UNL A   1      43.204  29.180  27.902  1.00  0.00     0.049 A 
ATOM     61  H   UNL A   1      41.528  29.879  28.958  1.00  0.00     0.167 HD
ATOM     62  C   UNL A   1      43.915  28.653  30.233  1.00  0.00     0.074 A 
ATOM     63  C   UNL A   1      42.647  28.494  30.946  1.00  0.00     0.031 C 
ATOM     64  C   UNL A   1      44.197  28.979  28.937  1.00  0.00     0.031 A 
BRANCH  51  65
ATOM     65  C   UNL A   1      38.859  28.882  28.307  1.00  0.00    -0.014 A 
ATOM     66  C   UNL A   1      37.954  29.810  27.760  1.00  0.00     0.010 A 
ATOM     67  C   UNL A   1      38.872  28.766  29.715  1.00  0.00     0.010 A 
ATOM     68  C   UNL A   1      37.151  30.611  28.581  1.00  0.00     0.020 A 
ATOM     69  C   UNL A   1      38.046  29.525  30.540  1.00  0.00     0.020 A 
ATOM     70  C   UNL A   1      37.205  30.463  29.968  1.00  0.00     0.054 A 
BRANCH  70  71
ATOM     71  S   UNL A   1      36.193  31.523  31.021  1.00  0.00     0.124 S 
ATOM     72  O   UNL A   1      35.791  30.601  32.077  1.00  0.00    -0.237 OA
ATOM     73  O   UNL A   1      37.143  32.563  31.407  1.00  0.00    -0.237 OA
ATOM     74  O   UNL A   1      35.121  31.966  30.130  1.00  0.00    -0.744 OA
ENDBRANCH  70  71
ENDBRANCH  51  65
BRANCH  52  75
ATOM     75  C   UNL A   1      44.626  25.510  33.679  1.00  0.00    -0.014 A 
ATOM     76  C   UNL A   1      45.865  25.592  34.351  1.00  0.00     0.010 A 
ATOM     77  C   UNL A   1      43.473  25.343  34.470  1.00  0.00     0.010 A 
ATOM     78  C   UNL A   1      45.936  25.595  35.756  1.00  0.00     0.020 A 
ATOM     79  C   UNL A   1      43.537  25.337  35.871  1.00  0.00     0.020 A 
ATOM     80  C   UNL A   1      44.765  25.495  36.509  1.00  0.00     0.054 A 
BRANCH  80  81
ATOM     81  S   UNL A   1      44.836  25.714  38.315  1.00  0.00     0.124 S 
ATOM     82  O   UNL A   1      43.596  26.433  38.593  1.00  0.00    -0.237 OA
ATOM     83  O   UNL A   1      44.891  24.338  38.802  1.00  0.00    -0.237 OA
ATOM     84  O   UNL A   1      46.059  26.488  38.520  1.00  0.00    -0.744 OA
ENDBRANCH  80  81
ENDBRANCH  52  75
BRANCH  64  85
ATOM     85  C   UNL A   1      45.639  28.974  28.487  1.00  0.00    -0.014 A 
ATOM     86  C   UNL A   1      46.471  30.109  28.414  1.00  0.00     0.010 A 
ATOM     87  C   UNL A   1      46.208  27.710  28.251  1.00  0.00     0.010 A 
ATOM     88  C   UNL A   1      47.829  29.977  28.076  1.00  0.00     0.020 A 
ATOM     89  C   UNL A   1      47.558  27.571  27.938  1.00  0.00     0.020 A 
ATOM     90  C   UNL A   1      48.361  28.705  27.834  1.00  0.00     0.054 A 
BRANCH  90  91
ATOM     91  S   UNL A   1      50.113  28.527  27.400  1.00  0.00     0.124 S 
ATOM     92  O   UNL A   1      50.232  29.363  26.210  1.00  0.00    -0.237 OA
ATOM     93  O   UNL A   1      50.796  29.026  28.592  1.00  0.00    -0.237 OA
ATOM     94  O   UNL A   1      50.269  27.091  27.165  1.00  0.00    -0.744 OA
ENDBRANCH  90  91
ENDBRANCH  64  85
ENDBRANCH  38  39
ENDBRANCH  31  33
ENDBRANCH  30  31
ENDBRANCH  29  30
ENDBRANCH  28  29
ENDBRANCH  27  28
ENDBRANCH  26  27
ENDBRANCH   1  26
TORSDOF 23
ENDMDL
