MODEL 1
REMARK VINA RESULT:     -11.5      0.000      0.000
REMARK SMILES Cc1ccc(/C=C2/SC(=O)N(CC(=O)OCCOCCOCCOC(=O)c3ccc(-c4c5nc(c(-c6ccc(S(=O)(=O)[O-])cc6)c6ccc([nH]6)c(-c6ccc(S(=O)(=O)[O-])cc6)c6nc(c(-c7ccc(S(=O)(=O)[O-])cc7)c7ccc4[nH]7)C=C6)C=C5)cc3)C2=O)cc1
REMARK SMILES IDX 20 1 19 2 18 3 17 4 16 5 15 6 13 7 14 8 12 9 11 10 6 11 7 12
REMARK SMILES IDX 8 13 87 14 9 15 88 16 10 17 5 18 1 19 2 20 3 21 90 22 4 23
REMARK SMILES IDX 89 24 21 25 22 26 23 27 24 28 25 29 26 30 27 31 28 32 86 33
REMARK SMILES IDX 29 34 85 35 30 36 31 37 32 38 79 39 33 40 84 41 78 42 80 43
REMARK SMILES IDX 34 44 83 45 77 46 76 47 35 49 65 50 46 51 64 52 47 53 50 54
REMARK SMILES IDX 63 55 81 56 48 57 49 58 62 60 82 61 51 62 36 63 37 64 45 65
REMARK SMILES IDX 38 66 44 67 39 68 40 69 41 70 42 71 43 72 66 73 67 74 75 75
REMARK SMILES IDX 68 76 74 77 69 78 70 79 71 80 72 81 73 82 52 83 53 84 61 85
REMARK SMILES IDX 54 86 60 87 55 88 56 89 57 90 58 91 59 92
REMARK H PARENT 80 48 50 59
REMARK Flexibility Score: inf
ROOT
ATOM      1  C   UNL A   1      48.029  38.706  26.721  1.00  0.00     0.188 C 
ENDROOT
BRANCH   1   2
ATOM      2  C   UNL A   1      46.648  38.697  26.058  1.00  0.00     0.188 C 
BRANCH   2   3
ATOM      3  O   UNL A   1      46.269  39.541  24.981  1.00  0.00    -0.376 OA
BRANCH   3   4
ATOM      4  C   UNL A   1      46.685  40.882  24.917  1.00  0.00     0.202 C 
BRANCH   4   5
ATOM      5  C   UNL A   1      45.818  42.022  24.363  1.00  0.00     0.261 C 
BRANCH   5   6
ATOM      6  O   UNL A   1      46.041  42.753  23.152  1.00  0.00    -0.462 OA
BRANCH   6   7
ATOM      7  C   UNL A   1      45.420  42.604  21.955  1.00  0.00     0.326 C 
ATOM      8  O   UNL A   1      45.541  41.584  21.304  1.00  0.00    -0.250 OA
BRANCH   7   9
ATOM      9  C   UNL A   1      44.620  43.866  21.444  1.00  0.00     0.252 C 
BRANCH   9  10
ATOM     10  N   UNL A   1      43.613  43.540  20.495  1.00  0.00    -0.257 N 
ATOM     11  C   UNL A   1      42.272  45.471  16.671  1.00  0.00     0.029 C 
ATOM     12  C   UNL A   1      42.723  44.408  17.557  1.00  0.00     0.083 C 
ATOM     13  S   UNL A   1      40.812  43.825  18.669  1.00  0.00    -0.022 SA
ATOM     14  C   UNL A   1      44.332  43.956  18.925  1.00  0.00     0.268 C 
ATOM     15  C   UNL A   1      41.881  43.379  20.647  1.00  0.00     0.294 C 
ATOM     16  O   UNL A   1      45.565  44.102  18.962  1.00  0.00    -0.268 OA
ATOM     17  O   UNL A   1      41.169  43.134  21.609  1.00  0.00    -0.261 OA
BRANCH  11  18
ATOM     18  C   UNL A   1      42.723  47.002  16.581  1.00  0.00    -0.024 A 
ATOM     19  C   UNL A   1      43.650  50.288  19.215  1.00  0.00     0.044 C 
ATOM     20  C   UNL A   1      43.368  49.415  18.003  1.00  0.00    -0.051 A 
ATOM     21  C   UNL A   1      42.053  49.153  17.608  1.00  0.00     0.004 A 
ATOM     22  C   UNL A   1      44.375  48.642  17.410  1.00  0.00     0.004 A 
ATOM     23  C   UNL A   1      41.736  47.975  16.877  1.00  0.00     0.008 A 
ATOM     24  C   UNL A   1      44.059  47.454  16.677  1.00  0.00     0.008 A 
ENDBRANCH  11  18
ENDBRANCH   9  10
ENDBRANCH   7   9
ENDBRANCH   6   7
ENDBRANCH   5   6
ENDBRANCH   4   5
ENDBRANCH   3   4
ENDBRANCH   2   3
ENDBRANCH   1   2
BRANCH   1  25
ATOM     25  O   UNL A   1      49.056  38.022  26.026  1.00  0.00    -0.376 OA
BRANCH  25  26
ATOM     26  C   UNL A   1      49.505  36.787  26.544  1.00  0.00     0.202 C 
BRANCH  26  27
ATOM     27  C   UNL A   1      48.440  35.743  26.904  1.00  0.00     0.261 C 
BRANCH  27  28
ATOM     28  O   UNL A   1      48.170  34.890  25.789  1.00  0.00    -0.460 OA
BRANCH  28  29
ATOM     29  C   UNL A   1      46.935  34.329  25.792  1.00  0.00     0.338 C 
ATOM     30  O   UNL A   1      46.045  34.574  25.003  1.00  0.00    -0.246 OA
BRANCH  29  31
ATOM     31  C   UNL A   1      46.879  33.466  27.012  1.00  0.00     0.060 A 
ATOM     32  C   UNL A   1      47.496  31.834  26.884  1.00  0.00     0.016 A 
ATOM     33  C   UNL A   1      45.601  33.912  28.120  1.00  0.00     0.016 A 
ATOM     34  C   UNL A   1      46.793  30.632  27.966  1.00  0.00     0.010 A 
ATOM     35  C   UNL A   1      44.713  32.832  29.066  1.00  0.00     0.010 A 
ATOM     36  C   UNL A   1      45.141  31.149  29.033  1.00  0.00    -0.014 A 
BRANCH  36  37
ATOM     37  C   UNL A   1      43.504  30.386  29.180  1.00  0.00     0.031 A 
ATOM     38  C   UNL A   1      43.045  29.273  28.305  1.00  0.00     0.074 A 
ATOM     39  C   UNL A   1      42.381  30.636  29.985  1.00  0.00     0.049 A 
ATOM     40  N   UNL A   1      41.773  29.030  28.133  1.00  0.00    -0.248 NA
ATOM     41  C   UNL A   1      43.899  28.424  27.498  1.00  0.00     0.031 C 
ATOM     42  C   UNL A   1      41.674  29.624  30.822  1.00  0.00     0.029 A 
ATOM     43  N   UNL A   1      41.776  31.807  30.443  1.00  0.00    -0.354 N 
ATOM     44  C   UNL A   1      41.676  27.790  27.583  1.00  0.00     0.074 A 
ATOM     45  C   UNL A   1      42.973  27.621  26.954  1.00  0.00     0.031 C 
ATOM     46  C   UNL A   1      40.956  30.237  31.795  1.00  0.00     0.029 A 
ATOM     47  C   UNL A   1      41.050  31.699  31.637  1.00  0.00     0.049 A 
ATOM     48  H   UNL A   1      41.854  32.659  29.957  1.00  0.00     0.167 HD
ATOM     49  C   UNL A   1      40.641  26.961  27.924  1.00  0.00     0.031 A 
ATOM     50  C   UNL A   1      40.312  32.678  32.271  1.00  0.00     0.031 A 
ATOM     51  C   UNL A   1      39.655  27.546  28.878  1.00  0.00     0.049 A 
ATOM     52  C   UNL A   1      38.941  32.359  31.806  1.00  0.00     0.074 A 
ATOM     53  C   UNL A   1      39.260  27.160  30.154  1.00  0.00     0.029 A 
ATOM     54  N   UNL A   1      39.019  28.778  28.653  1.00  0.00    -0.354 N 
ATOM     55  N   UNL A   1      38.775  31.331  31.039  1.00  0.00    -0.248 NA
ATOM     56  C   UNL A   1      37.706  33.081  32.041  1.00  0.00     0.031 C 
ATOM     57  C   UNL A   1      38.371  28.134  30.675  1.00  0.00     0.029 A 
ATOM     58  C   UNL A   1      38.178  29.112  29.714  1.00  0.00     0.049 A 
ATOM     59  H   UNL A   1      39.150  29.335  27.852  1.00  0.00     0.167 HD
ATOM     60  C   UNL A   1      37.519  31.250  30.610  1.00  0.00     0.074 A 
ATOM     61  C   UNL A   1      36.863  32.376  31.257  1.00  0.00     0.031 C 
ATOM     62  C   UNL A   1      37.266  30.274  29.705  1.00  0.00     0.031 A 
BRANCH  49  63
ATOM     63  C   UNL A   1      40.653  25.460  27.608  1.00  0.00    -0.014 A 
ATOM     64  C   UNL A   1      39.618  24.863  26.856  1.00  0.00     0.010 A 
ATOM     65  C   UNL A   1      41.656  24.571  28.038  1.00  0.00     0.010 A 
ATOM     66  C   UNL A   1      39.590  23.481  26.571  1.00  0.00     0.020 A 
ATOM     67  C   UNL A   1      41.654  23.200  27.762  1.00  0.00     0.020 A 
ATOM     68  C   UNL A   1      40.619  22.659  27.021  1.00  0.00     0.054 A 
BRANCH  68  69
ATOM     69  S   UNL A   1      40.647  20.901  26.594  1.00  0.00     0.124 S 
ATOM     70  O   UNL A   1      39.371  20.727  25.908  1.00  0.00    -0.237 OA
ATOM     71  O   UNL A   1      41.838  20.800  25.758  1.00  0.00    -0.237 OA
ATOM     72  O   UNL A   1      40.745  20.232  27.891  1.00  0.00    -0.744 OA
ENDBRANCH  68  69
ENDBRANCH  49  63
BRANCH  50  73
ATOM     73  C   UNL A   1      40.820  34.106  32.499  1.00  0.00    -0.014 A 
ATOM     74  C   UNL A   1      40.645  34.704  33.778  1.00  0.00     0.010 A 
ATOM     75  C   UNL A   1      41.807  34.683  31.683  1.00  0.00     0.010 A 
ATOM     76  C   UNL A   1      41.633  35.551  34.348  1.00  0.00     0.020 A 
ATOM     77  C   UNL A   1      42.778  35.567  32.230  1.00  0.00     0.020 A 
ATOM     78  C   UNL A   1      42.743  35.912  33.589  1.00  0.00     0.054 A 
BRANCH  78  79
ATOM     79  S   UNL A   1      44.294  36.426  34.459  1.00  0.00     0.124 S 
ATOM     80  O   UNL A   1      44.593  35.278  35.304  1.00  0.00    -0.237 OA
ATOM     81  O   UNL A   1      45.232  36.656  33.364  1.00  0.00    -0.237 OA
ATOM     82  O   UNL A   1      43.896  37.647  35.160  1.00  0.00    -0.744 OA
ENDBRANCH  78  79
ENDBRANCH  50  73
BRANCH  62  83
ATOM     83  C   UNL A   1      36.067  30.301  28.847  1.00  0.00    -0.014 A 
ATOM     84  C   UNL A   1      35.614  29.175  28.142  1.00  0.00     0.010 A 
ATOM     85  C   UNL A   1      35.281  31.466  28.841  1.00  0.00     0.010 A 
ATOM     86  C   UNL A   1      34.449  29.233  27.391  1.00  0.00     0.020 A 
ATOM     87  C   UNL A   1      34.087  31.516  28.137  1.00  0.00     0.020 A 
ATOM     88  C   UNL A   1      33.695  30.406  27.394  1.00  0.00     0.054 A 
BRANCH  88  89
ATOM     89  S   UNL A   1      32.169  30.437  26.445  1.00  0.00     0.124 S 
ATOM     90  O   UNL A   1      31.391  29.391  27.103  1.00  0.00    -0.237 OA
ATOM     91  O   UNL A   1      31.693  31.802  26.657  1.00  0.00    -0.237 OA
ATOM     92  O   UNL A   1      32.602  30.137  25.083  1.00  0.00    -0.744 OA
ENDBRANCH  88  89
ENDBRANCH  62  83
ENDBRANCH  36  37
ENDBRANCH  29  31
ENDBRANCH  28  29
ENDBRANCH  27  28
ENDBRANCH  26  27
ENDBRANCH  25  26
ENDBRANCH   1  25
TORSDOF 22
ENDMDL
MODEL 2
REMARK VINA RESULT:     -11.4      9.391     14.259
REMARK SMILES Cc1ccc(/C=C2/SC(=O)N(CC(=O)OCCOCCOCCOC(=O)c3ccc(-c4c5nc(c(-c6ccc(S(=O)(=O)[O-])cc6)c6ccc([nH]6)c(-c6ccc(S(=O)(=O)[O-])cc6)c6nc(c(-c7ccc(S(=O)(=O)[O-])cc7)c7ccc4[nH]7)C=C6)C=C5)cc3)C2=O)cc1
REMARK SMILES IDX 20 1 19 2 18 3 17 4 16 5 15 6 13 7 14 8 12 9 11 10 6 11 7 12
REMARK SMILES IDX 8 13 87 14 9 15 88 16 10 17 5 18 1 19 2 20 3 21 90 22 4 23
REMARK SMILES IDX 89 24 21 25 22 26 23 27 24 28 25 29 26 30 27 31 28 32 86 33
REMARK SMILES IDX 29 34 85 35 30 36 31 37 32 38 79 39 33 40 84 41 78 42 80 43
REMARK SMILES IDX 34 44 83 45 77 46 76 47 35 49 65 50 46 51 64 52 47 53 50 54
REMARK SMILES IDX 63 55 81 56 48 57 49 58 62 60 82 61 51 62 36 63 37 64 45 65
REMARK SMILES IDX 38 66 44 67 39 68 40 69 41 70 42 71 43 72 66 73 67 74 75 75
REMARK SMILES IDX 68 76 74 77 69 78 70 79 71 80 72 81 73 82 52 83 53 84 61 85
REMARK SMILES IDX 54 86 60 87 55 88 56 89 57 90 58 91 59 92
REMARK H PARENT 80 48 50 59
REMARK Flexibility Score: inf
ROOT
ATOM      1  C   UNL A   1      33.340  36.826  29.184  1.00  0.00     0.188 C 
ENDROOT
BRANCH   1   2
ATOM      2  C   UNL A   1      33.501  35.362  28.763  1.00  0.00     0.188 C 
BRANCH   2   3
ATOM      3  O   UNL A   1      34.613  34.851  28.043  1.00  0.00    -0.376 OA
BRANCH   3   4
ATOM      4  C   UNL A   1      35.060  33.530  28.219  1.00  0.00     0.202 C 
BRANCH   4   5
ATOM      5  C   UNL A   1      34.129  32.310  28.270  1.00  0.00     0.261 C 
BRANCH   5   6
ATOM      6  O   UNL A   1      34.122  31.204  27.361  1.00  0.00    -0.462 OA
BRANCH   6   7
ATOM      7  C   UNL A   1      33.055  30.515  26.885  1.00  0.00     0.326 C 
ATOM      8  O   UNL A   1      31.973  31.049  26.740  1.00  0.00    -0.250 OA
BRANCH   7   9
ATOM      9  C   UNL A   1      33.302  28.977  26.625  1.00  0.00     0.252 C 
BRANCH   9  10
ATOM     10  N   UNL A   1      32.431  28.430  25.643  1.00  0.00    -0.257 N 
ATOM     11  C   UNL A   1      30.639  24.355  25.069  1.00  0.00     0.029 C 
ATOM     12  C   UNL A   1      30.676  25.804  25.197  1.00  0.00     0.083 C 
ATOM     13  S   UNL A   1      31.369  26.482  23.126  1.00  0.00    -0.022 SA
ATOM     14  C   UNL A   1      31.368  27.336  26.553  1.00  0.00     0.268 C 
ATOM     15  C   UNL A   1      32.595  28.251  23.914  1.00  0.00     0.294 C 
ATOM     16  O   UNL A   1      31.385  27.526  27.780  1.00  0.00    -0.268 OA
ATOM     17  O   UNL A   1      33.275  28.853  23.096  1.00  0.00    -0.261 OA
BRANCH  11  18
ATOM     18  C   UNL A   1      31.445  23.227  25.865  1.00  0.00    -0.024 A 
ATOM     19  C   UNL A   1      35.375  21.452  25.918  1.00  0.00     0.044 C 
ATOM     20  C   UNL A   1      33.914  21.787  26.170  1.00  0.00    -0.051 A 
ATOM     21  C   UNL A   1      32.919  21.318  25.307  1.00  0.00     0.004 A 
ATOM     22  C   UNL A   1      33.539  22.771  27.095  1.00  0.00     0.004 A 
ATOM     23  C   UNL A   1      31.685  22.011  25.178  1.00  0.00     0.008 A 
ATOM     24  C   UNL A   1      32.298  23.473  26.964  1.00  0.00     0.008 A 
ENDBRANCH  11  18
ENDBRANCH   9  10
ENDBRANCH   7   9
ENDBRANCH   6   7
ENDBRANCH   5   6
ENDBRANCH   4   5
ENDBRANCH   3   4
ENDBRANCH   2   3
ENDBRANCH   1   2
BRANCH   1  25
ATOM     25  O   UNL A   1      33.105  37.053  30.562  1.00  0.00    -0.376 OA
BRANCH  25  26
ATOM     26  C   UNL A   1      32.656  35.970  31.350  1.00  0.00     0.202 C 
BRANCH  26  27
ATOM     27  C   UNL A   1      33.579  35.486  32.476  1.00  0.00     0.261 C 
BRANCH  27  28
ATOM     28  O   UNL A   1      34.952  35.612  32.095  1.00  0.00    -0.460 OA
BRANCH  28  29
ATOM     29  C   UNL A   1      35.793  34.749  32.715  1.00  0.00     0.338 C 
ATOM     30  O   UNL A   1      36.230  34.874  33.842  1.00  0.00    -0.246 OA
BRANCH  29  31
ATOM     31  C   UNL A   1      36.147  33.715  31.695  1.00  0.00     0.060 A 
ATOM     32  C   UNL A   1      35.461  32.117  31.885  1.00  0.00     0.016 A 
ATOM     33  C   UNL A   1      37.691  33.998  30.923  1.00  0.00     0.016 A 
ATOM     34  C   UNL A   1      36.387  30.771  31.221  1.00  0.00     0.010 A 
ATOM     35  C   UNL A   1      38.763  32.794  30.422  1.00  0.00     0.010 A 
ATOM     36  C   UNL A   1      38.282  31.133  30.580  1.00  0.00    -0.014 A 
BRANCH  36  37
ATOM     37  C   UNL A   1      39.871  30.365  30.997  1.00  0.00     0.031 A 
ATOM     38  C   UNL A   1      40.361  29.115  30.356  1.00  0.00     0.074 A 
ATOM     39  C   UNL A   1      40.878  30.656  31.930  1.00  0.00     0.049 A 
ATOM     40  N   UNL A   1      41.259  28.364  30.939  1.00  0.00    -0.248 NA
ATOM     41  C   UNL A   1      39.864  28.547  29.118  1.00  0.00     0.031 C 
ATOM     42  C   UNL A   1      42.328  30.811  31.617  1.00  0.00     0.029 A 
ATOM     43  N   UNL A   1      40.857  31.113  33.249  1.00  0.00    -0.354 N 
ATOM     44  C   UNL A   1      41.740  27.514  29.994  1.00  0.00     0.074 A 
ATOM     45  C   UNL A   1      40.659  27.470  29.027  1.00  0.00     0.031 C 
ATOM     46  C   UNL A   1      42.949  31.516  32.596  1.00  0.00     0.029 A 
ATOM     47  C   UNL A   1      41.993  31.812  33.678  1.00  0.00     0.049 A 
ATOM     48  H   UNL A   1      40.088  30.953  33.843  1.00  0.00     0.167 HD
ATOM     49  C   UNL A   1      43.060  27.151  29.999  1.00  0.00     0.031 A 
ATOM     50  C   UNL A   1      42.254  32.313  34.937  1.00  0.00     0.031 A 
ATOM     51  C   UNL A   1      43.865  27.718  31.119  1.00  0.00     0.049 A 
ATOM     52  C   UNL A   1      43.113  31.246  35.505  1.00  0.00     0.074 A 
ATOM     53  C   UNL A   1      44.976  28.553  31.131  1.00  0.00     0.029 A 
ATOM     54  N   UNL A   1      43.490  27.586  32.467  1.00  0.00    -0.354 N 
ATOM     55  N   UNL A   1      43.415  30.236  34.756  1.00  0.00    -0.248 NA
ATOM     56  C   UNL A   1      43.650  31.124  36.846  1.00  0.00     0.031 C 
ATOM     57  C   UNL A   1      45.284  28.892  32.472  1.00  0.00     0.029 A 
ATOM     58  C   UNL A   1      44.390  28.241  33.306  1.00  0.00     0.049 A 
ATOM     59  H   UNL A   1      42.695  27.098  32.779  1.00  0.00     0.167 HD
ATOM     60  C   UNL A   1      44.084  29.313  35.442  1.00  0.00     0.074 A 
ATOM     61  C   UNL A   1      44.214  29.900  36.768  1.00  0.00     0.031 C 
ATOM     62  C   UNL A   1      44.346  28.161  34.781  1.00  0.00     0.031 A 
BRANCH  49  63
ATOM     63  C   UNL A   1      43.731  26.478  28.794  1.00  0.00    -0.014 A 
ATOM     64  C   UNL A   1      44.466  25.281  28.940  1.00  0.00     0.010 A 
ATOM     65  C   UNL A   1      43.689  26.987  27.482  1.00  0.00     0.010 A 
ATOM     66  C   UNL A   1      45.114  24.654  27.855  1.00  0.00     0.020 A 
ATOM     67  C   UNL A   1      44.317  26.380  26.390  1.00  0.00     0.020 A 
ATOM     68  C   UNL A   1      45.025  25.207  26.580  1.00  0.00     0.054 A 
BRANCH  68  69
ATOM     69  S   UNL A   1      45.776  24.374  25.161  1.00  0.00     0.124 S 
ATOM     70  O   UNL A   1      46.607  25.426  24.585  1.00  0.00    -0.237 OA
ATOM     71  O   UNL A   1      46.494  23.270  25.790  1.00  0.00    -0.237 OA
ATOM     72  O   UNL A   1      44.629  23.978  24.345  1.00  0.00    -0.744 OA
ENDBRANCH  68  69
ENDBRANCH  49  63
BRANCH  50  73
ATOM     73  C   UNL A   1      41.233  33.108  35.759  1.00  0.00    -0.014 A 
ATOM     74  C   UNL A   1      39.992  33.461  35.161  1.00  0.00     0.010 A 
ATOM     75  C   UNL A   1      41.265  33.131  37.164  1.00  0.00     0.010 A 
ATOM     76  C   UNL A   1      38.778  33.456  35.900  1.00  0.00     0.020 A 
ATOM     77  C   UNL A   1      40.060  33.167  37.918  1.00  0.00     0.020 A 
ATOM     78  C   UNL A   1      38.816  33.225  37.273  1.00  0.00     0.054 A 
BRANCH  78  79
ATOM     79  S   UNL A   1      37.300  32.574  38.113  1.00  0.00     0.124 S 
ATOM     80  O   UNL A   1      37.455  33.046  39.483  1.00  0.00    -0.237 OA
ATOM     81  O   UNL A   1      36.210  33.189  37.361  1.00  0.00    -0.237 OA
ATOM     82  O   UNL A   1      37.407  31.128  37.921  1.00  0.00    -0.744 OA
ENDBRANCH  78  79
ENDBRANCH  50  73
BRANCH  62  83
ATOM     83  C   UNL A   1      44.703  26.920  35.492  1.00  0.00    -0.014 A 
ATOM     84  C   UNL A   1      43.801  25.857  35.663  1.00  0.00     0.010 A 
ATOM     85  C   UNL A   1      46.036  26.748  35.900  1.00  0.00     0.010 A 
ATOM     86  C   UNL A   1      44.199  24.686  36.291  1.00  0.00     0.020 A 
ATOM     87  C   UNL A   1      46.457  25.560  36.480  1.00  0.00     0.020 A 
ATOM     88  C   UNL A   1      45.526  24.549  36.696  1.00  0.00     0.054 A 
BRANCH  88  89
ATOM     89  S   UNL A   1      46.023  23.004  37.469  1.00  0.00     0.124 S 
ATOM     90  O   UNL A   1      45.341  22.022  36.631  1.00  0.00    -0.237 OA
ATOM     91  O   UNL A   1      47.477  23.038  37.340  1.00  0.00    -0.237 OA
ATOM     92  O   UNL A   1      45.519  23.123  38.835  1.00  0.00    -0.744 OA
ENDBRANCH  88  89
ENDBRANCH  62  83
ENDBRANCH  36  37
ENDBRANCH  29  31
ENDBRANCH  28  29
ENDBRANCH  27  28
ENDBRANCH  26  27
ENDBRANCH  25  26
ENDBRANCH   1  25
TORSDOF 22
ENDMDL
MODEL 3
REMARK VINA RESULT:     -10.9      9.047     14.390
REMARK SMILES Cc1ccc(/C=C2/SC(=O)N(CC(=O)OCCOCCOCCOC(=O)c3ccc(-c4c5nc(c(-c6ccc(S(=O)(=O)[O-])cc6)c6ccc([nH]6)c(-c6ccc(S(=O)(=O)[O-])cc6)c6nc(c(-c7ccc(S(=O)(=O)[O-])cc7)c7ccc4[nH]7)C=C6)C=C5)cc3)C2=O)cc1
REMARK SMILES IDX 20 1 19 2 18 3 17 4 16 5 15 6 13 7 14 8 12 9 11 10 6 11 7 12
REMARK SMILES IDX 8 13 87 14 9 15 88 16 10 17 5 18 1 19 2 20 3 21 90 22 4 23
REMARK SMILES IDX 89 24 21 25 22 26 23 27 24 28 25 29 26 30 27 31 28 32 86 33
REMARK SMILES IDX 29 34 85 35 30 36 31 37 32 38 79 39 33 40 84 41 78 42 80 43
REMARK SMILES IDX 34 44 83 45 77 46 76 47 35 49 65 50 46 51 64 52 47 53 50 54
REMARK SMILES IDX 63 55 81 56 48 57 49 58 62 60 82 61 51 62 36 63 37 64 45 65
REMARK SMILES IDX 38 66 44 67 39 68 40 69 41 70 42 71 43 72 66 73 67 74 75 75
REMARK SMILES IDX 68 76 74 77 69 78 70 79 71 80 72 81 73 82 52 83 53 84 61 85
REMARK SMILES IDX 54 86 60 87 55 88 56 89 57 90 58 91 59 92
REMARK H PARENT 80 48 50 59
REMARK Flexibility Score: inf
ROOT
ATOM      1  C   UNL A   1      33.653  35.495  28.417  1.00  0.00     0.188 C 
ENDROOT
BRANCH   1   2
ATOM      2  C   UNL A   1      33.885  33.984  28.311  1.00  0.00     0.188 C 
BRANCH   2   3
ATOM      3  O   UNL A   1      35.010  33.387  27.683  1.00  0.00    -0.376 OA
BRANCH   3   4
ATOM      4  C   UNL A   1      35.194  31.994  27.675  1.00  0.00     0.202 C 
BRANCH   4   5
ATOM      5  C   UNL A   1      34.047  30.978  27.773  1.00  0.00     0.261 C 
BRANCH   5   6
ATOM      6  O   UNL A   1      33.655  30.034  26.768  1.00  0.00    -0.462 OA
BRANCH   6   7
ATOM      7  C   UNL A   1      32.675  29.100  26.831  1.00  0.00     0.326 C 
ATOM      8  O   UNL A   1      31.532  29.403  27.117  1.00  0.00    -0.250 OA
BRANCH   7   9
ATOM      9  C   UNL A   1      33.141  27.610  26.597  1.00  0.00     0.252 C 
BRANCH   9  10
ATOM     10  N   UNL A   1      32.751  27.096  25.329  1.00  0.00    -0.257 N 
ATOM     11  C   UNL A   1      32.177  22.931  23.761  1.00  0.00     0.029 C 
ATOM     12  C   UNL A   1      31.847  24.318  24.049  1.00  0.00     0.083 C 
ATOM     13  S   UNL A   1      32.960  25.459  22.408  1.00  0.00    -0.022 SA
ATOM     14  C   UNL A   1      31.738  25.689  25.714  1.00  0.00     0.268 C 
ATOM     15  C   UNL A   1      33.464  27.252  23.743  1.00  0.00     0.294 C 
ATOM     16  O   UNL A   1      31.343  25.663  26.891  1.00  0.00    -0.268 OA
ATOM     17  O   UNL A   1      34.204  28.099  23.264  1.00  0.00    -0.261 OA
BRANCH  11  18
ATOM     18  C   UNL A   1      32.937  21.842  24.651  1.00  0.00    -0.024 A 
ATOM     19  C   UNL A   1      34.558  17.865  24.258  1.00  0.00     0.044 C 
ATOM     20  C   UNL A   1      34.088  19.212  24.784  1.00  0.00    -0.051 A 
ATOM     21  C   UNL A   1      32.743  19.417  25.107  1.00  0.00     0.004 A 
ATOM     22  C   UNL A   1      34.904  20.348  24.716  1.00  0.00     0.004 A 
ATOM     23  C   UNL A   1      32.179  20.722  25.072  1.00  0.00     0.008 A 
ATOM     24  C   UNL A   1      34.339  21.662  24.677  1.00  0.00     0.008 A 
ENDBRANCH  11  18
ENDBRANCH   9  10
ENDBRANCH   7   9
ENDBRANCH   6   7
ENDBRANCH   5   6
ENDBRANCH   4   5
ENDBRANCH   3   4
ENDBRANCH   2   3
ENDBRANCH   1   2
BRANCH   1  25
ATOM     25  O   UNL A   1      32.527  35.898  29.176  1.00  0.00    -0.376 OA
BRANCH  25  26
ATOM     26  C   UNL A   1      32.589  35.770  30.582  1.00  0.00     0.202 C 
BRANCH  26  27
ATOM     27  C   UNL A   1      33.940  36.039  31.257  1.00  0.00     0.261 C 
BRANCH  27  28
ATOM     28  O   UNL A   1      34.072  35.266  32.453  1.00  0.00    -0.460 OA
BRANCH  28  29
ATOM     29  C   UNL A   1      35.321  34.791  32.686  1.00  0.00     0.338 C 
ATOM     30  O   UNL A   1      36.077  35.184  33.551  1.00  0.00    -0.246 OA
BRANCH  29  31
ATOM     31  C   UNL A   1      35.592  33.799  31.601  1.00  0.00     0.060 A 
ATOM     32  C   UNL A   1      35.032  32.158  31.841  1.00  0.00     0.016 A 
ATOM     33  C   UNL A   1      36.998  34.190  30.636  1.00  0.00     0.016 A 
ATOM     34  C   UNL A   1      35.937  30.884  31.023  1.00  0.00     0.010 A 
ATOM     35  C   UNL A   1      38.060  33.063  29.964  1.00  0.00     0.010 A 
ATOM     36  C   UNL A   1      37.703  31.372  30.143  1.00  0.00    -0.014 A 
BRANCH  36  37
ATOM     37  C   UNL A   1      39.375  30.696  30.322  1.00  0.00     0.031 A 
ATOM     38  C   UNL A   1      39.710  29.272  30.047  1.00  0.00     0.074 A 
ATOM     39  C   UNL A   1      40.600  31.228  30.758  1.00  0.00     0.049 A 
ATOM     40  N   UNL A   1      40.770  28.715  30.568  1.00  0.00    -0.248 NA
ATOM     41  C   UNL A   1      38.895  28.343  29.288  1.00  0.00     0.031 C 
ATOM     42  C   UNL A   1      41.885  31.170  30.004  1.00  0.00     0.029 A 
ATOM     43  N   UNL A   1      40.947  32.114  31.778  1.00  0.00    -0.354 N 
ATOM     44  C   UNL A   1      40.989  27.560  29.886  1.00  0.00     0.074 A 
ATOM     45  C   UNL A   1      39.673  27.252  29.354  1.00  0.00     0.031 C 
ATOM     46  C   UNL A   1      42.735  32.130  30.447  1.00  0.00     0.029 A 
ATOM     47  C   UNL A   1      42.128  32.844  31.585  1.00  0.00     0.049 A 
ATOM     48  H   UNL A   1      40.395  32.221  32.586  1.00  0.00     0.167 HD
ATOM     49  C   UNL A   1      42.266  27.136  29.634  1.00  0.00     0.031 A 
ATOM     50  C   UNL A   1      42.726  33.733  32.454  1.00  0.00     0.031 A 
ATOM     51  C   UNL A   1      43.339  28.004  30.199  1.00  0.00     0.049 A 
ATOM     52  C   UNL A   1      43.760  32.877  33.084  1.00  0.00     0.074 A 
ATOM     53  C   UNL A   1      44.367  28.718  29.594  1.00  0.00     0.029 A 
ATOM     54  N   UNL A   1      43.384  28.374  31.554  1.00  0.00    -0.354 N 
ATOM     55  N   UNL A   1      43.871  31.652  32.684  1.00  0.00    -0.248 NA
ATOM     56  C   UNL A   1      44.672  33.194  34.165  1.00  0.00     0.031 C 
ATOM     57  C   UNL A   1      45.042  29.481  30.580  1.00  0.00     0.029 A 
ATOM     58  C   UNL A   1      44.462  29.220  31.810  1.00  0.00     0.049 A 
ATOM     59  H   UNL A   1      42.738  28.076  32.234  1.00  0.00     0.167 HD
ATOM     60  C   UNL A   1      44.752  30.984  33.424  1.00  0.00     0.074 A 
ATOM     61  C   UNL A   1      45.241  31.985  34.361  1.00  0.00     0.031 C 
ATOM     62  C   UNL A   1      44.857  29.660  33.163  1.00  0.00     0.031 A 
BRANCH  49  63
ATOM     63  C   UNL A   1      42.581  26.045  28.602  1.00  0.00    -0.014 A 
ATOM     64  C   UNL A   1      42.903  26.373  27.266  1.00  0.00     0.010 A 
ATOM     65  C   UNL A   1      42.562  24.666  28.882  1.00  0.00     0.010 A 
ATOM     66  C   UNL A   1      43.172  25.390  26.290  1.00  0.00     0.020 A 
ATOM     67  C   UNL A   1      42.833  23.674  27.933  1.00  0.00     0.020 A 
ATOM     68  C   UNL A   1      43.144  24.042  26.637  1.00  0.00     0.054 A 
BRANCH  68  69
ATOM     69  S   UNL A   1      43.570  22.771  25.423  1.00  0.00     0.124 S 
ATOM     70  O   UNL A   1      44.699  22.099  26.057  1.00  0.00    -0.237 OA
ATOM     71  O   UNL A   1      42.336  21.996  25.334  1.00  0.00    -0.237 OA
ATOM     72  O   UNL A   1      43.905  23.537  24.222  1.00  0.00    -0.744 OA
ENDBRANCH  68  69
ENDBRANCH  49  63
BRANCH  50  73
ATOM     73  C   UNL A   1      41.959  34.829  33.204  1.00  0.00    -0.014 A 
ATOM     74  C   UNL A   1      40.721  34.502  33.823  1.00  0.00     0.010 A 
ATOM     75  C   UNL A   1      42.593  35.990  33.676  1.00  0.00     0.010 A 
ATOM     76  C   UNL A   1      40.340  35.062  35.072  1.00  0.00     0.020 A 
ATOM     77  C   UNL A   1      42.195  36.587  34.905  1.00  0.00     0.020 A 
ATOM     78  C   UNL A   1      41.133  36.052  35.647  1.00  0.00     0.054 A 
BRANCH  78  79
ATOM     79  S   UNL A   1      41.052  36.313  37.479  1.00  0.00     0.124 S 
ATOM     80  O   UNL A   1      42.135  37.255  37.724  1.00  0.00    -0.237 OA
ATOM     81  O   UNL A   1      39.706  36.843  37.682  1.00  0.00    -0.237 OA
ATOM     82  O   UNL A   1      41.243  34.966  38.017  1.00  0.00    -0.744 OA
ENDBRANCH  78  79
ENDBRANCH  50  73
BRANCH  62  83
ATOM     83  C   UNL A   1      45.461  28.723  34.129  1.00  0.00    -0.014 A 
ATOM     84  C   UNL A   1      44.741  28.164  35.196  1.00  0.00     0.010 A 
ATOM     85  C   UNL A   1      46.772  28.277  33.889  1.00  0.00     0.010 A 
ATOM     86  C   UNL A   1      45.336  27.244  36.046  1.00  0.00     0.020 A 
ATOM     87  C   UNL A   1      47.358  27.316  34.702  1.00  0.00     0.020 A 
ATOM     88  C   UNL A   1      46.643  26.829  35.791  1.00  0.00     0.054 A 
BRANCH  88  89
ATOM     89  S   UNL A   1      47.373  25.604  36.886  1.00  0.00     0.124 S 
ATOM     90  O   UNL A   1      47.355  24.409  36.046  1.00  0.00    -0.237 OA
ATOM     91  O   UNL A   1      48.696  26.165  37.150  1.00  0.00    -0.237 OA
ATOM     92  O   UNL A   1      46.470  25.581  38.032  1.00  0.00    -0.744 OA
ENDBRANCH  88  89
ENDBRANCH  62  83
ENDBRANCH  36  37
ENDBRANCH  29  31
ENDBRANCH  28  29
ENDBRANCH  27  28
ENDBRANCH  26  27
ENDBRANCH  25  26
ENDBRANCH   1  25
TORSDOF 22
ENDMDL
