MODEL 1
REMARK VINA RESULT:      -8.6      0.000      0.000
REMARK SMILES O=C(CCCCCN1C(=O)/C(=C2\C(=O)Nc3ccccc32)SC1=S)OCCOCCOCCOC(=O)c1ccc(-c2c3nc(c(-c4ccc(S(=O)(=O)[O-])cc4)c4ccc([nH]4)c(-c4ccc(S(=O)(=O)[O-])cc4)c4nc(c(-c5ccc(S(=O)(=O)[O-])cc5)c5ccc2[nH]5)C=C4)C=C3)cc1
REMARK SMILES IDX 29 1 28 2 27 3 26 4 25 5 2 6 1 7 3 8 4 9 5 10 6 11 7 12 8 13
REMARK SMILES IDX 9 14 23 15 10 16 11 17 22 18 24 19 12 20 13 21 21 22 14 23
REMARK SMILES IDX 15 24 16 25 20 26 17 28 19 29 18 30 30 31 31 32 32 33 33 34
REMARK SMILES IDX 34 35 35 36 36 37 37 38 38 39 96 40 39 41 95 42 40 43 41 44
REMARK SMILES IDX 42 45 89 46 43 47 94 48 88 49 90 50 44 51 93 52 87 53 86 54
REMARK SMILES IDX 45 56 75 57 56 58 74 59 57 60 60 61 73 62 91 63 58 64 59 65
REMARK SMILES IDX 72 67 92 68 61 69 46 70 47 71 55 72 48 73 54 74 49 75 50 76
REMARK SMILES IDX 51 77 52 78 53 79 76 80 77 81 85 82 78 83 84 84 79 85 80 86
REMARK SMILES IDX 81 87 82 88 83 89 62 90 63 91 71 92 64 93 70 94 65 95 66 96
REMARK SMILES IDX 67 97 68 98 69 99
REMARK H PARENT 15 27 90 55 60 66
REMARK Flexibility Score: inf
ROOT
ATOM      1  C   UNL A   1      46.319  40.450  34.635  1.00  0.00     0.188 C 
ENDROOT
BRANCH   1   2
ATOM      2  O   UNL A   1      45.677  41.400  35.473  1.00  0.00    -0.376 OA
BRANCH   2   3
ATOM      3  C   UNL A   1      44.406  41.863  35.059  1.00  0.00     0.202 C 
BRANCH   3   4
ATOM      4  C   UNL A   1      44.452  42.886  33.935  1.00  0.00     0.261 C 
BRANCH   4   5
ATOM      5  O   UNL A   1      44.296  42.336  32.618  1.00  0.00    -0.463 OA
BRANCH   5   6
ATOM      6  C   UNL A   1      43.243  42.532  31.786  1.00  0.00     0.305 C 
ATOM      7  O   UNL A   1      42.162  42.863  32.272  1.00  0.00    -0.252 OA
BRANCH   6   8
ATOM      8  C   UNL A   1      43.332  42.135  30.325  1.00  0.00     0.123 C 
BRANCH   8   9
ATOM      9  C   UNL A   1      43.614  40.673  30.009  1.00  0.00     0.012 C 
BRANCH   9  10
ATOM     10  C   UNL A   1      42.588  39.970  29.118  1.00  0.00     0.002 C 
BRANCH  10  11
ATOM     11  C   UNL A   1      42.322  40.633  27.755  1.00  0.00     0.022 C 
BRANCH  11  12
ATOM     12  C   UNL A   1      43.376  40.395  26.679  1.00  0.00     0.127 C 
BRANCH  12  13
ATOM     13  N   UNL A   1      43.693  41.629  25.979  1.00  0.00    -0.293 N 
ATOM     14  C   UNL A   1      42.925  41.938  24.868  1.00  0.00     0.267 C 
ATOM     15  C   UNL A   1      44.722  42.480  26.294  1.00  0.00     0.148 C 
ATOM     16  O   UNL A   1      42.071  41.193  24.419  1.00  0.00    -0.268 OA
ATOM     17  C   UNL A   1      43.416  43.183  24.230  1.00  0.00     0.093 C 
ATOM     18  S   UNL A   1      44.723  43.817  25.167  1.00  0.00    -0.053 SA
ATOM     19  S   UNL A   1      45.849  42.348  27.517  1.00  0.00    -0.052 S 
ATOM     20  C   UNL A   1      43.049  43.528  22.990  1.00  0.00     0.069 C 
ATOM     21  C   UNL A   1      41.798  43.061  22.284  1.00  0.00     0.257 C 
ATOM     22  C   UNL A   1      43.873  44.205  21.980  1.00  0.00     0.012 A 
ATOM     23  O   UNL A   1      40.748  42.712  22.806  1.00  0.00    -0.269 OA
ATOM     24  N   UNL A   1      42.029  43.291  20.944  1.00  0.00    -0.321 N 
ATOM     25  C   UNL A   1      43.229  43.973  20.758  1.00  0.00     0.049 A 
ATOM     26  C   UNL A   1      45.111  44.827  22.008  1.00  0.00     0.011 A 
ATOM     27  H   UNL A   1      41.427  43.012  20.217  1.00  0.00     0.170 HD
ATOM     28  C   UNL A   1      43.773  44.368  19.555  1.00  0.00     0.027 A 
ATOM     29  C   UNL A   1      45.687  45.220  20.801  1.00  0.00     0.001 A 
ATOM     30  C   UNL A   1      45.020  44.997  19.585  1.00  0.00     0.002 A 
ENDBRANCH  12  13
ENDBRANCH  11  12
ENDBRANCH  10  11
ENDBRANCH   9  10
ENDBRANCH   8   9
ENDBRANCH   6   8
ENDBRANCH   5   6
ENDBRANCH   4   5
ENDBRANCH   3   4
ENDBRANCH   2   3
ENDBRANCH   1   2
BRANCH   1  31
ATOM     31  C   UNL A   1      45.681  39.065  34.535  1.00  0.00     0.188 C 
BRANCH  31  32
ATOM     32  O   UNL A   1      44.439  38.819  35.184  1.00  0.00    -0.376 OA
BRANCH  32  33
ATOM     33  C   UNL A   1      43.411  38.106  34.511  1.00  0.00     0.202 C 
BRANCH  33  34
ATOM     34  C   UNL A   1      43.696  36.647  34.172  1.00  0.00     0.261 C 
BRANCH  34  35
ATOM     35  O   UNL A   1      44.453  35.978  35.191  1.00  0.00    -0.460 OA
BRANCH  35  36
ATOM     36  C   UNL A   1      45.480  35.211  34.757  1.00  0.00     0.338 C 
ATOM     37  O   UNL A   1      46.661  35.327  35.028  1.00  0.00    -0.246 OA
BRANCH  36  38
ATOM     38  C   UNL A   1      44.930  34.106  33.952  1.00  0.00     0.060 A 
ATOM     39  C   UNL A   1      45.156  34.075  32.575  1.00  0.00     0.016 A 
ATOM     40  C   UNL A   1      44.244  33.068  34.592  1.00  0.00     0.016 A 
ATOM     41  C   UNL A   1      44.716  32.978  31.837  1.00  0.00     0.010 A 
ATOM     42  C   UNL A   1      43.802  31.972  33.850  1.00  0.00     0.010 A 
ATOM     43  C   UNL A   1      44.059  31.908  32.473  1.00  0.00    -0.014 A 
BRANCH  43  44
ATOM     44  C   UNL A   1      43.801  30.658  31.720  1.00  0.00     0.031 A 
ATOM     45  C   UNL A   1      44.841  29.589  31.592  1.00  0.00     0.074 A 
ATOM     46  C   UNL A   1      42.594  30.508  31.141  1.00  0.00     0.049 A 
ATOM     47  N   UNL A   1      44.729  28.408  31.044  1.00  0.00    -0.248 NA
ATOM     48  C   UNL A   1      46.173  29.877  32.144  1.00  0.00     0.031 C 
ATOM     49  C   UNL A   1      41.519  31.502  31.194  1.00  0.00     0.029 A 
ATOM     50  N   UNL A   1      42.059  29.475  30.415  1.00  0.00    -0.354 N 
ATOM     51  C   UNL A   1      45.969  27.802  31.192  1.00  0.00     0.074 A 
ATOM     52  C   UNL A   1      46.832  28.763  31.847  1.00  0.00     0.031 C 
ATOM     53  C   UNL A   1      40.443  31.014  30.562  1.00  0.00     0.029 A 
ATOM     54  C   UNL A   1      40.760  29.696  30.019  1.00  0.00     0.049 A 
ATOM     55  H   UNL A   1      42.556  28.654  30.197  1.00  0.00     0.167 HD
ATOM     56  C   UNL A   1      46.340  26.553  30.823  1.00  0.00     0.031 A 
ATOM     57  C   UNL A   1      39.912  28.931  29.302  1.00  0.00     0.031 A 
ATOM     58  C   UNL A   1      45.462  25.620  30.157  1.00  0.00     0.049 A 
ATOM     59  C   UNL A   1      40.358  27.567  28.860  1.00  0.00     0.074 A 
ATOM     60  C   UNL A   1      45.723  24.309  29.802  1.00  0.00     0.029 A 
ATOM     61  N   UNL A   1      44.170  25.899  29.727  1.00  0.00    -0.354 N 
ATOM     62  N   UNL A   1      41.500  26.967  29.099  1.00  0.00    -0.248 NA
ATOM     63  C   UNL A   1      39.412  26.770  28.069  1.00  0.00     0.031 C 
ATOM     64  C   UNL A   1      44.635  23.830  29.072  1.00  0.00     0.029 A 
ATOM     65  C   UNL A   1      43.648  24.803  29.059  1.00  0.00     0.049 A 
ATOM     66  H   UNL A   1      43.696  26.749  29.875  1.00  0.00     0.167 HD
ATOM     67  C   UNL A   1      41.406  25.717  28.500  1.00  0.00     0.074 A 
ATOM     68  C   UNL A   1      40.090  25.639  27.900  1.00  0.00     0.031 C 
ATOM     69  C   UNL A   1      42.334  24.728  28.457  1.00  0.00     0.031 A 
BRANCH  56  70
ATOM     70  C   UNL A   1      47.747  26.096  31.127  1.00  0.00    -0.014 A 
ATOM     71  C   UNL A   1      48.103  25.728  32.439  1.00  0.00     0.010 A 
ATOM     72  C   UNL A   1      48.753  26.152  30.145  1.00  0.00     0.010 A 
ATOM     73  C   UNL A   1      49.436  25.455  32.770  1.00  0.00     0.020 A 
ATOM     74  C   UNL A   1      50.079  25.846  30.463  1.00  0.00     0.020 A 
ATOM     75  C   UNL A   1      50.418  25.524  31.778  1.00  0.00     0.054 A 
BRANCH  75  76
ATOM     76  S   UNL A   1      52.153  25.196  32.208  1.00  0.00     0.124 S 
ATOM     77  O   UNL A   1      52.221  23.740  32.114  1.00  0.00    -0.237 OA
ATOM     78  O   UNL A   1      52.886  25.928  31.179  1.00  0.00    -0.237 OA
ATOM     79  O   UNL A   1      52.285  25.737  33.564  1.00  0.00    -0.744 OA
ENDBRANCH  75  76
ENDBRANCH  56  70
BRANCH  57  80
ATOM     80  C   UNL A   1      38.546  29.456  29.028  1.00  0.00    -0.014 A 
ATOM     81  C   UNL A   1      38.274  30.126  27.817  1.00  0.00     0.010 A 
ATOM     82  C   UNL A   1      37.566  29.445  30.034  1.00  0.00     0.010 A 
ATOM     83  C   UNL A   1      37.094  30.855  27.659  1.00  0.00     0.020 A 
ATOM     84  C   UNL A   1      36.367  30.147  29.866  1.00  0.00     0.020 A 
ATOM     85  C   UNL A   1      36.159  30.882  28.696  1.00  0.00     0.054 A 
BRANCH  85  86
ATOM     86  S   UNL A   1      34.704  31.951  28.523  1.00  0.00     0.124 S 
ATOM     87  O   UNL A   1      34.433  32.314  29.912  1.00  0.00    -0.237 OA
ATOM     88  O   UNL A   1      35.201  33.030  27.676  1.00  0.00    -0.237 OA
ATOM     89  O   UNL A   1      33.709  31.081  27.903  1.00  0.00    -0.744 OA
ENDBRANCH  85  86
ENDBRANCH  57  80
BRANCH  69  90
ATOM     90  C   UNL A   1      42.001  23.452  27.724  1.00  0.00    -0.014 A 
ATOM     91  C   UNL A   1      41.346  22.409  28.406  1.00  0.00     0.010 A 
ATOM     92  C   UNL A   1      42.523  23.208  26.441  1.00  0.00     0.010 A 
ATOM     93  C   UNL A   1      41.292  21.125  27.857  1.00  0.00     0.020 A 
ATOM     94  C   UNL A   1      42.439  21.932  25.873  1.00  0.00     0.020 A 
ATOM     95  C   UNL A   1      41.860  20.891  26.603  1.00  0.00     0.054 A 
BRANCH  95  96
ATOM     96  S   UNL A   1      41.889  19.192  25.966  1.00  0.00     0.124 S 
ATOM     97  O   UNL A   1      40.501  18.992  25.560  1.00  0.00    -0.237 OA
ATOM     98  O   UNL A   1      42.857  19.277  24.876  1.00  0.00    -0.237 OA
ATOM     99  O   UNL A   1      42.322  18.400  27.115  1.00  0.00    -0.744 OA
ENDBRANCH  95  96
ENDBRANCH  69  90
ENDBRANCH  43  44
ENDBRANCH  36  38
ENDBRANCH  35  36
ENDBRANCH  34  35
ENDBRANCH  33  34
ENDBRANCH  32  33
ENDBRANCH  31  32
ENDBRANCH   1  31
TORSDOF 25
ENDMDL
MODEL 2
REMARK VINA RESULT:      -8.1      6.262     15.992
REMARK SMILES O=C(CCCCCN1C(=O)/C(=C2\C(=O)Nc3ccccc32)SC1=S)OCCOCCOCCOC(=O)c1ccc(-c2c3nc(c(-c4ccc(S(=O)(=O)[O-])cc4)c4ccc([nH]4)c(-c4ccc(S(=O)(=O)[O-])cc4)c4nc(c(-c5ccc(S(=O)(=O)[O-])cc5)c5ccc2[nH]5)C=C4)C=C3)cc1
REMARK SMILES IDX 29 1 28 2 27 3 26 4 25 5 2 6 1 7 3 8 4 9 5 10 6 11 7 12 8 13
REMARK SMILES IDX 9 14 23 15 10 16 11 17 22 18 24 19 12 20 13 21 21 22 14 23
REMARK SMILES IDX 15 24 16 25 20 26 17 28 19 29 18 30 30 31 31 32 32 33 33 34
REMARK SMILES IDX 34 35 35 36 36 37 37 38 38 39 96 40 39 41 95 42 40 43 41 44
REMARK SMILES IDX 42 45 89 46 43 47 94 48 88 49 90 50 44 51 93 52 87 53 86 54
REMARK SMILES IDX 45 56 75 57 56 58 74 59 57 60 60 61 73 62 91 63 58 64 59 65
REMARK SMILES IDX 72 67 92 68 61 69 46 70 47 71 55 72 48 73 54 74 49 75 50 76
REMARK SMILES IDX 51 77 52 78 53 79 76 80 77 81 85 82 78 83 84 84 79 85 80 86
REMARK SMILES IDX 81 87 82 88 83 89 62 90 63 91 71 92 64 93 70 94 65 95 66 96
REMARK SMILES IDX 67 97 68 98 69 99
REMARK H PARENT 15 27 90 55 60 66
REMARK Flexibility Score: inf
ROOT
ATOM      1  C   UNL A   1      40.363  27.924  29.617  1.00  0.00     0.188 C 
ENDROOT
BRANCH   1   2
ATOM      2  O   UNL A   1      40.909  29.112  29.064  1.00  0.00    -0.376 OA
BRANCH   2   3
ATOM      3  C   UNL A   1      40.132  30.289  29.184  1.00  0.00     0.202 C 
BRANCH   3   4
ATOM      4  C   UNL A   1      38.686  30.043  29.583  1.00  0.00     0.261 C 
BRANCH   4   5
ATOM      5  O   UNL A   1      37.729  30.276  28.539  1.00  0.00    -0.463 OA
BRANCH   5   6
ATOM      6  C   UNL A   1      36.424  29.904  28.549  1.00  0.00     0.305 C 
ATOM      7  O   UNL A   1      35.946  29.461  29.592  1.00  0.00    -0.252 OA
BRANCH   6   8
ATOM      8  C   UNL A   1      35.638  29.819  27.254  1.00  0.00     0.123 C 
BRANCH   8   9
ATOM      9  C   UNL A   1      34.391  28.948  27.244  1.00  0.00     0.012 C 
BRANCH   9  10
ATOM     10  C   UNL A   1      33.763  28.693  25.873  1.00  0.00     0.002 C 
BRANCH  10  11
ATOM     11  C   UNL A   1      33.160  27.293  25.664  1.00  0.00     0.022 C 
BRANCH  11  12
ATOM     12  C   UNL A   1      34.000  26.318  24.846  1.00  0.00     0.127 C 
BRANCH  12  13
ATOM     13  N   UNL A   1      33.219  25.153  24.464  1.00  0.00    -0.293 N 
ATOM     14  C   UNL A   1      33.257  24.062  25.317  1.00  0.00     0.267 C 
ATOM     15  C   UNL A   1      32.495  25.024  23.305  1.00  0.00     0.148 C 
ATOM     16  O   UNL A   1      33.968  24.013  26.307  1.00  0.00    -0.268 OA
ATOM     17  C   UNL A   1      32.471  22.937  24.755  1.00  0.00     0.093 C 
ATOM     18  S   UNL A   1      31.741  23.447  23.275  1.00  0.00    -0.053 SA
ATOM     19  S   UNL A   1      32.312  26.122  22.063  1.00  0.00    -0.052 S 
ATOM     20  C   UNL A   1      32.595  21.690  25.226  1.00  0.00     0.069 C 
ATOM     21  C   UNL A   1      33.091  21.318  26.603  1.00  0.00     0.257 C 
ATOM     22  C   UNL A   1      32.524  20.443  24.454  1.00  0.00     0.012 A 
ATOM     23  O   UNL A   1      33.024  22.000  27.616  1.00  0.00    -0.269 OA
ATOM     24  N   UNL A   1      33.458  19.991  26.511  1.00  0.00    -0.321 N 
ATOM     25  C   UNL A   1      33.116  19.467  25.266  1.00  0.00     0.049 A 
ATOM     26  C   UNL A   1      32.156  20.137  23.153  1.00  0.00     0.011 A 
ATOM     27  H   UNL A   1      33.901  19.483  27.228  1.00  0.00     0.170 HD
ATOM     28  C   UNL A   1      33.330  18.179  24.829  1.00  0.00     0.027 A 
ATOM     29  C   UNL A   1      32.379  18.842  22.685  1.00  0.00     0.001 A 
ATOM     30  C   UNL A   1      32.957  17.870  23.518  1.00  0.00     0.002 A 
ENDBRANCH  12  13
ENDBRANCH  11  12
ENDBRANCH  10  11
ENDBRANCH   9  10
ENDBRANCH   8   9
ENDBRANCH   6   8
ENDBRANCH   5   6
ENDBRANCH   4   5
ENDBRANCH   3   4
ENDBRANCH   2   3
ENDBRANCH   1   2
BRANCH   1  31
ATOM     31  C   UNL A   1      40.590  26.627  28.842  1.00  0.00     0.188 C 
BRANCH  31  32
ATOM     32  O   UNL A   1      40.132  26.526  27.499  1.00  0.00    -0.376 OA
BRANCH  32  33
ATOM     33  C   UNL A   1      41.063  26.537  26.424  1.00  0.00     0.202 C 
BRANCH  33  34
ATOM     34  C   UNL A   1      41.432  27.900  25.850  1.00  0.00     0.261 C 
BRANCH  34  35
ATOM     35  O   UNL A   1      42.734  27.913  25.247  1.00  0.00    -0.460 OA
BRANCH  35  36
ATOM     36  C   UNL A   1      43.781  27.818  26.100  1.00  0.00     0.338 C 
ATOM     37  O   UNL A   1      44.636  26.953  26.133  1.00  0.00    -0.246 OA
BRANCH  36  38
ATOM     38  C   UNL A   1      43.795  29.015  26.958  1.00  0.00     0.060 A 
ATOM     39  C   UNL A   1      44.310  28.932  28.252  1.00  0.00     0.016 A 
ATOM     40  C   UNL A   1      43.350  30.236  26.438  1.00  0.00     0.016 A 
ATOM     41  C   UNL A   1      44.408  30.089  29.023  1.00  0.00     0.010 A 
ATOM     42  C   UNL A   1      43.448  31.393  27.213  1.00  0.00     0.010 A 
ATOM     43  C   UNL A   1      44.002  31.330  28.500  1.00  0.00    -0.014 A 
BRANCH  43  44
ATOM     44  C   UNL A   1      44.320  32.575  29.240  1.00  0.00     0.031 A 
ATOM     45  C   UNL A   1      45.476  33.443  28.854  1.00  0.00     0.074 A 
ATOM     46  C   UNL A   1      43.536  32.905  30.284  1.00  0.00     0.049 A 
ATOM     47  N   UNL A   1      45.821  34.603  29.348  1.00  0.00    -0.248 NA
ATOM     48  C   UNL A   1      46.358  32.954  27.784  1.00  0.00     0.031 C 
ATOM     49  C   UNL A   1      42.395  32.114  30.748  1.00  0.00     0.029 A 
ATOM     50  N   UNL A   1      43.560  33.985  31.129  1.00  0.00    -0.354 N 
ATOM     51  C   UNL A   1      46.953  34.993  28.646  1.00  0.00     0.074 A 
ATOM     52  C   UNL A   1      47.260  33.926  27.717  1.00  0.00     0.031 C 
ATOM     53  C   UNL A   1      41.807  32.752  31.769  1.00  0.00     0.029 A 
ATOM     54  C   UNL A   1      42.552  33.973  32.065  1.00  0.00     0.049 A 
ATOM     55  H   UNL A   1      44.235  34.699  31.074  1.00  0.00     0.167 HD
ATOM     56  C   UNL A   1      47.656  36.145  28.764  1.00  0.00     0.031 A 
ATOM     57  C   UNL A   1      42.251  34.843  33.051  1.00  0.00     0.031 A 
ATOM     58  C   UNL A   1      47.335  37.186  29.711  1.00  0.00     0.049 A 
ATOM     59  C   UNL A   1      43.072  36.091  33.197  1.00  0.00     0.074 A 
ATOM     60  C   UNL A   1      47.946  38.417  29.863  1.00  0.00     0.029 A 
ATOM     61  N   UNL A   1      46.337  37.116  30.676  1.00  0.00    -0.354 N 
ATOM     62  N   UNL A   1      44.077  36.496  32.457  1.00  0.00    -0.248 NA
ATOM     63  C   UNL A   1      42.723  37.006  34.292  1.00  0.00     0.031 C 
ATOM     64  C   UNL A   1      47.390  39.046  30.977  1.00  0.00     0.029 A 
ATOM     65  C   UNL A   1      46.359  38.257  31.462  1.00  0.00     0.049 A 
ATOM     66  H   UNL A   1      45.708  36.366  30.785  1.00  0.00     0.167 HD
ATOM     67  C   UNL A   1      44.472  37.718  32.986  1.00  0.00     0.074 A 
ATOM     68  C   UNL A   1      43.589  37.996  34.101  1.00  0.00     0.031 C 
ATOM     69  C   UNL A   1      45.478  38.531  32.577  1.00  0.00     0.031 A 
BRANCH  56  70
ATOM     70  C   UNL A   1      48.841  36.366  27.854  1.00  0.00    -0.014 A 
ATOM     71  C   UNL A   1      48.642  36.759  26.517  1.00  0.00     0.010 A 
ATOM     72  C   UNL A   1      50.146  36.061  28.282  1.00  0.00     0.010 A 
ATOM     73  C   UNL A   1      49.715  36.815  25.619  1.00  0.00     0.020 A 
ATOM     74  C   UNL A   1      51.226  36.149  27.398  1.00  0.00     0.020 A 
ATOM     75  C   UNL A   1      51.001  36.501  26.065  1.00  0.00     0.054 A 
BRANCH  75  76
ATOM     76  S   UNL A   1      52.393  36.547  24.898  1.00  0.00     0.124 S 
ATOM     77  O   UNL A   1      52.989  37.849  25.183  1.00  0.00    -0.237 OA
ATOM     78  O   UNL A   1      53.190  35.390  25.297  1.00  0.00    -0.237 OA
ATOM     79  O   UNL A   1      51.751  36.432  23.585  1.00  0.00    -0.744 OA
ENDBRANCH  75  76
ENDBRANCH  56  70
BRANCH  57  80
ATOM     80  C   UNL A   1      41.077  34.548  33.919  1.00  0.00    -0.014 A 
ATOM     81  C   UNL A   1      41.238  33.789  35.095  1.00  0.00     0.010 A 
ATOM     82  C   UNL A   1      39.779  34.872  33.490  1.00  0.00     0.010 A 
ATOM     83  C   UNL A   1      40.127  33.277  35.768  1.00  0.00     0.020 A 
ATOM     84  C   UNL A   1      38.662  34.389  34.182  1.00  0.00     0.020 A 
ATOM     85  C   UNL A   1      38.846  33.559  35.290  1.00  0.00     0.054 A 
BRANCH  85  86
ATOM     86  S   UNL A   1      37.427  32.765  36.095  1.00  0.00     0.124 S 
ATOM     87  O   UNL A   1      36.334  33.119  35.192  1.00  0.00    -0.237 OA
ATOM     88  O   UNL A   1      37.810  31.357  36.097  1.00  0.00    -0.237 OA
ATOM     89  O   UNL A   1      37.377  33.398  37.409  1.00  0.00    -0.744 OA
ENDBRANCH  85  86
ENDBRANCH  57  80
BRANCH  69  90
ATOM     90  C   UNL A   1      45.726  39.814  33.331  1.00  0.00    -0.014 A 
ATOM     91  C   UNL A   1      46.648  39.829  34.395  1.00  0.00     0.010 A 
ATOM     92  C   UNL A   1      44.900  40.934  33.127  1.00  0.00     0.010 A 
ATOM     93  C   UNL A   1      46.682  40.901  35.291  1.00  0.00     0.020 A 
ATOM     94  C   UNL A   1      44.956  42.024  34.002  1.00  0.00     0.020 A 
ATOM     95  C   UNL A   1      45.818  41.981  35.101  1.00  0.00     0.054 A 
BRANCH  95  96
ATOM     96  S   UNL A   1      45.791  43.302  36.345  1.00  0.00     0.124 S 
ATOM     97  O   UNL A   1      44.630  42.941  37.152  1.00  0.00    -0.237 OA
ATOM     98  O   UNL A   1      47.086  43.147  37.001  1.00  0.00    -0.237 OA
ATOM     99  O   UNL A   1      45.643  44.520  35.551  1.00  0.00    -0.744 OA
ENDBRANCH  95  96
ENDBRANCH  69  90
ENDBRANCH  43  44
ENDBRANCH  36  38
ENDBRANCH  35  36
ENDBRANCH  34  35
ENDBRANCH  33  34
ENDBRANCH  32  33
ENDBRANCH  31  32
ENDBRANCH   1  31
TORSDOF 25
ENDMDL
MODEL 3
REMARK VINA RESULT:      -8.0      8.339     18.848
REMARK SMILES O=C(CCCCCN1C(=O)/C(=C2\C(=O)Nc3ccccc32)SC1=S)OCCOCCOCCOC(=O)c1ccc(-c2c3nc(c(-c4ccc(S(=O)(=O)[O-])cc4)c4ccc([nH]4)c(-c4ccc(S(=O)(=O)[O-])cc4)c4nc(c(-c5ccc(S(=O)(=O)[O-])cc5)c5ccc2[nH]5)C=C4)C=C3)cc1
REMARK SMILES IDX 29 1 28 2 27 3 26 4 25 5 2 6 1 7 3 8 4 9 5 10 6 11 7 12 8 13
REMARK SMILES IDX 9 14 23 15 10 16 11 17 22 18 24 19 12 20 13 21 21 22 14 23
REMARK SMILES IDX 15 24 16 25 20 26 17 28 19 29 18 30 30 31 31 32 32 33 33 34
REMARK SMILES IDX 34 35 35 36 36 37 37 38 38 39 96 40 39 41 95 42 40 43 41 44
REMARK SMILES IDX 42 45 89 46 43 47 94 48 88 49 90 50 44 51 93 52 87 53 86 54
REMARK SMILES IDX 45 56 75 57 56 58 74 59 57 60 60 61 73 62 91 63 58 64 59 65
REMARK SMILES IDX 72 67 92 68 61 69 46 70 47 71 55 72 48 73 54 74 49 75 50 76
REMARK SMILES IDX 51 77 52 78 53 79 76 80 77 81 85 82 78 83 84 84 79 85 80 86
REMARK SMILES IDX 81 87 82 88 83 89 62 90 63 91 71 92 64 93 70 94 65 95 66 96
REMARK SMILES IDX 67 97 68 98 69 99
REMARK H PARENT 15 27 90 55 60 66
REMARK Flexibility Score: inf
ROOT
ATOM      1  C   UNL A   1      53.483  25.387  36.953  1.00  0.00     0.188 C 
ENDROOT
BRANCH   1   2
ATOM      2  O   UNL A   1      53.292  24.656  35.752  1.00  0.00    -0.376 OA
BRANCH   2   3
ATOM      3  C   UNL A   1      52.019  24.069  35.556  1.00  0.00     0.202 C 
BRANCH   3   4
ATOM      4  C   UNL A   1      52.029  22.847  34.651  1.00  0.00     0.261 C 
BRANCH   4   5
ATOM      5  O   UNL A   1      51.154  21.788  35.066  1.00  0.00    -0.463 OA
BRANCH   5   6
ATOM      6  C   UNL A   1      51.027  21.298  36.324  1.00  0.00     0.305 C 
ATOM      7  O   UNL A   1      51.844  20.465  36.717  1.00  0.00    -0.252 OA
BRANCH   6   8
ATOM      8  C   UNL A   1      49.787  21.595  37.145  1.00  0.00     0.123 C 
BRANCH   8   9
ATOM      9  C   UNL A   1      49.069  20.416  37.787  1.00  0.00     0.012 C 
BRANCH   9  10
ATOM     10  C   UNL A   1      47.544  20.516  37.851  1.00  0.00     0.002 C 
BRANCH  10  11
ATOM     11  C   UNL A   1      46.814  19.259  38.356  1.00  0.00     0.022 C 
BRANCH  11  12
ATOM     12  C   UNL A   1      46.005  19.425  39.638  1.00  0.00     0.127 C 
BRANCH  12  13
ATOM     13  N   UNL A   1      46.152  18.264  40.499  1.00  0.00    -0.293 N 
ATOM     14  C   UNL A   1      45.048  17.439  40.638  1.00  0.00     0.267 C 
ATOM     15  C   UNL A   1      47.271  17.951  41.229  1.00  0.00     0.148 C 
ATOM     16  O   UNL A   1      43.962  17.688  40.144  1.00  0.00    -0.268 OA
ATOM     17  C   UNL A   1      45.336  16.346  41.598  1.00  0.00     0.093 C 
ATOM     18  S   UNL A   1      46.976  16.479  42.125  1.00  0.00    -0.053 SA
ATOM     19  S   UNL A   1      48.718  18.775  41.325  1.00  0.00    -0.052 S 
ATOM     20  C   UNL A   1      44.357  15.604  42.131  1.00  0.00     0.069 C 
ATOM     21  C   UNL A   1      42.987  15.397  41.529  1.00  0.00     0.257 C 
ATOM     22  C   UNL A   1      44.305  15.056  43.492  1.00  0.00     0.012 A 
ATOM     23  O   UNL A   1      42.690  15.452  40.344  1.00  0.00    -0.269 OA
ATOM     24  N   UNL A   1      42.196  14.954  42.569  1.00  0.00    -0.321 N 
ATOM     25  C   UNL A   1      42.959  14.736  43.714  1.00  0.00     0.049 A 
ATOM     26  C   UNL A   1      45.224  14.956  44.525  1.00  0.00     0.011 A 
ATOM     27  H   UNL A   1      41.224  14.810  42.510  1.00  0.00     0.170 HD
ATOM     28  C   UNL A   1      42.502  14.292  44.935  1.00  0.00     0.027 A 
ATOM     29  C   UNL A   1      44.778  14.524  45.774  1.00  0.00     0.001 A 
ATOM     30  C   UNL A   1      43.429  14.190  45.975  1.00  0.00     0.002 A 
ENDBRANCH  12  13
ENDBRANCH  11  12
ENDBRANCH  10  11
ENDBRANCH   9  10
ENDBRANCH   8   9
ENDBRANCH   6   8
ENDBRANCH   5   6
ENDBRANCH   4   5
ENDBRANCH   3   4
ENDBRANCH   2   3
ENDBRANCH   1   2
BRANCH   1  31
ATOM     31  C   UNL A   1      52.230  25.870  37.682  1.00  0.00     0.188 C 
BRANCH  31  32
ATOM     32  O   UNL A   1      51.764  27.197  37.467  1.00  0.00    -0.376 OA
BRANCH  32  33
ATOM     33  C   UNL A   1      50.695  27.715  38.248  1.00  0.00     0.202 C 
BRANCH  33  34
ATOM     34  C   UNL A   1      49.513  28.306  37.488  1.00  0.00     0.261 C 
BRANCH  34  35
ATOM     35  O   UNL A   1      48.253  28.014  38.111  1.00  0.00    -0.460 OA
BRANCH  35  36
ATOM     36  C   UNL A   1      47.571  26.962  37.601  1.00  0.00     0.338 C 
ATOM     37  O   UNL A   1      47.794  25.778  37.774  1.00  0.00    -0.246 OA
BRANCH  36  38
ATOM     38  C   UNL A   1      46.410  27.475  36.853  1.00  0.00     0.060 A 
ATOM     39  C   UNL A   1      45.150  26.914  37.063  1.00  0.00     0.016 A 
ATOM     40  C   UNL A   1      46.579  28.563  35.989  1.00  0.00     0.016 A 
ATOM     41  C   UNL A   1      44.042  27.469  36.424  1.00  0.00     0.010 A 
ATOM     42  C   UNL A   1      45.468  29.115  35.349  1.00  0.00     0.010 A 
ATOM     43  C   UNL A   1      44.190  28.587  35.584  1.00  0.00    -0.014 A 
BRANCH  43  44
ATOM     44  C   UNL A   1      42.985  29.299  35.095  1.00  0.00     0.031 A 
ATOM     45  C   UNL A   1      42.341  28.947  33.790  1.00  0.00     0.074 A 
ATOM     46  C   UNL A   1      42.481  30.286  35.861  1.00  0.00     0.049 A 
ATOM     47  N   UNL A   1      41.235  29.418  33.277  1.00  0.00    -0.248 NA
ATOM     48  C   UNL A   1      43.019  27.946  32.954  1.00  0.00     0.031 C 
ATOM     49  C   UNL A   1      43.048  30.714  37.141  1.00  0.00     0.029 A 
ATOM     50  N   UNL A   1      41.384  31.092  35.694  1.00  0.00    -0.354 N 
ATOM     51  C   UNL A   1      41.073  28.766  32.062  1.00  0.00     0.074 A 
ATOM     52  C   UNL A   1      42.217  27.894  31.897  1.00  0.00     0.031 C 
ATOM     53  C   UNL A   1      42.275  31.677  37.661  1.00  0.00     0.029 A 
ATOM     54  C   UNL A   1      41.184  31.970  36.734  1.00  0.00     0.049 A 
ATOM     55  H   UNL A   1      40.797  31.048  34.905  1.00  0.00     0.167 HD
ATOM     56  C   UNL A   1      40.052  28.882  31.180  1.00  0.00     0.031 A 
ATOM     57  C   UNL A   1      40.233  32.906  36.930  1.00  0.00     0.031 A 
ATOM     58  C   UNL A   1      38.931  29.772  31.365  1.00  0.00     0.049 A 
ATOM     59  C   UNL A   1      39.136  33.052  35.916  1.00  0.00     0.074 A 
ATOM     60  C   UNL A   1      37.814  29.913  30.561  1.00  0.00     0.029 A 
ATOM     61  N   UNL A   1      38.789  30.682  32.406  1.00  0.00    -0.354 N 
ATOM     62  N   UNL A   1      38.939  32.355  34.822  1.00  0.00    -0.248 NA
ATOM     63  C   UNL A   1      38.127  34.093  36.157  1.00  0.00     0.031 C 
ATOM     64  C   UNL A   1      37.051  30.972  31.055  1.00  0.00     0.029 A 
ATOM     65  C   UNL A   1      37.633  31.426  32.228  1.00  0.00     0.049 A 
ATOM     66  H   UNL A   1      39.416  30.783  33.158  1.00  0.00     0.167 HD
ATOM     67  C   UNL A   1      37.778  32.862  34.251  1.00  0.00     0.074 A 
ATOM     68  C   UNL A   1      37.306  33.915  35.127  1.00  0.00     0.031 C 
ATOM     69  C   UNL A   1      37.166  32.481  33.102  1.00  0.00     0.031 A 
BRANCH  56  70
ATOM     70  C   UNL A   1      40.074  28.032  29.932  1.00  0.00    -0.014 A 
ATOM     71  C   UNL A   1      39.265  26.883  29.845  1.00  0.00     0.010 A 
ATOM     72  C   UNL A   1      40.989  28.294  28.896  1.00  0.00     0.010 A 
ATOM     73  C   UNL A   1      39.389  25.999  28.765  1.00  0.00     0.020 A 
ATOM     74  C   UNL A   1      41.092  27.433  27.800  1.00  0.00     0.020 A 
ATOM     75  C   UNL A   1      40.310  26.277  27.752  1.00  0.00     0.054 A 
BRANCH  75  76
ATOM     76  S   UNL A   1      40.493  25.121  26.362  1.00  0.00     0.124 S 
ATOM     77  O   UNL A   1      40.980  25.995  25.299  1.00  0.00    -0.237 OA
ATOM     78  O   UNL A   1      41.458  24.151  26.872  1.00  0.00    -0.237 OA
ATOM     79  O   UNL A   1      39.138  24.598  26.163  1.00  0.00    -0.744 OA
ENDBRANCH  75  76
ENDBRANCH  56  70
BRANCH  57  80
ATOM     80  C   UNL A   1      40.287  33.718  38.178  1.00  0.00    -0.014 A 
ATOM     81  C   UNL A   1      39.664  33.251  39.353  1.00  0.00     0.010 A 
ATOM     82  C   UNL A   1      40.803  35.024  38.153  1.00  0.00     0.010 A 
ATOM     83  C   UNL A   1      39.469  34.105  40.440  1.00  0.00     0.020 A 
ATOM     84  C   UNL A   1      40.640  35.872  39.254  1.00  0.00     0.020 A 
ATOM     85  C   UNL A   1      39.935  35.420  40.372  1.00  0.00     0.054 A 
BRANCH  85  86
ATOM     86  S   UNL A   1      39.543  36.550  41.736  1.00  0.00     0.124 S 
ATOM     87  O   UNL A   1      38.498  35.813  42.444  1.00  0.00    -0.237 OA
ATOM     88  O   UNL A   1      40.820  36.659  42.435  1.00  0.00    -0.237 OA
ATOM     89  O   UNL A   1      39.098  37.765  41.061  1.00  0.00    -0.744 OA
ENDBRANCH  85  86
ENDBRANCH  57  80
BRANCH  69  90
ATOM     90  C   UNL A   1      35.910  33.200  32.676  1.00  0.00    -0.014 A 
ATOM     91  C   UNL A   1      35.981  34.192  31.678  1.00  0.00     0.010 A 
ATOM     92  C   UNL A   1      34.717  33.049  33.405  1.00  0.00     0.010 A 
ATOM     93  C   UNL A   1      34.915  35.072  31.474  1.00  0.00     0.020 A 
ATOM     94  C   UNL A   1      33.635  33.906  33.178  1.00  0.00     0.020 A 
ATOM     95  C   UNL A   1      33.757  34.937  32.244  1.00  0.00     0.054 A 
BRANCH  95  96
ATOM     96  S   UNL A   1      32.437  36.166  32.049  1.00  0.00     0.124 S 
ATOM     97  O   UNL A   1      32.902  37.255  32.902  1.00  0.00    -0.237 OA
ATOM     98  O   UNL A   1      32.461  36.435  30.614  1.00  0.00    -0.237 OA
ATOM     99  O   UNL A   1      31.244  35.468  32.525  1.00  0.00    -0.744 OA
ENDBRANCH  95  96
ENDBRANCH  69  90
ENDBRANCH  43  44
ENDBRANCH  36  38
ENDBRANCH  35  36
ENDBRANCH  34  35
ENDBRANCH  33  34
ENDBRANCH  32  33
ENDBRANCH  31  32
ENDBRANCH   1  31
TORSDOF 25
ENDMDL
