MODEL 1
REMARK VINA RESULT:      -9.6      0.000      0.000
REMARK SMILES Cc1cc(C(=O)OCCOCCOCCOC(=O)c2ccc(-c3c4nc(c(-c5ccc(S(=O)(=O)[O-])cc5)c5ccc([nH]5)c(-c5ccc(S(=O)(=O)[O-])cc5)c5nc(c(-c6ccc(S(=O)(=O)[O-])cc6)c6ccc3[nH]6)C=C5)C=C4)cc2)cc(C)c1OC[C@H]1C[N@@H+](C)CCO1
REMARK SMILES IDX 11 1 10 2 9 3 8 4 7 5 5 6 6 7 4 8 1 9 2 10 3 11 82 12 80 13
REMARK SMILES IDX 79 14 81 15 83 16 84 17 85 18 86 19 91 20 87 21 90 22 88 23
REMARK SMILES IDX 89 24 12 26 13 27 14 28 15 29 16 30 17 31 18 32 19 33 20 34
REMARK SMILES IDX 78 35 21 36 77 37 22 38 23 39 24 40 71 41 25 42 76 43 70 44
REMARK SMILES IDX 72 45 26 46 75 47 69 48 68 49 27 51 57 52 38 53 56 54 39 55
REMARK SMILES IDX 42 56 55 57 73 58 40 59 41 60 54 62 74 63 43 64 28 65 29 66
REMARK SMILES IDX 37 67 30 68 36 69 31 70 32 71 33 72 34 73 35 74 58 75 59 76
REMARK SMILES IDX 67 77 60 78 66 79 61 80 62 81 63 82 64 83 65 84 44 85 45 86
REMARK SMILES IDX 53 87 46 88 52 89 47 90 48 91 49 92 50 93 51 94
REMARK H PARENT 87 25 72 50 42 61
REMARK Flexibility Score: inf
ROOT
ATOM      1  C   UNL A   1      31.376  29.330  24.654  1.00  0.00     0.188 C 
ENDROOT
BRANCH   1   2
ATOM      2  O   UNL A   1      30.850  28.025  24.562  1.00  0.00    -0.376 OA
BRANCH   2   3
ATOM      3  C   UNL A   1      31.374  26.975  25.359  1.00  0.00     0.202 C 
BRANCH   3   4
ATOM      4  C   UNL A   1      30.538  26.047  26.258  1.00  0.00     0.261 C 
BRANCH   4   5
ATOM      5  O   UNL A   1      30.239  24.748  25.736  1.00  0.00    -0.460 OA
BRANCH   5   6
ATOM      6  C   UNL A   1      30.716  23.715  26.474  1.00  0.00     0.338 C 
ATOM      7  O   UNL A   1      30.198  23.210  27.463  1.00  0.00    -0.246 OA
BRANCH   6   8
ATOM      8  C   UNL A   1      31.876  23.116  25.797  1.00  0.00     0.060 A 
ATOM      9  C   UNL A   1      32.600  19.680  24.549  1.00  0.00     0.048 C 
ATOM     10  C   UNL A   1      32.923  21.086  24.946  1.00  0.00    -0.008 A 
ATOM     11  C   UNL A   1      31.901  21.730  25.666  1.00  0.00     0.023 A 
ATOM     12  C   UNL A   1      34.055  21.817  24.563  1.00  0.00     0.125 A 
ATOM     13  C   UNL A   1      33.992  23.235  24.632  1.00  0.00    -0.008 A 
ATOM     14  C   UNL A   1      32.882  23.878  25.223  1.00  0.00     0.023 A 
ATOM     15  C   UNL A   1      35.038  24.111  23.991  1.00  0.00     0.048 C 
BRANCH  12  16
ATOM     16  O   UNL A   1      35.241  21.327  24.094  1.00  0.00    -0.490 OA
BRANCH  16  17
ATOM     17  C   UNL A   1      36.105  20.428  24.819  1.00  0.00     0.267 C 
BRANCH  17  18
ATOM     18  C   UNL A   1      37.593  20.811  24.988  1.00  0.00     0.210 C 
ATOM     19  C   UNL A   1      37.746  21.953  26.018  1.00  0.00     0.298 C 
ATOM     20  O   UNL A   1      38.365  19.695  25.511  1.00  0.00    -0.363 OA
ATOM     21  N   UNL A   1      39.125  22.445  25.904  1.00  0.00    -0.333 N 
ATOM     22  C   UNL A   1      39.761  20.060  25.635  1.00  0.00     0.222 C 
ATOM     23  C   UNL A   1      39.317  23.723  26.573  1.00  0.00     0.332 C 
ATOM     24  C   UNL A   1      40.008  21.383  26.406  1.00  0.00     0.290 C 
ATOM     25  H   UNL A   1      39.353  22.644  24.930  1.00  0.00     0.348 HD
ENDBRANCH  17  18
ENDBRANCH  16  17
ENDBRANCH  12  16
ENDBRANCH   6   8
ENDBRANCH   5   6
ENDBRANCH   4   5
ENDBRANCH   3   4
ENDBRANCH   2   3
ENDBRANCH   1   2
BRANCH   1  26
ATOM     26  C   UNL A   1      32.378  29.653  25.783  1.00  0.00     0.188 C 
BRANCH  26  27
ATOM     27  O   UNL A   1      33.743  29.303  25.666  1.00  0.00    -0.376 OA
BRANCH  27  28
ATOM     28  C   UNL A   1      34.496  28.983  26.822  1.00  0.00     0.202 C 
BRANCH  28  29
ATOM     29  C   UNL A   1      34.876  30.018  27.892  1.00  0.00     0.261 C 
BRANCH  29  30
ATOM     30  O   UNL A   1      36.269  30.320  28.021  1.00  0.00    -0.460 OA
BRANCH  30  31
ATOM     31  C   UNL A   1      36.875  29.774  29.099  1.00  0.00     0.338 C 
ATOM     32  O   UNL A   1      36.376  29.556  30.200  1.00  0.00    -0.246 OA
BRANCH  31  33
ATOM     33  C   UNL A   1      38.218  29.308  28.729  1.00  0.00     0.060 A 
ATOM     34  C   UNL A   1      39.062  28.828  29.739  1.00  0.00     0.016 A 
ATOM     35  C   UNL A   1      38.668  29.407  27.411  1.00  0.00     0.016 A 
ATOM     36  C   UNL A   1      40.371  28.462  29.436  1.00  0.00     0.010 A 
ATOM     37  C   UNL A   1      39.988  29.057  27.115  1.00  0.00     0.010 A 
ATOM     38  C   UNL A   1      40.852  28.608  28.129  1.00  0.00    -0.014 A 
BRANCH  38  39
ATOM     39  C   UNL A   1      42.300  28.447  27.857  1.00  0.00     0.031 A 
ATOM     40  C   UNL A   1      43.215  29.616  28.101  1.00  0.00     0.074 A 
ATOM     41  C   UNL A   1      42.797  27.279  27.416  1.00  0.00     0.049 A 
ATOM     42  N   UNL A   1      44.501  29.718  27.892  1.00  0.00    -0.248 NA
ATOM     43  C   UNL A   1      42.593  30.830  28.655  1.00  0.00     0.031 C 
ATOM     44  C   UNL A   1      42.024  26.059  27.190  1.00  0.00     0.029 A 
ATOM     45  N   UNL A   1      44.080  26.934  27.070  1.00  0.00    -0.354 N 
ATOM     46  C   UNL A   1      44.843  31.009  28.278  1.00  0.00     0.074 A 
ATOM     47  C   UNL A   1      43.625  31.659  28.711  1.00  0.00     0.031 C 
ATOM     48  C   UNL A   1      42.848  25.102  26.728  1.00  0.00     0.029 A 
ATOM     49  C   UNL A   1      44.195  25.651  26.593  1.00  0.00     0.049 A 
ATOM     50  H   UNL A   1      44.846  27.549  27.155  1.00  0.00     0.167 HD
ATOM     51  C   UNL A   1      46.061  31.601  28.275  1.00  0.00     0.031 A 
ATOM     52  C   UNL A   1      45.262  25.003  26.080  1.00  0.00     0.031 A 
ATOM     53  C   UNL A   1      47.267  30.961  27.820  1.00  0.00     0.049 A 
ATOM     54  C   UNL A   1      46.590  25.711  25.999  1.00  0.00     0.074 A 
ATOM     55  C   UNL A   1      48.552  31.472  27.786  1.00  0.00     0.029 A 
ATOM     56  N   UNL A   1      47.335  29.676  27.304  1.00  0.00    -0.354 N 
ATOM     57  N   UNL A   1      46.905  26.922  26.394  1.00  0.00    -0.248 NA
ATOM     58  C   UNL A   1      47.709  24.960  25.412  1.00  0.00     0.031 C 
ATOM     59  C   UNL A   1      49.387  30.519  27.193  1.00  0.00     0.029 A 
ATOM     60  C   UNL A   1      48.635  29.387  26.921  1.00  0.00     0.049 A 
ATOM     61  H   UNL A   1      46.572  29.059  27.221  1.00  0.00     0.167 HD
ATOM     62  C   UNL A   1      48.264  27.068  26.128  1.00  0.00     0.074 A 
ATOM     63  C   UNL A   1      48.712  25.816  25.551  1.00  0.00     0.031 C 
ATOM     64  C   UNL A   1      49.069  28.137  26.346  1.00  0.00     0.031 A 
BRANCH  51  65
ATOM     65  C   UNL A   1      46.137  33.031  28.738  1.00  0.00    -0.014 A 
ATOM     66  C   UNL A   1      46.315  34.088  27.825  1.00  0.00     0.010 A 
ATOM     67  C   UNL A   1      46.009  33.326  30.107  1.00  0.00     0.010 A 
ATOM     68  C   UNL A   1      46.410  35.406  28.279  1.00  0.00     0.020 A 
ATOM     69  C   UNL A   1      46.073  34.646  30.562  1.00  0.00     0.020 A 
ATOM     70  C   UNL A   1      46.293  35.675  29.646  1.00  0.00     0.054 A 
BRANCH  70  71
ATOM     71  S   UNL A   1      46.412  37.396  30.207  1.00  0.00     0.124 S 
ATOM     72  O   UNL A   1      45.516  38.078  29.277  1.00  0.00    -0.237 OA
ATOM     73  O   UNL A   1      45.940  37.316  31.587  1.00  0.00    -0.237 OA
ATOM     74  O   UNL A   1      47.829  37.714  30.054  1.00  0.00    -0.744 OA
ENDBRANCH  70  71
ENDBRANCH  51  65
BRANCH  52  75
ATOM     75  C   UNL A   1      45.113  23.608  25.582  1.00  0.00    -0.014 A 
ATOM     76  C   UNL A   1      44.696  23.358  24.263  1.00  0.00     0.010 A 
ATOM     77  C   UNL A   1      45.392  22.519  26.430  1.00  0.00     0.010 A 
ATOM     78  C   UNL A   1      44.551  22.045  23.805  1.00  0.00     0.020 A 
ATOM     79  C   UNL A   1      45.275  21.207  25.966  1.00  0.00     0.020 A 
ATOM     80  C   UNL A   1      44.845  20.978  24.657  1.00  0.00     0.054 A 
BRANCH  80  81
ATOM     81  S   UNL A   1      44.704  19.285  24.019  1.00  0.00     0.124 S 
ATOM     82  O   UNL A   1      44.716  19.503  22.576  1.00  0.00    -0.237 OA
ATOM     83  O   UNL A   1      45.894  18.641  24.572  1.00  0.00    -0.237 OA
ATOM     84  O   UNL A   1      43.436  18.815  24.573  1.00  0.00    -0.744 OA
ENDBRANCH  80  81
ENDBRANCH  52  75
BRANCH  64  85
ATOM     85  C   UNL A   1      50.529  27.997  26.001  1.00  0.00    -0.014 A 
ATOM     86  C   UNL A   1      51.481  27.635  26.969  1.00  0.00     0.010 A 
ATOM     87  C   UNL A   1      50.943  28.173  24.667  1.00  0.00     0.010 A 
ATOM     88  C   UNL A   1      52.825  27.481  26.617  1.00  0.00     0.020 A 
ATOM     89  C   UNL A   1      52.282  27.992  24.305  1.00  0.00     0.020 A 
ATOM     90  C   UNL A   1      53.217  27.661  25.287  1.00  0.00     0.054 A 
BRANCH  90  91
ATOM     91  S   UNL A   1      54.959  27.413  24.846  1.00  0.00     0.124 S 
ATOM     92  O   UNL A   1      55.301  28.691  24.227  1.00  0.00    -0.237 OA
ATOM     93  O   UNL A   1      55.584  27.158  26.142  1.00  0.00    -0.237 OA
ATOM     94  O   UNL A   1      54.929  26.269  23.939  1.00  0.00    -0.744 OA
ENDBRANCH  90  91
ENDBRANCH  64  85
ENDBRANCH  38  39
ENDBRANCH  31  33
ENDBRANCH  30  31
ENDBRANCH  29  30
ENDBRANCH  28  29
ENDBRANCH  27  28
ENDBRANCH  26  27
ENDBRANCH   1  26
TORSDOF 23
ENDMDL
MODEL 2
REMARK VINA RESULT:      -9.5      1.793      8.700
REMARK SMILES Cc1cc(C(=O)OCCOCCOCCOC(=O)c2ccc(-c3c4nc(c(-c5ccc(S(=O)(=O)[O-])cc5)c5ccc([nH]5)c(-c5ccc(S(=O)(=O)[O-])cc5)c5nc(c(-c6ccc(S(=O)(=O)[O-])cc6)c6ccc3[nH]6)C=C5)C=C4)cc2)cc(C)c1OC[C@H]1C[N@@H+](C)CCO1
REMARK SMILES IDX 11 1 10 2 9 3 8 4 7 5 5 6 6 7 4 8 1 9 2 10 3 11 82 12 80 13
REMARK SMILES IDX 79 14 81 15 83 16 84 17 85 18 86 19 91 20 87 21 90 22 88 23
REMARK SMILES IDX 89 24 12 26 13 27 14 28 15 29 16 30 17 31 18 32 19 33 20 34
REMARK SMILES IDX 78 35 21 36 77 37 22 38 23 39 24 40 71 41 25 42 76 43 70 44
REMARK SMILES IDX 72 45 26 46 75 47 69 48 68 49 27 51 57 52 38 53 56 54 39 55
REMARK SMILES IDX 42 56 55 57 73 58 40 59 41 60 54 62 74 63 43 64 28 65 29 66
REMARK SMILES IDX 37 67 30 68 36 69 31 70 32 71 33 72 34 73 35 74 58 75 59 76
REMARK SMILES IDX 67 77 60 78 66 79 61 80 62 81 63 82 64 83 65 84 44 85 45 86
REMARK SMILES IDX 53 87 46 88 52 89 47 90 48 91 49 92 50 93 51 94
REMARK H PARENT 87 25 72 50 42 61
REMARK Flexibility Score: inf
ROOT
ATOM      1  C   UNL A   1      36.247  33.409  28.397  1.00  0.00     0.188 C 
ENDROOT
BRANCH   1   2
ATOM      2  O   UNL A   1      35.402  32.635  27.575  1.00  0.00    -0.376 OA
BRANCH   2   3
ATOM      3  C   UNL A   1      34.110  32.257  28.020  1.00  0.00     0.202 C 
BRANCH   3   4
ATOM      4  C   UNL A   1      33.481  30.866  27.827  1.00  0.00     0.261 C 
BRANCH   4   5
ATOM      5  O   UNL A   1      33.499  30.332  26.499  1.00  0.00    -0.460 OA
BRANCH   5   6
ATOM      6  C   UNL A   1      32.276  30.077  25.972  1.00  0.00     0.338 C 
ATOM      7  O   UNL A   1      31.399  30.890  25.707  1.00  0.00    -0.246 OA
BRANCH   6   8
ATOM      8  C   UNL A   1      32.201  28.670  25.550  1.00  0.00     0.060 A 
ATOM      9  C   UNL A   1      29.693  26.729  23.592  1.00  0.00     0.048 C 
ATOM     10  C   UNL A   1      30.875  26.921  24.489  1.00  0.00    -0.008 A 
ATOM     11  C   UNL A   1      31.000  28.223  25.008  1.00  0.00     0.023 A 
ATOM     12  C   UNL A   1      31.889  25.986  24.738  1.00  0.00     0.125 A 
ATOM     13  C   UNL A   1      33.136  26.464  25.223  1.00  0.00    -0.008 A 
ATOM     14  C   UNL A   1      33.293  27.817  25.597  1.00  0.00     0.023 A 
ATOM     15  C   UNL A   1      34.364  25.589  25.257  1.00  0.00     0.048 C 
BRANCH  12  16
ATOM     16  O   UNL A   1      31.838  24.634  24.544  1.00  0.00    -0.490 OA
BRANCH  16  17
ATOM     17  C   UNL A   1      31.106  23.711  25.375  1.00  0.00     0.267 C 
BRANCH  17  18
ATOM     18  C   UNL A   1      31.738  22.333  25.681  1.00  0.00     0.210 C 
ATOM     19  C   UNL A   1      32.088  21.595  24.370  1.00  0.00     0.298 C 
ATOM     20  O   UNL A   1      32.991  22.481  26.404  1.00  0.00    -0.363 OA
ATOM     21  N   UNL A   1      32.404  20.208  24.736  1.00  0.00    -0.333 N 
ATOM     22  C   UNL A   1      33.554  21.182  26.709  1.00  0.00     0.222 C 
ATOM     23  C   UNL A   1      32.432  19.320  23.582  1.00  0.00     0.332 C 
ATOM     24  C   UNL A   1      33.666  20.234  25.487  1.00  0.00     0.290 C 
ATOM     25  H   UNL A   1      31.667  19.817  25.324  1.00  0.00     0.348 HD
ENDBRANCH  17  18
ENDBRANCH  16  17
ENDBRANCH  12  16
ENDBRANCH   6   8
ENDBRANCH   5   6
ENDBRANCH   4   5
ENDBRANCH   3   4
ENDBRANCH   2   3
ENDBRANCH   1   2
BRANCH   1  26
ATOM     26  C   UNL A   1      37.594  32.814  28.858  1.00  0.00     0.188 C 
BRANCH  26  27
ATOM     27  O   UNL A   1      37.912  32.710  30.231  1.00  0.00    -0.376 OA
BRANCH  27  28
ATOM     28  C   UNL A   1      37.010  32.080  31.125  1.00  0.00     0.202 C 
BRANCH  28  29
ATOM     29  C   UNL A   1      36.364  30.715  30.844  1.00  0.00     0.261 C 
BRANCH  29  30
ATOM     30  O   UNL A   1      37.253  29.648  30.497  1.00  0.00    -0.460 OA
BRANCH  30  31
ATOM     31  C   UNL A   1      37.256  29.308  29.189  1.00  0.00     0.338 C 
ATOM     32  O   UNL A   1      36.309  29.356  28.407  1.00  0.00    -0.246 OA
BRANCH  31  33
ATOM     33  C   UNL A   1      38.628  29.010  28.757  1.00  0.00     0.060 A 
ATOM     34  C   UNL A   1      39.566  28.628  29.725  1.00  0.00     0.016 A 
ATOM     35  C   UNL A   1      39.006  29.172  27.423  1.00  0.00     0.016 A 
ATOM     36  C   UNL A   1      40.896  28.425  29.363  1.00  0.00     0.010 A 
ATOM     37  C   UNL A   1      40.344  28.986  27.067  1.00  0.00     0.010 A 
ATOM     38  C   UNL A   1      41.298  28.637  28.039  1.00  0.00    -0.014 A 
BRANCH  38  39
ATOM     39  C   UNL A   1      42.743  28.654  27.705  1.00  0.00     0.031 A 
ATOM     40  C   UNL A   1      43.366  27.410  27.134  1.00  0.00     0.074 A 
ATOM     41  C   UNL A   1      43.485  29.759  27.891  1.00  0.00     0.049 A 
ATOM     42  N   UNL A   1      44.612  27.181  26.811  1.00  0.00    -0.248 NA
ATOM     43  C   UNL A   1      42.461  26.274  26.895  1.00  0.00     0.031 C 
ATOM     44  C   UNL A   1      42.988  31.041  28.389  1.00  0.00     0.029 A 
ATOM     45  N   UNL A   1      44.826  29.973  27.689  1.00  0.00    -0.354 N 
ATOM     46  C   UNL A   1      44.645  25.874  26.341  1.00  0.00     0.074 A 
ATOM     47  C   UNL A   1      43.299  25.352  26.443  1.00  0.00     0.031 C 
ATOM     48  C   UNL A   1      44.016  31.905  28.466  1.00  0.00     0.029 A 
ATOM     49  C   UNL A   1      45.245  31.228  28.059  1.00  0.00     0.049 A 
ATOM     50  H   UNL A   1      45.430  29.291  27.313  1.00  0.00     0.167 HD
ATOM     51  C   UNL A   1      45.700  25.170  25.866  1.00  0.00     0.031 A 
ATOM     52  C   UNL A   1      46.484  31.759  28.091  1.00  0.00     0.031 A 
ATOM     53  C   UNL A   1      47.042  25.681  25.789  1.00  0.00     0.049 A 
ATOM     54  C   UNL A   1      47.659  30.927  27.643  1.00  0.00     0.074 A 
ATOM     55  C   UNL A   1      48.178  25.051  25.313  1.00  0.00     0.029 A 
ATOM     56  N   UNL A   1      47.434  26.942  26.214  1.00  0.00    -0.354 N 
ATOM     57  N   UNL A   1      47.672  29.702  27.175  1.00  0.00    -0.248 NA
ATOM     58  C   UNL A   1      48.986  31.555  27.721  1.00  0.00     0.031 C 
ATOM     59  C   UNL A   1      49.267  25.907  25.506  1.00  0.00     0.029 A 
ATOM     60  C   UNL A   1      48.800  27.098  26.038  1.00  0.00     0.049 A 
ATOM     61  H   UNL A   1      46.831  27.626  26.585  1.00  0.00     0.167 HD
ATOM     62  C   UNL A   1      49.002  29.422  26.877  1.00  0.00     0.074 A 
ATOM     63  C   UNL A   1      49.762  30.612  27.205  1.00  0.00     0.031 C 
ATOM     64  C   UNL A   1      49.545  28.287  26.371  1.00  0.00     0.031 A 
BRANCH  51  65
ATOM     65  C   UNL A   1      45.446  23.750  25.434  1.00  0.00    -0.014 A 
ATOM     66  C   UNL A   1      45.083  23.442  24.109  1.00  0.00     0.010 A 
ATOM     67  C   UNL A   1      45.589  22.705  26.364  1.00  0.00     0.010 A 
ATOM     68  C   UNL A   1      44.825  22.120  23.737  1.00  0.00     0.020 A 
ATOM     69  C   UNL A   1      45.360  21.379  25.988  1.00  0.00     0.020 A 
ATOM     70  C   UNL A   1      44.961  21.097  24.681  1.00  0.00     0.054 A 
BRANCH  70  71
ATOM     71  S   UNL A   1      44.627  19.390  24.168  1.00  0.00     0.124 S 
ATOM     72  O   UNL A   1      44.599  19.513  22.713  1.00  0.00    -0.237 OA
ATOM     73  O   UNL A   1      45.770  18.663  24.714  1.00  0.00    -0.237 OA
ATOM     74  O   UNL A   1      43.343  19.085  24.792  1.00  0.00    -0.744 OA
ENDBRANCH  70  71
ENDBRANCH  51  65
BRANCH  52  75
ATOM     75  C   UNL A   1      46.682  33.150  28.584  1.00  0.00    -0.014 A 
ATOM     76  C   UNL A   1      46.929  33.400  29.945  1.00  0.00     0.010 A 
ATOM     77  C   UNL A   1      46.627  34.234  27.688  1.00  0.00     0.010 A 
ATOM     78  C   UNL A   1      47.106  34.709  30.402  1.00  0.00     0.020 A 
ATOM     79  C   UNL A   1      46.831  35.541  28.138  1.00  0.00     0.020 A 
ATOM     80  C   UNL A   1      47.060  35.771  29.495  1.00  0.00     0.054 A 
BRANCH  80  81
ATOM     81  S   UNL A   1      47.350  37.455  30.106  1.00  0.00     0.124 S 
ATOM     82  O   UNL A   1      47.920  37.205  31.427  1.00  0.00    -0.237 OA
ATOM     83  O   UNL A   1      48.274  37.995  29.111  1.00  0.00    -0.237 OA
ATOM     84  O   UNL A   1      46.019  38.056  30.100  1.00  0.00    -0.744 OA
ENDBRANCH  80  81
ENDBRANCH  52  75
BRANCH  64  85
ATOM     85  C   UNL A   1      51.028  28.280  26.100  1.00  0.00    -0.014 A 
ATOM     86  C   UNL A   1      51.557  28.788  24.901  1.00  0.00     0.010 A 
ATOM     87  C   UNL A   1      51.910  27.811  27.092  1.00  0.00     0.010 A 
ATOM     88  C   UNL A   1      52.938  28.799  24.686  1.00  0.00     0.020 A 
ATOM     89  C   UNL A   1      53.293  27.847  26.893  1.00  0.00     0.020 A 
ATOM     90  C   UNL A   1      53.798  28.328  25.684  1.00  0.00     0.054 A 
BRANCH  90  91
ATOM     91  S   UNL A   1      55.588  28.393  25.399  1.00  0.00     0.124 S 
ATOM     92  O   UNL A   1      56.077  28.941  26.662  1.00  0.00    -0.237 OA
ATOM     93  O   UNL A   1      55.923  26.992  25.151  1.00  0.00    -0.237 OA
ATOM     94  O   UNL A   1      55.725  29.274  24.243  1.00  0.00    -0.744 OA
ENDBRANCH  90  91
ENDBRANCH  64  85
ENDBRANCH  38  39
ENDBRANCH  31  33
ENDBRANCH  30  31
ENDBRANCH  29  30
ENDBRANCH  28  29
ENDBRANCH  27  28
ENDBRANCH  26  27
ENDBRANCH   1  26
TORSDOF 23
ENDMDL
MODEL 3
REMARK VINA RESULT:      -8.9      6.260      8.282
REMARK SMILES Cc1cc(C(=O)OCCOCCOCCOC(=O)c2ccc(-c3c4nc(c(-c5ccc(S(=O)(=O)[O-])cc5)c5ccc([nH]5)c(-c5ccc(S(=O)(=O)[O-])cc5)c5nc(c(-c6ccc(S(=O)(=O)[O-])cc6)c6ccc3[nH]6)C=C5)C=C4)cc2)cc(C)c1OC[C@H]1C[N@@H+](C)CCO1
REMARK SMILES IDX 11 1 10 2 9 3 8 4 7 5 5 6 6 7 4 8 1 9 2 10 3 11 82 12 80 13
REMARK SMILES IDX 79 14 81 15 83 16 84 17 85 18 86 19 91 20 87 21 90 22 88 23
REMARK SMILES IDX 89 24 12 26 13 27 14 28 15 29 16 30 17 31 18 32 19 33 20 34
REMARK SMILES IDX 78 35 21 36 77 37 22 38 23 39 24 40 71 41 25 42 76 43 70 44
REMARK SMILES IDX 72 45 26 46 75 47 69 48 68 49 27 51 57 52 38 53 56 54 39 55
REMARK SMILES IDX 42 56 55 57 73 58 40 59 41 60 54 62 74 63 43 64 28 65 29 66
REMARK SMILES IDX 37 67 30 68 36 69 31 70 32 71 33 72 34 73 35 74 58 75 59 76
REMARK SMILES IDX 67 77 60 78 66 79 61 80 62 81 63 82 64 83 65 84 44 85 45 86
REMARK SMILES IDX 53 87 46 88 52 89 47 90 48 91 49 92 50 93 51 94
REMARK H PARENT 87 25 72 50 42 61
REMARK Flexibility Score: inf
ROOT
ATOM      1  C   UNL A   1      31.033  29.986  24.840  1.00  0.00     0.188 C 
ENDROOT
BRANCH   1   2
ATOM      2  O   UNL A   1      30.813  29.342  23.605  1.00  0.00    -0.376 OA
BRANCH   2   3
ATOM      3  C   UNL A   1      29.714  28.462  23.434  1.00  0.00     0.202 C 
BRANCH   3   4
ATOM      4  C   UNL A   1      29.711  26.969  23.810  1.00  0.00     0.261 C 
BRANCH   4   5
ATOM      5  O   UNL A   1      30.947  26.424  24.284  1.00  0.00    -0.460 OA
BRANCH   5   6
ATOM      6  C   UNL A   1      30.877  25.825  25.498  1.00  0.00     0.338 C 
ATOM      7  O   UNL A   1      30.279  26.228  26.489  1.00  0.00    -0.246 OA
BRANCH   6   8
ATOM      8  C   UNL A   1      31.461  24.478  25.422  1.00  0.00     0.060 A 
ATOM      9  C   UNL A   1      32.165  22.166  22.585  1.00  0.00     0.048 C 
ATOM     10  C   UNL A   1      31.994  22.557  24.018  1.00  0.00    -0.008 A 
ATOM     11  C   UNL A   1      31.376  23.807  24.205  1.00  0.00     0.023 A 
ATOM     12  C   UNL A   1      32.495  21.869  25.132  1.00  0.00     0.125 A 
ATOM     13  C   UNL A   1      32.646  22.585  26.350  1.00  0.00    -0.008 A 
ATOM     14  C   UNL A   1      32.155  23.903  26.476  1.00  0.00     0.023 A 
ATOM     15  C   UNL A   1      33.424  22.022  27.512  1.00  0.00     0.048 C 
BRANCH  12  16
ATOM     16  O   UNL A   1      32.891  20.562  25.191  1.00  0.00    -0.490 OA
BRANCH  16  17
ATOM     17  C   UNL A   1      33.092  19.711  24.045  1.00  0.00     0.267 C 
BRANCH  17  18
ATOM     18  C   UNL A   1      33.091  18.179  24.255  1.00  0.00     0.210 C 
ATOM     19  C   UNL A   1      34.354  17.736  25.027  1.00  0.00     0.298 C 
ATOM     20  O   UNL A   1      31.959  17.763  25.069  1.00  0.00    -0.363 OA
ATOM     21  N   UNL A   1      34.419  16.272  24.930  1.00  0.00    -0.333 N 
ATOM     22  C   UNL A   1      31.956  16.324  25.231  1.00  0.00     0.222 C 
ATOM     23  C   UNL A   1      35.718  15.745  25.325  1.00  0.00     0.332 C 
ATOM     24  C   UNL A   1      33.304  15.735  25.720  1.00  0.00     0.290 C 
ATOM     25  H   UNL A   1      34.322  15.974  23.959  1.00  0.00     0.348 HD
ENDBRANCH  17  18
ENDBRANCH  16  17
ENDBRANCH  12  16
ENDBRANCH   6   8
ENDBRANCH   5   6
ENDBRANCH   4   5
ENDBRANCH   3   4
ENDBRANCH   2   3
ENDBRANCH   1   2
BRANCH   1  26
ATOM     26  C   UNL A   1      32.101  29.418  25.800  1.00  0.00     0.188 C 
BRANCH  26  27
ATOM     27  O   UNL A   1      33.277  30.146  26.091  1.00  0.00    -0.376 OA
BRANCH  27  28
ATOM     28  C   UNL A   1      33.432  30.775  27.351  1.00  0.00     0.202 C 
BRANCH  28  29
ATOM     29  C   UNL A   1      32.883  32.175  27.665  1.00  0.00     0.261 C 
BRANCH  29  30
ATOM     30  O   UNL A   1      33.842  33.235  27.734  1.00  0.00    -0.460 OA
BRANCH  30  31
ATOM     31  C   UNL A   1      33.810  33.961  28.874  1.00  0.00     0.338 C 
ATOM     32  O   UNL A   1      32.945  34.762  29.219  1.00  0.00    -0.246 OA
BRANCH  31  33
ATOM     33  C   UNL A   1      34.903  33.541  29.760  1.00  0.00     0.060 A 
ATOM     34  C   UNL A   1      36.144  34.182  29.643  1.00  0.00     0.016 A 
ATOM     35  C   UNL A   1      34.731  32.480  30.651  1.00  0.00     0.016 A 
ATOM     36  C   UNL A   1      37.226  33.749  30.406  1.00  0.00     0.010 A 
ATOM     37  C   UNL A   1      35.823  32.036  31.400  1.00  0.00     0.010 A 
ATOM     38  C   UNL A   1      37.080  32.650  31.262  1.00  0.00    -0.014 A 
BRANCH  38  39
ATOM     39  C   UNL A   1      38.279  32.044  31.888  1.00  0.00     0.031 A 
ATOM     40  C   UNL A   1      38.648  32.452  33.288  1.00  0.00     0.074 A 
ATOM     41  C   UNL A   1      39.020  31.135  31.231  1.00  0.00     0.049 A 
ATOM     42  N   UNL A   1      39.672  32.088  34.014  1.00  0.00    -0.248 NA
ATOM     43  C   UNL A   1      37.736  33.395  33.957  1.00  0.00     0.031 C 
ATOM     44  C   UNL A   1      38.739  30.620  29.892  1.00  0.00     0.029 A 
ATOM     45  N   UNL A   1      40.173  30.490  31.605  1.00  0.00    -0.354 N 
ATOM     46  C   UNL A   1      39.536  32.765  35.221  1.00  0.00     0.074 A 
ATOM     47  C   UNL A   1      38.344  33.579  35.119  1.00  0.00     0.031 C 
ATOM     48  C   UNL A   1      39.703  29.746  29.551  1.00  0.00     0.029 A 
ATOM     49  C   UNL A   1      40.686  29.669  30.630  1.00  0.00     0.049 A 
ATOM     50  H   UNL A   1      40.591  30.605  32.490  1.00  0.00     0.167 HD
ATOM     51  C   UNL A   1      40.332  32.713  36.316  1.00  0.00     0.031 A 
ATOM     52  C   UNL A   1      41.832  28.959  30.603  1.00  0.00     0.031 A 
ATOM     53  C   UNL A   1      41.530  31.923  36.405  1.00  0.00     0.049 A 
ATOM     54  C   UNL A   1      42.750  28.987  31.798  1.00  0.00     0.074 A 
ATOM     55  C   UNL A   1      42.399  31.795  37.475  1.00  0.00     0.029 A 
ATOM     56  N   UNL A   1      42.040  31.139  35.381  1.00  0.00    -0.354 N 
ATOM     57  N   UNL A   1      42.596  29.609  32.943  1.00  0.00    -0.248 NA
ATOM     58  C   UNL A   1      43.994  28.209  31.699  1.00  0.00     0.031 C 
ATOM     59  C   UNL A   1      43.465  30.982  37.077  1.00  0.00     0.029 A 
ATOM     60  C   UNL A   1      43.226  30.547  35.783  1.00  0.00     0.049 A 
ATOM     61  H   UNL A   1      41.620  31.020  34.499  1.00  0.00     0.167 HD
ATOM     62  C   UNL A   1      43.708  29.276  33.710  1.00  0.00     0.074 A 
ATOM     63  C   UNL A   1      44.520  28.386  32.904  1.00  0.00     0.031 C 
ATOM     64  C   UNL A   1      44.027  29.664  34.970  1.00  0.00     0.031 A 
BRANCH  51  65
ATOM     65  C   UNL A   1      39.948  33.574  37.490  1.00  0.00    -0.014 A 
ATOM     66  C   UNL A   1      39.136  33.078  38.527  1.00  0.00     0.010 A 
ATOM     67  C   UNL A   1      40.424  34.896  37.567  1.00  0.00     0.010 A 
ATOM     68  C   UNL A   1      38.770  33.903  39.594  1.00  0.00     0.020 A 
ATOM     69  C   UNL A   1      40.084  35.714  38.647  1.00  0.00     0.020 A 
ATOM     70  C   UNL A   1      39.243  35.218  39.644  1.00  0.00     0.054 A 
BRANCH  70  71
ATOM     71  S   UNL A   1      38.758  36.264  41.044  1.00  0.00     0.124 S 
ATOM     72  O   UNL A   1      38.362  37.500  40.373  1.00  0.00    -0.237 OA
ATOM     73  O   UNL A   1      37.669  35.502  41.650  1.00  0.00    -0.237 OA
ATOM     74  O   UNL A   1      39.974  36.354  41.848  1.00  0.00    -0.744 OA
ENDBRANCH  70  71
ENDBRANCH  51  65
BRANCH  52  75
ATOM     75  C   UNL A   1      42.187  28.172  29.390  1.00  0.00    -0.014 A 
ATOM     76  C   UNL A   1      42.996  28.730  28.385  1.00  0.00     0.010 A 
ATOM     77  C   UNL A   1      41.718  26.854  29.237  1.00  0.00     0.010 A 
ATOM     78  C   UNL A   1      43.320  27.989  27.245  1.00  0.00     0.020 A 
ATOM     79  C   UNL A   1      42.062  26.101  28.112  1.00  0.00     0.020 A 
ATOM     80  C   UNL A   1      42.855  26.677  27.117  1.00  0.00     0.054 A 
BRANCH  80  81
ATOM     81  S   UNL A   1      43.337  25.717  25.655  1.00  0.00     0.124 S 
ATOM     82  O   UNL A   1      43.754  24.450  26.247  1.00  0.00    -0.237 OA
ATOM     83  O   UNL A   1      42.097  25.677  24.883  1.00  0.00    -0.237 OA
ATOM     84  O   UNL A   1      44.407  26.515  25.060  1.00  0.00    -0.744 OA
ENDBRANCH  80  81
ENDBRANCH  52  75
BRANCH  64  85
ATOM     85  C   UNL A   1      45.286  29.104  35.579  1.00  0.00    -0.014 A 
ATOM     86  C   UNL A   1      45.283  27.883  36.277  1.00  0.00     0.010 A 
ATOM     87  C   UNL A   1      46.505  29.783  35.395  1.00  0.00     0.010 A 
ATOM     88  C   UNL A   1      46.470  27.369  36.806  1.00  0.00     0.020 A 
ATOM     89  C   UNL A   1      47.698  29.257  35.898  1.00  0.00     0.020 A 
ATOM     90  C   UNL A   1      47.671  28.059  36.613  1.00  0.00     0.054 A 
BRANCH  90  91
ATOM     91  S   UNL A   1      49.205  27.350  37.272  1.00  0.00     0.124 S 
ATOM     92  O   UNL A   1      48.713  26.543  38.386  1.00  0.00    -0.237 OA
ATOM     93  O   UNL A   1      49.724  26.597  36.133  1.00  0.00    -0.237 OA
ATOM     94  O   UNL A   1      49.994  28.519  37.651  1.00  0.00    -0.744 OA
ENDBRANCH  90  91
ENDBRANCH  64  85
ENDBRANCH  38  39
ENDBRANCH  31  33
ENDBRANCH  30  31
ENDBRANCH  29  30
ENDBRANCH  28  29
ENDBRANCH  27  28
ENDBRANCH  26  27
ENDBRANCH   1  26
TORSDOF 23
ENDMDL
