MODEL 1
REMARK VINA RESULT:     -10.5      0.000      0.000
REMARK SMILES O=C(C[C@H](NC(=O)[C@]12C[C@H]3C[C@H](C[C@H](C3)C1)C2)c1cccc([N+](=O)[O-])c1)OCCOCCOCCOC(=O)c1ccc(-c2c3nc(c(-c4ccc(S(=O)(=O)[O-])cc4)c4ccc([nH]4)c(-c4ccc(S(=O)(=O)[O-])cc4)c4nc(c(-c5ccc(S(=O)(=O)[O-])cc5)c5ccc2[nH]5)C=C4)C=C3)cc1
REMARK SMILES IDX 31 1 30 2 29 3 28 4 27 5 2 6 1 7 3 8 4 9 18 10 19 11 26 12
REMARK SMILES IDX 20 13 22 14 21 15 23 16 24 17 25 18 5 19 6 20 7 22 8 23 9 24
REMARK SMILES IDX 16 25 17 26 10 27 14 28 12 29 11 30 15 31 13 32 32 33 33 34
REMARK SMILES IDX 34 35 35 36 36 37 37 38 38 39 39 40 40 41 98 42 41 43 97 44
REMARK SMILES IDX 42 45 43 46 44 47 91 48 45 49 96 50 90 51 92 52 46 53 95 54
REMARK SMILES IDX 89 55 88 56 47 58 77 59 58 60 76 61 59 62 62 63 75 64 93 65
REMARK SMILES IDX 60 66 61 67 74 69 94 70 63 71 48 72 49 73 57 74 50 75 56 76
REMARK SMILES IDX 51 77 52 78 53 79 54 80 55 81 78 82 79 83 87 84 80 85 86 86
REMARK SMILES IDX 81 87 82 88 83 89 84 90 85 91 64 92 65 93 73 94 66 95 72 96
REMARK SMILES IDX 67 97 68 98 69 99 70 100 71 101
REMARK H PARENT 5 21 92 57 62 68
REMARK Flexibility Score: inf
ROOT
ATOM      1  C   UNL A   1      35.946  22.190  24.590  1.00  0.00     0.188 C 
ENDROOT
BRANCH   1   2
ATOM      2  O   UNL A   1      34.675  22.785  24.805  1.00  0.00    -0.376 OA
BRANCH   2   3
ATOM      3  C   UNL A   1      34.670  24.081  25.383  1.00  0.00     0.202 C 
BRANCH   3   4
ATOM      4  C   UNL A   1      33.424  24.431  26.192  1.00  0.00     0.261 C 
BRANCH   4   5
ATOM      5  O   UNL A   1      32.635  25.475  25.579  1.00  0.00    -0.463 OA
BRANCH   5   6
ATOM      6  C   UNL A   1      31.477  25.975  26.045  1.00  0.00     0.308 C 
ATOM      7  O   UNL A   1      30.407  25.500  25.671  1.00  0.00    -0.252 OA
BRANCH   6   8
ATOM      8  C   UNL A   1      31.512  27.328  26.720  1.00  0.00     0.152 C 
BRANCH   8   9
ATOM      9  C   UNL A   1      31.723  28.614  25.907  1.00  0.00     0.123 C 
BRANCH   9  10
ATOM     10  C   UNL A   1      32.746  29.479  26.618  1.00  0.00    -0.018 A 
ATOM     11  C   UNL A   1      33.966  28.948  27.068  1.00  0.00     0.006 A 
ATOM     12  C   UNL A   1      32.480  30.841  26.826  1.00  0.00     0.091 A 
ATOM     13  C   UNL A   1      34.877  29.752  27.760  1.00  0.00     0.007 A 
ATOM     14  C   UNL A   1      33.393  31.639  27.523  1.00  0.00     0.269 A 
ATOM     15  C   UNL A   1      34.592  31.098  27.997  1.00  0.00     0.085 A 
BRANCH  14  16
ATOM     16  N   UNL A   1      33.058  33.044  27.775  1.00  0.00     0.062 N 
ATOM     17  O   UNL A   1      33.879  33.739  28.385  1.00  0.00    -0.258 OA
ATOM     18  O   UNL A   1      31.954  33.449  27.379  1.00  0.00    -0.258 OA
ENDBRANCH  14  16
ENDBRANCH   9  10
BRANCH   9  19
ATOM     19  N   UNL A   1      32.101  28.388  24.514  1.00  0.00    -0.348 N 
ATOM     20  C   UNL A   1      31.436  28.460  23.332  1.00  0.00     0.226 C 
ATOM     21  H   UNL A   1      33.044  28.129  24.409  1.00  0.00     0.164 HD
ATOM     22  O   UNL A   1      32.006  27.878  22.400  1.00  0.00    -0.274 OA
BRANCH  20  23
ATOM     23  C   UNL A   1      30.141  29.264  23.079  1.00  0.00     0.050 C 
ATOM     24  C   UNL A   1      28.813  28.490  23.187  1.00  0.00     0.020 C 
ATOM     25  C   UNL A   1      30.196  29.840  21.626  1.00  0.00     0.020 C 
ATOM     26  C   UNL A   1      30.130  30.474  24.041  1.00  0.00     0.020 C 
ATOM     27  C   UNL A   1      27.607  29.413  22.925  1.00  0.00    -0.010 C 
ATOM     28  C   UNL A   1      29.002  30.768  21.340  1.00  0.00    -0.010 C 
ATOM     29  C   UNL A   1      28.926  31.387  23.775  1.00  0.00    -0.010 C 
ATOM     30  C   UNL A   1      27.632  30.573  23.936  1.00  0.00     0.007 C 
ATOM     31  C   UNL A   1      27.697  29.977  21.502  1.00  0.00     0.007 C 
ATOM     32  C   UNL A   1      29.017  31.932  22.344  1.00  0.00     0.007 C 
ENDBRANCH  20  23
ENDBRANCH   9  19
ENDBRANCH   8   9
ENDBRANCH   6   8
ENDBRANCH   5   6
ENDBRANCH   4   5
ENDBRANCH   3   4
ENDBRANCH   2   3
ENDBRANCH   1   2
BRANCH   1  33
ATOM     33  C   UNL A   1      36.937  22.324  25.767  1.00  0.00     0.188 C 
BRANCH  33  34
ATOM     34  O   UNL A   1      38.322  22.515  25.508  1.00  0.00    -0.376 OA
BRANCH  34  35
ATOM     35  C   UNL A   1      39.210  22.759  26.589  1.00  0.00     0.202 C 
BRANCH  35  36
ATOM     36  C   UNL A   1      40.548  23.449  26.297  1.00  0.00     0.261 C 
BRANCH  36  37
ATOM     37  O   UNL A   1      40.898  24.512  27.205  1.00  0.00    -0.460 OA
BRANCH  37  38
ATOM     38  C   UNL A   1      40.742  25.767  26.712  1.00  0.00     0.338 C 
ATOM     39  O   UNL A   1      40.802  26.102  25.542  1.00  0.00    -0.246 OA
BRANCH  38  40
ATOM     40  C   UNL A   1      40.307  26.706  27.771  1.00  0.00     0.060 A 
ATOM     41  C   UNL A   1      40.930  27.960  27.821  1.00  0.00     0.016 A 
ATOM     42  C   UNL A   1      39.393  26.336  28.761  1.00  0.00     0.016 A 
ATOM     43  C   UNL A   1      40.698  28.820  28.895  1.00  0.00     0.010 A 
ATOM     44  C   UNL A   1      39.175  27.195  29.851  1.00  0.00     0.010 A 
ATOM     45  C   UNL A   1      39.864  28.418  29.947  1.00  0.00    -0.014 A 
BRANCH  45  46
ATOM     46  C   UNL A   1      39.895  29.191  31.219  1.00  0.00     0.031 A 
ATOM     47  C   UNL A   1      41.006  28.924  32.203  1.00  0.00     0.074 A 
ATOM     48  C   UNL A   1      39.007  30.171  31.468  1.00  0.00     0.049 A 
ATOM     49  N   UNL A   1      41.265  29.516  33.341  1.00  0.00    -0.248 NA
ATOM     50  C   UNL A   1      41.953  27.852  31.854  1.00  0.00     0.031 C 
ATOM     51  C   UNL A   1      37.906  30.562  30.591  1.00  0.00     0.029 A 
ATOM     52  N   UNL A   1      38.901  31.022  32.541  1.00  0.00    -0.354 N 
ATOM     53  C   UNL A   1      42.409  28.900  33.837  1.00  0.00     0.074 A 
ATOM     54  C   UNL A   1      42.767  27.859  32.898  1.00  0.00     0.031 C 
ATOM     55  C   UNL A   1      37.229  31.573  31.166  1.00  0.00     0.029 A 
ATOM     56  C   UNL A   1      37.838  31.890  32.458  1.00  0.00     0.049 A 
ATOM     57  H   UNL A   1      39.529  31.012  33.300  1.00  0.00     0.167 HD
ATOM     58  C   UNL A   1      43.112  29.180  34.961  1.00  0.00     0.031 A 
ATOM     59  C   UNL A   1      37.400  32.824  33.326  1.00  0.00     0.031 A 
ATOM     60  C   UNL A   1      42.752  30.195  35.915  1.00  0.00     0.049 A 
ATOM     61  C   UNL A   1      38.158  33.075  34.603  1.00  0.00     0.074 A 
ATOM     62  C   UNL A   1      43.400  30.542  37.089  1.00  0.00     0.029 A 
ATOM     63  N   UNL A   1      41.648  31.026  35.809  1.00  0.00    -0.354 N 
ATOM     64  N   UNL A   1      39.248  32.494  35.044  1.00  0.00    -0.248 NA
ATOM     65  C   UNL A   1      37.635  34.125  35.491  1.00  0.00     0.031 C 
ATOM     66  C   UNL A   1      42.660  31.552  37.717  1.00  0.00     0.029 A 
ATOM     67  C   UNL A   1      41.585  31.872  36.905  1.00  0.00     0.049 A 
ATOM     68  H   UNL A   1      41.003  31.016  35.065  1.00  0.00     0.167 HD
ATOM     69  C   UNL A   1      39.552  33.122  36.249  1.00  0.00     0.074 A 
ATOM     70  C   UNL A   1      38.545  34.142  36.455  1.00  0.00     0.031 C 
ATOM     71  C   UNL A   1      40.573  32.876  37.108  1.00  0.00     0.031 A 
BRANCH  58  72
ATOM     72  C   UNL A   1      44.343  28.355  35.229  1.00  0.00    -0.014 A 
ATOM     73  C   UNL A   1      45.594  28.735  34.709  1.00  0.00     0.010 A 
ATOM     74  C   UNL A   1      44.257  27.210  36.040  1.00  0.00     0.010 A 
ATOM     75  C   UNL A   1      46.730  27.965  34.967  1.00  0.00     0.020 A 
ATOM     76  C   UNL A   1      45.396  26.450  36.321  1.00  0.00     0.020 A 
ATOM     77  C   UNL A   1      46.624  26.825  35.769  1.00  0.00     0.054 A 
BRANCH  77  78
ATOM     78  S   UNL A   1      48.119  25.856  36.109  1.00  0.00     0.124 S 
ATOM     79  O   UNL A   1      48.075  24.854  35.047  1.00  0.00    -0.237 OA
ATOM     80  O   UNL A   1      49.180  26.852  35.988  1.00  0.00    -0.237 OA
ATOM     81  O   UNL A   1      47.901  25.342  37.459  1.00  0.00    -0.744 OA
ENDBRANCH  77  78
ENDBRANCH  58  72
BRANCH  59  82
ATOM     82  C   UNL A   1      36.155  33.584  33.027  1.00  0.00    -0.014 A 
ATOM     83  C   UNL A   1      34.895  33.100  33.418  1.00  0.00     0.010 A 
ATOM     84  C   UNL A   1      36.234  34.802  32.328  1.00  0.00     0.010 A 
ATOM     85  C   UNL A   1      33.734  33.812  33.101  1.00  0.00     0.020 A 
ATOM     86  C   UNL A   1      35.080  35.530  32.033  1.00  0.00     0.020 A 
ATOM     87  C   UNL A   1      33.835  35.025  32.412  1.00  0.00     0.054 A 
BRANCH  87  88
ATOM     88  S   UNL A   1      32.327  35.973  32.071  1.00  0.00     0.124 S 
ATOM     89  O   UNL A   1      32.346  36.059  30.615  1.00  0.00    -0.237 OA
ATOM     90  O   UNL A   1      31.286  35.126  32.647  1.00  0.00    -0.237 OA
ATOM     91  O   UNL A   1      32.553  37.230  32.781  1.00  0.00    -0.744 OA
ENDBRANCH  87  88
ENDBRANCH  59  82
BRANCH  71  92
ATOM     92  C   UNL A   1      40.669  33.744  38.338  1.00  0.00    -0.014 A 
ATOM     93  C   UNL A   1      40.151  33.318  39.574  1.00  0.00     0.010 A 
ATOM     94  C   UNL A   1      41.308  34.994  38.259  1.00  0.00     0.010 A 
ATOM     95  C   UNL A   1      40.224  34.149  40.696  1.00  0.00     0.020 A 
ATOM     96  C   UNL A   1      41.410  35.817  39.385  1.00  0.00     0.020 A 
ATOM     97  C   UNL A   1      40.847  35.397  40.592  1.00  0.00     0.054 A 
BRANCH  97  98
ATOM     98  S   UNL A   1      40.937  36.454  42.064  1.00  0.00     0.124 S 
ATOM     99  O   UNL A   1      39.541  36.837  42.247  1.00  0.00    -0.237 OA
ATOM    100  O   UNL A   1      41.482  35.554  43.076  1.00  0.00    -0.237 OA
ATOM    101  O   UNL A   1      41.831  37.537  41.656  1.00  0.00    -0.744 OA
ENDBRANCH  97  98
ENDBRANCH  71  92
ENDBRANCH  45  46
ENDBRANCH  38  40
ENDBRANCH  37  38
ENDBRANCH  36  37
ENDBRANCH  35  36
ENDBRANCH  34  35
ENDBRANCH  33  34
ENDBRANCH   1  33
TORSDOF 25
ENDMDL
MODEL 2
REMARK VINA RESULT:      -9.5      3.678      5.008
REMARK SMILES O=C(C[C@H](NC(=O)[C@]12C[C@H]3C[C@H](C[C@H](C3)C1)C2)c1cccc([N+](=O)[O-])c1)OCCOCCOCCOC(=O)c1ccc(-c2c3nc(c(-c4ccc(S(=O)(=O)[O-])cc4)c4ccc([nH]4)c(-c4ccc(S(=O)(=O)[O-])cc4)c4nc(c(-c5ccc(S(=O)(=O)[O-])cc5)c5ccc2[nH]5)C=C4)C=C3)cc1
REMARK SMILES IDX 31 1 30 2 29 3 28 4 27 5 2 6 1 7 3 8 4 9 18 10 19 11 26 12
REMARK SMILES IDX 20 13 22 14 21 15 23 16 24 17 25 18 5 19 6 20 7 22 8 23 9 24
REMARK SMILES IDX 16 25 17 26 10 27 14 28 12 29 11 30 15 31 13 32 32 33 33 34
REMARK SMILES IDX 34 35 35 36 36 37 37 38 38 39 39 40 40 41 98 42 41 43 97 44
REMARK SMILES IDX 42 45 43 46 44 47 91 48 45 49 96 50 90 51 92 52 46 53 95 54
REMARK SMILES IDX 89 55 88 56 47 58 77 59 58 60 76 61 59 62 62 63 75 64 93 65
REMARK SMILES IDX 60 66 61 67 74 69 94 70 63 71 48 72 49 73 57 74 50 75 56 76
REMARK SMILES IDX 51 77 52 78 53 79 54 80 55 81 78 82 79 83 87 84 80 85 86 86
REMARK SMILES IDX 81 87 82 88 83 89 84 90 85 91 64 92 65 93 73 94 66 95 72 96
REMARK SMILES IDX 67 97 68 98 69 99 70 100 71 101
REMARK H PARENT 5 21 92 57 62 68
REMARK Flexibility Score: inf
ROOT
ATOM      1  C   UNL A   1      33.341  20.322  24.676  1.00  0.00     0.188 C 
ENDROOT
BRANCH   1   2
ATOM      2  O   UNL A   1      33.082  21.700  24.449  1.00  0.00    -0.376 OA
BRANCH   2   3
ATOM      3  C   UNL A   1      33.257  22.168  23.121  1.00  0.00     0.202 C 
BRANCH   3   4
ATOM      4  C   UNL A   1      33.805  23.588  22.997  1.00  0.00     0.261 C 
BRANCH   4   5
ATOM      5  O   UNL A   1      33.235  24.311  21.883  1.00  0.00    -0.463 OA
BRANCH   5   6
ATOM      6  C   UNL A   1      32.540  25.459  21.952  1.00  0.00     0.308 C 
ATOM      7  O   UNL A   1      31.977  25.899  20.951  1.00  0.00    -0.252 OA
BRANCH   6   8
ATOM      8  C   UNL A   1      32.771  26.356  23.147  1.00  0.00     0.152 C 
BRANCH   8   9
ATOM      9  C   UNL A   1      31.597  26.858  24.000  1.00  0.00     0.123 C 
BRANCH   9  10
ATOM     10  C   UNL A   1      31.200  25.768  24.976  1.00  0.00    -0.018 A 
ATOM     11  C   UNL A   1      29.851  25.489  25.253  1.00  0.00     0.006 A 
ATOM     12  C   UNL A   1      32.195  25.008  25.612  1.00  0.00     0.091 A 
ATOM     13  C   UNL A   1      29.507  24.509  26.188  1.00  0.00     0.007 A 
ATOM     14  C   UNL A   1      31.844  24.032  26.551  1.00  0.00     0.269 A 
ATOM     15  C   UNL A   1      30.501  23.782  26.846  1.00  0.00     0.085 A 
BRANCH  14  16
ATOM     16  N   UNL A   1      32.909  23.298  27.241  1.00  0.00     0.062 N 
ATOM     17  O   UNL A   1      34.078  23.506  26.896  1.00  0.00    -0.258 OA
ATOM     18  O   UNL A   1      32.570  22.490  28.120  1.00  0.00    -0.258 OA
ENDBRANCH  14  16
ENDBRANCH   9  10
BRANCH   9  19
ATOM     19  N   UNL A   1      31.854  28.118  24.694  1.00  0.00    -0.348 N 
ATOM     20  C   UNL A   1      31.428  29.396  24.520  1.00  0.00     0.226 C 
ATOM     21  H   UNL A   1      32.470  28.019  25.455  1.00  0.00     0.164 HD
ATOM     22  O   UNL A   1      32.122  30.239  25.102  1.00  0.00    -0.274 OA
BRANCH  20  23
ATOM     23  C   UNL A   1      30.146  29.819  23.768  1.00  0.00     0.050 C 
ATOM     24  C   UNL A   1      28.952  28.846  23.833  1.00  0.00     0.020 C 
ATOM     25  C   UNL A   1      30.497  29.983  22.253  1.00  0.00     0.020 C 
ATOM     26  C   UNL A   1      29.723  31.213  24.284  1.00  0.00     0.020 C 
ATOM     27  C   UNL A   1      27.742  29.397  23.054  1.00  0.00    -0.010 C 
ATOM     28  C   UNL A   1      29.303  30.534  21.453  1.00  0.00    -0.010 C 
ATOM     29  C   UNL A   1      28.517  31.754  23.505  1.00  0.00    -0.010 C 
ATOM     30  C   UNL A   1      27.348  30.765  23.639  1.00  0.00     0.007 C 
ATOM     31  C   UNL A   1      28.120  29.565  21.577  1.00  0.00     0.007 C 
ATOM     32  C   UNL A   1      28.901  31.902  22.027  1.00  0.00     0.007 C 
ENDBRANCH  20  23
ENDBRANCH   9  19
ENDBRANCH   8   9
ENDBRANCH   6   8
ENDBRANCH   5   6
ENDBRANCH   4   5
ENDBRANCH   3   4
ENDBRANCH   2   3
ENDBRANCH   1   2
BRANCH   1  33
ATOM     33  C   UNL A   1      34.836  19.934  24.689  1.00  0.00     0.188 C 
BRANCH  33  34
ATOM     34  O   UNL A   1      35.789  20.805  25.284  1.00  0.00    -0.376 OA
BRANCH  34  35
ATOM     35  C   UNL A   1      37.154  20.719  24.900  1.00  0.00     0.202 C 
BRANCH  35  36
ATOM     36  C   UNL A   1      38.225  21.190  25.892  1.00  0.00     0.261 C 
BRANCH  36  37
ATOM     37  O   UNL A   1      38.862  22.438  25.555  1.00  0.00    -0.460 OA
BRANCH  37  38
ATOM     38  C   UNL A   1      38.170  23.552  25.905  1.00  0.00     0.338 C 
ATOM     39  O   UNL A   1      36.977  23.745  25.754  1.00  0.00    -0.246 OA
BRANCH  38  40
ATOM     40  C   UNL A   1      39.020  24.488  26.677  1.00  0.00     0.060 A 
ATOM     41  C   UNL A   1      38.728  24.658  28.036  1.00  0.00     0.016 A 
ATOM     42  C   UNL A   1      40.010  25.264  26.069  1.00  0.00     0.016 A 
ATOM     43  C   UNL A   1      39.369  25.652  28.776  1.00  0.00     0.010 A 
ATOM     44  C   UNL A   1      40.642  26.276  26.811  1.00  0.00     0.010 A 
ATOM     45  C   UNL A   1      40.288  26.506  28.153  1.00  0.00    -0.014 A 
BRANCH  45  46
ATOM     46  C   UNL A   1      40.702  27.749  28.860  1.00  0.00     0.031 A 
ATOM     47  C   UNL A   1      42.107  27.842  29.402  1.00  0.00     0.074 A 
ATOM     48  C   UNL A   1      39.883  28.813  28.951  1.00  0.00     0.049 A 
ATOM     49  N   UNL A   1      42.701  28.846  29.996  1.00  0.00    -0.248 NA
ATOM     50  C   UNL A   1      42.953  26.648  29.247  1.00  0.00     0.031 C 
ATOM     51  C   UNL A   1      38.515  28.877  28.440  1.00  0.00     0.029 A 
ATOM     52  N   UNL A   1      40.093  30.052  29.507  1.00  0.00    -0.354 N 
ATOM     53  C   UNL A   1      43.992  28.410  30.274  1.00  0.00     0.074 A 
ATOM     54  C   UNL A   1      44.080  27.038  29.823  1.00  0.00     0.031 C 
ATOM     55  C   UNL A   1      38.004  30.091  28.715  1.00  0.00     0.029 A 
ATOM     56  C   UNL A   1      39.002  30.884  29.433  1.00  0.00     0.049 A 
ATOM     57  H   UNL A   1      40.946  30.318  29.920  1.00  0.00     0.167 HD
ATOM     58  C   UNL A   1      45.021  29.089  30.837  1.00  0.00     0.031 A 
ATOM     59  C   UNL A   1      38.823  32.137  29.899  1.00  0.00     0.031 A 
ATOM     60  C   UNL A   1      44.939  30.445  31.311  1.00  0.00     0.049 A 
ATOM     61  C   UNL A   1      39.959  32.852  30.582  1.00  0.00     0.074 A 
ATOM     62  C   UNL A   1      45.928  31.211  31.906  1.00  0.00     0.029 A 
ATOM     63  N   UNL A   1      43.805  31.239  31.250  1.00  0.00    -0.354 N 
ATOM     64  N   UNL A   1      41.178  32.429  30.819  1.00  0.00    -0.248 NA
ATOM     65  C   UNL A   1      39.699  34.224  31.045  1.00  0.00     0.031 C 
ATOM     66  C   UNL A   1      45.377  32.452  32.246  1.00  0.00     0.029 A 
ATOM     67  C   UNL A   1      44.063  32.479  31.811  1.00  0.00     0.049 A 
ATOM     68  H   UNL A   1      42.942  30.962  30.863  1.00  0.00     0.167 HD
ATOM     69  C   UNL A   1      41.835  33.490  31.437  1.00  0.00     0.074 A 
ATOM     70  C   UNL A   1      40.885  34.580  31.517  1.00  0.00     0.031 C 
ATOM     71  C   UNL A   1      43.109  33.555  31.897  1.00  0.00     0.031 A 
BRANCH  58  72
ATOM     72  C   UNL A   1      46.330  28.360  30.986  1.00  0.00    -0.014 A 
ATOM     73  C   UNL A   1      47.296  28.395  29.964  1.00  0.00     0.010 A 
ATOM     74  C   UNL A   1      46.614  27.665  32.174  1.00  0.00     0.010 A 
ATOM     75  C   UNL A   1      48.509  27.719  30.114  1.00  0.00     0.020 A 
ATOM     76  C   UNL A   1      47.837  27.007  32.339  1.00  0.00     0.020 A 
ATOM     77  C   UNL A   1      48.771  27.026  31.300  1.00  0.00     0.054 A 
BRANCH  77  78
ATOM     78  S   UNL A   1      50.364  26.177  31.480  1.00  0.00     0.124 S 
ATOM     79  O   UNL A   1      51.311  27.272  31.283  1.00  0.00    -0.237 OA
ATOM     80  O   UNL A   1      50.292  25.646  32.839  1.00  0.00    -0.237 OA
ATOM     81  O   UNL A   1      50.344  25.173  30.419  1.00  0.00    -0.744 OA
ENDBRANCH  77  78
ENDBRANCH  58  72
BRANCH  59  82
ATOM     82  C   UNL A   1      37.495  32.796  29.758  1.00  0.00    -0.014 A 
ATOM     83  C   UNL A   1      36.640  32.954  30.861  1.00  0.00     0.010 A 
ATOM     84  C   UNL A   1      37.077  33.255  28.496  1.00  0.00     0.010 A 
ATOM     85  C   UNL A   1      35.383  33.547  30.703  1.00  0.00     0.020 A 
ATOM     86  C   UNL A   1      35.835  33.872  28.338  1.00  0.00     0.020 A 
ATOM     87  C   UNL A   1      34.990  34.005  29.442  1.00  0.00     0.054 A 
BRANCH  87  88
ATOM     88  S   UNL A   1      33.388  34.836  29.265  1.00  0.00     0.124 S 
ATOM     89  O   UNL A   1      32.855  34.757  30.621  1.00  0.00    -0.237 OA
ATOM     90  O   UNL A   1      33.774  36.168  28.808  1.00  0.00    -0.237 OA
ATOM     91  O   UNL A   1      32.696  34.024  28.267  1.00  0.00    -0.744 OA
ENDBRANCH  87  88
ENDBRANCH  59  82
BRANCH  71  92
ATOM     92  C   UNL A   1      43.561  34.859  32.505  1.00  0.00    -0.014 A 
ATOM     93  C   UNL A   1      44.093  35.890  31.710  1.00  0.00     0.010 A 
ATOM     94  C   UNL A   1      43.427  35.065  33.890  1.00  0.00     0.010 A 
ATOM     95  C   UNL A   1      44.532  37.081  32.295  1.00  0.00     0.020 A 
ATOM     96  C   UNL A   1      43.838  36.265  34.477  1.00  0.00     0.020 A 
ATOM     97  C   UNL A   1      44.408  37.258  33.677  1.00  0.00     0.054 A 
BRANCH  97  98
ATOM     98  S   UNL A   1      44.977  38.815  34.414  1.00  0.00     0.124 S 
ATOM     99  O   UNL A   1      46.261  38.425  34.990  1.00  0.00    -0.237 OA
ATOM    100  O   UNL A   1      45.050  39.709  33.263  1.00  0.00    -0.237 OA
ATOM    101  O   UNL A   1      43.933  39.140  35.383  1.00  0.00    -0.744 OA
ENDBRANCH  97  98
ENDBRANCH  71  92
ENDBRANCH  45  46
ENDBRANCH  38  40
ENDBRANCH  37  38
ENDBRANCH  36  37
ENDBRANCH  35  36
ENDBRANCH  34  35
ENDBRANCH  33  34
ENDBRANCH   1  33
TORSDOF 25
ENDMDL
MODEL 3
REMARK VINA RESULT:      -9.0      4.887      6.452
REMARK SMILES O=C(C[C@H](NC(=O)[C@]12C[C@H]3C[C@H](C[C@H](C3)C1)C2)c1cccc([N+](=O)[O-])c1)OCCOCCOCCOC(=O)c1ccc(-c2c3nc(c(-c4ccc(S(=O)(=O)[O-])cc4)c4ccc([nH]4)c(-c4ccc(S(=O)(=O)[O-])cc4)c4nc(c(-c5ccc(S(=O)(=O)[O-])cc5)c5ccc2[nH]5)C=C4)C=C3)cc1
REMARK SMILES IDX 31 1 30 2 29 3 28 4 27 5 2 6 1 7 3 8 4 9 18 10 19 11 26 12
REMARK SMILES IDX 20 13 22 14 21 15 23 16 24 17 25 18 5 19 6 20 7 22 8 23 9 24
REMARK SMILES IDX 16 25 17 26 10 27 14 28 12 29 11 30 15 31 13 32 32 33 33 34
REMARK SMILES IDX 34 35 35 36 36 37 37 38 38 39 39 40 40 41 98 42 41 43 97 44
REMARK SMILES IDX 42 45 43 46 44 47 91 48 45 49 96 50 90 51 92 52 46 53 95 54
REMARK SMILES IDX 89 55 88 56 47 58 77 59 58 60 76 61 59 62 62 63 75 64 93 65
REMARK SMILES IDX 60 66 61 67 74 69 94 70 63 71 48 72 49 73 57 74 50 75 56 76
REMARK SMILES IDX 51 77 52 78 53 79 54 80 55 81 78 82 79 83 87 84 80 85 86 86
REMARK SMILES IDX 81 87 82 88 83 89 84 90 85 91 64 92 65 93 73 94 66 95 72 96
REMARK SMILES IDX 67 97 68 98 69 99 70 100 71 101
REMARK H PARENT 5 21 92 57 62 68
REMARK Flexibility Score: inf
ROOT
ATOM      1  C   UNL A   1      33.331  20.323  24.645  1.00  0.00     0.188 C 
ENDROOT
BRANCH   1   2
ATOM      2  O   UNL A   1      33.140  21.723  24.499  1.00  0.00    -0.376 OA
BRANCH   2   3
ATOM      3  C   UNL A   1      33.054  22.217  23.171  1.00  0.00     0.202 C 
BRANCH   3   4
ATOM      4  C   UNL A   1      33.831  23.503  22.902  1.00  0.00     0.261 C 
BRANCH   4   5
ATOM      5  O   UNL A   1      33.639  24.001  21.559  1.00  0.00    -0.463 OA
BRANCH   5   6
ATOM      6  C   UNL A   1      33.016  25.142  21.215  1.00  0.00     0.308 C 
ATOM      7  O   UNL A   1      33.093  25.561  20.062  1.00  0.00    -0.252 OA
BRANCH   6   8
ATOM      8  C   UNL A   1      32.552  26.058  22.325  1.00  0.00     0.152 C 
BRANCH   8   9
ATOM      9  C   UNL A   1      31.079  26.473  22.447  1.00  0.00     0.123 C 
BRANCH   9  10
ATOM     10  C   UNL A   1      30.513  25.897  23.730  1.00  0.00    -0.018 A 
ATOM     11  C   UNL A   1      29.163  26.069  24.076  1.00  0.00     0.006 A 
ATOM     12  C   UNL A   1      31.347  25.168  24.592  1.00  0.00     0.091 A 
ATOM     13  C   UNL A   1      28.670  25.568  25.284  1.00  0.00     0.007 A 
ATOM     14  C   UNL A   1      30.850  24.673  25.803  1.00  0.00     0.269 A 
ATOM     15  C   UNL A   1      29.512  24.876  26.156  1.00  0.00     0.085 A 
BRANCH  14  16
ATOM     16  N   UNL A   1      31.762  23.968  26.707  1.00  0.00     0.062 N 
ATOM     17  O   UNL A   1      32.979  24.109  26.536  1.00  0.00    -0.258 OA
ATOM     18  O   UNL A   1      31.257  23.248  27.583  1.00  0.00    -0.258 OA
ENDBRANCH  14  16
ENDBRANCH   9  10
BRANCH   9  19
ATOM     19  N   UNL A   1      30.853  27.913  22.370  1.00  0.00    -0.348 N 
ATOM     20  C   UNL A   1      30.898  28.927  23.275  1.00  0.00     0.226 C 
ATOM     21  H   UNL A   1      30.619  28.218  21.464  1.00  0.00     0.164 HD
ATOM     22  O   UNL A   1      30.324  29.958  22.901  1.00  0.00    -0.274 OA
BRANCH  20  23
ATOM     23  C   UNL A   1      31.665  28.897  24.615  1.00  0.00     0.050 C 
ATOM     24  C   UNL A   1      31.104  27.973  25.714  1.00  0.00     0.020 C 
ATOM     25  C   UNL A   1      31.663  30.343  25.214  1.00  0.00     0.020 C 
ATOM     26  C   UNL A   1      33.139  28.536  24.319  1.00  0.00     0.020 C 
ATOM     27  C   UNL A   1      31.970  28.033  26.987  1.00  0.00    -0.010 C 
ATOM     28  C   UNL A   1      32.524  30.428  26.487  1.00  0.00    -0.010 C 
ATOM     29  C   UNL A   1      33.994  28.596  25.592  1.00  0.00    -0.010 C 
ATOM     30  C   UNL A   1      33.412  27.627  26.635  1.00  0.00     0.007 C 
ATOM     31  C   UNL A   1      31.965  29.463  27.541  1.00  0.00     0.007 C 
ATOM     32  C   UNL A   1      33.968  30.026  26.146  1.00  0.00     0.007 C 
ENDBRANCH  20  23
ENDBRANCH   9  19
ENDBRANCH   8   9
ENDBRANCH   6   8
ENDBRANCH   5   6
ENDBRANCH   4   5
ENDBRANCH   3   4
ENDBRANCH   2   3
ENDBRANCH   1   2
BRANCH   1  33
ATOM     33  C   UNL A   1      34.806  19.864  24.660  1.00  0.00     0.188 C 
BRANCH  33  34
ATOM     34  O   UNL A   1      35.798  20.689  25.258  1.00  0.00    -0.376 OA
BRANCH  34  35
ATOM     35  C   UNL A   1      37.160  20.527  24.890  1.00  0.00     0.202 C 
BRANCH  35  36
ATOM     36  C   UNL A   1      38.234  21.236  25.724  1.00  0.00     0.261 C 
BRANCH  36  37
ATOM     37  O   UNL A   1      38.536  22.583  25.313  1.00  0.00    -0.460 OA
BRANCH  37  38
ATOM     38  C   UNL A   1      37.958  23.558  26.061  1.00  0.00     0.338 C 
ATOM     39  O   UNL A   1      36.782  23.637  26.370  1.00  0.00    -0.246 OA
BRANCH  38  40
ATOM     40  C   UNL A   1      38.978  24.469  26.630  1.00  0.00     0.060 A 
ATOM     41  C   UNL A   1      38.918  24.731  28.005  1.00  0.00     0.016 A 
ATOM     42  C   UNL A   1      39.905  25.139  25.828  1.00  0.00     0.016 A 
ATOM     43  C   UNL A   1      39.730  25.713  28.571  1.00  0.00     0.010 A 
ATOM     44  C   UNL A   1      40.709  26.140  26.396  1.00  0.00     0.010 A 
ATOM     45  C   UNL A   1      40.590  26.465  27.760  1.00  0.00    -0.014 A 
BRANCH  45  46
ATOM     46  C   UNL A   1      41.188  27.710  28.313  1.00  0.00     0.031 A 
ATOM     47  C   UNL A   1      42.687  27.876  28.270  1.00  0.00     0.074 A 
ATOM     48  C   UNL A   1      40.421  28.716  28.772  1.00  0.00     0.049 A 
ATOM     49  N   UNL A   1      43.419  28.898  28.637  1.00  0.00    -0.248 NA
ATOM     50  C   UNL A   1      43.461  26.744  27.735  1.00  0.00     0.031 C 
ATOM     51  C   UNL A   1      38.961  28.708  28.838  1.00  0.00     0.029 A 
ATOM     52  N   UNL A   1      40.774  29.949  29.266  1.00  0.00    -0.354 N 
ATOM     53  C   UNL A   1      44.734  28.538  28.367  1.00  0.00     0.074 A 
ATOM     54  C   UNL A   1      44.703  27.187  27.847  1.00  0.00     0.031 C 
ATOM     55  C   UNL A   1      38.543  29.879  29.353  1.00  0.00     0.029 A 
ATOM     56  C   UNL A   1      39.704  30.713  29.666  1.00  0.00     0.049 A 
ATOM     57  H   UNL A   1      41.708  30.257  29.327  1.00  0.00     0.167 HD
ATOM     58  C   UNL A   1      45.869  29.264  28.519  1.00  0.00     0.031 A 
ATOM     59  C   UNL A   1      39.663  31.937  30.230  1.00  0.00     0.031 A 
ATOM     60  C   UNL A   1      45.915  30.597  29.058  1.00  0.00     0.049 A 
ATOM     61  C   UNL A   1      40.941  32.702  30.453  1.00  0.00     0.074 A 
ATOM     62  C   UNL A   1      47.021  31.406  29.260  1.00  0.00     0.029 A 
ATOM     63  N   UNL A   1      44.812  31.318  29.485  1.00  0.00    -0.354 N 
ATOM     64  N   UNL A   1      42.174  32.351  30.174  1.00  0.00    -0.248 NA
ATOM     65  C   UNL A   1      40.819  34.041  31.052  1.00  0.00     0.031 C 
ATOM     66  C   UNL A   1      46.590  32.599  29.852  1.00  0.00     0.029 A 
ATOM     67  C   UNL A   1      45.211  32.555  29.965  1.00  0.00     0.049 A 
ATOM     68  H   UNL A   1      43.881  30.999  29.451  1.00  0.00     0.167 HD
ATOM     69  C   UNL A   1      42.969  33.432  30.542  1.00  0.00     0.074 A 
ATOM     70  C   UNL A   1      42.077  34.457  31.042  1.00  0.00     0.031 C 
ATOM     71  C   UNL A   1      44.318  33.565  30.472  1.00  0.00     0.031 A 
BRANCH  58  72
ATOM     72  C   UNL A   1      47.164  28.615  28.109  1.00  0.00    -0.014 A 
ATOM     73  C   UNL A   1      47.901  27.836  29.019  1.00  0.00     0.010 A 
ATOM     74  C   UNL A   1      47.631  28.754  26.790  1.00  0.00     0.010 A 
ATOM     75  C   UNL A   1      49.100  27.235  28.626  1.00  0.00     0.020 A 
ATOM     76  C   UNL A   1      48.817  28.134  26.386  1.00  0.00     0.020 A 
ATOM     77  C   UNL A   1      49.552  27.390  27.312  1.00  0.00     0.054 A 
BRANCH  77  78
ATOM     78  S   UNL A   1      51.099  26.580  26.822  1.00  0.00     0.124 S 
ATOM     79  O   UNL A   1      50.676  25.809  25.655  1.00  0.00    -0.237 OA
ATOM     80  O   UNL A   1      51.978  27.711  26.542  1.00  0.00    -0.237 OA
ATOM     81  O   UNL A   1      51.461  25.786  27.993  1.00  0.00    -0.744 OA
ENDBRANCH  77  78
ENDBRANCH  58  72
BRANCH  59  82
ATOM     82  C   UNL A   1      38.357  32.514  30.651  1.00  0.00    -0.014 A 
ATOM     83  C   UNL A   1      37.858  32.315  31.950  1.00  0.00     0.010 A 
ATOM     84  C   UNL A   1      37.596  33.259  29.732  1.00  0.00     0.010 A 
ATOM     85  C   UNL A   1      36.614  32.837  32.318  1.00  0.00     0.020 A 
ATOM     86  C   UNL A   1      36.366  33.806  30.103  1.00  0.00     0.020 A 
ATOM     87  C   UNL A   1      35.878  33.583  31.392  1.00  0.00     0.054 A 
BRANCH  87  88
ATOM     88  S   UNL A   1      34.300  34.315  31.905  1.00  0.00     0.124 S 
ATOM     89  O   UNL A   1      33.615  34.487  30.628  1.00  0.00    -0.237 OA
ATOM     90  O   UNL A   1      33.751  33.291  32.790  1.00  0.00    -0.237 OA
ATOM     91  O   UNL A   1      34.705  35.549  32.575  1.00  0.00    -0.744 OA
ENDBRANCH  87  88
ENDBRANCH  59  82
BRANCH  71  92
ATOM     92  C   UNL A   1      44.910  34.877  30.923  1.00  0.00    -0.014 A 
ATOM     93  C   UNL A   1      45.429  35.036  32.220  1.00  0.00     0.010 A 
ATOM     94  C   UNL A   1      44.969  35.959  30.026  1.00  0.00     0.010 A 
ATOM     95  C   UNL A   1      45.948  36.268  32.629  1.00  0.00     0.020 A 
ATOM     96  C   UNL A   1      45.513  37.184  30.420  1.00  0.00     0.020 A 
ATOM     97  C   UNL A   1      45.979  37.337  31.727  1.00  0.00     0.054 A 
BRANCH  97  98
ATOM     98  S   UNL A   1      46.664  38.925  32.277  1.00  0.00     0.124 S 
ATOM     99  O   UNL A   1      47.726  39.150  31.300  1.00  0.00    -0.237 OA
ATOM    100  O   UNL A   1      45.517  39.822  32.179  1.00  0.00    -0.237 OA
ATOM    101  O   UNL A   1      47.119  38.652  33.639  1.00  0.00    -0.744 OA
ENDBRANCH  97  98
ENDBRANCH  71  92
ENDBRANCH  45  46
ENDBRANCH  38  40
ENDBRANCH  37  38
ENDBRANCH  36  37
ENDBRANCH  35  36
ENDBRANCH  34  35
ENDBRANCH  33  34
ENDBRANCH   1  33
TORSDOF 25
ENDMDL
