MODEL 1
REMARK VINA RESULT:     -10.3      0.000      0.000
REMARK SMILES O=C(OCCOCCOCCOC(=O)c1cccc(N2CCCCC2)n1)c1ccc(-c2c3nc(c(-c4ccc(S(=O)(=O)[O-])cc4)c4ccc([nH]4)c(-c4ccc(S(=O)(=O)[O-])cc4)c4nc(c(-c5ccc(S(=O)(=O)[O-])cc5)c5ccc2[nH]5)C=C4)C=C3)cc1
REMARK SMILES IDX 7 1 6 2 5 3 4 4 3 5 2 6 1 7 27 8 28 9 86 10 29 11 85 12
REMARK SMILES IDX 30 13 31 14 32 15 79 16 33 17 84 18 78 19 80 20 34 21 83 22
REMARK SMILES IDX 77 23 76 24 35 26 65 27 46 28 64 29 47 30 50 31 63 32 81 33
REMARK SMILES IDX 48 34 49 35 62 37 82 38 51 39 36 40 37 41 45 42 38 43 44 44
REMARK SMILES IDX 39 45 40 46 41 47 42 48 43 49 66 50 67 51 75 52 68 53 74 54
REMARK SMILES IDX 69 55 70 56 71 57 72 58 73 59 52 60 53 61 61 62 54 63 60 64
REMARK SMILES IDX 55 65 56 66 57 67 58 68 59 69 8 70 9 71 10 72 11 73 12 74
REMARK SMILES IDX 13 75 14 76 15 77 16 78 26 79 17 80 19 81 18 82 20 83 21 84
REMARK SMILES IDX 25 85 22 86 24 87 23 88
REMARK H PARENT 80 25 50 36
REMARK Flexibility Score: inf
ROOT
ATOM      1  C   UNL A   1      46.102  22.898  24.225  1.00  0.00     0.188 C 
ENDROOT
BRANCH   1   2
ATOM      2  O   UNL A   1      46.300  24.314  24.331  1.00  0.00    -0.376 OA
BRANCH   2   3
ATOM      3  C   UNL A   1      45.806  24.884  25.543  1.00  0.00     0.202 C 
BRANCH   3   4
ATOM      4  C   UNL A   1      44.663  25.885  25.341  1.00  0.00     0.261 C 
BRANCH   4   5
ATOM      5  O   UNL A   1      43.398  25.334  25.748  1.00  0.00    -0.460 OA
BRANCH   5   6
ATOM      6  C   UNL A   1      42.201  25.970  25.838  1.00  0.00     0.338 C 
ATOM      7  O   UNL A   1      41.358  25.759  24.967  1.00  0.00    -0.246 OA
BRANCH   6   8
ATOM      8  C   UNL A   1      41.822  26.860  26.977  1.00  0.00     0.060 A 
ATOM      9  C   UNL A   1      42.257  28.174  27.145  1.00  0.00     0.016 A 
ATOM     10  C   UNL A   1      40.910  26.346  27.918  1.00  0.00     0.016 A 
ATOM     11  C   UNL A   1      41.920  28.904  28.281  1.00  0.00     0.010 A 
ATOM     12  C   UNL A   1      40.500  27.106  29.021  1.00  0.00     0.010 A 
ATOM     13  C   UNL A   1      41.042  28.378  29.231  1.00  0.00    -0.014 A 
BRANCH  13  14
ATOM     14  C   UNL A   1      40.776  29.164  30.458  1.00  0.00     0.031 A 
ATOM     15  C   UNL A   1      41.714  29.049  31.626  1.00  0.00     0.074 A 
ATOM     16  C   UNL A   1      39.789  30.082  30.461  1.00  0.00     0.049 A 
ATOM     17  N   UNL A   1      41.699  29.700  32.761  1.00  0.00    -0.248 NA
ATOM     18  C   UNL A   1      42.824  28.090  31.497  1.00  0.00     0.031 C 
ATOM     19  C   UNL A   1      38.871  30.334  29.346  1.00  0.00     0.029 A 
ATOM     20  N   UNL A   1      39.424  31.003  31.408  1.00  0.00    -0.354 N 
ATOM     21  C   UNL A   1      42.794  29.232  33.477  1.00  0.00     0.074 A 
ATOM     22  C   UNL A   1      43.437  28.224  32.664  1.00  0.00     0.031 C 
ATOM     23  C   UNL A   1      38.086  31.379  29.657  1.00  0.00     0.029 A 
ATOM     24  C   UNL A   1      38.396  31.824  31.009  1.00  0.00     0.049 A 
ATOM     25  H   UNL A   1      39.856  31.070  32.290  1.00  0.00     0.167 HD
ATOM     26  C   UNL A   1      43.231  29.615  34.700  1.00  0.00     0.031 A 
ATOM     27  C   UNL A   1      37.762  32.817  31.662  1.00  0.00     0.031 A 
ATOM     28  C   UNL A   1      42.577  30.604  35.512  1.00  0.00     0.049 A 
ATOM     29  C   UNL A   1      38.213  33.163  33.052  1.00  0.00     0.074 A 
ATOM     30  C   UNL A   1      42.883  31.007  36.799  1.00  0.00     0.029 A 
ATOM     31  N   UNL A   1      41.484  31.354  35.105  1.00  0.00    -0.354 N 
ATOM     32  N   UNL A   1      39.214  32.663  33.738  1.00  0.00    -0.248 NA
ATOM     33  C   UNL A   1      37.449  34.199  33.759  1.00  0.00     0.031 C 
ATOM     34  C   UNL A   1      41.954  31.981  37.182  1.00  0.00     0.029 A 
ATOM     35  C   UNL A   1      41.096  32.212  36.118  1.00  0.00     0.049 A 
ATOM     36  H   UNL A   1      41.049  31.286  34.225  1.00  0.00     0.167 HD
ATOM     37  C   UNL A   1      39.200  33.323  34.959  1.00  0.00     0.074 A 
ATOM     38  C   UNL A   1      38.113  34.281  34.904  1.00  0.00     0.031 C 
ATOM     39  C   UNL A   1      40.004  33.146  36.035  1.00  0.00     0.031 A 
BRANCH  26  40
ATOM     40  C   UNL A   1      44.451  28.920  35.236  1.00  0.00    -0.014 A 
ATOM     41  C   UNL A   1      44.399  27.570  35.629  1.00  0.00     0.010 A 
ATOM     42  C   UNL A   1      45.659  29.628  35.360  1.00  0.00     0.010 A 
ATOM     43  C   UNL A   1      45.527  26.952  36.175  1.00  0.00     0.020 A 
ATOM     44  C   UNL A   1      46.794  29.006  35.890  1.00  0.00     0.020 A 
ATOM     45  C   UNL A   1      46.714  27.678  36.312  1.00  0.00     0.054 A 
BRANCH  45  46
ATOM     46  S   UNL A   1      48.162  26.856  37.031  1.00  0.00     0.124 S 
ATOM     47  O   UNL A   1      48.805  26.291  35.847  1.00  0.00    -0.237 OA
ATOM     48  O   UNL A   1      48.878  27.959  37.667  1.00  0.00    -0.237 OA
ATOM     49  O   UNL A   1      47.585  25.880  37.952  1.00  0.00    -0.744 OA
ENDBRANCH  45  46
ENDBRANCH  26  40
BRANCH  27  50
ATOM     50  C   UNL A   1      36.602  33.506  31.035  1.00  0.00    -0.014 A 
ATOM     51  C   UNL A   1      36.560  33.753  29.652  1.00  0.00     0.010 A 
ATOM     52  C   UNL A   1      35.527  33.934  31.837  1.00  0.00     0.010 A 
ATOM     53  C   UNL A   1      35.477  34.437  29.088  1.00  0.00     0.020 A 
ATOM     54  C   UNL A   1      34.433  34.592  31.275  1.00  0.00     0.020 A 
ATOM     55  C   UNL A   1      34.422  34.855  29.904  1.00  0.00     0.054 A 
BRANCH  55  56
ATOM     56  S   UNL A   1      33.006  35.710  29.159  1.00  0.00     0.124 S 
ATOM     57  O   UNL A   1      33.638  36.888  28.575  1.00  0.00    -0.237 OA
ATOM     58  O   UNL A   1      32.500  34.723  28.210  1.00  0.00    -0.237 OA
ATOM     59  O   UNL A   1      32.133  35.967  30.304  1.00  0.00    -0.744 OA
ENDBRANCH  55  56
ENDBRANCH  27  50
BRANCH  39  60
ATOM     60  C   UNL A   1      39.732  34.013  37.230  1.00  0.00    -0.014 A 
ATOM     61  C   UNL A   1      38.923  33.548  38.283  1.00  0.00     0.010 A 
ATOM     62  C   UNL A   1      40.311  35.290  37.314  1.00  0.00     0.010 A 
ATOM     63  C   UNL A   1      38.672  34.363  39.388  1.00  0.00     0.020 A 
ATOM     64  C   UNL A   1      40.078  36.099  38.426  1.00  0.00     0.020 A 
ATOM     65  C   UNL A   1      39.247  35.636  39.450  1.00  0.00     0.054 A 
BRANCH  65  66
ATOM     66  S   UNL A   1      38.936  36.668  40.907  1.00  0.00     0.124 S 
ATOM     67  O   UNL A   1      37.902  35.907  41.601  1.00  0.00    -0.237 OA
ATOM     68  O   UNL A   1      40.240  36.703  41.565  1.00  0.00    -0.237 OA
ATOM     69  O   UNL A   1      38.499  37.941  40.339  1.00  0.00    -0.744 OA
ENDBRANCH  65  66
ENDBRANCH  39  60
ENDBRANCH  13  14
ENDBRANCH   6   8
ENDBRANCH   5   6
ENDBRANCH   4   5
ENDBRANCH   3   4
ENDBRANCH   2   3
ENDBRANCH   1   2
BRANCH   1  70
ATOM     70  C   UNL A   1      44.656  22.579  23.834  1.00  0.00     0.188 C 
BRANCH  70  71
ATOM     71  O   UNL A   1      44.378  21.178  23.728  1.00  0.00    -0.376 OA
BRANCH  71  72
ATOM     72  C   UNL A   1      44.754  20.375  24.844  1.00  0.00     0.202 C 
BRANCH  72  73
ATOM     73  C   UNL A   1      43.642  19.519  25.457  1.00  0.00     0.261 C 
BRANCH  73  74
ATOM     74  O   UNL A   1      42.715  20.261  26.266  1.00  0.00    -0.459 OA
BRANCH  74  75
ATOM     75  C   UNL A   1      41.414  19.895  26.110  1.00  0.00     0.357 C 
ATOM     76  O   UNL A   1      41.000  18.854  25.621  1.00  0.00    -0.244 OA
BRANCH  75  77
ATOM     77  C   UNL A   1      40.508  20.994  26.509  1.00  0.00     0.150 A 
ATOM     78  C   UNL A   1      41.049  22.022  27.267  1.00  0.00     0.036 A 
ATOM     79  N   UNL A   1      39.277  21.026  25.930  1.00  0.00    -0.224 NA
ATOM     80  C   UNL A   1      40.285  23.165  27.436  1.00  0.00     0.006 A 
ATOM     81  C   UNL A   1      38.568  22.169  26.057  1.00  0.00     0.129 A 
ATOM     82  C   UNL A   1      39.038  23.241  26.819  1.00  0.00     0.047 A 
BRANCH  81  83
ATOM     83  N   UNL A   1      37.400  22.271  25.324  1.00  0.00    -0.357 N 
ATOM     84  C   UNL A   1      36.184  21.769  25.945  1.00  0.00     0.118 C 
ATOM     85  C   UNL A   1      37.272  23.355  24.359  1.00  0.00     0.118 C 
ATOM     86  C   UNL A   1      35.191  21.349  24.858  1.00  0.00     0.022 C 
ATOM     87  C   UNL A   1      36.335  22.909  23.239  1.00  0.00     0.022 C 
ATOM     88  C   UNL A   1      34.995  22.436  23.799  1.00  0.00     0.004 C 
ENDBRANCH  81  83
ENDBRANCH  75  77
ENDBRANCH  74  75
ENDBRANCH  73  74
ENDBRANCH  72  73
ENDBRANCH  71  72
ENDBRANCH  70  71
ENDBRANCH   1  70
TORSDOF 21
ENDMDL
MODEL 2
REMARK VINA RESULT:      -9.9      1.821      8.780
REMARK SMILES O=C(OCCOCCOCCOC(=O)c1cccc(N2CCCCC2)n1)c1ccc(-c2c3nc(c(-c4ccc(S(=O)(=O)[O-])cc4)c4ccc([nH]4)c(-c4ccc(S(=O)(=O)[O-])cc4)c4nc(c(-c5ccc(S(=O)(=O)[O-])cc5)c5ccc2[nH]5)C=C4)C=C3)cc1
REMARK SMILES IDX 7 1 6 2 5 3 4 4 3 5 2 6 1 7 27 8 28 9 86 10 29 11 85 12
REMARK SMILES IDX 30 13 31 14 32 15 79 16 33 17 84 18 78 19 80 20 34 21 83 22
REMARK SMILES IDX 77 23 76 24 35 26 65 27 46 28 64 29 47 30 50 31 63 32 81 33
REMARK SMILES IDX 48 34 49 35 62 37 82 38 51 39 36 40 37 41 45 42 38 43 44 44
REMARK SMILES IDX 39 45 40 46 41 47 42 48 43 49 66 50 67 51 75 52 68 53 74 54
REMARK SMILES IDX 69 55 70 56 71 57 72 58 73 59 52 60 53 61 61 62 54 63 60 64
REMARK SMILES IDX 55 65 56 66 57 67 58 68 59 69 8 70 9 71 10 72 11 73 12 74
REMARK SMILES IDX 13 75 14 76 15 77 16 78 26 79 17 80 19 81 18 82 20 83 21 84
REMARK SMILES IDX 25 85 22 86 24 87 23 88
REMARK H PARENT 80 25 50 36
REMARK Flexibility Score: inf
ROOT
ATOM      1  C   UNL A   1      41.774  20.989  27.071  1.00  0.00     0.188 C 
ENDROOT
BRANCH   1   2
ATOM      2  O   UNL A   1      42.306  21.395  25.802  1.00  0.00    -0.376 OA
BRANCH   2   3
ATOM      3  C   UNL A   1      43.415  22.290  25.894  1.00  0.00     0.202 C 
BRANCH   3   4
ATOM      4  C   UNL A   1      43.158  23.665  25.267  1.00  0.00     0.261 C 
BRANCH   4   5
ATOM      5  O   UNL A   1      42.410  24.518  26.151  1.00  0.00    -0.460 OA
BRANCH   5   6
ATOM      6  C   UNL A   1      42.075  25.822  25.967  1.00  0.00     0.338 C 
ATOM      7  O   UNL A   1      41.914  26.230  24.817  1.00  0.00    -0.246 OA
BRANCH   6   8
ATOM      8  C   UNL A   1      41.820  26.776  27.089  1.00  0.00     0.060 A 
ATOM      9  C   UNL A   1      42.289  28.088  27.146  1.00  0.00     0.016 A 
ATOM     10  C   UNL A   1      40.995  26.328  28.138  1.00  0.00     0.016 A 
ATOM     11  C   UNL A   1      42.073  28.881  28.270  1.00  0.00     0.010 A 
ATOM     12  C   UNL A   1      40.704  27.151  29.234  1.00  0.00     0.010 A 
ATOM     13  C   UNL A   1      41.283  28.421  29.324  1.00  0.00    -0.014 A 
BRANCH  13  14
ATOM     14  C   UNL A   1      41.148  29.273  30.528  1.00  0.00     0.031 A 
ATOM     15  C   UNL A   1      40.029  30.272  30.604  1.00  0.00     0.074 A 
ATOM     16  C   UNL A   1      41.933  29.041  31.600  1.00  0.00     0.049 A 
ATOM     17  N   UNL A   1      39.694  31.061  31.593  1.00  0.00    -0.248 NA
ATOM     18  C   UNL A   1      39.159  30.389  29.422  1.00  0.00     0.031 C 
ATOM     19  C   UNL A   1      42.997  28.036  31.662  1.00  0.00     0.029 A 
ATOM     20  N   UNL A   1      41.925  29.597  32.853  1.00  0.00    -0.354 N 
ATOM     21  C   UNL A   1      38.580  31.763  31.154  1.00  0.00     0.074 A 
ATOM     22  C   UNL A   1      38.308  31.331  29.802  1.00  0.00     0.031 C 
ATOM     23  C   UNL A   1      43.501  28.013  32.907  1.00  0.00     0.029 A 
ATOM     24  C   UNL A   1      42.848  29.040  33.707  1.00  0.00     0.049 A 
ATOM     25  H   UNL A   1      41.318  30.325  33.116  1.00  0.00     0.167 HD
ATOM     26  C   UNL A   1      37.841  32.682  31.821  1.00  0.00     0.031 A 
ATOM     27  C   UNL A   1      43.146  29.331  34.987  1.00  0.00     0.031 A 
ATOM     28  C   UNL A   1      38.127  33.122  33.159  1.00  0.00     0.049 A 
ATOM     29  C   UNL A   1      42.367  30.415  35.676  1.00  0.00     0.074 A 
ATOM     30  C   UNL A   1      37.498  34.107  33.898  1.00  0.00     0.029 A 
ATOM     31  N   UNL A   1      39.127  32.593  33.962  1.00  0.00    -0.354 N 
ATOM     32  N   UNL A   1      41.354  31.113  35.220  1.00  0.00    -0.248 NA
ATOM     33  C   UNL A   1      42.772  30.754  37.046  1.00  0.00     0.031 C 
ATOM     34  C   UNL A   1      38.139  34.194  35.140  1.00  0.00     0.029 A 
ATOM     35  C   UNL A   1      39.139  33.236  35.186  1.00  0.00     0.049 A 
ATOM     36  H   UNL A   1      39.737  31.867  33.698  1.00  0.00     0.167 HD
ATOM     37  C   UNL A   1      41.001  31.978  36.247  1.00  0.00     0.074 A 
ATOM     38  C   UNL A   1      41.885  31.690  37.359  1.00  0.00     0.031 C 
ATOM     39  C   UNL A   1      40.039  32.932  36.268  1.00  0.00     0.031 A 
BRANCH  26  40
ATOM     40  C   UNL A   1      36.683  33.291  31.082  1.00  0.00    -0.014 A 
ATOM     41  C   UNL A   1      36.826  33.735  29.755  1.00  0.00     0.010 A 
ATOM     42  C   UNL A   1      35.442  33.437  31.727  1.00  0.00     0.010 A 
ATOM     43  C   UNL A   1      35.756  34.349  29.098  1.00  0.00     0.020 A 
ATOM     44  C   UNL A   1      34.366  34.034  31.067  1.00  0.00     0.020 A 
ATOM     45  C   UNL A   1      34.536  34.504  29.763  1.00  0.00     0.054 A 
BRANCH  45  46
ATOM     46  S   UNL A   1      33.164  35.312  28.893  1.00  0.00     0.124 S 
ATOM     47  O   UNL A   1      32.269  35.653  29.996  1.00  0.00    -0.237 OA
ATOM     48  O   UNL A   1      33.817  36.444  28.241  1.00  0.00    -0.237 OA
ATOM     49  O   UNL A   1      32.670  34.277  27.988  1.00  0.00    -0.744 OA
ENDBRANCH  45  46
ENDBRANCH  26  40
BRANCH  27  50
ATOM     50  C   UNL A   1      44.266  28.633  35.674  1.00  0.00    -0.014 A 
ATOM     51  C   UNL A   1      45.586  29.109  35.587  1.00  0.00     0.010 A 
ATOM     52  C   UNL A   1      44.011  27.465  36.417  1.00  0.00     0.010 A 
ATOM     53  C   UNL A   1      46.631  28.416  36.208  1.00  0.00     0.020 A 
ATOM     54  C   UNL A   1      45.045  26.785  37.061  1.00  0.00     0.020 A 
ATOM     55  C   UNL A   1      46.353  27.257  36.938  1.00  0.00     0.054 A 
BRANCH  55  56
ATOM     56  S   UNL A   1      47.710  26.384  37.770  1.00  0.00     0.124 S 
ATOM     57  O   UNL A   1      48.806  26.558  36.823  1.00  0.00    -0.237 OA
ATOM     58  O   UNL A   1      47.835  27.113  39.029  1.00  0.00    -0.237 OA
ATOM     59  O   UNL A   1      47.198  25.020  37.897  1.00  0.00    -0.744 OA
ENDBRANCH  55  56
ENDBRANCH  27  50
BRANCH  39  60
ATOM     60  C   UNL A   1      39.902  33.724  37.535  1.00  0.00    -0.014 A 
ATOM     61  C   UNL A   1      40.639  34.907  37.725  1.00  0.00     0.010 A 
ATOM     62  C   UNL A   1      39.009  33.298  38.533  1.00  0.00     0.010 A 
ATOM     63  C   UNL A   1      40.508  35.634  38.909  1.00  0.00     0.020 A 
ATOM     64  C   UNL A   1      38.861  34.033  39.709  1.00  0.00     0.020 A 
ATOM     65  C   UNL A   1      39.624  35.189  39.896  1.00  0.00     0.054 A 
BRANCH  65  66
ATOM     66  S   UNL A   1      39.442  36.163  41.414  1.00  0.00     0.124 S 
ATOM     67  O   UNL A   1      39.550  37.529  40.911  1.00  0.00    -0.237 OA
ATOM     68  O   UNL A   1      38.119  35.773  41.896  1.00  0.00    -0.237 OA
ATOM     69  O   UNL A   1      40.557  35.714  42.245  1.00  0.00    -0.744 OA
ENDBRANCH  65  66
ENDBRANCH  39  60
ENDBRANCH  13  14
ENDBRANCH   6   8
ENDBRANCH   5   6
ENDBRANCH   4   5
ENDBRANCH   3   4
ENDBRANCH   2   3
ENDBRANCH   1   2
BRANCH   1  70
ATOM     70  C   UNL A   1      40.332  21.479  27.237  1.00  0.00     0.188 C 
BRANCH  70  71
ATOM     71  O   UNL A   1      39.838  22.222  26.116  1.00  0.00    -0.376 OA
BRANCH  71  72
ATOM     72  C   UNL A   1      38.552  21.846  25.628  1.00  0.00     0.202 C 
BRANCH  72  73
ATOM     73  C   UNL A   1      37.389  22.751  26.045  1.00  0.00     0.261 C 
BRANCH  73  74
ATOM     74  O   UNL A   1      36.831  23.516  24.964  1.00  0.00    -0.459 OA
BRANCH  74  75
ATOM     75  C   UNL A   1      36.165  22.777  24.037  1.00  0.00     0.357 C 
ATOM     76  O   UNL A   1      36.447  22.660  22.853  1.00  0.00    -0.244 OA
BRANCH  75  77
ATOM     77  C   UNL A   1      34.937  22.189  24.617  1.00  0.00     0.150 A 
ATOM     78  C   UNL A   1      33.899  23.057  24.921  1.00  0.00     0.036 A 
ATOM     79  N   UNL A   1      34.834  20.833  24.609  1.00  0.00    -0.224 NA
ATOM     80  C   UNL A   1      32.668  22.502  25.228  1.00  0.00     0.006 A 
ATOM     81  C   UNL A   1      33.613  20.308  24.855  1.00  0.00     0.129 A 
ATOM     82  C   UNL A   1      32.523  21.117  25.187  1.00  0.00     0.047 A 
BRANCH  81  83
ATOM     83  N   UNL A   1      33.464  18.946  24.672  1.00  0.00    -0.357 N 
ATOM     84  C   UNL A   1      32.818  18.203  25.743  1.00  0.00     0.118 C 
ATOM     85  C   UNL A   1      33.334  18.433  23.316  1.00  0.00     0.118 C 
ATOM     86  C   UNL A   1      33.297  16.749  25.717  1.00  0.00     0.022 C 
ATOM     87  C   UNL A   1      33.877  17.005  23.276  1.00  0.00     0.022 C 
ATOM     88  C   UNL A   1      33.192  16.128  24.323  1.00  0.00     0.004 C 
ENDBRANCH  81  83
ENDBRANCH  75  77
ENDBRANCH  74  75
ENDBRANCH  73  74
ENDBRANCH  72  73
ENDBRANCH  71  72
ENDBRANCH  70  71
ENDBRANCH   1  70
TORSDOF 21
ENDMDL
MODEL 3
REMARK VINA RESULT:      -9.8      6.290      9.353
REMARK SMILES O=C(OCCOCCOCCOC(=O)c1cccc(N2CCCCC2)n1)c1ccc(-c2c3nc(c(-c4ccc(S(=O)(=O)[O-])cc4)c4ccc([nH]4)c(-c4ccc(S(=O)(=O)[O-])cc4)c4nc(c(-c5ccc(S(=O)(=O)[O-])cc5)c5ccc2[nH]5)C=C4)C=C3)cc1
REMARK SMILES IDX 7 1 6 2 5 3 4 4 3 5 2 6 1 7 27 8 28 9 86 10 29 11 85 12
REMARK SMILES IDX 30 13 31 14 32 15 79 16 33 17 84 18 78 19 80 20 34 21 83 22
REMARK SMILES IDX 77 23 76 24 35 26 65 27 46 28 64 29 47 30 50 31 63 32 81 33
REMARK SMILES IDX 48 34 49 35 62 37 82 38 51 39 36 40 37 41 45 42 38 43 44 44
REMARK SMILES IDX 39 45 40 46 41 47 42 48 43 49 66 50 67 51 75 52 68 53 74 54
REMARK SMILES IDX 69 55 70 56 71 57 72 58 73 59 52 60 53 61 61 62 54 63 60 64
REMARK SMILES IDX 55 65 56 66 57 67 58 68 59 69 8 70 9 71 10 72 11 73 12 74
REMARK SMILES IDX 13 75 14 76 15 77 16 78 26 79 17 80 19 81 18 82 20 83 21 84
REMARK SMILES IDX 25 85 22 86 24 87 23 88
REMARK H PARENT 80 25 50 36
REMARK Flexibility Score: inf
ROOT
ATOM      1  C   UNL A   1      41.578  21.452  26.867  1.00  0.00     0.188 C 
ENDROOT
BRANCH   1   2
ATOM      2  O   UNL A   1      41.439  20.168  26.244  1.00  0.00    -0.376 OA
BRANCH   2   3
ATOM      3  C   UNL A   1      42.291  19.160  26.789  1.00  0.00     0.202 C 
BRANCH   3   4
ATOM      4  C   UNL A   1      43.063  18.360  25.734  1.00  0.00     0.261 C 
BRANCH   4   5
ATOM      5  O   UNL A   1      43.356  19.159  24.574  1.00  0.00    -0.460 OA
BRANCH   5   6
ATOM      6  C   UNL A   1      44.446  19.938  24.352  1.00  0.00     0.338 C 
ATOM      7  O   UNL A   1      45.344  19.500  23.634  1.00  0.00    -0.246 OA
BRANCH   6   8
ATOM      8  C   UNL A   1      44.585  21.332  24.874  1.00  0.00     0.060 A 
ATOM      9  C   UNL A   1      44.156  22.482  24.211  1.00  0.00     0.016 A 
ATOM     10  C   UNL A   1      45.140  21.485  26.158  1.00  0.00     0.016 A 
ATOM     11  C   UNL A   1      44.401  23.748  24.734  1.00  0.00     0.010 A 
ATOM     12  C   UNL A   1      45.313  22.753  26.727  1.00  0.00     0.010 A 
ATOM     13  C   UNL A   1      44.984  23.898  25.993  1.00  0.00    -0.014 A 
BRANCH  13  14
ATOM     14  C   UNL A   1      45.293  25.265  26.470  1.00  0.00     0.031 A 
ATOM     15  C   UNL A   1      46.667  25.832  26.249  1.00  0.00     0.074 A 
ATOM     16  C   UNL A   1      44.304  26.039  26.960  1.00  0.00     0.049 A 
ATOM     17  N   UNL A   1      47.119  27.028  26.526  1.00  0.00    -0.248 NA
ATOM     18  C   UNL A   1      47.658  24.946  25.618  1.00  0.00     0.031 C 
ATOM     19  C   UNL A   1      42.912  25.615  27.139  1.00  0.00     0.029 A 
ATOM     20  N   UNL A   1      44.304  27.354  27.348  1.00  0.00    -0.354 N 
ATOM     21  C   UNL A   1      48.441  27.037  26.103  1.00  0.00     0.074 A 
ATOM     22  C   UNL A   1      48.730  25.723  25.575  1.00  0.00     0.031 C 
ATOM     23  C   UNL A   1      42.186  26.667  27.552  1.00  0.00     0.029 A 
ATOM     24  C   UNL A   1      43.065  27.815  27.730  1.00  0.00     0.049 A 
ATOM     25  H   UNL A   1      45.113  27.915  27.354  1.00  0.00     0.167 HD
ATOM     26  C   UNL A   1      49.334  28.055  26.142  1.00  0.00     0.031 A 
ATOM     27  C   UNL A   1      42.680  29.022  28.185  1.00  0.00     0.031 A 
ATOM     28  C   UNL A   1      49.048  29.354  26.685  1.00  0.00     0.049 A 
ATOM     29  C   UNL A   1      43.712  30.108  28.299  1.00  0.00     0.074 A 
ATOM     30  C   UNL A   1      49.901  30.429  26.852  1.00  0.00     0.029 A 
ATOM     31  N   UNL A   1      47.801  29.754  27.142  1.00  0.00    -0.354 N 
ATOM     32  N   UNL A   1      44.976  30.076  27.951  1.00  0.00    -0.248 NA
ATOM     33  C   UNL A   1      43.269  31.386  28.870  1.00  0.00     0.031 C 
ATOM     34  C   UNL A   1      49.175  31.472  27.440  1.00  0.00     0.029 A 
ATOM     35  C   UNL A   1      47.862  31.057  27.600  1.00  0.00     0.049 A 
ATOM     36  H   UNL A   1      46.992  29.194  27.140  1.00  0.00     0.167 HD
ATOM     37  C   UNL A   1      45.483  31.331  28.262  1.00  0.00     0.074 A 
ATOM     38  C   UNL A   1      44.380  32.107  28.794  1.00  0.00     0.031 C 
ATOM     39  C   UNL A   1      46.749  31.798  28.133  1.00  0.00     0.031 A 
BRANCH  26  40
ATOM     40  C   UNL A   1      50.714  27.770  25.617  1.00  0.00    -0.014 A 
ATOM     41  C   UNL A   1      51.718  27.262  26.461  1.00  0.00     0.010 A 
ATOM     42  C   UNL A   1      51.013  28.026  24.267  1.00  0.00     0.010 A 
ATOM     43  C   UNL A   1      53.010  27.053  25.973  1.00  0.00     0.020 A 
ATOM     44  C   UNL A   1      52.301  27.801  23.772  1.00  0.00     0.020 A 
ATOM     45  C   UNL A   1      53.295  27.334  24.633  1.00  0.00     0.054 A 
BRANCH  45  46
ATOM     46  S   UNL A   1      54.982  27.062  24.024  1.00  0.00     0.124 S 
ATOM     47  O   UNL A   1      54.769  26.971  22.581  1.00  0.00    -0.237 OA
ATOM     48  O   UNL A   1      55.687  28.257  24.479  1.00  0.00    -0.237 OA
ATOM     49  O   UNL A   1      55.388  25.818  24.672  1.00  0.00    -0.744 OA
ENDBRANCH  45  46
ENDBRANCH  26  40
BRANCH  27  50
ATOM     50  C   UNL A   1      41.276  29.245  28.623  1.00  0.00    -0.014 A 
ATOM     51  C   UNL A   1      40.938  29.306  29.986  1.00  0.00     0.010 A 
ATOM     52  C   UNL A   1      40.258  29.386  27.661  1.00  0.00     0.010 A 
ATOM     53  C   UNL A   1      39.605  29.479  30.377  1.00  0.00     0.020 A 
ATOM     54  C   UNL A   1      38.932  29.586  28.046  1.00  0.00     0.020 A 
ATOM     55  C   UNL A   1      38.611  29.614  29.404  1.00  0.00     0.054 A 
BRANCH  55  56
ATOM     56  S   UNL A   1      36.891  29.872  29.920  1.00  0.00     0.124 S 
ATOM     57  O   UNL A   1      36.860  31.311  30.157  1.00  0.00    -0.237 OA
ATOM     58  O   UNL A   1      36.135  29.403  28.762  1.00  0.00    -0.237 OA
ATOM     59  O   UNL A   1      36.772  29.035  31.112  1.00  0.00    -0.744 OA
ENDBRANCH  55  56
ENDBRANCH  27  50
BRANCH  39  60
ATOM     60  C   UNL A   1      46.994  33.212  28.572  1.00  0.00    -0.014 A 
ATOM     61  C   UNL A   1      47.610  33.482  29.807  1.00  0.00     0.010 A 
ATOM     62  C   UNL A   1      46.632  34.278  27.732  1.00  0.00     0.010 A 
ATOM     63  C   UNL A   1      47.830  34.800  30.209  1.00  0.00     0.020 A 
ATOM     64  C   UNL A   1      46.868  35.596  28.122  1.00  0.00     0.020 A 
ATOM     65  C   UNL A   1      47.452  35.850  29.366  1.00  0.00     0.054 A 
BRANCH  65  66
ATOM     66  S   UNL A   1      47.774  37.555  29.891  1.00  0.00     0.124 S 
ATOM     67  O   UNL A   1      47.888  37.409  31.339  1.00  0.00    -0.237 OA
ATOM     68  O   UNL A   1      49.015  37.881  29.192  1.00  0.00    -0.237 OA
ATOM     69  O   UNL A   1      46.597  38.284  29.427  1.00  0.00    -0.744 OA
ENDBRANCH  65  66
ENDBRANCH  39  60
ENDBRANCH  13  14
ENDBRANCH   6   8
ENDBRANCH   5   6
ENDBRANCH   4   5
ENDBRANCH   3   4
ENDBRANCH   2   3
ENDBRANCH   1   2
BRANCH   1  70
ATOM     70  C   UNL A   1      40.426  22.378  26.465  1.00  0.00     0.188 C 
BRANCH  70  71
ATOM     71  O   UNL A   1      39.148  21.730  26.421  1.00  0.00    -0.376 OA
BRANCH  71  72
ATOM     72  C   UNL A   1      38.131  22.393  25.675  1.00  0.00     0.202 C 
BRANCH  72  73
ATOM     73  C   UNL A   1      36.701  21.894  25.905  1.00  0.00     0.261 C 
BRANCH  73  74
ATOM     74  O   UNL A   1      35.699  22.915  25.772  1.00  0.00    -0.459 OA
BRANCH  74  75
ATOM     75  C   UNL A   1      34.517  22.626  26.380  1.00  0.00     0.357 C 
ATOM     76  O   UNL A   1      34.210  22.868  27.538  1.00  0.00    -0.244 OA
BRANCH  75  77
ATOM     77  C   UNL A   1      33.640  21.845  25.479  1.00  0.00     0.150 A 
ATOM     78  C   UNL A   1      33.067  22.516  24.409  1.00  0.00     0.036 A 
ATOM     79  N   UNL A   1      33.633  20.493  25.637  1.00  0.00    -0.224 NA
ATOM     80  C   UNL A   1      32.453  21.755  23.429  1.00  0.00     0.006 A 
ATOM     81  C   UNL A   1      33.080  19.762  24.646  1.00  0.00     0.129 A 
ATOM     82  C   UNL A   1      32.467  20.366  23.545  1.00  0.00     0.047 A 
BRANCH  81  83
ATOM     83  N   UNL A   1      33.229  18.389  24.716  1.00  0.00    -0.357 N 
ATOM     84  C   UNL A   1      34.401  17.818  24.071  1.00  0.00     0.118 C 
ATOM     85  C   UNL A   1      32.674  17.683  25.862  1.00  0.00     0.118 C 
ATOM     86  C   UNL A   1      34.109  16.371  23.666  1.00  0.00     0.022 C 
ATOM     87  C   UNL A   1      32.317  16.259  25.438  1.00  0.00     0.022 C 
ATOM     88  C   UNL A   1      33.521  15.553  24.818  1.00  0.00     0.004 C 
ENDBRANCH  81  83
ENDBRANCH  75  77
ENDBRANCH  74  75
ENDBRANCH  73  74
ENDBRANCH  72  73
ENDBRANCH  71  72
ENDBRANCH  70  71
ENDBRANCH   1  70
TORSDOF 21
ENDMDL
