MODEL 1
REMARK VINA RESULT:     -10.1      0.000      0.000
REMARK SMILES CC(C)=CCc1cccc2c(C(=O)OCCOCCOCCOC(=O)c3ccc(-c4c5nc(c(-c6ccc(S(=O)(=O)[O-])cc6)c6ccc([nH]6)c(-c6ccc(S(=O)(=O)[O-])cc6)c6nc(c(-c7ccc(S(=O)(=O)[O-])cc7)c7ccc4[nH]7)C=C6)C=C5)cc3)c[nH]c12
REMARK SMILES IDX 19 1 18 2 17 3 16 4 15 5 14 6 12 7 13 8 11 9 6 10 7 11 88 12
REMARK SMILES IDX 8 13 10 14 87 15 9 16 86 17 5 19 4 20 1 21 2 22 3 23 20 24
REMARK SMILES IDX 21 25 22 26 23 27 24 28 25 29 26 30 27 31 85 32 28 33 84 34
REMARK SMILES IDX 29 35 30 36 31 37 78 38 32 39 83 40 77 41 79 42 33 43 82 44
REMARK SMILES IDX 76 45 75 46 34 48 64 49 45 50 63 51 46 52 49 53 62 54 80 55
REMARK SMILES IDX 47 56 48 57 61 59 81 60 50 61 35 62 36 63 44 64 37 65 43 66
REMARK SMILES IDX 38 67 39 68 40 69 41 70 42 71 65 72 66 73 74 74 67 75 73 76
REMARK SMILES IDX 68 77 69 78 70 79 71 80 72 81 51 82 52 83 60 84 53 85 59 86
REMARK SMILES IDX 54 87 55 88 56 89 57 90 58 91
REMARK H PARENT 87 18 79 47 49 58
REMARK Flexibility Score: inf
ROOT
ATOM      1  C   UNL A   1      37.782  21.792  25.118  1.00  0.00     0.188 C 
ENDROOT
BRANCH   1   2
ATOM      2  C   UNL A   1      36.598  20.806  25.064  1.00  0.00     0.188 C 
BRANCH   2   3
ATOM      3  O   UNL A   1      35.402  21.105  25.779  1.00  0.00    -0.376 OA
BRANCH   3   4
ATOM      4  C   UNL A   1      34.230  20.334  25.556  1.00  0.00     0.202 C 
BRANCH   4   5
ATOM      5  C   UNL A   1      32.889  21.068  25.521  1.00  0.00     0.261 C 
BRANCH   5   6
ATOM      6  O   UNL A   1      33.015  22.498  25.577  1.00  0.00    -0.460 OA
BRANCH   6   7
ATOM      7  C   UNL A   1      31.997  23.144  26.220  1.00  0.00     0.340 C 
ATOM      8  O   UNL A   1      31.709  22.974  27.399  1.00  0.00    -0.246 OA
BRANCH   7   9
ATOM      9  C   UNL A   1      31.343  24.159  25.403  1.00  0.00     0.085 A 
ATOM     10  C   UNL A   1      30.443  27.458  24.143  1.00  0.00    -0.020 A 
ATOM     11  C   UNL A   1      30.993  28.345  25.087  1.00  0.00     0.006 A 
ATOM     12  C   UNL A   1      30.597  26.085  24.418  1.00  0.00     0.050 A 
ATOM     13  C   UNL A   1      31.668  27.888  26.217  1.00  0.00     0.001 A 
ATOM     14  C   UNL A   1      31.301  25.590  25.524  1.00  0.00     0.014 A 
ATOM     15  N   UNL A   1      30.146  24.991  23.711  1.00  0.00    -0.360 N 
ATOM     16  C   UNL A   1      31.837  26.518  26.442  1.00  0.00     0.011 A 
ATOM     17  C   UNL A   1      30.604  23.840  24.277  1.00  0.00     0.099 A 
ATOM     18  H   UNL A   1      29.574  25.036  22.911  1.00  0.00     0.166 HD
BRANCH  10  19
ATOM     19  C   UNL A   1      29.782  27.998  22.895  1.00  0.00     0.065 C 
BRANCH  19  20
ATOM     20  C   UNL A   1      29.501  29.473  22.957  1.00  0.00    -0.024 C 
ATOM     21  C   UNL A   1      27.007  29.275  23.131  1.00  0.00     0.039 C 
ATOM     22  C   UNL A   1      28.291  30.055  23.084  1.00  0.00    -0.080 C 
ATOM     23  C   UNL A   1      28.188  31.552  23.198  1.00  0.00     0.039 C 
ENDBRANCH  19  20
ENDBRANCH  10  19
ENDBRANCH   7   9
ENDBRANCH   6   7
ENDBRANCH   5   6
ENDBRANCH   4   5
ENDBRANCH   3   4
ENDBRANCH   2   3
ENDBRANCH   1   2
BRANCH   1  24
ATOM     24  O   UNL A   1      38.931  21.257  25.755  1.00  0.00    -0.376 OA
BRANCH  24  25
ATOM     25  C   UNL A   1      39.692  22.144  26.555  1.00  0.00     0.202 C 
BRANCH  25  26
ATOM     26  C   UNL A   1      39.169  23.582  26.657  1.00  0.00     0.261 C 
BRANCH  26  27
ATOM     27  O   UNL A   1      39.912  24.463  27.511  1.00  0.00    -0.460 OA
BRANCH  27  28
ATOM     28  C   UNL A   1      40.223  25.684  27.020  1.00  0.00     0.338 C 
ATOM     29  O   UNL A   1      40.469  25.966  25.862  1.00  0.00    -0.246 OA
BRANCH  28  30
ATOM     30  C   UNL A   1      40.072  26.662  28.120  1.00  0.00     0.060 A 
ATOM     31  C   UNL A   1      40.738  27.890  28.037  1.00  0.00     0.016 A 
ATOM     32  C   UNL A   1      39.275  26.363  29.229  1.00  0.00     0.016 A 
ATOM     33  C   UNL A   1      40.630  28.812  29.083  1.00  0.00     0.010 A 
ATOM     34  C   UNL A   1      39.180  27.281  30.279  1.00  0.00     0.010 A 
ATOM     35  C   UNL A   1      39.878  28.499  30.224  1.00  0.00    -0.014 A 
BRANCH  35  36
ATOM     36  C   UNL A   1      39.949  29.361  31.430  1.00  0.00     0.031 A 
ATOM     37  C   UNL A   1      41.061  29.129  32.417  1.00  0.00     0.074 A 
ATOM     38  C   UNL A   1      39.041  30.328  31.656  1.00  0.00     0.049 A 
ATOM     39  N   UNL A   1      41.303  29.731  33.552  1.00  0.00    -0.248 NA
ATOM     40  C   UNL A   1      42.030  28.074  32.074  1.00  0.00     0.031 C 
ATOM     41  C   UNL A   1      37.933  30.676  30.768  1.00  0.00     0.029 A 
ATOM     42  N   UNL A   1      38.907  31.191  32.717  1.00  0.00    -0.354 N 
ATOM     43  C   UNL A   1      42.447  29.130  34.061  1.00  0.00     0.074 A 
ATOM     44  C   UNL A   1      42.839  28.099  33.124  1.00  0.00     0.031 C 
ATOM     45  C   UNL A   1      37.226  31.676  31.326  1.00  0.00     0.029 A 
ATOM     46  C   UNL A   1      37.813  32.016  32.622  1.00  0.00     0.049 A 
ATOM     47  H   UNL A   1      39.536  31.215  33.474  1.00  0.00     0.167 HD
ATOM     48  C   UNL A   1      43.118  29.409  35.204  1.00  0.00     0.031 A 
ATOM     49  C   UNL A   1      37.329  32.929  33.489  1.00  0.00     0.031 A 
ATOM     50  C   UNL A   1      42.716  30.410  36.154  1.00  0.00     0.049 A 
ATOM     51  C   UNL A   1      38.046  33.170  34.792  1.00  0.00     0.074 A 
ATOM     52  C   UNL A   1      43.335  30.772  37.339  1.00  0.00     0.029 A 
ATOM     53  N   UNL A   1      41.585  31.202  36.036  1.00  0.00    -0.354 N 
ATOM     54  N   UNL A   1      39.146  32.615  35.244  1.00  0.00    -0.248 NA
ATOM     55  C   UNL A   1      37.456  34.165  35.701  1.00  0.00     0.031 C 
ATOM     56  C   UNL A   1      42.550  31.748  37.960  1.00  0.00     0.029 A 
ATOM     57  C   UNL A   1      41.471  32.033  37.137  1.00  0.00     0.049 A 
ATOM     58  H   UNL A   1      40.954  31.176  35.280  1.00  0.00     0.167 HD
ATOM     59  C   UNL A   1      39.394  33.213  36.477  1.00  0.00     0.074 A 
ATOM     60  C   UNL A   1      38.335  34.175  36.696  1.00  0.00     0.031 C 
ATOM     61  C   UNL A   1      40.411  32.987  37.344  1.00  0.00     0.031 A 
BRANCH  48  62
ATOM     62  C   UNL A   1      44.340  28.584  35.500  1.00  0.00    -0.014 A 
ATOM     63  C   UNL A   1      45.614  28.992  35.061  1.00  0.00     0.010 A 
ATOM     64  C   UNL A   1      44.216  27.388  36.227  1.00  0.00     0.010 A 
ATOM     65  C   UNL A   1      46.734  28.193  35.306  1.00  0.00     0.020 A 
ATOM     66  C   UNL A   1      45.337  26.598  36.495  1.00  0.00     0.020 A 
ATOM     67  C   UNL A   1      46.586  26.996  36.013  1.00  0.00     0.054 A 
BRANCH  67  68
ATOM     68  S   UNL A   1      48.054  25.974  36.314  1.00  0.00     0.124 S 
ATOM     69  O   UNL A   1      48.545  26.519  37.577  1.00  0.00    -0.237 OA
ATOM     70  O   UNL A   1      47.499  24.625  36.386  1.00  0.00    -0.237 OA
ATOM     71  O   UNL A   1      48.901  26.235  35.152  1.00  0.00    -0.744 OA
ENDBRANCH  67  68
ENDBRANCH  48  62
BRANCH  49  72
ATOM     72  C   UNL A   1      36.088  33.682  33.158  1.00  0.00    -0.014 A 
ATOM     73  C   UNL A   1      34.830  33.200  33.562  1.00  0.00     0.010 A 
ATOM     74  C   UNL A   1      36.159  34.887  32.438  1.00  0.00     0.010 A 
ATOM     75  C   UNL A   1      33.666  33.906  33.244  1.00  0.00     0.020 A 
ATOM     76  C   UNL A   1      35.000  35.608  32.138  1.00  0.00     0.020 A 
ATOM     77  C   UNL A   1      33.758  35.107  32.536  1.00  0.00     0.054 A 
BRANCH  77  78
ATOM     78  S   UNL A   1      32.239  36.037  32.184  1.00  0.00     0.124 S 
ATOM     79  O   UNL A   1      32.335  37.143  33.131  1.00  0.00    -0.237 OA
ATOM     80  O   UNL A   1      32.405  36.392  30.776  1.00  0.00    -0.237 OA
ATOM     81  O   UNL A   1      31.177  35.070  32.454  1.00  0.00    -0.744 OA
ENDBRANCH  77  78
ENDBRANCH  49  72
BRANCH  61  82
ATOM     82  C   UNL A   1      40.456  33.818  38.600  1.00  0.00    -0.014 A 
ATOM     83  C   UNL A   1      41.235  34.985  38.675  1.00  0.00     0.010 A 
ATOM     84  C   UNL A   1      39.651  33.458  39.696  1.00  0.00     0.010 A 
ATOM     85  C   UNL A   1      41.226  35.766  39.835  1.00  0.00     0.020 A 
ATOM     86  C   UNL A   1      39.621  34.248  40.848  1.00  0.00     0.020 A 
ATOM     87  C   UNL A   1      40.420  35.392  40.914  1.00  0.00     0.054 A 
BRANCH  87  88
ATOM     88  S   UNL A   1      40.384  36.449  42.389  1.00  0.00     0.124 S 
ATOM     89  O   UNL A   1      41.644  36.104  43.041  1.00  0.00    -0.237 OA
ATOM     90  O   UNL A   1      40.316  37.793  41.822  1.00  0.00    -0.237 OA
ATOM     91  O   UNL A   1      39.178  36.016  43.095  1.00  0.00    -0.744 OA
ENDBRANCH  87  88
ENDBRANCH  61  82
ENDBRANCH  35  36
ENDBRANCH  28  30
ENDBRANCH  27  28
ENDBRANCH  26  27
ENDBRANCH  25  26
ENDBRANCH  24  25
ENDBRANCH   1  24
TORSDOF 22
ENDMDL
MODEL 2
REMARK VINA RESULT:     -10.0      1.800      2.945
REMARK SMILES CC(C)=CCc1cccc2c(C(=O)OCCOCCOCCOC(=O)c3ccc(-c4c5nc(c(-c6ccc(S(=O)(=O)[O-])cc6)c6ccc([nH]6)c(-c6ccc(S(=O)(=O)[O-])cc6)c6nc(c(-c7ccc(S(=O)(=O)[O-])cc7)c7ccc4[nH]7)C=C6)C=C5)cc3)c[nH]c12
REMARK SMILES IDX 19 1 18 2 17 3 16 4 15 5 14 6 12 7 13 8 11 9 6 10 7 11 88 12
REMARK SMILES IDX 8 13 10 14 87 15 9 16 86 17 5 19 4 20 1 21 2 22 3 23 20 24
REMARK SMILES IDX 21 25 22 26 23 27 24 28 25 29 26 30 27 31 85 32 28 33 84 34
REMARK SMILES IDX 29 35 30 36 31 37 78 38 32 39 83 40 77 41 79 42 33 43 82 44
REMARK SMILES IDX 76 45 75 46 34 48 64 49 45 50 63 51 46 52 49 53 62 54 80 55
REMARK SMILES IDX 47 56 48 57 61 59 81 60 50 61 35 62 36 63 44 64 37 65 43 66
REMARK SMILES IDX 38 67 39 68 40 69 41 70 42 71 65 72 66 73 74 74 67 75 73 76
REMARK SMILES IDX 68 77 69 78 70 79 71 80 72 81 51 82 52 83 60 84 53 85 59 86
REMARK SMILES IDX 54 87 55 88 56 89 57 90 58 91
REMARK H PARENT 87 18 79 47 49 58
REMARK Flexibility Score: inf
ROOT
ATOM      1  C   UNL A   1      35.558  23.430  24.639  1.00  0.00     0.188 C 
ENDROOT
BRANCH   1   2
ATOM      2  C   UNL A   1      34.406  24.297  25.185  1.00  0.00     0.188 C 
BRANCH   2   3
ATOM      3  O   UNL A   1      33.090  24.126  24.665  1.00  0.00    -0.376 OA
BRANCH   3   4
ATOM      4  C   UNL A   1      32.834  24.370  23.289  1.00  0.00     0.202 C 
BRANCH   4   5
ATOM      5  C   UNL A   1      33.560  25.542  22.625  1.00  0.00     0.261 C 
BRANCH   5   6
ATOM      6  O   UNL A   1      32.725  26.311  21.745  1.00  0.00    -0.460 OA
BRANCH   6   7
ATOM      7  C   UNL A   1      31.811  27.113  22.369  1.00  0.00     0.340 C 
ATOM      8  O   UNL A   1      30.600  27.051  22.185  1.00  0.00    -0.246 OA
BRANCH   7   9
ATOM      9  C   UNL A   1      32.396  27.986  23.380  1.00  0.00     0.085 A 
ATOM     10  C   UNL A   1      33.208  29.319  26.673  1.00  0.00    -0.020 A 
ATOM     11  C   UNL A   1      32.353  28.618  27.544  1.00  0.00     0.006 A 
ATOM     12  C   UNL A   1      33.064  29.034  25.300  1.00  0.00     0.050 A 
ATOM     13  C   UNL A   1      31.432  27.684  27.075  1.00  0.00     0.001 A 
ATOM     14  C   UNL A   1      32.175  28.076  24.796  1.00  0.00     0.014 A 
ATOM     15  N   UNL A   1      33.723  29.575  24.217  1.00  0.00    -0.360 N 
ATOM     16  C   UNL A   1      31.340  27.397  25.709  1.00  0.00     0.011 A 
ATOM     17  C   UNL A   1      33.349  28.941  23.071  1.00  0.00     0.099 A 
ATOM     18  H   UNL A   1      34.373  30.313  24.266  1.00  0.00     0.166 HD
BRANCH  10  19
ATOM     19  C   UNL A   1      34.242  30.270  27.232  1.00  0.00     0.065 C 
BRANCH  19  20
ATOM     20  C   UNL A   1      33.659  31.567  27.718  1.00  0.00    -0.024 C 
ATOM     21  C   UNL A   1      35.844  32.766  28.000  1.00  0.00     0.039 C 
ATOM     22  C   UNL A   1      34.344  32.684  28.040  1.00  0.00    -0.080 C 
ATOM     23  C   UNL A   1      33.601  33.926  28.450  1.00  0.00     0.039 C 
ENDBRANCH  19  20
ENDBRANCH  10  19
ENDBRANCH   7   9
ENDBRANCH   6   7
ENDBRANCH   5   6
ENDBRANCH   4   5
ENDBRANCH   3   4
ENDBRANCH   2   3
ENDBRANCH   1   2
BRANCH   1  24
ATOM     24  O   UNL A   1      36.836  23.842  25.094  1.00  0.00    -0.376 OA
BRANCH  24  25
ATOM     25  C   UNL A   1      37.464  23.027  26.069  1.00  0.00     0.202 C 
BRANCH  25  26
ATOM     26  C   UNL A   1      38.950  23.304  26.326  1.00  0.00     0.261 C 
BRANCH  26  27
ATOM     27  O   UNL A   1      39.243  24.290  27.327  1.00  0.00    -0.460 OA
BRANCH  27  28
ATOM     28  C   UNL A   1      39.891  25.406  26.925  1.00  0.00     0.338 C 
ATOM     29  O   UNL A   1      40.378  25.614  25.829  1.00  0.00    -0.246 OA
BRANCH  28  30
ATOM     30  C   UNL A   1      39.784  26.403  28.013  1.00  0.00     0.060 A 
ATOM     31  C   UNL A   1      40.463  27.621  27.891  1.00  0.00     0.016 A 
ATOM     32  C   UNL A   1      39.015  26.132  29.149  1.00  0.00     0.016 A 
ATOM     33  C   UNL A   1      40.396  28.561  28.924  1.00  0.00     0.010 A 
ATOM     34  C   UNL A   1      38.961  27.068  30.185  1.00  0.00     0.010 A 
ATOM     35  C   UNL A   1      39.672  28.276  30.091  1.00  0.00    -0.014 A 
BRANCH  35  36
ATOM     36  C   UNL A   1      39.789  29.157  31.280  1.00  0.00     0.031 A 
ATOM     37  C   UNL A   1      40.919  28.919  32.244  1.00  0.00     0.074 A 
ATOM     38  C   UNL A   1      38.905  30.145  31.510  1.00  0.00     0.049 A 
ATOM     39  N   UNL A   1      41.199  29.535  33.364  1.00  0.00    -0.248 NA
ATOM     40  C   UNL A   1      41.859  27.839  31.898  1.00  0.00     0.031 C 
ATOM     41  C   UNL A   1      37.784  30.501  30.642  1.00  0.00     0.029 A 
ATOM     42  N   UNL A   1      38.813  31.028  32.559  1.00  0.00    -0.354 N 
ATOM     43  C   UNL A   1      42.342  28.920  33.856  1.00  0.00     0.074 A 
ATOM     44  C   UNL A   1      42.692  27.866  32.928  1.00  0.00     0.031 C 
ATOM     45  C   UNL A   1      37.110  31.523  31.199  1.00  0.00     0.029 A 
ATOM     46  C   UNL A   1      37.733  31.874  32.474  1.00  0.00     0.049 A 
ATOM     47  H   UNL A   1      39.460  31.052  33.300  1.00  0.00     0.167 HD
ATOM     48  C   UNL A   1      43.045  29.205  34.978  1.00  0.00     0.031 A 
ATOM     49  C   UNL A   1      37.288  32.810  33.336  1.00  0.00     0.031 A 
ATOM     50  C   UNL A   1      42.685  30.229  35.921  1.00  0.00     0.049 A 
ATOM     51  C   UNL A   1      38.040  33.058  34.619  1.00  0.00     0.074 A 
ATOM     52  C   UNL A   1      43.338  30.598  37.084  1.00  0.00     0.029 A 
ATOM     53  N   UNL A   1      41.567  31.041  35.815  1.00  0.00    -0.354 N 
ATOM     54  N   UNL A   1      39.138  32.489  35.055  1.00  0.00    -0.248 NA
ATOM     55  C   UNL A   1      37.491  34.080  35.524  1.00  0.00     0.031 C 
ATOM     56  C   UNL A   1      42.587  31.600  37.707  1.00  0.00     0.029 A 
ATOM     57  C   UNL A   1      41.496  31.892  36.904  1.00  0.00     0.049 A 
ATOM     58  H   UNL A   1      40.919  31.016  35.074  1.00  0.00     0.167 HD
ATOM     59  C   UNL A   1      39.427  33.103  36.271  1.00  0.00     0.074 A 
ATOM     60  C   UNL A   1      38.392  34.090  36.498  1.00  0.00     0.031 C 
ATOM     61  C   UNL A   1      40.460  32.871  37.119  1.00  0.00     0.031 A 
BRANCH  48  62
ATOM     62  C   UNL A   1      44.258  28.360  35.260  1.00  0.00    -0.014 A 
ATOM     63  C   UNL A   1      45.528  28.735  34.785  1.00  0.00     0.010 A 
ATOM     64  C   UNL A   1      44.126  27.180  36.011  1.00  0.00     0.010 A 
ATOM     65  C   UNL A   1      46.638  27.918  35.018  1.00  0.00     0.020 A 
ATOM     66  C   UNL A   1      45.238  26.372  36.267  1.00  0.00     0.020 A 
ATOM     67  C   UNL A   1      46.483  26.736  35.749  1.00  0.00     0.054 A 
BRANCH  67  68
ATOM     68  S   UNL A   1      47.938  25.690  36.034  1.00  0.00     0.124 S 
ATOM     69  O   UNL A   1      48.764  26.550  36.878  1.00  0.00    -0.237 OA
ATOM     70  O   UNL A   1      47.369  24.520  36.697  1.00  0.00    -0.237 OA
ATOM     71  O   UNL A   1      48.459  25.450  34.690  1.00  0.00    -0.744 OA
ENDBRANCH  67  68
ENDBRANCH  48  62
BRANCH  49  72
ATOM     72  C   UNL A   1      36.054  33.582  33.022  1.00  0.00    -0.014 A 
ATOM     73  C   UNL A   1      34.837  33.275  33.656  1.00  0.00     0.010 A 
ATOM     74  C   UNL A   1      36.092  34.630  32.086  1.00  0.00     0.010 A 
ATOM     75  C   UNL A   1      33.679  33.998  33.352  1.00  0.00     0.020 A 
ATOM     76  C   UNL A   1      34.942  35.370  31.796  1.00  0.00     0.020 A 
ATOM     77  C   UNL A   1      33.739  35.043  32.426  1.00  0.00     0.054 A 
BRANCH  77  78
ATOM     78  S   UNL A   1      32.237  36.005  32.091  1.00  0.00     0.124 S 
ATOM     79  O   UNL A   1      31.185  35.062  32.456  1.00  0.00    -0.237 OA
ATOM     80  O   UNL A   1      32.394  37.155  32.979  1.00  0.00    -0.237 OA
ATOM     81  O   UNL A   1      32.339  36.309  30.665  1.00  0.00    -0.744 OA
ENDBRANCH  77  78
ENDBRANCH  49  72
BRANCH  61  82
ATOM     82  C   UNL A   1      40.549  33.722  38.358  1.00  0.00    -0.014 A 
ATOM     83  C   UNL A   1      40.031  33.278  39.587  1.00  0.00     0.010 A 
ATOM     84  C   UNL A   1      41.224  34.955  38.303  1.00  0.00     0.010 A 
ATOM     85  C   UNL A   1      40.166  34.064  40.735  1.00  0.00     0.020 A 
ATOM     86  C   UNL A   1      41.381  35.734  39.453  1.00  0.00     0.020 A 
ATOM     87  C   UNL A   1      40.839  35.288  40.661  1.00  0.00     0.054 A 
BRANCH  87  88
ATOM     88  S   UNL A   1      41.047  36.268  42.174  1.00  0.00     0.124 S 
ATOM     89  O   UNL A   1      39.758  36.943  42.279  1.00  0.00    -0.237 OA
ATOM     90  O   UNL A   1      41.307  35.247  43.187  1.00  0.00    -0.237 OA
ATOM     91  O   UNL A   1      42.184  37.136  41.869  1.00  0.00    -0.744 OA
ENDBRANCH  87  88
ENDBRANCH  61  82
ENDBRANCH  35  36
ENDBRANCH  28  30
ENDBRANCH  27  28
ENDBRANCH  26  27
ENDBRANCH  25  26
ENDBRANCH  24  25
ENDBRANCH   1  24
TORSDOF 22
ENDMDL
MODEL 3
REMARK VINA RESULT:     -10.0      1.808      8.465
REMARK SMILES CC(C)=CCc1cccc2c(C(=O)OCCOCCOCCOC(=O)c3ccc(-c4c5nc(c(-c6ccc(S(=O)(=O)[O-])cc6)c6ccc([nH]6)c(-c6ccc(S(=O)(=O)[O-])cc6)c6nc(c(-c7ccc(S(=O)(=O)[O-])cc7)c7ccc4[nH]7)C=C6)C=C5)cc3)c[nH]c12
REMARK SMILES IDX 19 1 18 2 17 3 16 4 15 5 14 6 12 7 13 8 11 9 6 10 7 11 88 12
REMARK SMILES IDX 8 13 10 14 87 15 9 16 86 17 5 19 4 20 1 21 2 22 3 23 20 24
REMARK SMILES IDX 21 25 22 26 23 27 24 28 25 29 26 30 27 31 85 32 28 33 84 34
REMARK SMILES IDX 29 35 30 36 31 37 78 38 32 39 83 40 77 41 79 42 33 43 82 44
REMARK SMILES IDX 76 45 75 46 34 48 64 49 45 50 63 51 46 52 49 53 62 54 80 55
REMARK SMILES IDX 47 56 48 57 61 59 81 60 50 61 35 62 36 63 44 64 37 65 43 66
REMARK SMILES IDX 38 67 39 68 40 69 41 70 42 71 65 72 66 73 74 74 67 75 73 76
REMARK SMILES IDX 68 77 69 78 70 79 71 80 72 81 51 82 52 83 60 84 53 85 59 86
REMARK SMILES IDX 54 87 55 88 56 89 57 90 58 91
REMARK H PARENT 87 18 79 47 49 58
REMARK Flexibility Score: inf
ROOT
ATOM      1  C   UNL A   1      36.607  22.177  24.300  1.00  0.00     0.188 C 
ENDROOT
BRANCH   1   2
ATOM      2  C   UNL A   1      35.859  21.375  25.384  1.00  0.00     0.188 C 
BRANCH   2   3
ATOM      3  O   UNL A   1      35.063  20.256  25.007  1.00  0.00    -0.376 OA
BRANCH   3   4
ATOM      4  C   UNL A   1      33.652  20.390  24.907  1.00  0.00     0.202 C 
BRANCH   4   5
ATOM      5  C   UNL A   1      33.088  21.099  23.675  1.00  0.00     0.261 C 
BRANCH   5   6
ATOM      6  O   UNL A   1      32.653  22.444  23.934  1.00  0.00    -0.460 OA
BRANCH   6   7
ATOM      7  C   UNL A   1      33.377  23.417  23.304  1.00  0.00     0.340 C 
ATOM      8  O   UNL A   1      33.736  23.360  22.133  1.00  0.00    -0.246 OA
BRANCH   7   9
ATOM      9  C   UNL A   1      33.592  24.604  24.122  1.00  0.00     0.085 A 
ATOM     10  C   UNL A   1      33.708  28.127  25.049  1.00  0.00    -0.020 A 
ATOM     11  C   UNL A   1      33.511  28.806  23.832  1.00  0.00     0.006 A 
ATOM     12  C   UNL A   1      33.765  26.721  24.973  1.00  0.00     0.050 A 
ATOM     13  C   UNL A   1      33.362  28.123  22.626  1.00  0.00     0.001 A 
ATOM     14  C   UNL A   1      33.583  26.000  23.785  1.00  0.00     0.014 A 
ATOM     15  N   UNL A   1      33.977  25.795  25.971  1.00  0.00    -0.360 N 
ATOM     16  C   UNL A   1      33.386  26.726  22.590  1.00  0.00     0.011 A 
ATOM     17  C   UNL A   1      33.853  24.531  25.479  1.00  0.00     0.099 A 
ATOM     18  H   UNL A   1      34.188  26.016  26.908  1.00  0.00     0.166 HD
BRANCH  10  19
ATOM     19  C   UNL A   1      33.792  28.904  26.343  1.00  0.00     0.065 C 
BRANCH  19  20
ATOM     20  C   UNL A   1      35.186  28.996  26.895  1.00  0.00    -0.024 C 
ATOM     21  C   UNL A   1      34.980  31.330  27.790  1.00  0.00     0.039 C 
ATOM     22  C   UNL A   1      35.722  30.044  27.555  1.00  0.00    -0.080 C 
ATOM     23  C   UNL A   1      37.119  29.950  28.104  1.00  0.00     0.039 C 
ENDBRANCH  19  20
ENDBRANCH  10  19
ENDBRANCH   7   9
ENDBRANCH   6   7
ENDBRANCH   5   6
ENDBRANCH   4   5
ENDBRANCH   3   4
ENDBRANCH   2   3
ENDBRANCH   1   2
BRANCH   1  24
ATOM     24  O   UNL A   1      37.328  23.284  24.816  1.00  0.00    -0.376 OA
BRANCH  24  25
ATOM     25  C   UNL A   1      37.668  23.244  26.191  1.00  0.00     0.202 C 
BRANCH  25  26
ATOM     26  C   UNL A   1      38.957  23.974  26.591  1.00  0.00     0.261 C 
BRANCH  26  27
ATOM     27  O   UNL A   1      38.794  25.303  27.104  1.00  0.00    -0.460 OA
BRANCH  27  28
ATOM     28  C   UNL A   1      39.865  26.125  27.044  1.00  0.00     0.338 C 
ATOM     29  O   UNL A   1      40.649  26.240  26.119  1.00  0.00    -0.246 OA
BRANCH  28  30
ATOM     30  C   UNL A   1      39.845  26.977  28.254  1.00  0.00     0.060 A 
ATOM     31  C   UNL A   1      40.597  28.158  28.268  1.00  0.00     0.016 A 
ATOM     32  C   UNL A   1      39.085  26.608  29.368  1.00  0.00     0.016 A 
ATOM     33  C   UNL A   1      40.611  28.959  29.415  1.00  0.00     0.010 A 
ATOM     34  C   UNL A   1      39.113  27.403  30.517  1.00  0.00     0.010 A 
ATOM     35  C   UNL A   1      39.896  28.568  30.557  1.00  0.00    -0.014 A 
BRANCH  35  36
ATOM     36  C   UNL A   1      40.094  29.278  31.845  1.00  0.00     0.031 A 
ATOM     37  C   UNL A   1      39.126  30.367  32.223  1.00  0.00     0.074 A 
ATOM     38  C   UNL A   1      41.117  28.974  32.665  1.00  0.00     0.049 A 
ATOM     39  N   UNL A   1      39.119  31.143  33.275  1.00  0.00    -0.248 NA
ATOM     40  C   UNL A   1      38.017  30.611  31.285  1.00  0.00     0.031 C 
ATOM     41  C   UNL A   1      42.107  27.923  32.433  1.00  0.00     0.029 A 
ATOM     42  N   UNL A   1      41.494  29.534  33.861  1.00  0.00    -0.354 N 
ATOM     43  C   UNL A   1      38.012  31.968  33.128  1.00  0.00     0.074 A 
ATOM     44  C   UNL A   1      37.383  31.615  31.873  1.00  0.00     0.031 C 
ATOM     45  C   UNL A   1      42.984  27.920  33.452  1.00  0.00     0.029 A 
ATOM     46  C   UNL A   1      42.637  28.986  34.391  1.00  0.00     0.049 A 
ATOM     47  H   UNL A   1      40.992  30.260  34.297  1.00  0.00     0.167 HD
ATOM     48  C   UNL A   1      37.552  32.932  33.961  1.00  0.00     0.031 A 
ATOM     49  C   UNL A   1      43.335  29.319  35.496  1.00  0.00     0.031 A 
ATOM     50  C   UNL A   1      38.190  33.308  35.194  1.00  0.00     0.049 A 
ATOM     51  C   UNL A   1      42.850  30.448  36.369  1.00  0.00     0.074 A 
ATOM     52  C   UNL A   1      37.796  34.269  36.109  1.00  0.00     0.029 A 
ATOM     53  N   UNL A   1      39.363  32.751  35.677  1.00  0.00    -0.354 N 
ATOM     54  N   UNL A   1      41.782  31.197  36.232  1.00  0.00    -0.248 NA
ATOM     55  C   UNL A   1      43.666  30.772  37.550  1.00  0.00     0.031 C 
ATOM     56  C   UNL A   1      38.759  34.325  37.122  1.00  0.00     0.029 A 
ATOM     57  C   UNL A   1      39.723  33.364  36.865  1.00  0.00     0.049 A 
ATOM     58  H   UNL A   1      39.866  32.027  35.240  1.00  0.00     0.167 HD
ATOM     59  C   UNL A   1      41.783  32.063  37.323  1.00  0.00     0.074 A 
ATOM     60  C   UNL A   1      42.953  31.740  38.112  1.00  0.00     0.031 C 
ATOM     61  C   UNL A   1      40.891  33.033  37.642  1.00  0.00     0.031 A 
BRANCH  48  62
ATOM     62  C   UNL A   1      36.313  33.671  33.536  1.00  0.00    -0.014 A 
ATOM     63  C   UNL A   1      35.033  33.134  33.766  1.00  0.00     0.010 A 
ATOM     64  C   UNL A   1      36.429  34.919  32.901  1.00  0.00     0.010 A 
ATOM     65  C   UNL A   1      33.893  33.812  33.327  1.00  0.00     0.020 A 
ATOM     66  C   UNL A   1      35.290  35.612  32.480  1.00  0.00     0.020 A 
ATOM     67  C   UNL A   1      34.030  35.042  32.678  1.00  0.00     0.054 A 
BRANCH  67  68
ATOM     68  S   UNL A   1      32.536  35.901  32.112  1.00  0.00     0.124 S 
ATOM     69  O   UNL A   1      32.754  35.963  30.669  1.00  0.00    -0.237 OA
ATOM     70  O   UNL A   1      31.466  35.006  32.547  1.00  0.00    -0.237 OA
ATOM     71  O   UNL A   1      32.591  37.185  32.807  1.00  0.00    -0.744 OA
ENDBRANCH  67  68
ENDBRANCH  48  62
BRANCH  49  72
ATOM     72  C   UNL A   1      44.580  28.578  35.839  1.00  0.00    -0.014 A 
ATOM     73  C   UNL A   1      44.524  27.403  36.608  1.00  0.00     0.010 A 
ATOM     74  C   UNL A   1      45.829  29.046  35.395  1.00  0.00     0.010 A 
ATOM     75  C   UNL A   1      45.696  26.713  36.934  1.00  0.00     0.020 A 
ATOM     76  C   UNL A   1      47.001  28.348  35.699  1.00  0.00     0.020 A 
ATOM     77  C   UNL A   1      46.927  27.189  36.475  1.00  0.00     0.054 A 
BRANCH  77  78
ATOM     78  S   UNL A   1      48.430  26.247  36.861  1.00  0.00     0.124 S 
ATOM     79  O   UNL A   1      49.414  26.873  35.984  1.00  0.00    -0.237 OA
ATOM     80  O   UNL A   1      48.603  26.499  38.290  1.00  0.00    -0.237 OA
ATOM     81  O   UNL A   1      48.069  24.873  36.517  1.00  0.00    -0.744 OA
ENDBRANCH  77  78
ENDBRANCH  49  72
BRANCH  61  82
ATOM     82  C   UNL A   1      41.120  33.799  38.919  1.00  0.00    -0.014 A 
ATOM     83  C   UNL A   1      41.832  35.010  38.926  1.00  0.00     0.010 A 
ATOM     84  C   UNL A   1      40.552  33.329  40.117  1.00  0.00     0.010 A 
ATOM     85  C   UNL A   1      41.993  35.727  40.115  1.00  0.00     0.020 A 
ATOM     86  C   UNL A   1      40.691  34.055  41.304  1.00  0.00     0.020 A 
ATOM     87  C   UNL A   1      41.422  35.244  41.297  1.00  0.00     0.054 A 
BRANCH  87  88
ATOM     88  S   UNL A   1      41.600  36.218  42.818  1.00  0.00     0.124 S 
ATOM     89  O   UNL A   1      40.255  36.758  42.992  1.00  0.00    -0.237 OA
ATOM     90  O   UNL A   1      42.005  35.214  43.799  1.00  0.00    -0.237 OA
ATOM     91  O   UNL A   1      42.629  37.200  42.481  1.00  0.00    -0.744 OA
ENDBRANCH  87  88
ENDBRANCH  61  82
ENDBRANCH  35  36
ENDBRANCH  28  30
ENDBRANCH  27  28
ENDBRANCH  26  27
ENDBRANCH  25  26
ENDBRANCH  24  25
ENDBRANCH   1  24
TORSDOF 22
ENDMDL
