MODEL 1
REMARK VINA RESULT:     -10.0      0.000      0.000
REMARK SMILES Cc1cc2n(n1)[C@H](C(F)(F)F)CCN2C(=O)c1cnn([C@@H](C)C(=O)OCCOCCOCCOC(=O)c2ccc(-c3c4nc(c(-c5ccc(S(=O)(=O)[O-])cc5)c5ccc([nH]5)c(-c5ccc(S(=O)(=O)[O-])cc5)c5nc(c(-c6ccc(S(=O)(=O)[O-])cc6)c6ccc3[nH]6)C=C5)C=C4)cc2)c1
REMARK SMILES IDX 29 1 28 2 27 3 26 4 25 5 23 6 24 7 21 8 22 9 20 10 17 11
REMARK SMILES IDX 18 12 97 13 19 14 15 15 16 16 14 17 1 18 2 19 3 20 6 21 4 22
REMARK SMILES IDX 5 23 7 24 13 25 12 26 8 27 9 28 10 29 11 30 30 31 31 32
REMARK SMILES IDX 32 33 33 34 34 35 35 36 36 37 37 38 38 39 96 40 39 41 95 42
REMARK SMILES IDX 40 43 41 44 42 45 89 46 43 47 94 48 88 49 90 50 44 51 93 52
REMARK SMILES IDX 87 53 86 54 45 56 75 57 56 58 74 59 57 60 60 61 73 62 91 63
REMARK SMILES IDX 58 64 59 65 72 67 92 68 61 69 46 70 47 71 55 72 48 73 54 74
REMARK SMILES IDX 49 75 50 76 51 77 52 78 53 79 76 80 77 81 85 82 78 83 84 84
REMARK SMILES IDX 79 85 80 86 81 87 82 88 83 89 62 90 63 91 71 92 64 93 70 94
REMARK SMILES IDX 65 95 66 96 67 97 68 98 69 99
REMARK H PARENT 90 55 60 66
REMARK Flexibility Score: inf
ROOT
ATOM      1  C   UNL A   1      37.994  31.064  33.114  1.00  0.00     0.188 C 
ENDROOT
BRANCH   1   2
ATOM      2  O   UNL A   1      37.954  29.781  33.686  1.00  0.00    -0.376 OA
BRANCH   2   3
ATOM      3  C   UNL A   1      37.797  28.668  32.824  1.00  0.00     0.202 C 
BRANCH   3   4
ATOM      4  C   UNL A   1      39.011  27.861  32.319  1.00  0.00     0.261 C 
BRANCH   4   5
ATOM      5  O   UNL A   1      38.956  27.412  30.943  1.00  0.00    -0.462 OA
BRANCH   5   6
ATOM      6  C   UNL A   1      39.617  28.162  30.030  1.00  0.00     0.330 C 
ATOM      7  O   UNL A   1      40.839  28.321  30.064  1.00  0.00    -0.250 OA
BRANCH   6   8
ATOM      8  C   UNL A   1      38.814  28.785  28.899  1.00  0.00     0.213 C 
ATOM      9  C   UNL A   1      39.719  28.973  27.685  1.00  0.00     0.046 C 
BRANCH   8  10
ATOM     10  N   UNL A   1      38.006  29.987  29.134  1.00  0.00    -0.258 N 
ATOM     11  C   UNL A   1      36.280  31.400  29.149  1.00  0.00     0.078 A 
ATOM     12  C   UNL A   1      37.495  31.993  29.569  1.00  0.00     0.149 A 
ATOM     13  C   UNL A   1      36.655  30.097  28.865  1.00  0.00     0.123 A 
ATOM     14  N   UNL A   1      38.554  31.192  29.394  1.00  0.00    -0.180 NA
BRANCH  11  15
ATOM     15  C   UNL A   1      34.927  31.924  29.111  1.00  0.00     0.262 C 
ATOM     16  O   UNL A   1      34.204  31.841  28.132  1.00  0.00    -0.269 OA
BRANCH  15  17
ATOM     17  N   UNL A   1      34.549  32.728  30.278  1.00  0.00    -0.293 N 
ATOM     18  C   UNL A   1      33.117  37.311  28.693  1.00  0.00     0.069 C 
ATOM     19  C   UNL A   1      33.459  36.089  29.466  1.00  0.00     0.062 A 
ATOM     20  C   UNL A   1      33.835  34.804  28.984  1.00  0.00     0.072 A 
ATOM     21  N   UNL A   1      33.449  36.124  30.804  1.00  0.00    -0.176 NA
ATOM     22  C   UNL A   1      34.108  34.055  30.108  1.00  0.00     0.134 A 
ATOM     23  N   UNL A   1      33.863  34.905  31.155  1.00  0.00    -0.237 N 
ATOM     24  C   UNL A   1      34.004  34.554  32.548  1.00  0.00     0.216 C 
ATOM     25  C   UNL A   1      34.857  32.288  31.662  1.00  0.00     0.130 C 
ATOM     26  C   UNL A   1      34.016  33.028  32.707  1.00  0.00     0.059 C 
BRANCH  24  27
ATOM     27  C   UNL A   1      35.238  35.207  33.131  1.00  0.00     0.410 C 
ATOM     28  F   UNL A   1      35.596  34.634  34.303  1.00  0.00    -0.169 F 
ATOM     29  F   UNL A   1      36.301  35.192  32.308  1.00  0.00    -0.169 F 
ATOM     30  F   UNL A   1      34.975  36.512  33.404  1.00  0.00    -0.169 F 
ENDBRANCH  24  27
ENDBRANCH  15  17
ENDBRANCH  11  15
ENDBRANCH   8  10
ENDBRANCH   6   8
ENDBRANCH   5   6
ENDBRANCH   4   5
ENDBRANCH   3   4
ENDBRANCH   2   3
ENDBRANCH   1   2
BRANCH   1  31
ATOM     31  C   UNL A   1      38.070  32.308  34.009  1.00  0.00     0.188 C 
BRANCH  31  32
ATOM     32  O   UNL A   1      39.231  33.082  34.214  1.00  0.00    -0.376 OA
BRANCH  32  33
ATOM     33  C   UNL A   1      39.893  33.927  33.288  1.00  0.00     0.202 C 
BRANCH  33  34
ATOM     34  C   UNL A   1      40.265  33.556  31.855  1.00  0.00     0.261 C 
BRANCH  34  35
ATOM     35  O   UNL A   1      40.920  34.575  31.151  1.00  0.00    -0.460 OA
BRANCH  35  36
ATOM     36  C   UNL A   1      40.369  34.828  29.945  1.00  0.00     0.338 C 
ATOM     37  O   UNL A   1      39.188  34.954  29.681  1.00  0.00    -0.246 OA
BRANCH  36  38
ATOM     38  C   UNL A   1      41.481  35.012  29.004  1.00  0.00     0.060 A 
ATOM     39  C   UNL A   1      42.765  34.933  29.536  1.00  0.00     0.016 A 
ATOM     40  C   UNL A   1      41.228  35.460  27.695  1.00  0.00     0.016 A 
ATOM     41  C   UNL A   1      43.755  35.622  28.886  1.00  0.00     0.010 A 
ATOM     42  C   UNL A   1      42.214  36.153  27.050  1.00  0.00     0.010 A 
ATOM     43  C   UNL A   1      43.407  36.336  27.735  1.00  0.00    -0.014 A 
BRANCH  43  44
ATOM     44  C   UNL A   1      44.255  37.441  27.375  1.00  0.00     0.031 A 
ATOM     45  C   UNL A   1      45.680  37.116  27.297  1.00  0.00     0.074 A 
ATOM     46  C   UNL A   1      43.731  38.653  27.118  1.00  0.00     0.049 A 
ATOM     47  N   UNL A   1      46.604  37.462  28.126  1.00  0.00    -0.248 NA
ATOM     48  C   UNL A   1      46.094  36.158  26.266  1.00  0.00     0.031 C 
ATOM     49  C   UNL A   1      42.322  39.011  26.912  1.00  0.00     0.029 A 
ATOM     50  N   UNL A   1      44.387  39.813  26.874  1.00  0.00    -0.354 N 
ATOM     51  C   UNL A   1      47.772  36.934  27.601  1.00  0.00     0.074 A 
ATOM     52  C   UNL A   1      47.377  35.992  26.581  1.00  0.00     0.031 C 
ATOM     53  C   UNL A   1      42.261  40.234  26.337  1.00  0.00     0.029 A 
ATOM     54  C   UNL A   1      43.604  40.787  26.276  1.00  0.00     0.049 A 
ATOM     55  H   UNL A   1      45.335  39.951  27.101  1.00  0.00     0.167 HD
ATOM     56  C   UNL A   1      48.985  37.489  27.858  1.00  0.00     0.031 A 
ATOM     57  C   UNL A   1      44.060  41.917  25.685  1.00  0.00     0.031 A 
ATOM     58  C   UNL A   1      48.942  38.422  28.952  1.00  0.00     0.049 A 
ATOM     59  C   UNL A   1      45.416  42.187  26.229  1.00  0.00     0.074 A 
ATOM     60  C   UNL A   1      48.645  38.324  30.297  1.00  0.00     0.029 A 
ATOM     61  N   UNL A   1      48.852  39.758  28.636  1.00  0.00    -0.354 N 
ATOM     62  N   UNL A   1      45.635  42.496  27.478  1.00  0.00    -0.248 NA
ATOM     63  C   UNL A   1      46.575  41.672  25.513  1.00  0.00     0.031 C 
ATOM     64  C   UNL A   1      47.971  39.536  30.622  1.00  0.00     0.029 A 
ATOM     65  C   UNL A   1      47.925  40.330  29.473  1.00  0.00     0.049 A 
ATOM     66  H   UNL A   1      49.362  40.222  27.932  1.00  0.00     0.167 HD
ATOM     67  C   UNL A   1      46.807  41.831  27.817  1.00  0.00     0.074 A 
ATOM     68  C   UNL A   1      47.399  41.442  26.541  1.00  0.00     0.031 C 
ATOM     69  C   UNL A   1      47.039  41.418  29.099  1.00  0.00     0.031 A 
BRANCH  56  70
ATOM     70  C   UNL A   1      50.104  37.456  26.860  1.00  0.00    -0.014 A 
ATOM     71  C   UNL A   1      49.827  37.143  25.519  1.00  0.00     0.010 A 
ATOM     72  C   UNL A   1      51.460  37.483  27.256  1.00  0.00     0.010 A 
ATOM     73  C   UNL A   1      50.862  36.835  24.627  1.00  0.00     0.020 A 
ATOM     74  C   UNL A   1      52.498  37.228  26.366  1.00  0.00     0.020 A 
ATOM     75  C   UNL A   1      52.189  36.871  25.062  1.00  0.00     0.054 A 
BRANCH  75  76
ATOM     76  S   UNL A   1      53.509  36.364  23.936  1.00  0.00     0.124 S 
ATOM     77  O   UNL A   1      54.510  35.851  24.866  1.00  0.00    -0.237 OA
ATOM     78  O   UNL A   1      52.841  35.366  23.105  1.00  0.00    -0.237 OA
ATOM     79  O   UNL A   1      53.867  37.603  23.249  1.00  0.00    -0.744 OA
ENDBRANCH  75  76
ENDBRANCH  56  70
BRANCH  57  80
ATOM     80  C   UNL A   1      43.536  42.511  24.432  1.00  0.00    -0.014 A 
ATOM     81  C   UNL A   1      44.351  43.285  23.590  1.00  0.00     0.010 A 
ATOM     82  C   UNL A   1      42.280  42.098  23.935  1.00  0.00     0.010 A 
ATOM     83  C   UNL A   1      43.940  43.599  22.282  1.00  0.00     0.020 A 
ATOM     84  C   UNL A   1      41.861  42.412  22.640  1.00  0.00     0.020 A 
ATOM     85  C   UNL A   1      42.704  43.146  21.811  1.00  0.00     0.054 A 
BRANCH  85  86
ATOM     86  S   UNL A   1      42.247  43.422  20.074  1.00  0.00     0.124 S 
ATOM     87  O   UNL A   1      42.995  44.631  19.747  1.00  0.00    -0.237 OA
ATOM     88  O   UNL A   1      42.708  42.195  19.430  1.00  0.00    -0.237 OA
ATOM     89  O   UNL A   1      40.795  43.584  20.122  1.00  0.00    -0.744 OA
ENDBRANCH  85  86
ENDBRANCH  57  80
BRANCH  69  90
ATOM     90  C   UNL A   1      46.122  41.943  30.187  1.00  0.00    -0.014 A 
ATOM     91  C   UNL A   1      46.336  43.166  30.853  1.00  0.00     0.010 A 
ATOM     92  C   UNL A   1      44.927  41.247  30.441  1.00  0.00     0.010 A 
ATOM     93  C   UNL A   1      45.395  43.665  31.766  1.00  0.00     0.020 A 
ATOM     94  C   UNL A   1      43.975  41.747  31.335  1.00  0.00     0.020 A 
ATOM     95  C   UNL A   1      44.217  42.951  32.000  1.00  0.00     0.054 A 
BRANCH  95  96
ATOM     96  S   UNL A   1      42.975  43.636  33.135  1.00  0.00     0.124 S 
ATOM     97  O   UNL A   1      43.639  43.537  34.431  1.00  0.00    -0.237 OA
ATOM     98  O   UNL A   1      42.787  44.993  32.627  1.00  0.00    -0.237 OA
ATOM     99  O   UNL A   1      41.821  42.756  32.960  1.00  0.00    -0.744 OA
ENDBRANCH  95  96
ENDBRANCH  69  90
ENDBRANCH  43  44
ENDBRANCH  36  38
ENDBRANCH  35  36
ENDBRANCH  34  35
ENDBRANCH  33  34
ENDBRANCH  32  33
ENDBRANCH  31  32
ENDBRANCH   1  31
TORSDOF 24
ENDMDL
MODEL 2
REMARK VINA RESULT:      -9.7      4.169      5.416
REMARK SMILES Cc1cc2n(n1)[C@H](C(F)(F)F)CCN2C(=O)c1cnn([C@@H](C)C(=O)OCCOCCOCCOC(=O)c2ccc(-c3c4nc(c(-c5ccc(S(=O)(=O)[O-])cc5)c5ccc([nH]5)c(-c5ccc(S(=O)(=O)[O-])cc5)c5nc(c(-c6ccc(S(=O)(=O)[O-])cc6)c6ccc3[nH]6)C=C5)C=C4)cc2)c1
REMARK SMILES IDX 29 1 28 2 27 3 26 4 25 5 23 6 24 7 21 8 22 9 20 10 17 11
REMARK SMILES IDX 18 12 97 13 19 14 15 15 16 16 14 17 1 18 2 19 3 20 6 21 4 22
REMARK SMILES IDX 5 23 7 24 13 25 12 26 8 27 9 28 10 29 11 30 30 31 31 32
REMARK SMILES IDX 32 33 33 34 34 35 35 36 36 37 37 38 38 39 96 40 39 41 95 42
REMARK SMILES IDX 40 43 41 44 42 45 89 46 43 47 94 48 88 49 90 50 44 51 93 52
REMARK SMILES IDX 87 53 86 54 45 56 75 57 56 58 74 59 57 60 60 61 73 62 91 63
REMARK SMILES IDX 58 64 59 65 72 67 92 68 61 69 46 70 47 71 55 72 48 73 54 74
REMARK SMILES IDX 49 75 50 76 51 77 52 78 53 79 76 80 77 81 85 82 78 83 84 84
REMARK SMILES IDX 79 85 80 86 81 87 82 88 83 89 62 90 63 91 71 92 64 93 70 94
REMARK SMILES IDX 65 95 66 96 67 97 68 98 69 99
REMARK H PARENT 90 55 60 66
REMARK Flexibility Score: inf
ROOT
ATOM      1  C   UNL A   1      37.946  32.064  31.768  1.00  0.00     0.188 C 
ENDROOT
BRANCH   1   2
ATOM      2  O   UNL A   1      38.023  30.662  31.840  1.00  0.00    -0.376 OA
BRANCH   2   3
ATOM      3  C   UNL A   1      36.945  29.904  31.318  1.00  0.00     0.202 C 
BRANCH   3   4
ATOM      4  C   UNL A   1      37.027  29.241  29.927  1.00  0.00     0.261 C 
BRANCH   4   5
ATOM      5  O   UNL A   1      35.820  29.283  29.125  1.00  0.00    -0.462 OA
BRANCH   5   6
ATOM      6  C   UNL A   1      35.923  29.842  27.897  1.00  0.00     0.330 C 
ATOM      7  O   UNL A   1      37.001  29.958  27.311  1.00  0.00    -0.250 OA
BRANCH   6   8
ATOM      8  C   UNL A   1      34.645  30.294  27.208  1.00  0.00     0.213 C 
ATOM      9  C   UNL A   1      34.011  31.422  28.015  1.00  0.00     0.046 C 
BRANCH   8  10
ATOM     10  N   UNL A   1      33.631  29.313  26.803  1.00  0.00    -0.258 N 
ATOM     11  C   UNL A   1      32.459  27.883  25.556  1.00  0.00     0.078 A 
ATOM     12  C   UNL A   1      31.862  28.154  26.811  1.00  0.00     0.149 A 
ATOM     13  C   UNL A   1      33.602  28.663  25.584  1.00  0.00     0.123 A 
ATOM     14  N   UNL A   1      32.477  29.138  27.480  1.00  0.00    -0.180 NA
BRANCH  11  15
ATOM     15  C   UNL A   1      32.088  26.951  24.506  1.00  0.00     0.262 C 
ATOM     16  O   UNL A   1      31.251  27.200  23.656  1.00  0.00    -0.269 OA
BRANCH  15  17
ATOM     17  N   UNL A   1      32.664  25.609  24.648  1.00  0.00    -0.293 N 
ATOM     18  C   UNL A   1      29.434  22.731  27.267  1.00  0.00     0.069 C 
ATOM     19  C   UNL A   1      30.568  23.290  26.485  1.00  0.00     0.062 A 
ATOM     20  C   UNL A   1      30.690  24.574  25.883  1.00  0.00     0.072 A 
ATOM     21  N   UNL A   1      31.668  22.553  26.289  1.00  0.00    -0.176 NA
ATOM     22  C   UNL A   1      31.957  24.607  25.342  1.00  0.00     0.134 A 
ATOM     23  N   UNL A   1      32.484  23.376  25.627  1.00  0.00    -0.237 N 
ATOM     24  C   UNL A   1      33.805  22.940  25.243  1.00  0.00     0.216 C 
ATOM     25  C   UNL A   1      34.082  25.329  24.314  1.00  0.00     0.130 C 
ATOM     26  C   UNL A   1      34.348  23.832  24.119  1.00  0.00     0.059 C 
BRANCH  24  27
ATOM     27  C   UNL A   1      34.719  22.908  26.448  1.00  0.00     0.410 C 
ATOM     28  F   UNL A   1      34.054  23.217  27.584  1.00  0.00    -0.169 F 
ATOM     29  F   UNL A   1      35.341  21.728  26.627  1.00  0.00    -0.169 F 
ATOM     30  F   UNL A   1      35.693  23.844  26.304  1.00  0.00    -0.169 F 
ENDBRANCH  24  27
ENDBRANCH  15  17
ENDBRANCH  11  15
ENDBRANCH   8  10
ENDBRANCH   6   8
ENDBRANCH   5   6
ENDBRANCH   4   5
ENDBRANCH   3   4
ENDBRANCH   2   3
ENDBRANCH   1   2
BRANCH   1  31
ATOM     31  C   UNL A   1      38.084  32.912  33.039  1.00  0.00     0.188 C 
BRANCH  31  32
ATOM     32  O   UNL A   1      39.288  33.106  33.749  1.00  0.00    -0.376 OA
BRANCH  32  33
ATOM     33  C   UNL A   1      40.457  33.783  33.318  1.00  0.00     0.202 C 
BRANCH  33  34
ATOM     34  C   UNL A   1      41.244  33.475  32.047  1.00  0.00     0.261 C 
BRANCH  34  35
ATOM     35  O   UNL A   1      41.477  34.592  31.233  1.00  0.00    -0.460 OA
BRANCH  35  36
ATOM     36  C   UNL A   1      40.764  34.572  30.087  1.00  0.00     0.338 C 
ATOM     37  O   UNL A   1      39.564  34.413  29.962  1.00  0.00    -0.246 OA
BRANCH  36  38
ATOM     38  C   UNL A   1      41.706  34.869  29.000  1.00  0.00     0.060 A 
ATOM     39  C   UNL A   1      43.057  34.686  29.281  1.00  0.00     0.016 A 
ATOM     40  C   UNL A   1      41.253  35.510  27.833  1.00  0.00     0.016 A 
ATOM     41  C   UNL A   1      43.952  35.441  28.570  1.00  0.00     0.010 A 
ATOM     42  C   UNL A   1      42.145  36.269  27.128  1.00  0.00     0.010 A 
ATOM     43  C   UNL A   1      43.445  36.324  27.611  1.00  0.00    -0.014 A 
BRANCH  43  44
ATOM     44  C   UNL A   1      44.269  37.452  27.266  1.00  0.00     0.031 A 
ATOM     45  C   UNL A   1      45.699  37.155  27.165  1.00  0.00     0.074 A 
ATOM     46  C   UNL A   1      43.721  38.660  27.043  1.00  0.00     0.049 A 
ATOM     47  N   UNL A   1      46.626  37.498  27.990  1.00  0.00    -0.248 NA
ATOM     48  C   UNL A   1      46.117  36.227  26.108  1.00  0.00     0.031 C 
ATOM     49  C   UNL A   1      42.303  38.998  26.860  1.00  0.00     0.029 A 
ATOM     50  N   UNL A   1      44.353  39.837  26.817  1.00  0.00    -0.354 N 
ATOM     51  C   UNL A   1      47.797  37.003  27.441  1.00  0.00     0.074 A 
ATOM     52  C   UNL A   1      47.406  36.077  26.405  1.00  0.00     0.031 C 
ATOM     53  C   UNL A   1      42.214  40.232  26.314  1.00  0.00     0.029 A 
ATOM     54  C   UNL A   1      43.546  40.810  26.250  1.00  0.00     0.049 A 
ATOM     55  H   UNL A   1      45.301  39.987  27.037  1.00  0.00     0.167 HD
ATOM     56  C   UNL A   1      49.002  37.574  27.696  1.00  0.00     0.031 A 
ATOM     57  C   UNL A   1      43.975  41.961  25.680  1.00  0.00     0.031 A 
ATOM     58  C   UNL A   1      48.956  38.481  28.812  1.00  0.00     0.049 A 
ATOM     59  C   UNL A   1      45.332  42.242  26.214  1.00  0.00     0.074 A 
ATOM     60  C   UNL A   1      48.677  38.348  30.157  1.00  0.00     0.029 A 
ATOM     61  N   UNL A   1      48.838  39.823  28.527  1.00  0.00    -0.354 N 
ATOM     62  N   UNL A   1      45.560  42.527  27.467  1.00  0.00    -0.248 NA
ATOM     63  C   UNL A   1      46.491  41.765  25.473  1.00  0.00     0.031 C 
ATOM     64  C   UNL A   1      47.985  39.541  30.517  1.00  0.00     0.029 A 
ATOM     65  C   UNL A   1      47.911  40.359  29.387  1.00  0.00     0.049 A 
ATOM     66  H   UNL A   1      49.332  40.311  27.828  1.00  0.00     0.167 HD
ATOM     67  C   UNL A   1      46.748  41.877  27.778  1.00  0.00     0.074 A 
ATOM     68  C   UNL A   1      47.331  41.526  26.486  1.00  0.00     0.031 C 
ATOM     69  C   UNL A   1      47.002  41.439  29.048  1.00  0.00     0.031 A 
BRANCH  56  70
ATOM     70  C   UNL A   1      50.110  37.584  26.685  1.00  0.00    -0.014 A 
ATOM     71  C   UNL A   1      50.092  36.658  25.630  1.00  0.00     0.010 A 
ATOM     72  C   UNL A   1      51.300  38.320  26.886  1.00  0.00     0.010 A 
ATOM     73  C   UNL A   1      51.228  36.454  24.836  1.00  0.00     0.020 A 
ATOM     74  C   UNL A   1      52.417  38.161  26.073  1.00  0.00     0.020 A 
ATOM     75  C   UNL A   1      52.385  37.201  25.072  1.00  0.00     0.054 A 
BRANCH  75  76
ATOM     76  S   UNL A   1      53.881  36.853  24.118  1.00  0.00     0.124 S 
ATOM     77  O   UNL A   1      53.497  35.644  23.398  1.00  0.00    -0.237 OA
ATOM     78  O   UNL A   1      54.019  38.061  23.309  1.00  0.00    -0.237 OA
ATOM     79  O   UNL A   1      54.906  36.675  25.144  1.00  0.00    -0.744 OA
ENDBRANCH  75  76
ENDBRANCH  56  70
BRANCH  57  80
ATOM     80  C   UNL A   1      43.426  42.573  24.447  1.00  0.00    -0.014 A 
ATOM     81  C   UNL A   1      44.122  43.576  23.752  1.00  0.00     0.010 A 
ATOM     82  C   UNL A   1      42.314  41.981  23.808  1.00  0.00     0.010 A 
ATOM     83  C   UNL A   1      43.743  43.942  22.449  1.00  0.00     0.020 A 
ATOM     84  C   UNL A   1      41.926  42.345  22.516  1.00  0.00     0.020 A 
ATOM     85  C   UNL A   1      42.657  43.313  21.834  1.00  0.00     0.054 A 
BRANCH  85  86
ATOM     86  S   UNL A   1      42.269  43.679  20.097  1.00  0.00     0.124 S 
ATOM     87  O   UNL A   1      43.272  44.684  19.763  1.00  0.00    -0.237 OA
ATOM     88  O   UNL A   1      42.437  42.377  19.456  1.00  0.00    -0.237 OA
ATOM     89  O   UNL A   1      40.893  44.168  20.147  1.00  0.00    -0.744 OA
ENDBRANCH  85  86
ENDBRANCH  57  80
BRANCH  69  90
ATOM     90  C   UNL A   1      46.089  41.923  30.157  1.00  0.00    -0.014 A 
ATOM     91  C   UNL A   1      46.407  43.006  31.002  1.00  0.00     0.010 A 
ATOM     92  C   UNL A   1      44.806  41.357  30.254  1.00  0.00     0.010 A 
ATOM     93  C   UNL A   1      45.478  43.491  31.933  1.00  0.00     0.020 A 
ATOM     94  C   UNL A   1      43.867  41.848  31.168  1.00  0.00     0.020 A 
ATOM     95  C   UNL A   1      44.210  42.909  32.009  1.00  0.00     0.054 A 
BRANCH  95  96
ATOM     96  S   UNL A   1      42.991  43.585  33.174  1.00  0.00     0.124 S 
ATOM     97  O   UNL A   1      42.185  44.455  32.322  1.00  0.00    -0.237 OA
ATOM     98  O   UNL A   1      42.315  42.386  33.666  1.00  0.00    -0.237 OA
ATOM     99  O   UNL A   1      43.807  44.276  34.170  1.00  0.00    -0.744 OA
ENDBRANCH  95  96
ENDBRANCH  69  90
ENDBRANCH  43  44
ENDBRANCH  36  38
ENDBRANCH  35  36
ENDBRANCH  34  35
ENDBRANCH  33  34
ENDBRANCH  32  33
ENDBRANCH  31  32
ENDBRANCH   1  31
TORSDOF 24
ENDMDL
MODEL 3
REMARK VINA RESULT:      -9.2      6.803     16.087
REMARK SMILES Cc1cc2n(n1)[C@H](C(F)(F)F)CCN2C(=O)c1cnn([C@@H](C)C(=O)OCCOCCOCCOC(=O)c2ccc(-c3c4nc(c(-c5ccc(S(=O)(=O)[O-])cc5)c5ccc([nH]5)c(-c5ccc(S(=O)(=O)[O-])cc5)c5nc(c(-c6ccc(S(=O)(=O)[O-])cc6)c6ccc3[nH]6)C=C5)C=C4)cc2)c1
REMARK SMILES IDX 29 1 28 2 27 3 26 4 25 5 23 6 24 7 21 8 22 9 20 10 17 11
REMARK SMILES IDX 18 12 97 13 19 14 15 15 16 16 14 17 1 18 2 19 3 20 6 21 4 22
REMARK SMILES IDX 5 23 7 24 13 25 12 26 8 27 9 28 10 29 11 30 30 31 31 32
REMARK SMILES IDX 32 33 33 34 34 35 35 36 36 37 37 38 38 39 96 40 39 41 95 42
REMARK SMILES IDX 40 43 41 44 42 45 89 46 43 47 94 48 88 49 90 50 44 51 93 52
REMARK SMILES IDX 87 53 86 54 45 56 75 57 56 58 74 59 57 60 60 61 73 62 91 63
REMARK SMILES IDX 58 64 59 65 72 67 92 68 61 69 46 70 47 71 55 72 48 73 54 74
REMARK SMILES IDX 49 75 50 76 51 77 52 78 53 79 76 80 77 81 85 82 78 83 84 84
REMARK SMILES IDX 79 85 80 86 81 87 82 88 83 89 62 90 63 91 71 92 64 93 70 94
REMARK SMILES IDX 65 95 66 96 67 97 68 98 69 99
REMARK H PARENT 90 55 60 66
REMARK Flexibility Score: inf
ROOT
ATOM      1  C   UNL A   1      46.745  40.363  24.579  1.00  0.00     0.188 C 
ENDROOT
BRANCH   1   2
ATOM      2  O   UNL A   1      46.438  41.327  23.603  1.00  0.00    -0.376 OA
BRANCH   2   3
ATOM      3  C   UNL A   1      46.879  42.657  23.813  1.00  0.00     0.202 C 
BRANCH   3   4
ATOM      4  C   UNL A   1      45.970  43.713  24.475  1.00  0.00     0.261 C 
BRANCH   4   5
ATOM      5  O   UNL A   1      44.892  44.233  23.659  1.00  0.00    -0.462 OA
BRANCH   5   6
ATOM      6  C   UNL A   1      43.750  43.507  23.622  1.00  0.00     0.330 C 
ATOM      7  O   UNL A   1      43.349  42.854  24.588  1.00  0.00    -0.250 OA
BRANCH   6   8
ATOM      8  C   UNL A   1      42.916  43.549  22.351  1.00  0.00     0.213 C 
ATOM      9  C   UNL A   1      41.986  42.340  22.321  1.00  0.00     0.046 C 
BRANCH   8  10
ATOM     10  N   UNL A   1      43.559  43.742  21.046  1.00  0.00    -0.258 N 
ATOM     11  C   UNL A   1      43.833  44.053  18.855  1.00  0.00     0.078 A 
ATOM     12  C   UNL A   1      45.040  43.763  19.536  1.00  0.00     0.149 A 
ATOM     13  C   UNL A   1      42.891  44.019  19.869  1.00  0.00     0.123 A 
ATOM     14  N   UNL A   1      44.846  43.410  20.813  1.00  0.00    -0.180 NA
BRANCH  11  15
ATOM     15  C   UNL A   1      43.584  44.417  17.472  1.00  0.00     0.262 C 
ATOM     16  O   UNL A   1      43.616  43.616  16.553  1.00  0.00    -0.269 OA
BRANCH  15  17
ATOM     17  N   UNL A   1      43.467  45.859  17.230  1.00  0.00    -0.293 N 
ATOM     18  C   UNL A   1      48.094  47.748  16.457  1.00  0.00     0.069 C 
ATOM     19  C   UNL A   1      46.636  47.515  16.628  1.00  0.00     0.062 A 
ATOM     20  C   UNL A   1      45.944  46.284  16.808  1.00  0.00     0.072 A 
ATOM     21  N   UNL A   1      45.793  48.555  16.641  1.00  0.00    -0.176 NA
ATOM     22  C   UNL A   1      44.622  46.629  16.984  1.00  0.00     0.134 A 
ATOM     23  N   UNL A   1      44.605  47.994  16.879  1.00  0.00    -0.237 N 
ATOM     24  C   UNL A   1      43.421  48.812  16.986  1.00  0.00     0.216 C 
ATOM     25  C   UNL A   1      42.205  46.595  17.489  1.00  0.00     0.130 C 
ATOM     26  C   UNL A   1      42.167  47.952  16.779  1.00  0.00     0.059 C 
BRANCH  24  27
ATOM     27  C   UNL A   1      43.407  49.546  18.309  1.00  0.00     0.410 C 
ATOM     28  F   UNL A   1      42.155  49.920  18.657  1.00  0.00    -0.169 F 
ATOM     29  F   UNL A   1      43.938  48.842  19.325  1.00  0.00    -0.169 F 
ATOM     30  F   UNL A   1      44.136  50.688  18.203  1.00  0.00    -0.169 F 
ENDBRANCH  24  27
ENDBRANCH  15  17
ENDBRANCH  11  15
ENDBRANCH   8  10
ENDBRANCH   6   8
ENDBRANCH   5   6
ENDBRANCH   4   5
ENDBRANCH   3   4
ENDBRANCH   2   3
ENDBRANCH   1   2
BRANCH   1  31
ATOM     31  C   UNL A   1      46.281  40.557  26.029  1.00  0.00     0.188 C 
BRANCH  31  32
ATOM     32  O   UNL A   1      45.323  39.752  26.681  1.00  0.00    -0.376 OA
BRANCH  32  33
ATOM     33  C   UNL A   1      45.006  39.719  28.063  1.00  0.00     0.202 C 
BRANCH  33  34
ATOM     34  C   UNL A   1      45.327  38.574  29.020  1.00  0.00     0.261 C 
BRANCH  34  35
ATOM     35  O   UNL A   1      44.777  37.342  28.644  1.00  0.00    -0.460 OA
BRANCH  35  36
ATOM     36  C   UNL A   1      45.690  36.350  28.578  1.00  0.00     0.338 C 
ATOM     37  O   UNL A   1      46.880  36.420  28.822  1.00  0.00    -0.246 OA
BRANCH  36  38
ATOM     38  C   UNL A   1      44.958  35.124  28.235  1.00  0.00     0.060 A 
ATOM     39  C   UNL A   1      43.576  35.158  28.405  1.00  0.00     0.016 A 
ATOM     40  C   UNL A   1      45.661  33.937  27.966  1.00  0.00     0.016 A 
ATOM     41  C   UNL A   1      42.947  33.965  28.647  1.00  0.00     0.010 A 
ATOM     42  C   UNL A   1      45.035  32.747  28.214  1.00  0.00     0.010 A 
ATOM     43  C   UNL A   1      43.733  32.809  28.689  1.00  0.00    -0.014 A 
BRANCH  43  44
ATOM     44  C   UNL A   1      43.212  31.697  29.441  1.00  0.00     0.031 A 
ATOM     45  C   UNL A   1      42.883  30.519  28.638  1.00  0.00     0.074 A 
ATOM     46  C   UNL A   1      43.077  31.776  30.777  1.00  0.00     0.049 A 
ATOM     47  N   UNL A   1      41.708  30.085  28.336  1.00  0.00    -0.248 NA
ATOM     48  C   UNL A   1      43.992  29.841  27.956  1.00  0.00     0.031 C 
ATOM     49  C   UNL A   1      43.615  32.792  31.689  1.00  0.00     0.029 A 
ATOM     50  N   UNL A   1      42.510  30.874  31.615  1.00  0.00    -0.354 N 
ATOM     51  C   UNL A   1      41.930  28.940  27.589  1.00  0.00     0.074 A 
ATOM     52  C   UNL A   1      43.327  28.948  27.227  1.00  0.00     0.031 C 
ATOM     53  C   UNL A   1      43.559  32.318  32.955  1.00  0.00     0.029 A 
ATOM     54  C   UNL A   1      42.855  31.046  32.945  1.00  0.00     0.049 A 
ATOM     55  H   UNL A   1      41.907  30.160  31.305  1.00  0.00     0.167 HD
ATOM     56  C   UNL A   1      41.016  27.936  27.534  1.00  0.00     0.031 A 
ATOM     57  C   UNL A   1      42.659  30.146  33.938  1.00  0.00     0.031 A 
ATOM     58  C   UNL A   1      39.728  28.336  28.033  1.00  0.00     0.049 A 
ATOM     59  C   UNL A   1      41.586  29.220  33.491  1.00  0.00     0.074 A 
ATOM     60  C   UNL A   1      38.792  29.278  27.652  1.00  0.00     0.029 A 
ATOM     61  N   UNL A   1      39.422  27.994  29.331  1.00  0.00    -0.354 N 
ATOM     62  N   UNL A   1      40.352  29.598  33.299  1.00  0.00    -0.248 NA
ATOM     63  C   UNL A   1      41.960  27.984  32.818  1.00  0.00     0.031 C 
ATOM     64  C   UNL A   1      38.241  29.772  28.870  1.00  0.00     0.029 A 
ATOM     65  C   UNL A   1      38.837  29.083  29.929  1.00  0.00     0.049 A 
ATOM     66  H   UNL A   1      39.594  27.122  29.755  1.00  0.00     0.167 HD
ATOM     67  C   UNL A   1      39.932  28.908  32.169  1.00  0.00     0.074 A 
ATOM     68  C   UNL A   1      40.919  27.847  31.991  1.00  0.00     0.031 C 
ATOM     69  C   UNL A   1      38.988  29.433  31.331  1.00  0.00     0.031 A 
BRANCH  56  70
ATOM     70  C   UNL A   1      41.419  26.499  27.382  1.00  0.00    -0.014 A 
ATOM     71  C   UNL A   1      41.159  25.831  26.175  1.00  0.00     0.010 A 
ATOM     72  C   UNL A   1      41.825  25.716  28.487  1.00  0.00     0.010 A 
ATOM     73  C   UNL A   1      41.266  24.437  26.091  1.00  0.00     0.020 A 
ATOM     74  C   UNL A   1      41.982  24.337  28.400  1.00  0.00     0.020 A 
ATOM     75  C   UNL A   1      41.667  23.700  27.209  1.00  0.00     0.054 A 
BRANCH  75  76
ATOM     76  S   UNL A   1      41.694  21.895  27.124  1.00  0.00     0.124 S 
ATOM     77  O   UNL A   1      40.341  21.560  27.557  1.00  0.00    -0.237 OA
ATOM     78  O   UNL A   1      41.991  21.655  25.715  1.00  0.00    -0.237 OA
ATOM     79  O   UNL A   1      42.760  21.526  28.053  1.00  0.00    -0.744 OA
ENDBRANCH  75  76
ENDBRANCH  56  70
BRANCH  57  80
ATOM     80  C   UNL A   1      43.608  29.847  35.036  1.00  0.00    -0.014 A 
ATOM     81  C   UNL A   1      43.256  30.035  36.382  1.00  0.00     0.010 A 
ATOM     82  C   UNL A   1      44.793  29.129  34.760  1.00  0.00     0.010 A 
ATOM     83  C   UNL A   1      44.039  29.486  37.413  1.00  0.00     0.020 A 
ATOM     84  C   UNL A   1      45.581  28.589  35.778  1.00  0.00     0.020 A 
ATOM     85  C   UNL A   1      45.189  28.754  37.103  1.00  0.00     0.054 A 
BRANCH  85  86
ATOM     86  S   UNL A   1      46.109  27.918  38.428  1.00  0.00     0.124 S 
ATOM     87  O   UNL A   1      45.388  28.348  39.622  1.00  0.00    -0.237 OA
ATOM     88  O   UNL A   1      45.965  26.510  38.071  1.00  0.00    -0.237 OA
ATOM     89  O   UNL A   1      47.463  28.452  38.295  1.00  0.00    -0.744 OA
ENDBRANCH  85  86
ENDBRANCH  57  80
BRANCH  69  90
ATOM     90  C   UNL A   1      38.216  30.647  31.808  1.00  0.00    -0.014 A 
ATOM     91  C   UNL A   1      36.855  30.604  32.170  1.00  0.00     0.010 A 
ATOM     92  C   UNL A   1      38.928  31.838  32.036  1.00  0.00     0.010 A 
ATOM     93  C   UNL A   1      36.219  31.726  32.720  1.00  0.00     0.020 A 
ATOM     94  C   UNL A   1      38.305  32.956  32.600  1.00  0.00     0.020 A 
ATOM     95  C   UNL A   1      36.950  32.897  32.934  1.00  0.00     0.054 A 
BRANCH  95  96
ATOM     96  S   UNL A   1      36.134  34.325  33.705  1.00  0.00     0.124 S 
ATOM     97  O   UNL A   1      35.559  35.021  32.557  1.00  0.00    -0.237 OA
ATOM     98  O   UNL A   1      35.170  33.698  34.607  1.00  0.00    -0.237 OA
ATOM     99  O   UNL A   1      37.225  35.029  34.375  1.00  0.00    -0.744 OA
ENDBRANCH  95  96
ENDBRANCH  69  90
ENDBRANCH  43  44
ENDBRANCH  36  38
ENDBRANCH  35  36
ENDBRANCH  34  35
ENDBRANCH  33  34
ENDBRANCH  32  33
ENDBRANCH  31  32
ENDBRANCH   1  31
TORSDOF 24
ENDMDL
