MODEL 1
REMARK VINA RESULT:     -10.2      0.000      0.000
REMARK SMILES Cc1cccc(O[C@H]2CC[C@@]([NH2+]C(C)C)(C(=O)OCCOCCOCCOC(=O)c3ccc(-c4c5nc(c(-c6ccc(S(=O)(=O)[O-])cc6)c6ccc([nH]6)c(-c6ccc(S(=O)(=O)[O-])cc6)c6nc(c(-c7ccc(S(=O)(=O)[O-])cc7)c7ccc4[nH]7)C=C6)C=C5)cc3)C2)c1
REMARK SMILES IDX 23 1 22 2 21 3 20 4 19 5 18 6 16 7 17 8 11 9 8 10 9 11 90 12
REMARK SMILES IDX 10 13 7 14 6 15 1 16 2 17 3 18 91 19 4 20 5 21 12 22 13 25
REMARK SMILES IDX 14 26 15 27 24 28 25 29 26 30 27 31 28 32 29 33 30 34 31 35
REMARK SMILES IDX 89 36 32 37 88 38 33 39 34 40 35 41 82 42 36 43 87 44 81 45
REMARK SMILES IDX 83 46 37 47 86 48 80 49 79 50 38 52 68 53 49 54 67 55 50 56
REMARK SMILES IDX 53 57 66 58 84 59 51 60 52 61 65 63 85 64 54 65 39 66 40 67
REMARK SMILES IDX 48 68 41 69 47 70 42 71 43 72 44 73 45 74 46 75 69 76 70 77
REMARK SMILES IDX 78 78 71 79 77 80 72 81 73 82 74 83 75 84 76 85 55 86 56 87
REMARK SMILES IDX 64 88 57 89 63 90 58 91 59 92 60 93 61 94 62 95
REMARK H PARENT 12 23 12 24 83 51 53 62
REMARK Flexibility Score: inf
ROOT
ATOM      1  C   UNL A   1      35.458  30.989  27.822  1.00  0.00     0.188 C 
ENDROOT
BRANCH   1   2
ATOM      2  C   UNL A   1      34.054  31.207  27.279  1.00  0.00     0.188 C 
BRANCH   2   3
ATOM      3  O   UNL A   1      33.282  30.151  26.644  1.00  0.00    -0.376 OA
BRANCH   3   4
ATOM      4  C   UNL A   1      31.939  29.618  26.914  1.00  0.00     0.202 C 
BRANCH   4   5
ATOM      5  C   UNL A   1      31.202  28.072  27.628  1.00  0.00     0.261 C 
BRANCH   5   6
ATOM      6  O   UNL A   1      31.128  26.354  27.053  1.00  0.00    -0.459 OA
BRANCH   6   7
ATOM      7  C   UNL A   1      31.871  25.401  26.135  1.00  0.00     0.368 C 
ATOM      8  O   UNL A   1      32.648  24.497  26.484  1.00  0.00    -0.245 OA
BRANCH   7   9
ATOM      9  C   UNL A   1      31.993  25.573  24.599  1.00  0.00     0.198 C 
ATOM     10  C   UNL A   1      31.878  23.435  23.199  1.00  0.00     0.180 C 
ATOM     11  C   UNL A   1      30.501  24.077  23.346  1.00  0.00     0.052 C 
ATOM     12  C   UNL A   1      32.815  24.378  23.961  1.00  0.00     0.126 C 
ATOM     13  C   UNL A   1      30.649  25.495  23.907  1.00  0.00     0.085 C 
BRANCH  10  14
ATOM     14  O   UNL A   1      32.061  22.100  23.700  1.00  0.00    -0.490 OA
BRANCH  14  15
ATOM     15  C   UNL A   1      33.162  21.740  24.432  1.00  0.00     0.119 A 
ATOM     16  C   UNL A   1      36.862  22.498  23.900  1.00  0.00     0.044 C 
ATOM     17  C   UNL A   1      35.595  21.974  24.520  1.00  0.00    -0.047 A 
ATOM     18  C   UNL A   1      35.565  21.652  25.876  1.00  0.00     0.003 A 
ATOM     19  C   UNL A   1      34.397  21.911  23.786  1.00  0.00     0.049 A 
ATOM     20  C   UNL A   1      34.358  21.309  26.486  1.00  0.00     0.004 A 
ATOM     21  C   UNL A   1      33.161  21.351  25.765  1.00  0.00     0.046 A 
ENDBRANCH  14  15
ENDBRANCH  10  14
BRANCH   9  22
ATOM     22  N   UNL A   1      32.771  26.857  24.294  1.00  0.00    -0.330 N 
ATOM     23  H   UNL A   1      33.751  26.596  24.185  1.00  0.00     0.347 HD
ATOM     24  H   UNL A   1      32.553  27.473  25.077  1.00  0.00     0.347 HD
BRANCH  22  25
ATOM     25  C   UNL A   1      32.389  27.661  23.078  1.00  0.00     0.176 C 
ATOM     26  C   UNL A   1      31.425  28.838  23.265  1.00  0.00     0.075 C 
ATOM     27  C   UNL A   1      33.675  28.191  22.420  1.00  0.00     0.075 C 
ENDBRANCH  22  25
ENDBRANCH   9  22
ENDBRANCH   7   9
ENDBRANCH   6   7
ENDBRANCH   5   6
ENDBRANCH   4   5
ENDBRANCH   3   4
ENDBRANCH   2   3
ENDBRANCH   1   2
BRANCH   1  28
ATOM     28  O   UNL A   1      35.789  32.092  28.631  1.00  0.00    -0.376 OA
BRANCH  28  29
ATOM     29  C   UNL A   1      34.717  32.860  29.107  1.00  0.00     0.202 C 
BRANCH  29  30
ATOM     30  C   UNL A   1      34.593  32.889  30.632  1.00  0.00     0.261 C 
BRANCH  30  31
ATOM     31  O   UNL A   1      35.397  31.882  31.291  1.00  0.00    -0.460 OA
BRANCH  31  32
ATOM     32  C   UNL A   1      36.413  32.285  32.145  1.00  0.00     0.338 C 
ATOM     33  O   UNL A   1      36.476  31.899  33.277  1.00  0.00    -0.246 OA
BRANCH  32  34
ATOM     34  C   UNL A   1      37.542  32.902  31.380  1.00  0.00     0.060 A 
ATOM     35  C   UNL A   1      38.442  32.331  30.475  1.00  0.00     0.016 A 
ATOM     36  C   UNL A   1      37.797  34.173  31.707  1.00  0.00     0.016 A 
ATOM     37  C   UNL A   1      39.710  32.941  30.037  1.00  0.00     0.010 A 
ATOM     38  C   UNL A   1      39.086  34.617  31.436  1.00  0.00     0.010 A 
ATOM     39  C   UNL A   1      40.187  34.120  30.602  1.00  0.00    -0.014 A 
BRANCH  39  40
ATOM     40  C   UNL A   1      41.819  34.875  30.367  1.00  0.00     0.031 A 
ATOM     41  C   UNL A   1      42.526  35.759  28.958  1.00  0.00     0.074 A 
ATOM     42  C   UNL A   1      42.784  34.812  31.319  1.00  0.00     0.049 A 
ATOM     43  N   UNL A   1      43.311  36.810  29.085  1.00  0.00    -0.248 NA
ATOM     44  C   UNL A   1      42.197  35.733  27.452  1.00  0.00     0.031 C 
ATOM     45  C   UNL A   1      43.804  35.841  31.563  1.00  0.00     0.029 A 
ATOM     46  N   UNL A   1      43.068  33.856  32.283  1.00  0.00    -0.354 N 
ATOM     47  C   UNL A   1      43.355  37.550  27.900  1.00  0.00     0.074 A 
ATOM     48  C   UNL A   1      42.574  36.893  26.929  1.00  0.00     0.031 C 
ATOM     49  C   UNL A   1      44.732  35.370  32.401  1.00  0.00     0.029 A 
ATOM     50  C   UNL A   1      44.435  33.971  32.587  1.00  0.00     0.049 A 
ATOM     51  H   UNL A   1      42.432  33.218  32.680  1.00  0.00     0.167 HD
ATOM     52  C   UNL A   1      44.162  38.618  27.697  1.00  0.00     0.031 A 
ATOM     53  C   UNL A   1      45.285  32.954  32.280  1.00  0.00     0.031 A 
ATOM     54  C   UNL A   1      45.375  38.380  28.427  1.00  0.00     0.049 A 
ATOM     55  C   UNL A   1      46.339  33.349  31.281  1.00  0.00     0.074 A 
ATOM     56  C   UNL A   1      45.795  38.701  29.697  1.00  0.00     0.029 A 
ATOM     57  N   UNL A   1      46.136  37.296  27.999  1.00  0.00    -0.354 N 
ATOM     58  N   UNL A   1      46.267  34.419  30.531  1.00  0.00    -0.248 NA
ATOM     59  C   UNL A   1      47.580  32.611  31.080  1.00  0.00     0.031 C 
ATOM     60  C   UNL A   1      46.674  37.655  30.106  1.00  0.00     0.029 A 
ATOM     61  C   UNL A   1      46.841  36.762  29.055  1.00  0.00     0.049 A 
ATOM     62  H   UNL A   1      46.166  36.961  27.073  1.00  0.00     0.167 HD
ATOM     63  C   UNL A   1      47.390  34.520  29.766  1.00  0.00     0.074 A 
ATOM     64  C   UNL A   1      48.188  33.368  30.150  1.00  0.00     0.031 C 
ATOM     65  C   UNL A   1      47.597  35.529  28.869  1.00  0.00     0.031 A 
BRANCH  52  66
ATOM     66  C   UNL A   1      43.842  39.803  26.812  1.00  0.00    -0.014 A 
ATOM     67  C   UNL A   1      42.494  40.109  26.542  1.00  0.00     0.010 A 
ATOM     68  C   UNL A   1      44.805  40.514  26.052  1.00  0.00     0.010 A 
ATOM     69  C   UNL A   1      42.122  41.033  25.547  1.00  0.00     0.020 A 
ATOM     70  C   UNL A   1      44.445  41.463  25.072  1.00  0.00     0.020 A 
ATOM     71  C   UNL A   1      43.099  41.695  24.805  1.00  0.00     0.054 A 
BRANCH  71  72
ATOM     72  S   UNL A   1      42.588  42.799  23.452  1.00  0.00     0.124 S 
ATOM     73  O   UNL A   1      43.063  44.100  23.915  1.00  0.00    -0.237 OA
ATOM     74  O   UNL A   1      43.296  42.244  22.300  1.00  0.00    -0.237 OA
ATOM     75  O   UNL A   1      41.134  42.653  23.412  1.00  0.00    -0.744 OA
ENDBRANCH  71  72
ENDBRANCH  52  66
BRANCH  53  76
ATOM     76  C   UNL A   1      44.678  31.621  32.573  1.00  0.00    -0.014 A 
ATOM     77  C   UNL A   1      44.471  31.378  33.951  1.00  0.00     0.010 A 
ATOM     78  C   UNL A   1      43.807  31.010  31.646  1.00  0.00     0.010 A 
ATOM     79  C   UNL A   1      43.304  30.760  34.402  1.00  0.00     0.020 A 
ATOM     80  C   UNL A   1      42.634  30.372  32.102  1.00  0.00     0.020 A 
ATOM     81  C   UNL A   1      42.360  30.322  33.478  1.00  0.00     0.054 A 
BRANCH  81  82
ATOM     82  S   UNL A   1      40.669  30.018  34.083  1.00  0.00     0.124 S 
ATOM     83  O   UNL A   1      40.529  30.975  35.172  1.00  0.00    -0.237 OA
ATOM     84  O   UNL A   1      39.819  30.252  32.917  1.00  0.00    -0.237 OA
ATOM     85  O   UNL A   1      40.725  28.621  34.472  1.00  0.00    -0.744 OA
ENDBRANCH  81  82
ENDBRANCH  53  76
BRANCH  65  86
ATOM     86  C   UNL A   1      48.619  35.432  27.768  1.00  0.00    -0.014 A 
ATOM     87  C   UNL A   1      48.363  34.776  26.552  1.00  0.00     0.010 A 
ATOM     88  C   UNL A   1      49.852  36.108  27.889  1.00  0.00     0.010 A 
ATOM     89  C   UNL A   1      49.349  34.652  25.573  1.00  0.00     0.020 A 
ATOM     90  C   UNL A   1      50.821  36.052  26.885  1.00  0.00     0.020 A 
ATOM     91  C   UNL A   1      50.584  35.269  25.761  1.00  0.00     0.054 A 
BRANCH  91  92
ATOM     92  S   UNL A   1      51.880  35.035  24.527  1.00  0.00     0.124 S 
ATOM     93  O   UNL A   1      51.687  36.203  23.672  1.00  0.00    -0.237 OA
ATOM     94  O   UNL A   1      53.102  35.041  25.328  1.00  0.00    -0.237 OA
ATOM     95  O   UNL A   1      51.548  33.750  23.919  1.00  0.00    -0.744 OA
ENDBRANCH  91  92
ENDBRANCH  65  86
ENDBRANCH  39  40
ENDBRANCH  32  34
ENDBRANCH  31  32
ENDBRANCH  30  31
ENDBRANCH  29  30
ENDBRANCH  28  29
ENDBRANCH   1  28
TORSDOF 24
ENDMDL
MODEL 2
REMARK VINA RESULT:      -9.8      1.899      4.064
REMARK SMILES Cc1cccc(O[C@H]2CC[C@@]([NH2+]C(C)C)(C(=O)OCCOCCOCCOC(=O)c3ccc(-c4c5nc(c(-c6ccc(S(=O)(=O)[O-])cc6)c6ccc([nH]6)c(-c6ccc(S(=O)(=O)[O-])cc6)c6nc(c(-c7ccc(S(=O)(=O)[O-])cc7)c7ccc4[nH]7)C=C6)C=C5)cc3)C2)c1
REMARK SMILES IDX 23 1 22 2 21 3 20 4 19 5 18 6 16 7 17 8 11 9 8 10 9 11 90 12
REMARK SMILES IDX 10 13 7 14 6 15 1 16 2 17 3 18 91 19 4 20 5 21 12 22 13 25
REMARK SMILES IDX 14 26 15 27 24 28 25 29 26 30 27 31 28 32 29 33 30 34 31 35
REMARK SMILES IDX 89 36 32 37 88 38 33 39 34 40 35 41 82 42 36 43 87 44 81 45
REMARK SMILES IDX 83 46 37 47 86 48 80 49 79 50 38 52 68 53 49 54 67 55 50 56
REMARK SMILES IDX 53 57 66 58 84 59 51 60 52 61 65 63 85 64 54 65 39 66 40 67
REMARK SMILES IDX 48 68 41 69 47 70 42 71 43 72 44 73 45 74 46 75 69 76 70 77
REMARK SMILES IDX 78 78 71 79 77 80 72 81 73 82 74 83 75 84 76 85 55 86 56 87
REMARK SMILES IDX 64 88 57 89 63 90 58 91 59 92 60 93 61 94 62 95
REMARK H PARENT 12 23 12 24 83 51 53 62
REMARK Flexibility Score: inf
ROOT
ATOM      1  C   UNL A   1      33.722  34.856  29.013  1.00  0.00     0.188 C 
ENDROOT
BRANCH   1   2
ATOM      2  C   UNL A   1      34.174  33.828  27.987  1.00  0.00     0.188 C 
BRANCH   2   3
ATOM      3  O   UNL A   1      33.399  32.641  27.666  1.00  0.00    -0.376 OA
BRANCH   3   4
ATOM      4  C   UNL A   1      33.736  31.211  27.690  1.00  0.00     0.202 C 
BRANCH   4   5
ATOM      5  C   UNL A   1      33.067  29.636  26.970  1.00  0.00     0.261 C 
BRANCH   5   6
ATOM      6  O   UNL A   1      33.824  28.044  26.551  1.00  0.00    -0.459 OA
BRANCH   6   7
ATOM      7  C   UNL A   1      33.491  26.749  25.832  1.00  0.00     0.368 C 
ATOM      8  O   UNL A   1      34.252  26.096  25.100  1.00  0.00    -0.245 OA
BRANCH   7   9
ATOM      9  C   UNL A   1      32.060  26.173  25.674  1.00  0.00     0.198 C 
ATOM     10  C   UNL A   1      30.381  27.624  24.402  1.00  0.00     0.180 C 
ATOM     11  C   UNL A   1      31.079  26.637  23.470  1.00  0.00     0.052 C 
ATOM     12  C   UNL A   1      30.975  27.323  25.781  1.00  0.00     0.126 C 
ATOM     13  C   UNL A   1      31.829  25.587  24.298  1.00  0.00     0.085 C 
BRANCH  10  14
ATOM     14  O   UNL A   1      30.527  29.029  24.134  1.00  0.00    -0.490 OA
BRANCH  14  15
ATOM     15  C   UNL A   1      29.573  29.747  23.462  1.00  0.00     0.119 A 
ATOM     16  C   UNL A   1      29.055  33.512  23.144  1.00  0.00     0.044 C 
ATOM     17  C   UNL A   1      28.860  32.031  22.959  1.00  0.00    -0.047 A 
ATOM     18  C   UNL A   1      28.150  31.554  21.858  1.00  0.00     0.003 A 
ATOM     19  C   UNL A   1      29.481  31.102  23.813  1.00  0.00     0.049 A 
ATOM     20  C   UNL A   1      28.095  30.184  21.603  1.00  0.00     0.004 A 
ATOM     21  C   UNL A   1      28.803  29.283  22.404  1.00  0.00     0.046 A 
ENDBRANCH  14  15
ENDBRANCH  10  14
BRANCH   9  22
ATOM     22  N   UNL A   1      31.780  25.193  26.818  1.00  0.00    -0.330 N 
ATOM     23  H   UNL A   1      30.824  25.361  27.131  1.00  0.00     0.347 HD
ATOM     24  H   UNL A   1      32.517  25.385  27.497  1.00  0.00     0.347 HD
BRANCH  22  25
ATOM     25  C   UNL A   1      31.905  23.716  26.550  1.00  0.00     0.176 C 
ATOM     26  C   UNL A   1      32.861  22.902  27.428  1.00  0.00     0.075 C 
ATOM     27  C   UNL A   1      30.506  23.083  26.644  1.00  0.00     0.075 C 
ENDBRANCH  22  25
ENDBRANCH   9  22
ENDBRANCH   7   9
ENDBRANCH   6   7
ENDBRANCH   5   6
ENDBRANCH   4   5
ENDBRANCH   3   4
ENDBRANCH   2   3
ENDBRANCH   1   2
BRANCH   1  28
ATOM     28  O   UNL A   1      33.337  34.170  30.179  1.00  0.00    -0.376 OA
BRANCH  28  29
ATOM     29  C   UNL A   1      34.223  34.237  31.264  1.00  0.00     0.202 C 
BRANCH  29  30
ATOM     30  C   UNL A   1      35.170  33.040  31.377  1.00  0.00     0.261 C 
BRANCH  30  31
ATOM     31  O   UNL A   1      36.566  33.401  31.251  1.00  0.00    -0.460 OA
BRANCH  31  32
ATOM     32  C   UNL A   1      37.509  32.396  31.092  1.00  0.00     0.338 C 
ATOM     33  O   UNL A   1      37.237  31.355  30.566  1.00  0.00    -0.246 OA
BRANCH  32  34
ATOM     34  C   UNL A   1      38.895  32.925  31.295  1.00  0.00     0.060 A 
ATOM     35  C   UNL A   1      39.410  33.756  32.294  1.00  0.00     0.016 A 
ATOM     36  C   UNL A   1      39.738  32.650  30.295  1.00  0.00     0.016 A 
ATOM     37  C   UNL A   1      40.690  34.481  32.220  1.00  0.00     0.010 A 
ATOM     38  C   UNL A   1      40.827  33.506  30.174  1.00  0.00     0.010 A 
ATOM     39  C   UNL A   1      41.457  34.494  31.059  1.00  0.00    -0.014 A 
BRANCH  39  40
ATOM     40  C   UNL A   1      42.914  35.515  30.709  1.00  0.00     0.031 A 
ATOM     41  C   UNL A   1      43.425  36.376  29.205  1.00  0.00     0.074 A 
ATOM     42  C   UNL A   1      43.883  35.726  31.635  1.00  0.00     0.049 A 
ATOM     43  N   UNL A   1      43.998  37.563  29.212  1.00  0.00    -0.248 NA
ATOM     44  C   UNL A   1      43.091  36.144  27.718  1.00  0.00     0.031 C 
ATOM     45  C   UNL A   1      44.692  36.947  31.753  1.00  0.00     0.029 A 
ATOM     46  N   UNL A   1      44.353  34.938  32.675  1.00  0.00    -0.354 N 
ATOM     47  C   UNL A   1      43.888  38.181  27.963  1.00  0.00     0.074 A 
ATOM     48  C   UNL A   1      43.237  37.299  27.079  1.00  0.00     0.031 C 
ATOM     49  C   UNL A   1      45.701  36.742  32.605  1.00  0.00     0.029 A 
ATOM     50  C   UNL A   1      45.677  35.336  32.928  1.00  0.00     0.049 A 
ATOM     51  H   UNL A   1      43.853  34.233  33.147  1.00  0.00     0.167 HD
ATOM     52  C   UNL A   1      44.477  39.356  27.639  1.00  0.00     0.031 A 
ATOM     53  C   UNL A   1      46.701  34.472  32.692  1.00  0.00     0.031 A 
ATOM     54  C   UNL A   1      45.720  39.422  28.352  1.00  0.00     0.049 A 
ATOM     55  C   UNL A   1      47.650  34.961  31.632  1.00  0.00     0.074 A 
ATOM     56  C   UNL A   1      46.085  39.937  29.575  1.00  0.00     0.029 A 
ATOM     57  N   UNL A   1      46.668  38.465  28.005  1.00  0.00    -0.354 N 
ATOM     58  N   UNL A   1      47.369  35.920  30.788  1.00  0.00    -0.248 NA
ATOM     59  C   UNL A   1      49.006  34.452  31.464  1.00  0.00     0.031 C 
ATOM     60  C   UNL A   1      47.150  39.119  30.054  1.00  0.00     0.029 A 
ATOM     61  C   UNL A   1      47.473  38.176  29.085  1.00  0.00     0.049 A 
ATOM     62  H   UNL A   1      46.751  38.053  27.114  1.00  0.00     0.167 HD
ATOM     63  C   UNL A   1      48.445  36.156  29.985  1.00  0.00     0.074 A 
ATOM     64  C   UNL A   1      49.450  35.217  30.451  1.00  0.00     0.031 C 
ATOM     65  C   UNL A   1      48.447  37.096  28.994  1.00  0.00     0.031 A 
BRANCH  52  66
ATOM     66  C   UNL A   1      43.928  40.370  26.657  1.00  0.00    -0.014 A 
ATOM     67  C   UNL A   1      42.549  40.368  26.372  1.00  0.00     0.010 A 
ATOM     68  C   UNL A   1      44.732  41.196  25.831  1.00  0.00     0.010 A 
ATOM     69  C   UNL A   1      42.005  41.106  25.304  1.00  0.00     0.020 A 
ATOM     70  C   UNL A   1      44.194  41.963  24.775  1.00  0.00     0.020 A 
ATOM     71  C   UNL A   1      42.833  41.888  24.500  1.00  0.00     0.054 A 
BRANCH  71  72
ATOM     72  S   UNL A   1      42.119  42.743  23.062  1.00  0.00     0.124 S 
ATOM     73  O   UNL A   1      42.436  41.830  21.967  1.00  0.00    -0.237 OA
ATOM     74  O   UNL A   1      40.703  42.836  23.413  1.00  0.00    -0.237 OA
ATOM     75  O   UNL A   1      42.830  44.020  23.024  1.00  0.00    -0.744 OA
ENDBRANCH  71  72
ENDBRANCH  52  66
BRANCH  53  76
ATOM     76  C   UNL A   1      46.361  33.083  33.125  1.00  0.00    -0.014 A 
ATOM     77  C   UNL A   1      46.012  32.980  34.492  1.00  0.00     0.010 A 
ATOM     78  C   UNL A   1      45.787  32.169  32.215  1.00  0.00     0.010 A 
ATOM     79  C   UNL A   1      44.954  32.168  34.901  1.00  0.00     0.020 A 
ATOM     80  C   UNL A   1      44.727  31.338  32.632  1.00  0.00     0.020 A 
ATOM     81  C   UNL A   1      44.272  31.404  33.958  1.00  0.00     0.054 A 
BRANCH  81  82
ATOM     82  S   UNL A   1      42.617  30.791  34.410  1.00  0.00     0.124 S 
ATOM     83  O   UNL A   1      41.944  31.984  34.904  1.00  0.00    -0.237 OA
ATOM     84  O   UNL A   1      42.088  30.230  33.169  1.00  0.00    -0.237 OA
ATOM     85  O   UNL A   1      42.922  29.779  35.405  1.00  0.00    -0.744 OA
ENDBRANCH  81  82
ENDBRANCH  53  76
BRANCH  65  86
ATOM     86  C   UNL A   1      49.457  37.086  27.877  1.00  0.00    -0.014 A 
ATOM     87  C   UNL A   1      49.371  36.207  26.785  1.00  0.00     0.010 A 
ATOM     88  C   UNL A   1      50.481  38.058  27.844  1.00  0.00     0.010 A 
ATOM     89  C   UNL A   1      50.354  36.182  25.794  1.00  0.00     0.020 A 
ATOM     90  C   UNL A   1      51.429  38.090  26.821  1.00  0.00     0.020 A 
ATOM     91  C   UNL A   1      51.394  37.108  25.836  1.00  0.00     0.054 A 
BRANCH  91  92
ATOM     92  S   UNL A   1      52.704  37.016  24.598  1.00  0.00     0.124 S 
ATOM     93  O   UNL A   1      53.646  36.100  25.234  1.00  0.00    -0.237 OA
ATOM     94  O   UNL A   1      52.011  36.487  23.425  1.00  0.00    -0.237 OA
ATOM     95  O   UNL A   1      53.158  38.398  24.475  1.00  0.00    -0.744 OA
ENDBRANCH  91  92
ENDBRANCH  65  86
ENDBRANCH  39  40
ENDBRANCH  32  34
ENDBRANCH  31  32
ENDBRANCH  30  31
ENDBRANCH  29  30
ENDBRANCH  28  29
ENDBRANCH   1  28
TORSDOF 24
ENDMDL
MODEL 3
REMARK VINA RESULT:      -9.8      7.318     13.287
REMARK SMILES Cc1cccc(O[C@H]2CC[C@@]([NH2+]C(C)C)(C(=O)OCCOCCOCCOC(=O)c3ccc(-c4c5nc(c(-c6ccc(S(=O)(=O)[O-])cc6)c6ccc([nH]6)c(-c6ccc(S(=O)(=O)[O-])cc6)c6nc(c(-c7ccc(S(=O)(=O)[O-])cc7)c7ccc4[nH]7)C=C6)C=C5)cc3)C2)c1
REMARK SMILES IDX 23 1 22 2 21 3 20 4 19 5 18 6 16 7 17 8 11 9 8 10 9 11 90 12
REMARK SMILES IDX 10 13 7 14 6 15 1 16 2 17 3 18 91 19 4 20 5 21 12 22 13 25
REMARK SMILES IDX 14 26 15 27 24 28 25 29 26 30 27 31 28 32 29 33 30 34 31 35
REMARK SMILES IDX 89 36 32 37 88 38 33 39 34 40 35 41 82 42 36 43 87 44 81 45
REMARK SMILES IDX 83 46 37 47 86 48 80 49 79 50 38 52 68 53 49 54 67 55 50 56
REMARK SMILES IDX 53 57 66 58 84 59 51 60 52 61 65 63 85 64 54 65 39 66 40 67
REMARK SMILES IDX 48 68 41 69 47 70 42 71 43 72 44 73 45 74 46 75 69 76 70 77
REMARK SMILES IDX 78 78 71 79 77 80 72 81 73 82 74 83 75 84 76 85 55 86 56 87
REMARK SMILES IDX 64 88 57 89 63 90 58 91 59 92 60 93 61 94 62 95
REMARK H PARENT 12 23 12 24 83 51 53 62
REMARK Flexibility Score: inf
ROOT
ATOM      1  C   UNL A   1      43.269  22.309  25.631  1.00  0.00     0.188 C 
ENDROOT
BRANCH   1   2
ATOM      2  C   UNL A   1      42.111  21.500  26.195  1.00  0.00     0.188 C 
BRANCH   2   3
ATOM      3  O   UNL A   1      40.724  21.759  25.844  1.00  0.00    -0.376 OA
BRANCH   3   4
ATOM      4  C   UNL A   1      39.613  22.351  26.603  1.00  0.00     0.202 C 
BRANCH   4   5
ATOM      5  C   UNL A   1      38.786  24.006  26.747  1.00  0.00     0.261 C 
BRANCH   5   6
ATOM      6  O   UNL A   1      39.404  25.675  27.098  1.00  0.00    -0.459 OA
BRANCH   6   7
ATOM      7  C   UNL A   1      39.781  26.552  28.277  1.00  0.00     0.368 C 
ATOM      8  O   UNL A   1      39.964  26.175  29.447  1.00  0.00    -0.245 OA
BRANCH   7   9
ATOM      9  C   UNL A   1      39.735  28.102  28.273  1.00  0.00     0.198 C 
ATOM     10  C   UNL A   1      41.954  29.309  28.672  1.00  0.00     0.180 C 
ATOM     11  C   UNL A   1      41.689  29.114  27.181  1.00  0.00     0.052 C 
ATOM     12  C   UNL A   1      40.727  28.698  29.355  1.00  0.00     0.126 C 
ATOM     13  C   UNL A   1      40.233  28.684  26.968  1.00  0.00     0.085 C 
BRANCH  10  14
ATOM     14  O   UNL A   1      43.137  28.715  29.233  1.00  0.00    -0.490 OA
BRANCH  14  15
ATOM     15  C   UNL A   1      44.221  29.464  29.608  1.00  0.00     0.119 A 
ATOM     16  C   UNL A   1      47.958  28.819  29.192  1.00  0.00     0.044 C 
ATOM     17  C   UNL A   1      46.666  29.501  29.556  1.00  0.00    -0.047 A 
ATOM     18  C   UNL A   1      46.638  30.882  29.747  1.00  0.00     0.003 A 
ATOM     19  C   UNL A   1      45.453  28.791  29.594  1.00  0.00     0.049 A 
ATOM     20  C   UNL A   1      45.421  31.535  29.937  1.00  0.00     0.004 A 
ATOM     21  C   UNL A   1      44.216  30.828  29.869  1.00  0.00     0.046 A 
ENDBRANCH  14  15
ENDBRANCH  10  14
BRANCH   9  22
ATOM     22  N   UNL A   1      38.328  28.567  28.660  1.00  0.00    -0.330 N 
ATOM     23  H   UNL A   1      38.347  28.787  29.656  1.00  0.00     0.347 HD
ATOM     24  H   UNL A   1      37.723  27.794  28.381  1.00  0.00     0.347 HD
BRANCH  22  25
ATOM     25  C   UNL A   1      37.743  29.762  27.953  1.00  0.00     0.176 C 
ATOM     26  C   UNL A   1      36.248  29.741  27.615  1.00  0.00     0.075 C 
ATOM     27  C   UNL A   1      38.028  31.017  28.798  1.00  0.00     0.075 C 
ENDBRANCH  22  25
ENDBRANCH   9  22
ENDBRANCH   7   9
ENDBRANCH   6   7
ENDBRANCH   5   6
ENDBRANCH   4   5
ENDBRANCH   3   4
ENDBRANCH   2   3
ENDBRANCH   1   2
BRANCH   1  28
ATOM     28  O   UNL A   1      42.750  23.501  25.096  1.00  0.00    -0.376 OA
BRANCH  28  29
ATOM     29  C   UNL A   1      43.686  24.456  24.674  1.00  0.00     0.202 C 
BRANCH  29  30
ATOM     30  C   UNL A   1      45.120  24.174  25.128  1.00  0.00     0.261 C 
BRANCH  30  31
ATOM     31  O   UNL A   1      45.804  25.347  25.628  1.00  0.00    -0.460 OA
BRANCH  31  32
ATOM     32  C   UNL A   1      46.898  25.183  26.464  1.00  0.00     0.338 C 
ATOM     33  O   UNL A   1      47.980  25.605  26.176  1.00  0.00    -0.246 OA
BRANCH  32  34
ATOM     34  C   UNL A   1      46.465  24.786  27.842  1.00  0.00     0.060 A 
ATOM     35  C   UNL A   1      45.358  24.043  28.265  1.00  0.00     0.016 A 
ATOM     36  C   UNL A   1      47.191  25.331  28.823  1.00  0.00     0.016 A 
ATOM     37  C   UNL A   1      44.845  23.994  29.645  1.00  0.00     0.010 A 
ATOM     38  C   UNL A   1      46.558  25.426  30.057  1.00  0.00     0.010 A 
ATOM     39  C   UNL A   1      45.365  24.806  30.648  1.00  0.00    -0.014 A 
BRANCH  39  40
ATOM     40  C   UNL A   1      44.707  25.055  32.319  1.00  0.00     0.031 A 
ATOM     41  C   UNL A   1      44.322  26.569  33.228  1.00  0.00     0.074 A 
ATOM     42  C   UNL A   1      44.445  24.016  33.151  1.00  0.00     0.049 A 
ATOM     43  N   UNL A   1      43.276  26.687  34.023  1.00  0.00    -0.248 NA
ATOM     44  C   UNL A   1      44.840  28.015  33.095  1.00  0.00     0.031 C 
ATOM     45  C   UNL A   1      43.380  23.987  34.162  1.00  0.00     0.029 A 
ATOM     46  N   UNL A   1      45.031  22.766  33.278  1.00  0.00    -0.354 N 
ATOM     47  C   UNL A   1      42.961  28.031  34.242  1.00  0.00     0.074 A 
ATOM     48  C   UNL A   1      43.908  28.831  33.573  1.00  0.00     0.031 C 
ATOM     49  C   UNL A   1      43.541  22.926  34.960  1.00  0.00     0.029 A 
ATOM     50  C   UNL A   1      44.807  22.338  34.598  1.00  0.00     0.049 A 
ATOM     51  H   UNL A   1      45.514  22.271  32.577  1.00  0.00     0.167 HD
ATOM     52  C   UNL A   1      42.008  28.461  35.102  1.00  0.00     0.031 A 
ATOM     53  C   UNL A   1      45.857  22.183  35.448  1.00  0.00     0.031 A 
ATOM     54  C   UNL A   1      41.980  27.540  36.203  1.00  0.00     0.049 A 
ATOM     55  C   UNL A   1      45.795  23.108  36.633  1.00  0.00     0.074 A 
ATOM     56  C   UNL A   1      41.258  26.399  36.465  1.00  0.00     0.029 A 
ATOM     57  N   UNL A   1      43.134  27.489  36.978  1.00  0.00    -0.354 N 
ATOM     58  N   UNL A   1      45.029  24.167  36.692  1.00  0.00    -0.248 NA
ATOM     59  C   UNL A   1      46.543  22.894  37.866  1.00  0.00     0.031 C 
ATOM     60  C   UNL A   1      42.103  25.561  37.251  1.00  0.00     0.029 A 
ATOM     61  C   UNL A   1      43.287  26.234  37.525  1.00  0.00     0.049 A 
ATOM     62  H   UNL A   1      43.752  28.244  37.117  1.00  0.00     0.167 HD
ATOM     63  C   UNL A   1      45.168  24.768  37.908  1.00  0.00     0.074 A 
ATOM     64  C   UNL A   1      46.122  23.930  38.613  1.00  0.00     0.031 C 
ATOM     65  C   UNL A   1      44.503  25.908  38.260  1.00  0.00     0.031 A 
BRANCH  52  66
ATOM     66  C   UNL A   1      41.179  29.717  34.935  1.00  0.00    -0.014 A 
ATOM     67  C   UNL A   1      40.779  30.428  36.082  1.00  0.00     0.010 A 
ATOM     68  C   UNL A   1      40.588  30.125  33.713  1.00  0.00     0.010 A 
ATOM     69  C   UNL A   1      39.816  31.454  36.028  1.00  0.00     0.020 A 
ATOM     70  C   UNL A   1      39.643  31.171  33.642  1.00  0.00     0.020 A 
ATOM     71  C   UNL A   1      39.240  31.810  34.810  1.00  0.00     0.054 A 
BRANCH  71  72
ATOM     72  S   UNL A   1      37.921  33.063  34.787  1.00  0.00     0.124 S 
ATOM     73  O   UNL A   1      36.742  32.268  34.452  1.00  0.00    -0.237 OA
ATOM     74  O   UNL A   1      37.957  33.592  36.148  1.00  0.00    -0.237 OA
ATOM     75  O   UNL A   1      38.346  34.001  33.749  1.00  0.00    -0.744 OA
ENDBRANCH  71  72
ENDBRANCH  52  66
BRANCH  53  76
ATOM     76  C   UNL A   1      47.030  21.557  34.767  1.00  0.00    -0.014 A 
ATOM     77  C   UNL A   1      48.177  22.384  34.728  1.00  0.00     0.010 A 
ATOM     78  C   UNL A   1      47.213  20.158  34.798  1.00  0.00     0.010 A 
ATOM     79  C   UNL A   1      49.448  21.857  34.958  1.00  0.00     0.020 A 
ATOM     80  C   UNL A   1      48.501  19.624  35.016  1.00  0.00     0.020 A 
ATOM     81  C   UNL A   1      49.595  20.489  35.170  1.00  0.00     0.054 A 
BRANCH  81  82
ATOM     82  S   UNL A   1      51.129  19.922  35.972  1.00  0.00     0.124 S 
ATOM     83  O   UNL A   1      51.792  21.166  36.337  1.00  0.00    -0.237 OA
ATOM     84  O   UNL A   1      50.671  19.095  37.086  1.00  0.00    -0.237 OA
ATOM     85  O   UNL A   1      51.764  19.153  34.918  1.00  0.00    -0.744 OA
ENDBRANCH  81  82
ENDBRANCH  53  76
BRANCH  65  86
ATOM     86  C   UNL A   1      44.941  26.774  39.411  1.00  0.00    -0.014 A 
ATOM     87  C   UNL A   1      44.413  26.638  40.705  1.00  0.00     0.010 A 
ATOM     88  C   UNL A   1      45.997  27.694  39.238  1.00  0.00     0.010 A 
ATOM     89  C   UNL A   1      44.796  27.494  41.739  1.00  0.00     0.020 A 
ATOM     90  C   UNL A   1      46.440  28.507  40.283  1.00  0.00     0.020 A 
ATOM     91  C   UNL A   1      45.789  28.443  41.511  1.00  0.00     0.054 A 
BRANCH  91  92
ATOM     92  S   UNL A   1      46.221  29.599  42.829  1.00  0.00     0.124 S 
ATOM     93  O   UNL A   1      46.390  30.844  42.084  1.00  0.00    -0.237 OA
ATOM     94  O   UNL A   1      45.053  29.548  43.706  1.00  0.00    -0.237 OA
ATOM     95  O   UNL A   1      47.443  29.034  43.394  1.00  0.00    -0.744 OA
ENDBRANCH  91  92
ENDBRANCH  65  86
ENDBRANCH  39  40
ENDBRANCH  32  34
ENDBRANCH  31  32
ENDBRANCH  30  31
ENDBRANCH  29  30
ENDBRANCH  28  29
ENDBRANCH   1  28
TORSDOF 24
ENDMDL
