MODEL 1
REMARK VINA RESULT:      -9.2      0.000      0.000
REMARK SMILES O=C(OCCOCCOCCOC(=O)c1cncc(Nc2cccnc2)n1)c1ccc(-c2c3nc(c(-c4ccc(S(=O)(=O)[O-])cc4)c4ccc([nH]4)c(-c4ccc(S(=O)(=O)[O-])cc4)c4nc(c(-c5ccc(S(=O)(=O)[O-])cc5)c5ccc2[nH]5)C=C4)C=C3)cc1
REMARK SMILES IDX 7 1 6 2 5 3 4 4 3 5 2 6 1 7 28 8 29 9 87 10 30 11 86 12
REMARK SMILES IDX 31 13 32 14 33 15 80 16 34 17 85 18 79 19 81 20 35 21 84 22
REMARK SMILES IDX 78 23 77 24 36 26 66 27 47 28 65 29 48 30 51 31 64 32 82 33
REMARK SMILES IDX 49 34 50 35 63 37 83 38 52 39 37 40 38 41 46 42 39 43 45 44
REMARK SMILES IDX 40 45 41 46 42 47 43 48 44 49 67 50 68 51 76 52 69 53 75 54
REMARK SMILES IDX 70 55 71 56 72 57 73 58 74 59 53 60 54 61 62 62 55 63 61 64
REMARK SMILES IDX 56 65 57 66 58 67 59 68 60 69 8 70 9 71 10 72 11 73 12 74
REMARK SMILES IDX 13 75 14 76 15 77 16 78 27 79 17 80 19 81 18 82 20 83 21 85
REMARK SMILES IDX 22 86 26 87 23 88 25 89 24 90
REMARK H PARENT 81 25 51 36 20 84
REMARK Flexibility Score: inf
ROOT
ATOM      1  C   UNL A   1      40.591  21.385  27.160  1.00  0.00     0.188 C 
ENDROOT
BRANCH   1   2
ATOM      2  O   UNL A   1      41.762  20.701  26.696  1.00  0.00    -0.376 OA
BRANCH   2   3
ATOM      3  C   UNL A   1      41.521  19.348  26.297  1.00  0.00     0.202 C 
BRANCH   3   4
ATOM      4  C   UNL A   1      42.780  18.555  25.917  1.00  0.00     0.261 C 
BRANCH   4   5
ATOM      5  O   UNL A   1      43.390  19.036  24.705  1.00  0.00    -0.460 OA
BRANCH   5   6
ATOM      6  C   UNL A   1      44.551  19.730  24.571  1.00  0.00     0.338 C 
ATOM      7  O   UNL A   1      45.545  19.136  24.157  1.00  0.00    -0.246 OA
BRANCH   6   8
ATOM      8  C   UNL A   1      44.685  21.190  24.870  1.00  0.00     0.060 A 
ATOM      9  C   UNL A   1      44.490  22.208  23.941  1.00  0.00     0.016 A 
ATOM     10  C   UNL A   1      44.987  21.559  26.194  1.00  0.00     0.016 A 
ATOM     11  C   UNL A   1      44.738  23.534  24.262  1.00  0.00     0.010 A 
ATOM     12  C   UNL A   1      45.153  22.905  26.548  1.00  0.00     0.010 A 
ATOM     13  C   UNL A   1      45.074  23.895  25.564  1.00  0.00    -0.014 A 
BRANCH  13  14
ATOM     14  C   UNL A   1      45.420  25.313  25.805  1.00  0.00     0.031 A 
ATOM     15  C   UNL A   1      44.370  26.233  26.354  1.00  0.00     0.074 A 
ATOM     16  C   UNL A   1      46.708  25.699  25.718  1.00  0.00     0.049 A 
ATOM     17  N   UNL A   1      44.489  27.474  26.742  1.00  0.00    -0.248 NA
ATOM     18  C   UNL A   1      43.017  25.675  26.522  1.00  0.00     0.031 C 
ATOM     19  C   UNL A   1      47.813  24.831  25.305  1.00  0.00     0.029 A 
ATOM     20  N   UNL A   1      47.319  26.886  26.021  1.00  0.00    -0.354 N 
ATOM     21  C   UNL A   1      43.231  27.845  27.200  1.00  0.00     0.074 A 
ATOM     22  C   UNL A   1      42.356  26.708  27.019  1.00  0.00     0.031 C 
ATOM     23  C   UNL A   1      48.969  25.503  25.412  1.00  0.00     0.029 A 
ATOM     24  C   UNL A   1      48.685  26.861  25.850  1.00  0.00     0.049 A 
ATOM     25  H   UNL A   1      46.829  27.682  26.331  1.00  0.00     0.167 HD
ATOM     26  C   UNL A   1      42.845  29.027  27.732  1.00  0.00     0.031 A 
ATOM     27  C   UNL A   1      49.602  27.832  26.015  1.00  0.00     0.031 A 
ATOM     28  C   UNL A   1      43.725  30.153  27.877  1.00  0.00     0.049 A 
ATOM     29  C   UNL A   1      49.124  29.170  26.504  1.00  0.00     0.074 A 
ATOM     30  C   UNL A   1      43.429  31.433  28.305  1.00  0.00     0.029 A 
ATOM     31  N   UNL A   1      45.084  30.126  27.596  1.00  0.00    -0.354 N 
ATOM     32  N   UNL A   1      47.913  29.524  26.870  1.00  0.00    -0.248 NA
ATOM     33  C   UNL A   1      50.125  30.239  26.602  1.00  0.00     0.031 C 
ATOM     34  C   UNL A   1      44.604  32.191  28.247  1.00  0.00     0.029 A 
ATOM     35  C   UNL A   1      45.640  31.370  27.830  1.00  0.00     0.049 A 
ATOM     36  H   UNL A   1      45.580  29.338  27.275  1.00  0.00     0.167 HD
ATOM     37  C   UNL A   1      48.007  30.858  27.244  1.00  0.00     0.074 A 
ATOM     38  C   UNL A   1      49.401  31.234  27.096  1.00  0.00     0.031 C 
ATOM     39  C   UNL A   1      47.032  31.703  27.662  1.00  0.00     0.031 A 
BRANCH  26  40
ATOM     40  C   UNL A   1      41.403  29.157  28.132  1.00  0.00    -0.014 A 
ATOM     41  C   UNL A   1      40.383  29.209  27.164  1.00  0.00     0.010 A 
ATOM     42  C   UNL A   1      41.062  29.252  29.492  1.00  0.00     0.010 A 
ATOM     43  C   UNL A   1      39.051  29.391  27.550  1.00  0.00     0.020 A 
ATOM     44  C   UNL A   1      39.730  29.414  29.883  1.00  0.00     0.020 A 
ATOM     45  C   UNL A   1      38.735  29.499  28.908  1.00  0.00     0.054 A 
BRANCH  45  46
ATOM     46  S   UNL A   1      37.000  29.739  29.382  1.00  0.00     0.124 S 
ATOM     47  O   UNL A   1      36.294  29.194  28.225  1.00  0.00    -0.237 OA
ATOM     48  O   UNL A   1      36.892  28.953  30.609  1.00  0.00    -0.237 OA
ATOM     49  O   UNL A   1      36.885  31.185  29.559  1.00  0.00    -0.744 OA
ENDBRANCH  45  46
ENDBRANCH  26  40
BRANCH  27  50
ATOM     50  C   UNL A   1      51.031  27.592  25.660  1.00  0.00    -0.014 A 
ATOM     51  C   UNL A   1      51.510  27.795  24.353  1.00  0.00     0.010 A 
ATOM     52  C   UNL A   1      51.928  27.134  26.644  1.00  0.00     0.010 A 
ATOM     53  C   UNL A   1      52.843  27.513  24.033  1.00  0.00     0.020 A 
ATOM     54  C   UNL A   1      53.268  26.883  26.338  1.00  0.00     0.020 A 
ATOM     55  C   UNL A   1      53.714  27.054  25.028  1.00  0.00     0.054 A 
BRANCH  55  56
ATOM     56  S   UNL A   1      55.441  26.703  24.597  1.00  0.00     0.124 S 
ATOM     57  O   UNL A   1      56.162  27.659  25.432  1.00  0.00    -0.237 OA
ATOM     58  O   UNL A   1      55.583  25.299  24.975  1.00  0.00    -0.237 OA
ATOM     59  O   UNL A   1      55.496  26.962  23.160  1.00  0.00    -0.744 OA
ENDBRANCH  55  56
ENDBRANCH  27  50
BRANCH  39  60
ATOM     60  C   UNL A   1      47.456  33.105  27.995  1.00  0.00    -0.014 A 
ATOM     61  C   UNL A   1      47.879  33.441  29.292  1.00  0.00     0.010 A 
ATOM     62  C   UNL A   1      47.457  34.086  26.989  1.00  0.00     0.010 A 
ATOM     63  C   UNL A   1      48.261  34.750  29.589  1.00  0.00     0.020 A 
ATOM     64  C   UNL A   1      47.864  35.390  27.275  1.00  0.00     0.020 A 
ATOM     65  C   UNL A   1      48.246  35.717  28.578  1.00  0.00     0.054 A 
BRANCH  65  66
ATOM     66  S   UNL A   1      48.773  37.405  28.976  1.00  0.00     0.124 S 
ATOM     67  O   UNL A   1      48.170  37.607  30.290  1.00  0.00    -0.237 OA
ATOM     68  O   UNL A   1      50.231  37.301  28.963  1.00  0.00    -0.237 OA
ATOM     69  O   UNL A   1      48.204  38.208  27.896  1.00  0.00    -0.744 OA
ENDBRANCH  65  66
ENDBRANCH  39  60
ENDBRANCH  13  14
ENDBRANCH   6   8
ENDBRANCH   5   6
ENDBRANCH   4   5
ENDBRANCH   3   4
ENDBRANCH   2   3
ENDBRANCH   1   2
BRANCH   1  70
ATOM     70  C   UNL A   1      39.930  22.200  26.045  1.00  0.00     0.188 C 
BRANCH  70  71
ATOM     71  O   UNL A   1      38.504  22.283  26.116  1.00  0.00    -0.376 OA
BRANCH  71  72
ATOM     72  C   UNL A   1      37.938  23.590  26.126  1.00  0.00     0.202 C 
BRANCH  72  73
ATOM     73  C   UNL A   1      36.409  23.680  26.082  1.00  0.00     0.261 C 
BRANCH  73  74
ATOM     74  O   UNL A   1      35.875  24.414  24.966  1.00  0.00    -0.458 OA
BRANCH  74  75
ATOM     75  C   UNL A   1      34.554  24.721  25.074  1.00  0.00     0.358 C 
ATOM     76  O   UNL A   1      34.056  25.554  25.816  1.00  0.00    -0.244 OA
BRANCH  75  77
ATOM     77  C   UNL A   1      33.727  23.804  24.271  1.00  0.00     0.169 A 
ATOM     78  C   UNL A   1      33.520  24.169  22.951  1.00  0.00     0.147 A 
ATOM     79  N   UNL A   1      33.360  22.592  24.788  1.00  0.00    -0.220 NA
ATOM     80  N   UNL A   1      32.914  23.345  22.076  1.00  0.00    -0.258 NA
ATOM     81  C   UNL A   1      32.791  21.735  23.902  1.00  0.00     0.149 A 
ATOM     82  C   UNL A   1      32.564  22.136  22.576  1.00  0.00     0.158 A 
BRANCH  81  83
ATOM     83  N   UNL A   1      32.427  20.460  24.356  1.00  0.00    -0.338 N 
ATOM     84  H   UNL A   1      31.698  20.445  25.016  1.00  0.00     0.168 HD
BRANCH  83  85
ATOM     85  C   UNL A   1      32.944  19.202  24.011  1.00  0.00     0.058 A 
ATOM     86  C   UNL A   1      34.012  18.614  24.696  1.00  0.00     0.029 A 
ATOM     87  C   UNL A   1      32.466  18.502  22.904  1.00  0.00     0.137 A 
ATOM     88  C   UNL A   1      34.568  17.415  24.251  1.00  0.00     0.022 A 
ATOM     89  N   UNL A   1      32.975  17.328  22.449  1.00  0.00    -0.263 NA
ATOM     90  C   UNL A   1      34.028  16.823  23.124  1.00  0.00     0.111 A 
ENDBRANCH  83  85
ENDBRANCH  81  83
ENDBRANCH  75  77
ENDBRANCH  74  75
ENDBRANCH  73  74
ENDBRANCH  72  73
ENDBRANCH  71  72
ENDBRANCH  70  71
ENDBRANCH   1  70
TORSDOF 22
ENDMDL
MODEL 2
REMARK VINA RESULT:      -9.2      6.536      9.088
REMARK SMILES O=C(OCCOCCOCCOC(=O)c1cncc(Nc2cccnc2)n1)c1ccc(-c2c3nc(c(-c4ccc(S(=O)(=O)[O-])cc4)c4ccc([nH]4)c(-c4ccc(S(=O)(=O)[O-])cc4)c4nc(c(-c5ccc(S(=O)(=O)[O-])cc5)c5ccc2[nH]5)C=C4)C=C3)cc1
REMARK SMILES IDX 7 1 6 2 5 3 4 4 3 5 2 6 1 7 28 8 29 9 87 10 30 11 86 12
REMARK SMILES IDX 31 13 32 14 33 15 80 16 34 17 85 18 79 19 81 20 35 21 84 22
REMARK SMILES IDX 78 23 77 24 36 26 66 27 47 28 65 29 48 30 51 31 64 32 82 33
REMARK SMILES IDX 49 34 50 35 63 37 83 38 52 39 37 40 38 41 46 42 39 43 45 44
REMARK SMILES IDX 40 45 41 46 42 47 43 48 44 49 67 50 68 51 76 52 69 53 75 54
REMARK SMILES IDX 70 55 71 56 72 57 73 58 74 59 53 60 54 61 62 62 55 63 61 64
REMARK SMILES IDX 56 65 57 66 58 67 59 68 60 69 8 70 9 71 10 72 11 73 12 74
REMARK SMILES IDX 13 75 14 76 15 77 16 78 27 79 17 80 19 81 18 82 20 83 21 85
REMARK SMILES IDX 22 86 26 87 23 88 25 89 24 90
REMARK H PARENT 81 25 51 36 20 84
REMARK Flexibility Score: inf
ROOT
ATOM      1  C   UNL A   1      42.551  20.092  26.091  1.00  0.00     0.188 C 
ENDROOT
BRANCH   1   2
ATOM      2  O   UNL A   1      42.941  21.293  26.768  1.00  0.00    -0.376 OA
BRANCH   2   3
ATOM      3  C   UNL A   1      43.756  22.165  25.978  1.00  0.00     0.202 C 
BRANCH   3   4
ATOM      4  C   UNL A   1      43.786  23.625  26.452  1.00  0.00     0.261 C 
BRANCH   4   5
ATOM      5  O   UNL A   1      42.537  24.303  26.228  1.00  0.00    -0.460 OA
BRANCH   5   6
ATOM      6  C   UNL A   1      42.330  25.632  26.028  1.00  0.00     0.338 C 
ATOM      7  O   UNL A   1      42.381  26.068  24.878  1.00  0.00    -0.246 OA
BRANCH   6   8
ATOM      8  C   UNL A   1      42.011  26.597  27.126  1.00  0.00     0.060 A 
ATOM      9  C   UNL A   1      42.384  27.938  27.132  1.00  0.00     0.016 A 
ATOM     10  C   UNL A   1      41.243  26.125  28.206  1.00  0.00     0.016 A 
ATOM     11  C   UNL A   1      42.148  28.747  28.234  1.00  0.00     0.010 A 
ATOM     12  C   UNL A   1      40.923  26.960  29.285  1.00  0.00     0.010 A 
ATOM     13  C   UNL A   1      41.419  28.267  29.320  1.00  0.00    -0.014 A 
BRANCH  13  14
ATOM     14  C   UNL A   1      41.295  29.155  30.496  1.00  0.00     0.031 A 
ATOM     15  C   UNL A   1      40.173  30.148  30.540  1.00  0.00     0.074 A 
ATOM     16  C   UNL A   1      42.061  28.921  31.580  1.00  0.00     0.049 A 
ATOM     17  N   UNL A   1      39.814  30.939  31.516  1.00  0.00    -0.248 NA
ATOM     18  C   UNL A   1      39.319  30.242  29.343  1.00  0.00     0.031 C 
ATOM     19  C   UNL A   1      43.098  27.890  31.661  1.00  0.00     0.029 A 
ATOM     20  N   UNL A   1      42.055  29.479  32.829  1.00  0.00    -0.354 N 
ATOM     21  C   UNL A   1      38.696  31.621  31.053  1.00  0.00     0.074 A 
ATOM     22  C   UNL A   1      38.448  31.173  29.701  1.00  0.00     0.031 C 
ATOM     23  C   UNL A   1      43.606  27.869  32.903  1.00  0.00     0.029 A 
ATOM     24  C   UNL A   1      42.969  28.914  33.690  1.00  0.00     0.049 A 
ATOM     25  H   UNL A   1      41.455  30.216  33.088  1.00  0.00     0.167 HD
ATOM     26  C   UNL A   1      37.940  32.533  31.705  1.00  0.00     0.031 A 
ATOM     27  C   UNL A   1      43.268  29.217  34.967  1.00  0.00     0.031 A 
ATOM     28  C   UNL A   1      38.220  32.986  33.039  1.00  0.00     0.049 A 
ATOM     29  C   UNL A   1      42.481  30.313  35.629  1.00  0.00     0.074 A 
ATOM     30  C   UNL A   1      37.591  33.977  33.767  1.00  0.00     0.029 A 
ATOM     31  N   UNL A   1      39.221  32.464  33.848  1.00  0.00    -0.354 N 
ATOM     32  N   UNL A   1      41.466  30.996  35.151  1.00  0.00    -0.248 NA
ATOM     33  C   UNL A   1      42.874  30.683  36.993  1.00  0.00     0.031 C 
ATOM     34  C   UNL A   1      38.237  34.081  35.004  1.00  0.00     0.029 A 
ATOM     35  C   UNL A   1      39.236  33.121  35.065  1.00  0.00     0.049 A 
ATOM     36  H   UNL A   1      39.832  31.735  33.593  1.00  0.00     0.167 HD
ATOM     37  C   UNL A   1      41.097  31.878  36.159  1.00  0.00     0.074 A 
ATOM     38  C   UNL A   1      41.973  31.612  37.284  1.00  0.00     0.031 C 
ATOM     39  C   UNL A   1      40.131  32.829  36.155  1.00  0.00     0.031 A 
BRANCH  26  40
ATOM     40  C   UNL A   1      36.786  33.128  30.948  1.00  0.00    -0.014 A 
ATOM     41  C   UNL A   1      36.999  33.993  29.859  1.00  0.00     0.010 A 
ATOM     42  C   UNL A   1      35.468  32.838  31.345  1.00  0.00     0.010 A 
ATOM     43  C   UNL A   1      35.915  34.586  29.204  1.00  0.00     0.020 A 
ATOM     44  C   UNL A   1      34.382  33.413  30.680  1.00  0.00     0.020 A 
ATOM     45  C   UNL A   1      34.613  34.297  29.624  1.00  0.00     0.054 A 
BRANCH  45  46
ATOM     46  S   UNL A   1      33.225  35.081  28.760  1.00  0.00     0.124 S 
ATOM     47  O   UNL A   1      33.895  36.145  28.017  1.00  0.00    -0.237 OA
ATOM     48  O   UNL A   1      32.693  33.989  27.948  1.00  0.00    -0.237 OA
ATOM     49  O   UNL A   1      32.352  35.531  29.842  1.00  0.00    -0.744 OA
ENDBRANCH  45  46
ENDBRANCH  26  40
BRANCH  27  50
ATOM     50  C   UNL A   1      44.387  28.523  35.668  1.00  0.00    -0.014 A 
ATOM     51  C   UNL A   1      44.184  27.324  36.374  1.00  0.00     0.010 A 
ATOM     52  C   UNL A   1      45.680  29.081  35.643  1.00  0.00     0.010 A 
ATOM     53  C   UNL A   1      45.241  26.720  37.067  1.00  0.00     0.020 A 
ATOM     54  C   UNL A   1      46.745  28.465  36.305  1.00  0.00     0.020 A 
ATOM     55  C   UNL A   1      46.514  27.298  37.031  1.00  0.00     0.054 A 
BRANCH  55  56
ATOM     56  S   UNL A   1      47.873  26.495  37.926  1.00  0.00     0.124 S 
ATOM     57  O   UNL A   1      49.017  26.786  37.066  1.00  0.00    -0.237 OA
ATOM     58  O   UNL A   1      47.857  27.186  39.213  1.00  0.00    -0.237 OA
ATOM     59  O   UNL A   1      47.471  25.091  37.976  1.00  0.00    -0.744 OA
ENDBRANCH  55  56
ENDBRANCH  27  50
BRANCH  39  60
ATOM     60  C   UNL A   1      39.976  33.633  37.414  1.00  0.00    -0.014 A 
ATOM     61  C   UNL A   1      40.597  34.887  37.549  1.00  0.00     0.010 A 
ATOM     62  C   UNL A   1      39.176  33.139  38.459  1.00  0.00     0.010 A 
ATOM     63  C   UNL A   1      40.451  35.619  38.728  1.00  0.00     0.020 A 
ATOM     64  C   UNL A   1      39.007  33.881  39.629  1.00  0.00     0.020 A 
ATOM     65  C   UNL A   1      39.661  35.108  39.763  1.00  0.00     0.054 A 
BRANCH  65  66
ATOM     66  S   UNL A   1      39.461  36.087  41.275  1.00  0.00     0.124 S 
ATOM     67  O   UNL A   1      38.090  35.767  41.662  1.00  0.00    -0.237 OA
ATOM     68  O   UNL A   1      40.502  35.548  42.149  1.00  0.00    -0.237 OA
ATOM     69  O   UNL A   1      39.681  37.460  40.829  1.00  0.00    -0.744 OA
ENDBRANCH  65  66
ENDBRANCH  39  60
ENDBRANCH  13  14
ENDBRANCH   6   8
ENDBRANCH   5   6
ENDBRANCH   4   5
ENDBRANCH   3   4
ENDBRANCH   2   3
ENDBRANCH   1   2
BRANCH   1  70
ATOM     70  C   UNL A   1      41.065  19.785  26.290  1.00  0.00     0.188 C 
BRANCH  70  71
ATOM     71  O   UNL A   1      40.372  20.674  27.169  1.00  0.00    -0.376 OA
BRANCH  71  72
ATOM     72  C   UNL A   1      39.766  21.819  26.577  1.00  0.00     0.202 C 
BRANCH  72  73
ATOM     73  C   UNL A   1      38.556  21.568  25.671  1.00  0.00     0.261 C 
BRANCH  73  74
ATOM     74  O   UNL A   1      37.689  22.702  25.487  1.00  0.00    -0.458 OA
BRANCH  74  75
ATOM     75  C   UNL A   1      36.634  22.475  24.659  1.00  0.00     0.358 C 
ATOM     76  O   UNL A   1      36.646  22.499  23.438  1.00  0.00    -0.244 OA
BRANCH  75  77
ATOM     77  C   UNL A   1      35.382  22.331  25.420  1.00  0.00     0.169 A 
ATOM     78  C   UNL A   1      34.884  23.487  25.998  1.00  0.00     0.147 A 
ATOM     79  N   UNL A   1      34.695  21.148  25.379  1.00  0.00    -0.220 NA
ATOM     80  N   UNL A   1      33.674  23.519  26.588  1.00  0.00    -0.258 NA
ATOM     81  C   UNL A   1      33.454  21.182  25.928  1.00  0.00     0.149 A 
ATOM     82  C   UNL A   1      32.980  22.356  26.535  1.00  0.00     0.158 A 
BRANCH  81  83
ATOM     83  N   UNL A   1      32.679  20.015  25.884  1.00  0.00    -0.338 N 
ATOM     84  H   UNL A   1      31.856  20.040  26.424  1.00  0.00     0.168 HD
BRANCH  83  85
ATOM     85  C   UNL A   1      32.898  18.817  25.188  1.00  0.00     0.058 A 
ATOM     86  C   UNL A   1      33.019  18.768  23.795  1.00  0.00     0.029 A 
ATOM     87  C   UNL A   1      32.924  17.590  25.848  1.00  0.00     0.137 A 
ATOM     88  C   UNL A   1      33.123  17.545  23.133  1.00  0.00     0.022 A 
ATOM     89  N   UNL A   1      33.034  16.382  25.238  1.00  0.00    -0.263 NA
ATOM     90  C   UNL A   1      33.112  16.388  23.892  1.00  0.00     0.111 A 
ENDBRANCH  83  85
ENDBRANCH  81  83
ENDBRANCH  75  77
ENDBRANCH  74  75
ENDBRANCH  73  74
ENDBRANCH  72  73
ENDBRANCH  71  72
ENDBRANCH  70  71
ENDBRANCH   1  70
TORSDOF 22
ENDMDL
MODEL 3
REMARK VINA RESULT:      -9.1      3.809      6.244
REMARK SMILES O=C(OCCOCCOCCOC(=O)c1cncc(Nc2cccnc2)n1)c1ccc(-c2c3nc(c(-c4ccc(S(=O)(=O)[O-])cc4)c4ccc([nH]4)c(-c4ccc(S(=O)(=O)[O-])cc4)c4nc(c(-c5ccc(S(=O)(=O)[O-])cc5)c5ccc2[nH]5)C=C4)C=C3)cc1
REMARK SMILES IDX 7 1 6 2 5 3 4 4 3 5 2 6 1 7 28 8 29 9 87 10 30 11 86 12
REMARK SMILES IDX 31 13 32 14 33 15 80 16 34 17 85 18 79 19 81 20 35 21 84 22
REMARK SMILES IDX 78 23 77 24 36 26 66 27 47 28 65 29 48 30 51 31 64 32 82 33
REMARK SMILES IDX 49 34 50 35 63 37 83 38 52 39 37 40 38 41 46 42 39 43 45 44
REMARK SMILES IDX 40 45 41 46 42 47 43 48 44 49 67 50 68 51 76 52 69 53 75 54
REMARK SMILES IDX 70 55 71 56 72 57 73 58 74 59 53 60 54 61 62 62 55 63 61 64
REMARK SMILES IDX 56 65 57 66 58 67 59 68 60 69 8 70 9 71 10 72 11 73 12 74
REMARK SMILES IDX 13 75 14 76 15 77 16 78 27 79 17 80 19 81 18 82 20 83 21 85
REMARK SMILES IDX 22 86 26 87 23 88 25 89 24 90
REMARK H PARENT 81 25 51 36 20 84
REMARK Flexibility Score: inf
ROOT
ATOM      1  C   UNL A   1      34.349  24.954  25.154  1.00  0.00     0.188 C 
ENDROOT
BRANCH   1   2
ATOM      2  O   UNL A   1      34.301  23.523  25.094  1.00  0.00    -0.376 OA
BRANCH   2   3
ATOM      3  C   UNL A   1      35.307  22.878  25.882  1.00  0.00     0.202 C 
BRANCH   3   4
ATOM      4  C   UNL A   1      36.746  23.084  25.384  1.00  0.00     0.261 C 
BRANCH   4   5
ATOM      5  O   UNL A   1      37.725  22.554  26.296  1.00  0.00    -0.460 OA
BRANCH   5   6
ATOM      6  C   UNL A   1      39.055  22.831  26.349  1.00  0.00     0.338 C 
ATOM      7  O   UNL A   1      39.851  21.949  26.029  1.00  0.00    -0.246 OA
BRANCH   6   8
ATOM      8  C   UNL A   1      39.611  24.162  26.745  1.00  0.00     0.060 A 
ATOM      9  C   UNL A   1      40.125  25.101  25.854  1.00  0.00     0.016 A 
ATOM     10  C   UNL A   1      39.570  24.506  28.109  1.00  0.00     0.016 A 
ATOM     11  C   UNL A   1      40.723  26.268  26.303  1.00  0.00     0.010 A 
ATOM     12  C   UNL A   1      40.094  25.725  28.562  1.00  0.00     0.010 A 
ATOM     13  C   UNL A   1      40.716  26.591  27.658  1.00  0.00    -0.014 A 
BRANCH  13  14
ATOM     14  C   UNL A   1      41.459  27.802  28.070  1.00  0.00     0.031 A 
ATOM     15  C   UNL A   1      40.705  28.940  28.689  1.00  0.00     0.074 A 
ATOM     16  C   UNL A   1      42.806  27.779  28.065  1.00  0.00     0.049 A 
ATOM     17  N   UNL A   1      41.170  30.039  29.220  1.00  0.00    -0.248 NA
ATOM     18  C   UNL A   1      39.239  28.813  28.752  1.00  0.00     0.031 C 
ATOM     19  C   UNL A   1      43.620  26.658  27.589  1.00  0.00     0.029 A 
ATOM     20  N   UNL A   1      43.728  28.683  28.519  1.00  0.00    -0.354 N 
ATOM     21  C   UNL A   1      40.056  30.732  29.680  1.00  0.00     0.074 A 
ATOM     22  C   UNL A   1      38.891  29.945  29.345  1.00  0.00     0.031 C 
ATOM     23  C   UNL A   1      44.916  26.927  27.805  1.00  0.00     0.029 A 
ATOM     24  C   UNL A   1      45.030  28.256  28.387  1.00  0.00     0.049 A 
ATOM     25  H   UNL A   1      43.484  29.556  28.904  1.00  0.00     0.167 HD
ATOM     26  C   UNL A   1      40.015  31.916  30.332  1.00  0.00     0.031 A 
ATOM     27  C   UNL A   1      46.186  28.876  28.689  1.00  0.00     0.031 A 
ATOM     28  C   UNL A   1      41.183  32.696  30.631  1.00  0.00     0.049 A 
ATOM     29  C   UNL A   1      46.106  30.240  29.313  1.00  0.00     0.074 A 
ATOM     30  C   UNL A   1      41.262  33.956  31.194  1.00  0.00     0.029 A 
ATOM     31  N   UNL A   1      42.485  32.280  30.389  1.00  0.00    -0.354 N 
ATOM     32  N   UNL A   1      45.039  30.911  29.682  1.00  0.00    -0.248 NA
ATOM     33  C   UNL A   1      47.375  30.933  29.562  1.00  0.00     0.031 C 
ATOM     34  C   UNL A   1      42.613  34.317  31.257  1.00  0.00     0.029 A 
ATOM     35  C   UNL A   1      43.376  33.262  30.780  1.00  0.00     0.049 A 
ATOM     36  H   UNL A   1      42.738  31.414  29.995  1.00  0.00     0.167 HD
ATOM     37  C   UNL A   1      45.509  32.107  30.209  1.00  0.00     0.074 A 
ATOM     38  C   UNL A   1      46.957  32.048  30.146  1.00  0.00     0.031 C 
ATOM     39  C   UNL A   1      44.811  33.165  30.692  1.00  0.00     0.031 A 
BRANCH  26  40
ATOM     40  C   UNL A   1      38.657  32.443  30.702  1.00  0.00    -0.014 A 
ATOM     41  C   UNL A   1      38.045  32.086  31.917  1.00  0.00     0.010 A 
ATOM     42  C   UNL A   1      37.972  33.290  29.812  1.00  0.00     0.010 A 
ATOM     43  C   UNL A   1      36.756  32.537  32.219  1.00  0.00     0.020 A 
ATOM     44  C   UNL A   1      36.692  33.759  30.119  1.00  0.00     0.020 A 
ATOM     45  C   UNL A   1      36.085  33.365  31.314  1.00  0.00     0.054 A 
BRANCH  45  46
ATOM     46  S   UNL A   1      34.413  33.933  31.728  1.00  0.00     0.124 S 
ATOM     47  O   UNL A   1      33.824  34.124  30.404  1.00  0.00    -0.237 OA
ATOM     48  O   UNL A   1      33.875  32.815  32.498  1.00  0.00    -0.237 OA
ATOM     49  O   UNL A   1      34.642  35.159  32.491  1.00  0.00    -0.744 OA
ENDBRANCH  45  46
ENDBRANCH  26  40
BRANCH  27  50
ATOM     50  C   UNL A   1      47.495  28.244  28.351  1.00  0.00    -0.014 A 
ATOM     51  C   UNL A   1      48.107  28.441  27.100  1.00  0.00     0.010 A 
ATOM     52  C   UNL A   1      48.134  27.413  29.292  1.00  0.00     0.010 A 
ATOM     53  C   UNL A   1      49.309  27.795  26.788  1.00  0.00     0.020 A 
ATOM     54  C   UNL A   1      49.350  26.793  28.998  1.00  0.00     0.020 A 
ATOM     55  C   UNL A   1      49.921  26.971  27.739  1.00  0.00     0.054 A 
BRANCH  55  56
ATOM     56  S   UNL A   1      51.485  26.150  27.320  1.00  0.00     0.124 S 
ATOM     57  O   UNL A   1      51.054  24.772  27.100  1.00  0.00    -0.237 OA
ATOM     58  O   UNL A   1      51.914  26.877  26.128  1.00  0.00    -0.237 OA
ATOM     59  O   UNL A   1      52.314  26.364  28.504  1.00  0.00    -0.744 OA
ENDBRANCH  55  56
ENDBRANCH  27  50
BRANCH  39  60
ATOM     60  C   UNL A   1      45.618  34.328  31.195  1.00  0.00    -0.014 A 
ATOM     61  C   UNL A   1      46.030  34.392  32.537  1.00  0.00     0.010 A 
ATOM     62  C   UNL A   1      45.991  35.350  30.305  1.00  0.00     0.010 A 
ATOM     63  C   UNL A   1      46.772  35.483  32.992  1.00  0.00     0.020 A 
ATOM     64  C   UNL A   1      46.754  36.430  30.751  1.00  0.00     0.020 A 
ATOM     65  C   UNL A   1      47.124  36.497  32.096  1.00  0.00     0.054 A 
BRANCH  65  66
ATOM     66  S   UNL A   1      48.112  37.892  32.700  1.00  0.00     0.124 S 
ATOM     67  O   UNL A   1      49.472  37.445  32.414  1.00  0.00    -0.237 OA
ATOM     68  O   UNL A   1      47.631  39.006  31.884  1.00  0.00    -0.237 OA
ATOM     69  O   UNL A   1      47.765  37.972  34.117  1.00  0.00    -0.744 OA
ENDBRANCH  65  66
ENDBRANCH  39  60
ENDBRANCH  13  14
ENDBRANCH   6   8
ENDBRANCH   5   6
ENDBRANCH   4   5
ENDBRANCH   3   4
ENDBRANCH   2   3
ENDBRANCH   1   2
BRANCH   1  70
ATOM     70  C   UNL A   1      34.069  25.589  23.790  1.00  0.00     0.188 C 
BRANCH  70  71
ATOM     71  O   UNL A   1      33.822  24.664  22.727  1.00  0.00    -0.376 OA
BRANCH  71  72
ATOM     72  C   UNL A   1      32.495  24.621  22.211  1.00  0.00     0.202 C 
BRANCH  72  73
ATOM     73  C   UNL A   1      31.425  23.991  23.110  1.00  0.00     0.261 C 
BRANCH  73  74
ATOM     74  O   UNL A   1      30.408  24.898  23.570  1.00  0.00    -0.458 OA
BRANCH  74  75
ATOM     75  C   UNL A   1      30.637  25.422  24.804  1.00  0.00     0.358 C 
ATOM     76  O   UNL A   1      30.520  24.847  25.875  1.00  0.00    -0.244 OA
BRANCH  75  77
ATOM     77  C   UNL A   1      30.917  26.866  24.725  1.00  0.00     0.169 A 
ATOM     78  C   UNL A   1      30.454  27.516  23.593  1.00  0.00     0.147 A 
ATOM     79  N   UNL A   1      31.445  27.515  25.808  1.00  0.00    -0.220 NA
ATOM     80  N   UNL A   1      30.512  28.855  23.472  1.00  0.00    -0.258 NA
ATOM     81  C   UNL A   1      31.464  28.870  25.717  1.00  0.00     0.149 A 
ATOM     82  C   UNL A   1      31.016  29.506  24.548  1.00  0.00     0.158 A 
BRANCH  81  83
ATOM     83  N   UNL A   1      31.954  29.600  26.808  1.00  0.00    -0.338 N 
ATOM     84  H   UNL A   1      31.275  29.868  27.468  1.00  0.00     0.168 HD
BRANCH  83  85
ATOM     85  C   UNL A   1      33.264  30.004  27.102  1.00  0.00     0.058 A 
ATOM     86  C   UNL A   1      34.345  29.117  27.094  1.00  0.00     0.029 A 
ATOM     87  C   UNL A   1      33.547  31.309  27.502  1.00  0.00     0.137 A 
ATOM     88  C   UNL A   1      35.611  29.534  27.502  1.00  0.00     0.022 A 
ATOM     89  N   UNL A   1      34.768  31.754  27.895  1.00  0.00    -0.263 NA
ATOM     90  C   UNL A   1      35.768  30.849  27.904  1.00  0.00     0.111 A 
ENDBRANCH  83  85
ENDBRANCH  81  83
ENDBRANCH  75  77
ENDBRANCH  74  75
ENDBRANCH  73  74
ENDBRANCH  72  73
ENDBRANCH  71  72
ENDBRANCH  70  71
ENDBRANCH   1  70
TORSDOF 22
ENDMDL
