MODEL 1
REMARK VINA RESULT:     -10.0      0.000      0.000
REMARK SMILES CCc1cc(C(=O)c2[nH]c3cc(Cl)ccc3c2CC(=O)OCCOCCOCCOC(=O)c2ccc(-c3c4nc(c(-c5ccc(S(=O)(=O)[O-])cc5)c5ccc([nH]5)c(-c5ccc(S(=O)(=O)[O-])cc5)c5nc(c(-c6ccc(S(=O)(=O)[O-])cc6)c6ccc3[nH]6)C=C5)C=C4)cc2)ncc1Cl
REMARK SMILES IDX 25 1 24 2 23 3 22 4 21 5 19 6 20 7 18 8 17 9 8 10 9 11 10 12
REMARK SMILES IDX 16 14 11 15 15 16 12 17 14 18 13 19 6 20 7 21 5 22 3 23 4 24
REMARK SMILES IDX 95 25 94 26 96 27 93 28 2 29 1 30 26 31 27 32 28 33 29 34
REMARK SMILES IDX 30 35 31 36 32 37 33 38 34 39 92 40 35 41 91 42 36 43 37 44
REMARK SMILES IDX 38 45 85 46 39 47 90 48 84 49 86 50 40 51 89 52 83 53 82 54
REMARK SMILES IDX 41 56 71 57 52 58 70 59 53 60 56 61 69 62 87 63 54 64 55 65
REMARK SMILES IDX 68 67 88 68 57 69 42 70 43 71 51 72 44 73 50 74 45 75 46 76
REMARK SMILES IDX 47 77 48 78 49 79 72 80 73 81 81 82 74 83 80 84 75 85 76 86
REMARK SMILES IDX 77 87 78 88 79 89 58 90 59 91 67 92 60 93 66 94 61 95 62 96
REMARK SMILES IDX 63 97 64 98 65 99
REMARK H PARENT 9 13 86 55 56 66
REMARK Flexibility Score: inf
ROOT
ATOM      1  C   UNL A   1      33.011  29.338  25.399  1.00  0.00     0.188 C 
ENDROOT
BRANCH   1   2
ATOM      2  O   UNL A   1      33.700  28.132  25.102  1.00  0.00    -0.376 OA
BRANCH   2   3
ATOM      3  C   UNL A   1      33.647  27.085  26.060  1.00  0.00     0.202 C 
BRANCH   3   4
ATOM      4  C   UNL A   1      33.878  25.671  25.522  1.00  0.00     0.261 C 
BRANCH   4   5
ATOM      5  O   UNL A   1      33.312  24.648  26.376  1.00  0.00    -0.463 OA
BRANCH   5   6
ATOM      6  C   UNL A   1      32.016  24.334  26.122  1.00  0.00     0.310 C 
ATOM      7  O   UNL A   1      31.114  24.507  26.941  1.00  0.00    -0.252 OA
BRANCH   6   8
ATOM      8  C   UNL A   1      31.700  23.778  24.746  1.00  0.00     0.161 C 
BRANCH   8   9
ATOM      9  C   UNL A   1      31.563  24.684  23.540  1.00  0.00     0.000 A 
ATOM     10  C   UNL A   1      32.267  24.612  22.329  1.00  0.00     0.093 A 
ATOM     11  N   UNL A   1      31.789  25.623  21.526  1.00  0.00    -0.351 N 
ATOM     12  C   UNL A   1      31.110  26.541  22.282  1.00  0.00     0.048 A 
ATOM     13  H   UNL A   1      31.916  25.676  20.550  1.00  0.00     0.167 HD
ATOM     14  C   UNL A   1      30.917  25.970  23.538  1.00  0.00     0.004 A 
ATOM     15  C   UNL A   1      30.686  27.835  21.951  1.00  0.00     0.047 A 
ATOM     16  C   UNL A   1      30.262  26.735  24.524  1.00  0.00     0.012 A 
ATOM     17  C   UNL A   1      30.093  28.587  22.965  1.00  0.00     0.043 A 
ATOM     18  C   UNL A   1      29.878  28.052  24.233  1.00  0.00     0.021 A 
ATOM     19  Cl  UNL A   1      29.651  30.222  22.649  1.00  0.00    -0.084 Cl
BRANCH  10  20
ATOM     20  C   UNL A   1      33.303  23.677  21.927  1.00  0.00     0.227 C 
ATOM     21  O   UNL A   1      33.395  23.243  20.780  1.00  0.00    -0.285 OA
BRANCH  20  22
ATOM     22  C   UNL A   1      34.289  23.194  22.939  1.00  0.00     0.113 A 
ATOM     23  C   UNL A   1      34.953  21.689  24.706  1.00  0.00    -0.026 A 
ATOM     24  C   UNL A   1      33.951  22.210  23.860  1.00  0.00     0.037 A 
ATOM     25  C   UNL A   1      36.270  22.135  24.518  1.00  0.00     0.062 A 
ATOM     26  C   UNL A   1      36.496  23.151  23.601  1.00  0.00     0.132 A 
ATOM     27  Cl  UNL A   1      37.625  21.476  25.350  1.00  0.00    -0.082 Cl
ATOM     28  N   UNL A   1      35.529  23.720  22.843  1.00  0.00    -0.251 NA
BRANCH  23  29
ATOM     29  C   UNL A   1      34.589  20.654  25.748  1.00  0.00     0.034 C 
ATOM     30  C   UNL A   1      34.069  21.282  27.038  1.00  0.00     0.009 C 
ENDBRANCH  23  29
ENDBRANCH  20  22
ENDBRANCH  10  20
ENDBRANCH   8   9
ENDBRANCH   6   8
ENDBRANCH   5   6
ENDBRANCH   4   5
ENDBRANCH   3   4
ENDBRANCH   2   3
ENDBRANCH   1   2
BRANCH   1  31
ATOM     31  C   UNL A   1      32.049  29.369  26.608  1.00  0.00     0.188 C 
BRANCH  31  32
ATOM     32  O   UNL A   1      31.776  30.604  27.257  1.00  0.00    -0.376 OA
BRANCH  32  33
ATOM     33  C   UNL A   1      32.647  31.691  26.974  1.00  0.00     0.202 C 
BRANCH  33  34
ATOM     34  C   UNL A   1      32.118  33.058  27.397  1.00  0.00     0.261 C 
BRANCH  34  35
ATOM     35  O   UNL A   1      33.196  33.987  27.611  1.00  0.00    -0.460 OA
BRANCH  35  36
ATOM     36  C   UNL A   1      33.533  34.152  28.912  1.00  0.00     0.338 C 
ATOM     37  O   UNL A   1      32.933  34.820  29.737  1.00  0.00    -0.246 OA
BRANCH  36  38
ATOM     38  C   UNL A   1      34.767  33.417  29.253  1.00  0.00     0.060 A 
ATOM     39  C   UNL A   1      34.737  32.347  30.144  1.00  0.00     0.016 A 
ATOM     40  C   UNL A   1      35.989  33.974  28.889  1.00  0.00     0.016 A 
ATOM     41  C   UNL A   1      35.903  31.937  30.795  1.00  0.00     0.010 A 
ATOM     42  C   UNL A   1      37.170  33.491  29.463  1.00  0.00     0.010 A 
ATOM     43  C   UNL A   1      37.136  32.512  30.471  1.00  0.00    -0.014 A 
BRANCH  43  44
ATOM     44  C   UNL A   1      38.380  32.157  31.210  1.00  0.00     0.031 A 
ATOM     45  C   UNL A   1      39.268  31.046  30.699  1.00  0.00     0.074 A 
ATOM     46  C   UNL A   1      38.722  32.809  32.338  1.00  0.00     0.049 A 
ATOM     47  N   UNL A   1      40.251  30.426  31.302  1.00  0.00    -0.248 NA
ATOM     48  C   UNL A   1      39.021  30.576  29.325  1.00  0.00     0.031 C 
ATOM     49  C   UNL A   1      38.032  33.975  32.893  1.00  0.00     0.029 A 
ATOM     50  N   UNL A   1      39.732  32.565  33.240  1.00  0.00    -0.354 N 
ATOM     51  C   UNL A   1      40.714  29.474  30.399  1.00  0.00     0.074 A 
ATOM     52  C   UNL A   1      39.904  29.594  29.206  1.00  0.00     0.031 C 
ATOM     53  C   UNL A   1      38.630  34.340  34.036  1.00  0.00     0.029 A 
ATOM     54  C   UNL A   1      39.674  33.373  34.352  1.00  0.00     0.049 A 
ATOM     55  H   UNL A   1      40.427  31.880  33.103  1.00  0.00     0.167 HD
ATOM     56  C   UNL A   1      41.713  28.571  30.556  1.00  0.00     0.031 A 
ATOM     57  C   UNL A   1      40.323  33.300  35.531  1.00  0.00     0.031 A 
ATOM     58  C   UNL A   1      42.493  28.440  31.760  1.00  0.00     0.049 A 
ATOM     59  C   UNL A   1      41.303  32.185  35.755  1.00  0.00     0.074 A 
ATOM     60  C   UNL A   1      43.501  27.534  32.040  1.00  0.00     0.029 A 
ATOM     61  N   UNL A   1      42.344  29.233  32.888  1.00  0.00    -0.354 N 
ATOM     62  N   UNL A   1      41.696  31.255  34.917  1.00  0.00    -0.248 NA
ATOM     63  C   UNL A   1      41.914  32.095  37.088  1.00  0.00     0.031 C 
ATOM     64  C   UNL A   1      43.909  27.731  33.364  1.00  0.00     0.029 A 
ATOM     65  C   UNL A   1      43.207  28.808  33.883  1.00  0.00     0.049 A 
ATOM     66  H   UNL A   1      41.716  29.987  32.969  1.00  0.00     0.167 HD
ATOM     67  C   UNL A   1      42.618  30.482  35.615  1.00  0.00     0.074 A 
ATOM     68  C   UNL A   1      42.731  31.061  36.939  1.00  0.00     0.031 C 
ATOM     69  C   UNL A   1      43.310  29.395  35.196  1.00  0.00     0.031 A 
BRANCH  56  70
ATOM     70  C   UNL A   1      41.969  27.601  29.430  1.00  0.00    -0.014 A 
ATOM     71  C   UNL A   1      42.998  27.811  28.494  1.00  0.00     0.010 A 
ATOM     72  C   UNL A   1      41.185  26.436  29.331  1.00  0.00     0.010 A 
ATOM     73  C   UNL A   1      43.213  26.892  27.461  1.00  0.00     0.020 A 
ATOM     74  C   UNL A   1      41.412  25.503  28.315  1.00  0.00     0.020 A 
ATOM     75  C   UNL A   1      42.415  25.745  27.376  1.00  0.00     0.054 A 
BRANCH  75  76
ATOM     76  S   UNL A   1      42.721  24.566  26.031  1.00  0.00     0.124 S 
ATOM     77  O   UNL A   1      42.802  25.448  24.869  1.00  0.00    -0.237 OA
ATOM     78  O   UNL A   1      43.979  23.941  26.433  1.00  0.00    -0.237 OA
ATOM     79  O   UNL A   1      41.555  23.688  26.065  1.00  0.00    -0.744 OA
ENDBRANCH  75  76
ENDBRANCH  56  70
BRANCH  57  80
ATOM     80  C   UNL A   1      39.985  34.261  36.619  1.00  0.00    -0.014 A 
ATOM     81  C   UNL A   1      39.053  33.927  37.614  1.00  0.00     0.010 A 
ATOM     82  C   UNL A   1      40.624  35.517  36.675  1.00  0.00     0.010 A 
ATOM     83  C   UNL A   1      38.763  34.830  38.643  1.00  0.00     0.020 A 
ATOM     84  C   UNL A   1      40.361  36.407  37.718  1.00  0.00     0.020 A 
ATOM     85  C   UNL A   1      39.423  36.062  38.691  1.00  0.00     0.054 A 
BRANCH  85  86
ATOM     86  S   UNL A   1      39.076  37.191  40.068  1.00  0.00     0.124 S 
ATOM     87  O   UNL A   1      38.309  38.244  39.411  1.00  0.00    -0.237 OA
ATOM     88  O   UNL A   1      38.326  36.343  40.991  1.00  0.00    -0.237 OA
ATOM     89  O   UNL A   1      40.405  37.583  40.534  1.00  0.00    -0.744 OA
ENDBRANCH  85  86
ENDBRANCH  57  80
BRANCH  69  90
ATOM     90  C   UNL A   1      44.285  28.777  36.161  1.00  0.00    -0.014 A 
ATOM     91  C   UNL A   1      43.939  27.656  36.933  1.00  0.00     0.010 A 
ATOM     92  C   UNL A   1      45.592  29.292  36.241  1.00  0.00     0.010 A 
ATOM     93  C   UNL A   1      44.880  27.070  37.785  1.00  0.00     0.020 A 
ATOM     94  C   UNL A   1      46.543  28.693  37.071  1.00  0.00     0.020 A 
ATOM     95  C   UNL A   1      46.177  27.591  37.845  1.00  0.00     0.054 A 
BRANCH  95  96
ATOM     96  S   UNL A   1      47.398  26.772  38.908  1.00  0.00     0.124 S 
ATOM     97  O   UNL A   1      47.048  27.290  40.227  1.00  0.00    -0.237 OA
ATOM     98  O   UNL A   1      47.113  25.357  38.692  1.00  0.00    -0.237 OA
ATOM     99  O   UNL A   1      48.681  27.231  38.379  1.00  0.00    -0.744 OA
ENDBRANCH  95  96
ENDBRANCH  69  90
ENDBRANCH  43  44
ENDBRANCH  36  38
ENDBRANCH  35  36
ENDBRANCH  34  35
ENDBRANCH  33  34
ENDBRANCH  32  33
ENDBRANCH  31  32
ENDBRANCH   1  31
TORSDOF 24
ENDMDL
MODEL 2
REMARK VINA RESULT:      -9.8      2.264      3.146
REMARK SMILES CCc1cc(C(=O)c2[nH]c3cc(Cl)ccc3c2CC(=O)OCCOCCOCCOC(=O)c2ccc(-c3c4nc(c(-c5ccc(S(=O)(=O)[O-])cc5)c5ccc([nH]5)c(-c5ccc(S(=O)(=O)[O-])cc5)c5nc(c(-c6ccc(S(=O)(=O)[O-])cc6)c6ccc3[nH]6)C=C5)C=C4)cc2)ncc1Cl
REMARK SMILES IDX 25 1 24 2 23 3 22 4 21 5 19 6 20 7 18 8 17 9 8 10 9 11 10 12
REMARK SMILES IDX 16 14 11 15 15 16 12 17 14 18 13 19 6 20 7 21 5 22 3 23 4 24
REMARK SMILES IDX 95 25 94 26 96 27 93 28 2 29 1 30 26 31 27 32 28 33 29 34
REMARK SMILES IDX 30 35 31 36 32 37 33 38 34 39 92 40 35 41 91 42 36 43 37 44
REMARK SMILES IDX 38 45 85 46 39 47 90 48 84 49 86 50 40 51 89 52 83 53 82 54
REMARK SMILES IDX 41 56 71 57 52 58 70 59 53 60 56 61 69 62 87 63 54 64 55 65
REMARK SMILES IDX 68 67 88 68 57 69 42 70 43 71 51 72 44 73 50 74 45 75 46 76
REMARK SMILES IDX 47 77 48 78 49 79 72 80 73 81 81 82 74 83 80 84 75 85 76 86
REMARK SMILES IDX 77 87 78 88 79 89 58 90 59 91 67 92 60 93 66 94 61 95 62 96
REMARK SMILES IDX 63 97 64 98 65 99
REMARK H PARENT 9 13 86 55 56 66
REMARK Flexibility Score: inf
ROOT
ATOM      1  C   UNL A   1      32.913  28.132  25.330  1.00  0.00     0.188 C 
ENDROOT
BRANCH   1   2
ATOM      2  O   UNL A   1      33.074  26.726  25.468  1.00  0.00    -0.376 OA
BRANCH   2   3
ATOM      3  C   UNL A   1      32.471  26.098  26.589  1.00  0.00     0.202 C 
BRANCH   3   4
ATOM      4  C   UNL A   1      32.775  24.609  26.768  1.00  0.00     0.261 C 
BRANCH   4   5
ATOM      5  O   UNL A   1      31.675  23.880  27.364  1.00  0.00    -0.463 OA
BRANCH   5   6
ATOM      6  C   UNL A   1      30.545  23.825  26.615  1.00  0.00     0.310 C 
ATOM      7  O   UNL A   1      29.465  24.272  27.001  1.00  0.00    -0.252 OA
BRANCH   6   8
ATOM      8  C   UNL A   1      30.664  23.207  25.234  1.00  0.00     0.161 C 
BRANCH   8   9
ATOM      9  C   UNL A   1      31.179  24.005  24.054  1.00  0.00     0.000 A 
ATOM     10  C   UNL A   1      32.401  23.851  23.384  1.00  0.00     0.093 A 
ATOM     11  N   UNL A   1      32.420  24.777  22.365  1.00  0.00    -0.351 N 
ATOM     12  C   UNL A   1      31.468  25.736  22.585  1.00  0.00     0.048 A 
ATOM     13  H   UNL A   1      33.029  24.752  21.591  1.00  0.00     0.167 HD
ATOM     14  C   UNL A   1      30.649  25.267  23.611  1.00  0.00     0.004 A 
ATOM     15  C   UNL A   1      31.297  26.985  21.973  1.00  0.00     0.047 A 
ATOM     16  C   UNL A   1      29.596  26.094  24.054  1.00  0.00     0.012 A 
ATOM     17  C   UNL A   1      30.282  27.803  22.473  1.00  0.00     0.043 A 
ATOM     18  C   UNL A   1      29.440  27.370  23.494  1.00  0.00     0.021 A 
ATOM     19  Cl  UNL A   1      30.095  29.392  21.835  1.00  0.00    -0.084 Cl
BRANCH  10  20
ATOM     20  C   UNL A   1      33.480  22.916  23.650  1.00  0.00     0.227 C 
ATOM     21  O   UNL A   1      34.665  23.207  23.491  1.00  0.00    -0.285 OA
BRANCH  20  22
ATOM     22  C   UNL A   1      33.156  21.532  24.110  1.00  0.00     0.113 A 
ATOM     23  C   UNL A   1      32.603  19.223  23.670  1.00  0.00    -0.026 A 
ATOM     24  C   UNL A   1      32.767  20.547  23.209  1.00  0.00     0.037 A 
ATOM     25  C   UNL A   1      32.922  18.948  25.007  1.00  0.00     0.062 A 
ATOM     26  C   UNL A   1      33.260  20.009  25.836  1.00  0.00     0.132 A 
ATOM     27  Cl  UNL A   1      32.937  17.362  25.675  1.00  0.00    -0.082 Cl
ATOM     28  N   UNL A   1      33.339  21.298  25.426  1.00  0.00    -0.251 NA
BRANCH  23  29
ATOM     29  C   UNL A   1      32.132  18.152  22.711  1.00  0.00     0.034 C 
ATOM     30  C   UNL A   1      32.118  18.630  21.263  1.00  0.00     0.009 C 
ENDBRANCH  23  29
ENDBRANCH  20  22
ENDBRANCH  10  20
ENDBRANCH   8   9
ENDBRANCH   6   8
ENDBRANCH   5   6
ENDBRANCH   4   5
ENDBRANCH   3   4
ENDBRANCH   2   3
ENDBRANCH   1   2
BRANCH   1  31
ATOM     31  C   UNL A   1      31.664  28.803  25.942  1.00  0.00     0.188 C 
BRANCH  31  32
ATOM     32  O   UNL A   1      31.808  29.996  26.701  1.00  0.00    -0.376 OA
BRANCH  32  33
ATOM     33  C   UNL A   1      33.106  30.292  27.201  1.00  0.00     0.202 C 
BRANCH  33  34
ATOM     34  C   UNL A   1      33.349  31.767  27.506  1.00  0.00     0.261 C 
BRANCH  34  35
ATOM     35  O   UNL A   1      34.743  32.021  27.758  1.00  0.00    -0.460 OA
BRANCH  35  36
ATOM     36  C   UNL A   1      35.097  31.918  29.060  1.00  0.00     0.338 C 
ATOM     37  O   UNL A   1      34.476  32.348  30.017  1.00  0.00    -0.246 OA
BRANCH  36  38
ATOM     38  C   UNL A   1      36.382  31.206  29.220  1.00  0.00     0.060 A 
ATOM     39  C   UNL A   1      36.455  30.024  29.953  1.00  0.00     0.016 A 
ATOM     40  C   UNL A   1      37.553  31.870  28.867  1.00  0.00     0.016 A 
ATOM     41  C   UNL A   1      37.678  29.589  30.469  1.00  0.00     0.010 A 
ATOM     42  C   UNL A   1      38.788  31.373  29.296  1.00  0.00     0.010 A 
ATOM     43  C   UNL A   1      38.861  30.264  30.157  1.00  0.00    -0.014 A 
BRANCH  43  44
ATOM     44  C   UNL A   1      40.166  29.875  30.763  1.00  0.00     0.031 A 
ATOM     45  C   UNL A   1      40.945  28.713  30.192  1.00  0.00     0.074 A 
ATOM     46  C   UNL A   1      40.659  30.542  31.825  1.00  0.00     0.049 A 
ATOM     47  N   UNL A   1      41.963  28.067  30.701  1.00  0.00    -0.248 NA
ATOM     48  C   UNL A   1      40.526  28.218  28.870  1.00  0.00     0.031 C 
ATOM     49  C   UNL A   1      40.083  31.752  32.416  1.00  0.00     0.029 A 
ATOM     50  N   UNL A   1      41.753  30.278  32.616  1.00  0.00    -0.354 N 
ATOM     51  C   UNL A   1      42.283  27.071  29.783  1.00  0.00     0.074 A 
ATOM     52  C   UNL A   1      41.349  27.194  28.685  1.00  0.00     0.031 C 
ATOM     53  C   UNL A   1      40.821  32.121  33.473  1.00  0.00     0.029 A 
ATOM     54  C   UNL A   1      41.854  31.118  33.702  1.00  0.00     0.049 A 
ATOM     55  H   UNL A   1      42.400  29.560  32.424  1.00  0.00     0.167 HD
ATOM     56  C   UNL A   1      43.256  26.130  29.857  1.00  0.00     0.031 A 
ATOM     57  C   UNL A   1      42.628  31.049  34.803  1.00  0.00     0.031 A 
ATOM     58  C   UNL A   1      44.161  25.997  30.969  1.00  0.00     0.049 A 
ATOM     59  C   UNL A   1      43.581  29.898  34.951  1.00  0.00     0.074 A 
ATOM     60  C   UNL A   1      45.156  25.056  31.164  1.00  0.00     0.029 A 
ATOM     61  N   UNL A   1      44.172  26.826  32.081  1.00  0.00    -0.354 N 
ATOM     62  N   UNL A   1      43.839  28.929  34.105  1.00  0.00    -0.248 NA
ATOM     63  C   UNL A   1      44.334  29.817  36.210  1.00  0.00     0.031 C 
ATOM     64  C   UNL A   1      45.718  25.271  32.427  1.00  0.00     0.029 A 
ATOM     65  C   UNL A   1      45.124  26.391  32.987  1.00  0.00     0.049 A 
ATOM     66  H   UNL A   1      43.588  27.609  32.207  1.00  0.00     0.167 HD
ATOM     67  C   UNL A   1      44.802  28.136  34.720  1.00  0.00     0.074 A 
ATOM     68  C   UNL A   1      45.087  28.744  36.004  1.00  0.00     0.031 C 
ATOM     69  C   UNL A   1      45.397  27.008  34.261  1.00  0.00     0.031 A 
BRANCH  56  70
ATOM     70  C   UNL A   1      43.344  25.120  28.740  1.00  0.00    -0.014 A 
ATOM     71  C   UNL A   1      42.575  23.943  28.747  1.00  0.00     0.010 A 
ATOM     72  C   UNL A   1      44.188  25.376  27.643  1.00  0.00     0.010 A 
ATOM     73  C   UNL A   1      42.676  23.025  27.696  1.00  0.00     0.020 A 
ATOM     74  C   UNL A   1      44.274  24.474  26.579  1.00  0.00     0.020 A 
ATOM     75  C   UNL A   1      43.528  23.295  26.620  1.00  0.00     0.054 A 
BRANCH  75  76
ATOM     76  S   UNL A   1      43.634  22.091  25.266  1.00  0.00     0.124 S 
ATOM     77  O   UNL A   1      43.349  22.923  24.099  1.00  0.00    -0.237 OA
ATOM     78  O   UNL A   1      45.009  21.610  25.372  1.00  0.00    -0.237 OA
ATOM     79  O   UNL A   1      42.605  21.107  25.593  1.00  0.00    -0.744 OA
ENDBRANCH  75  76
ENDBRANCH  56  70
BRANCH  57  80
ATOM     80  C   UNL A   1      42.454  32.053  35.890  1.00  0.00    -0.014 A 
ATOM     81  C   UNL A   1      43.317  33.153  36.001  1.00  0.00     0.010 A 
ATOM     82  C   UNL A   1      41.393  31.921  36.810  1.00  0.00     0.010 A 
ATOM     83  C   UNL A   1      43.128  34.102  37.013  1.00  0.00     0.020 A 
ATOM     84  C   UNL A   1      41.181  32.882  37.800  1.00  0.00     0.020 A 
ATOM     85  C   UNL A   1      42.057  33.962  37.902  1.00  0.00     0.054 A 
BRANCH  85  86
ATOM     86  S   UNL A   1      41.795  35.236  39.167  1.00  0.00     0.124 S 
ATOM     87  O   UNL A   1      41.977  34.478  40.402  1.00  0.00    -0.237 OA
ATOM     88  O   UNL A   1      42.842  36.207  38.861  1.00  0.00    -0.237 OA
ATOM     89  O   UNL A   1      40.433  35.698  38.912  1.00  0.00    -0.744 OA
ENDBRANCH  85  86
ENDBRANCH  57  80
BRANCH  69  90
ATOM     90  C   UNL A   1      46.449  26.375  35.130  1.00  0.00    -0.014 A 
ATOM     91  C   UNL A   1      47.806  26.719  35.004  1.00  0.00     0.010 A 
ATOM     92  C   UNL A   1      46.059  25.472  36.136  1.00  0.00     0.010 A 
ATOM     93  C   UNL A   1      48.758  26.154  35.858  1.00  0.00     0.020 A 
ATOM     94  C   UNL A   1      47.003  24.927  37.009  1.00  0.00     0.020 A 
ATOM     95  C   UNL A   1      48.349  25.265  36.858  1.00  0.00     0.054 A 
BRANCH  95  96
ATOM     96  S   UNL A   1      49.594  24.599  37.996  1.00  0.00     0.124 S 
ATOM     97  O   UNL A   1      49.045  24.967  39.297  1.00  0.00    -0.237 OA
ATOM     98  O   UNL A   1      49.578  23.171  37.688  1.00  0.00    -0.237 OA
ATOM     99  O   UNL A   1      50.820  25.298  37.616  1.00  0.00    -0.744 OA
ENDBRANCH  95  96
ENDBRANCH  69  90
ENDBRANCH  43  44
ENDBRANCH  36  38
ENDBRANCH  35  36
ENDBRANCH  34  35
ENDBRANCH  33  34
ENDBRANCH  32  33
ENDBRANCH  31  32
ENDBRANCH   1  31
TORSDOF 24
ENDMDL
MODEL 3
REMARK VINA RESULT:      -9.4      2.441      7.290
REMARK SMILES CCc1cc(C(=O)c2[nH]c3cc(Cl)ccc3c2CC(=O)OCCOCCOCCOC(=O)c2ccc(-c3c4nc(c(-c5ccc(S(=O)(=O)[O-])cc5)c5ccc([nH]5)c(-c5ccc(S(=O)(=O)[O-])cc5)c5nc(c(-c6ccc(S(=O)(=O)[O-])cc6)c6ccc3[nH]6)C=C5)C=C4)cc2)ncc1Cl
REMARK SMILES IDX 25 1 24 2 23 3 22 4 21 5 19 6 20 7 18 8 17 9 8 10 9 11 10 12
REMARK SMILES IDX 16 14 11 15 15 16 12 17 14 18 13 19 6 20 7 21 5 22 3 23 4 24
REMARK SMILES IDX 95 25 94 26 96 27 93 28 2 29 1 30 26 31 27 32 28 33 29 34
REMARK SMILES IDX 30 35 31 36 32 37 33 38 34 39 92 40 35 41 91 42 36 43 37 44
REMARK SMILES IDX 38 45 85 46 39 47 90 48 84 49 86 50 40 51 89 52 83 53 82 54
REMARK SMILES IDX 41 56 71 57 52 58 70 59 53 60 56 61 69 62 87 63 54 64 55 65
REMARK SMILES IDX 68 67 88 68 57 69 42 70 43 71 51 72 44 73 50 74 45 75 46 76
REMARK SMILES IDX 47 77 48 78 49 79 72 80 73 81 81 82 74 83 80 84 75 85 76 86
REMARK SMILES IDX 77 87 78 88 79 89 58 90 59 91 67 92 60 93 66 94 61 95 62 96
REMARK SMILES IDX 63 97 64 98 65 99
REMARK H PARENT 9 13 86 55 56 66
REMARK Flexibility Score: inf
ROOT
ATOM      1  C   UNL A   1      35.013  21.498  25.275  1.00  0.00     0.188 C 
ENDROOT
BRANCH   1   2
ATOM      2  O   UNL A   1      34.116  21.929  26.289  1.00  0.00    -0.376 OA
BRANCH   2   3
ATOM      3  C   UNL A   1      34.404  23.150  26.953  1.00  0.00     0.202 C 
BRANCH   3   4
ATOM      4  C   UNL A   1      33.932  24.424  26.249  1.00  0.00     0.261 C 
BRANCH   4   5
ATOM      5  O   UNL A   1      32.610  24.289  25.674  1.00  0.00    -0.463 OA
BRANCH   5   6
ATOM      6  C   UNL A   1      31.586  24.673  26.479  1.00  0.00     0.310 C 
ATOM      7  O   UNL A   1      31.399  24.194  27.596  1.00  0.00    -0.252 OA
BRANCH   6   8
ATOM      8  C   UNL A   1      30.674  25.768  25.955  1.00  0.00     0.161 C 
BRANCH   8   9
ATOM      9  C   UNL A   1      31.228  27.084  25.451  1.00  0.00     0.000 A 
ATOM     10  C   UNL A   1      31.355  27.507  24.120  1.00  0.00     0.093 A 
ATOM     11  N   UNL A   1      31.883  28.778  24.151  1.00  0.00    -0.351 N 
ATOM     12  C   UNL A   1      32.437  29.026  25.379  1.00  0.00     0.048 A 
ATOM     13  H   UNL A   1      31.864  29.415  23.400  1.00  0.00     0.167 HD
ATOM     14  C   UNL A   1      32.015  28.005  26.228  1.00  0.00     0.004 A 
ATOM     15  C   UNL A   1      33.297  30.057  25.781  1.00  0.00     0.047 A 
ATOM     16  C   UNL A   1      32.478  28.012  27.560  1.00  0.00     0.012 A 
ATOM     17  C   UNL A   1      33.783  30.003  27.088  1.00  0.00     0.043 A 
ATOM     18  C   UNL A   1      33.382  29.002  27.969  1.00  0.00     0.021 A 
ATOM     19  Cl  UNL A   1      34.929  31.180  27.605  1.00  0.00    -0.084 Cl
BRANCH  10  20
ATOM     20  C   UNL A   1      31.010  26.801  22.899  1.00  0.00     0.227 C 
ATOM     21  O   UNL A   1      30.409  27.339  21.970  1.00  0.00    -0.285 OA
BRANCH  20  22
ATOM     22  C   UNL A   1      31.369  25.358  22.758  1.00  0.00     0.113 A 
ATOM     23  C   UNL A   1      32.989  23.592  22.460  1.00  0.00    -0.026 A 
ATOM     24  C   UNL A   1      32.666  24.966  22.448  1.00  0.00     0.037 A 
ATOM     25  C   UNL A   1      31.998  22.688  22.868  1.00  0.00     0.062 A 
ATOM     26  C   UNL A   1      30.723  23.175  23.116  1.00  0.00     0.132 A 
ATOM     27  Cl  UNL A   1      32.282  21.006  23.097  1.00  0.00    -0.082 Cl
ATOM     28  N   UNL A   1      30.378  24.482  23.025  1.00  0.00    -0.251 NA
BRANCH  23  29
ATOM     29  C   UNL A   1      34.383  23.149  22.075  1.00  0.00     0.034 C 
ATOM     30  C   UNL A   1      35.447  23.666  23.039  1.00  0.00     0.009 C 
ENDBRANCH  23  29
ENDBRANCH  20  22
ENDBRANCH  10  20
ENDBRANCH   8   9
ENDBRANCH   6   8
ENDBRANCH   5   6
ENDBRANCH   4   5
ENDBRANCH   3   4
ENDBRANCH   2   3
ENDBRANCH   1   2
BRANCH   1  31
ATOM     31  C   UNL A   1      36.493  21.254  25.643  1.00  0.00     0.188 C 
BRANCH  31  32
ATOM     32  O   UNL A   1      37.391  22.354  25.711  1.00  0.00    -0.376 OA
BRANCH  32  33
ATOM     33  C   UNL A   1      38.768  22.054  25.899  1.00  0.00     0.202 C 
BRANCH  33  34
ATOM     34  C   UNL A   1      39.450  22.860  27.001  1.00  0.00     0.261 C 
BRANCH  34  35
ATOM     35  O   UNL A   1      39.075  24.247  26.937  1.00  0.00    -0.460 OA
BRANCH  35  36
ATOM     36  C   UNL A   1      40.124  25.101  26.872  1.00  0.00     0.338 C 
ATOM     37  O   UNL A   1      41.152  24.939  26.236  1.00  0.00    -0.246 OA
BRANCH  36  38
ATOM     38  C   UNL A   1      39.898  26.305  27.696  1.00  0.00     0.060 A 
ATOM     39  C   UNL A   1      40.591  27.486  27.439  1.00  0.00     0.016 A 
ATOM     40  C   UNL A   1      39.198  26.166  28.891  1.00  0.00     0.016 A 
ATOM     41  C   UNL A   1      40.719  28.460  28.431  1.00  0.00     0.010 A 
ATOM     42  C   UNL A   1      39.241  27.189  29.843  1.00  0.00     0.010 A 
ATOM     43  C   UNL A   1      40.054  28.320  29.653  1.00  0.00    -0.014 A 
BRANCH  43  44
ATOM     44  C   UNL A   1      40.243  29.298  30.761  1.00  0.00     0.031 A 
ATOM     45  C   UNL A   1      41.348  29.091  31.770  1.00  0.00     0.074 A 
ATOM     46  C   UNL A   1      39.430  30.366  30.884  1.00  0.00     0.049 A 
ATOM     47  N   UNL A   1      41.538  29.676  32.925  1.00  0.00    -0.248 NA
ATOM     48  C   UNL A   1      42.381  28.099  31.428  1.00  0.00     0.031 C 
ATOM     49  C   UNL A   1      38.393  30.764  29.928  1.00  0.00     0.029 A 
ATOM     50  N   UNL A   1      39.333  31.306  31.883  1.00  0.00    -0.354 N 
ATOM     51  C   UNL A   1      42.685  29.101  33.463  1.00  0.00     0.074 A 
ATOM     52  C   UNL A   1      43.150  28.117  32.509  1.00  0.00     0.031 C 
ATOM     53  C   UNL A   1      37.765  31.856  30.388  1.00  0.00     0.029 A 
ATOM     54  C   UNL A   1      38.276  32.171  31.716  1.00  0.00     0.049 A 
ATOM     55  H   UNL A   1      39.958  31.354  32.643  1.00  0.00     0.167 HD
ATOM     56  C   UNL A   1      43.287  29.358  34.650  1.00  0.00     0.031 A 
ATOM     57  C   UNL A   1      37.721  33.061  32.562  1.00  0.00     0.031 A 
ATOM     58  C   UNL A   1      42.798  30.318  35.606  1.00  0.00     0.049 A 
ATOM     59  C   UNL A   1      38.294  33.209  33.942  1.00  0.00     0.074 A 
ATOM     60  C   UNL A   1      43.306  30.628  36.855  1.00  0.00     0.029 A 
ATOM     61  N   UNL A   1      41.678  31.115  35.421  1.00  0.00    -0.354 N 
ATOM     62  N   UNL A   1      39.346  32.622  34.464  1.00  0.00    -0.248 NA
ATOM     63  C   UNL A   1      37.597  34.123  34.856  1.00  0.00     0.031 C 
ATOM     64  C   UNL A   1      42.452  31.559  37.455  1.00  0.00     0.029 A 
ATOM     65  C   UNL A   1      41.452  31.883  36.551  1.00  0.00     0.049 A 
ATOM     66  H   UNL A   1      41.125  31.133  34.607  1.00  0.00     0.167 HD
ATOM     67  C   UNL A   1      39.449  33.114  35.760  1.00  0.00     0.074 A 
ATOM     68  C   UNL A   1      38.360  34.053  35.940  1.00  0.00     0.031 C 
ATOM     69  C   UNL A   1      40.365  32.815  36.714  1.00  0.00     0.031 A 
BRANCH  56  70
ATOM     70  C   UNL A   1      44.496  28.536  35.019  1.00  0.00    -0.014 A 
ATOM     71  C   UNL A   1      45.803  29.022  34.838  1.00  0.00     0.010 A 
ATOM     72  C   UNL A   1      44.316  27.263  35.593  1.00  0.00     0.010 A 
ATOM     73  C   UNL A   1      46.905  28.236  35.192  1.00  0.00     0.020 A 
ATOM     74  C   UNL A   1      45.414  26.485  35.971  1.00  0.00     0.020 A 
ATOM     75  C   UNL A   1      46.703  26.970  35.753  1.00  0.00     0.054 A 
BRANCH  75  76
ATOM     76  S   UNL A   1      48.151  25.977  36.210  1.00  0.00     0.124 S 
ATOM     77  O   UNL A   1      48.426  25.255  34.970  1.00  0.00    -0.237 OA
ATOM     78  O   UNL A   1      49.135  26.993  36.575  1.00  0.00    -0.237 OA
ATOM     79  O   UNL A   1      47.673  25.152  37.317  1.00  0.00    -0.744 OA
ENDBRANCH  75  76
ENDBRANCH  56  70
BRANCH  57  80
ATOM     80  C   UNL A   1      36.497  33.804  32.150  1.00  0.00    -0.014 A 
ATOM     81  C   UNL A   1      35.795  33.452  30.987  1.00  0.00     0.010 A 
ATOM     82  C   UNL A   1      36.012  34.862  32.947  1.00  0.00     0.010 A 
ATOM     83  C   UNL A   1      34.633  34.143  30.625  1.00  0.00     0.020 A 
ATOM     84  C   UNL A   1      34.835  35.532  32.607  1.00  0.00     0.020 A 
ATOM     85  C   UNL A   1      34.158  35.175  31.441  1.00  0.00     0.054 A 
BRANCH  85  86
ATOM     86  S   UNL A   1      32.617  36.016  30.985  1.00  0.00     0.124 S 
ATOM     87  O   UNL A   1      32.270  35.355  29.730  1.00  0.00    -0.237 OA
ATOM     88  O   UNL A   1      31.746  35.719  32.119  1.00  0.00    -0.237 OA
ATOM     89  O   UNL A   1      33.013  37.418  30.864  1.00  0.00    -0.744 OA
ENDBRANCH  85  86
ENDBRANCH  57  80
BRANCH  69  90
ATOM     90  C   UNL A   1      40.260  33.541  38.028  1.00  0.00    -0.014 A 
ATOM     91  C   UNL A   1      39.378  33.109  39.033  1.00  0.00     0.010 A 
ATOM     92  C   UNL A   1      41.111  34.632  38.281  1.00  0.00     0.010 A 
ATOM     93  C   UNL A   1      39.336  33.770  40.264  1.00  0.00     0.020 A 
ATOM     94  C   UNL A   1      41.091  35.278  39.520  1.00  0.00     0.020 A 
ATOM     95  C   UNL A   1      40.196  34.847  40.500  1.00  0.00     0.054 A 
BRANCH  95  96
ATOM     96  S   UNL A   1      40.169  35.645  42.129  1.00  0.00     0.124 S 
ATOM     97  O   UNL A   1      40.816  34.642  42.970  1.00  0.00    -0.237 OA
ATOM     98  O   UNL A   1      40.938  36.866  41.902  1.00  0.00    -0.237 OA
ATOM     99  O   UNL A   1      38.746  35.852  42.390  1.00  0.00    -0.744 OA
ENDBRANCH  95  96
ENDBRANCH  69  90
ENDBRANCH  43  44
ENDBRANCH  36  38
ENDBRANCH  35  36
ENDBRANCH  34  35
ENDBRANCH  33  34
ENDBRANCH  32  33
ENDBRANCH  31  32
ENDBRANCH   1  31
TORSDOF 24
ENDMDL
