MODEL 1
REMARK VINA RESULT:      -9.1      0.000      0.000
REMARK SMILES Cc1ccc(Nc2c(Cl)cccc2Cl)c(CC(=O)OCCOCCOCCOC(=O)c2ccc(-c3c4nc(c(-c5ccc(S(=O)(=O)[O-])cc5)c5ccc([nH]5)c(-c5ccc(S(=O)(=O)[O-])cc5)c5nc(c(-c6ccc(S(=O)(=O)[O-])cc6)c6ccc3[nH]6)C=C5)C=C4)cc2)c1
REMARK SMILES IDX 23 1 22 2 21 3 20 4 19 5 17 6 18 7 16 8 15 9 1 10 2 11 3 12
REMARK SMILES IDX 91 13 4 14 5 15 6 16 7 18 8 19 13 20 9 21 10 22 12 23 14 24
REMARK SMILES IDX 11 25 24 26 25 27 26 28 27 29 28 30 29 31 30 32 31 33 32 34
REMARK SMILES IDX 90 35 33 36 89 37 34 38 35 39 36 40 83 41 37 42 88 43 82 44
REMARK SMILES IDX 84 45 38 46 87 47 81 48 80 49 39 51 69 52 50 53 68 54 51 55
REMARK SMILES IDX 54 56 67 57 85 58 52 59 53 60 66 62 86 63 55 64 40 65 41 66
REMARK SMILES IDX 49 67 42 68 48 69 43 70 44 71 45 72 46 73 47 74 70 75 71 76
REMARK SMILES IDX 79 77 72 78 78 79 73 80 74 81 75 82 76 83 77 84 56 85 57 86
REMARK SMILES IDX 65 87 58 88 64 89 59 90 60 91 61 92 62 93 63 94
REMARK H PARENT 6 17 84 50 54 61
REMARK Flexibility Score: inf
ROOT
ATOM      1  C   UNL A   1      44.624  24.721  31.882  1.00  0.00     0.188 C 
ENDROOT
BRANCH   1   2
ATOM      2  O   UNL A   1      44.420  24.971  30.520  1.00  0.00    -0.376 OA
BRANCH   2   3
ATOM      3  C   UNL A   1      45.102  24.226  29.544  1.00  0.00     0.202 C 
BRANCH   3   4
ATOM      4  C   UNL A   1      45.084  24.190  27.925  1.00  0.00     0.261 C 
BRANCH   4   5
ATOM      5  O   UNL A   1      44.336  25.074  26.531  1.00  0.00    -0.463 OA
BRANCH   5   6
ATOM      6  C   UNL A   1      43.194  26.146  26.047  1.00  0.00     0.310 C 
ATOM      7  O   UNL A   1      43.209  27.330  25.681  1.00  0.00    -0.252 OA
BRANCH   6   8
ATOM      8  C   UNL A   1      41.953  25.519  25.737  1.00  0.00     0.160 C 
BRANCH   8   9
ATOM      9  C   UNL A   1      41.708  24.751  26.995  1.00  0.00    -0.013 A 
ATOM     10  C   UNL A   1      39.322  27.118  28.792  1.00  0.00     0.044 C 
ATOM     11  C   UNL A   1      39.859  25.891  28.135  1.00  0.00    -0.051 A 
ATOM     12  C   UNL A   1      39.070  24.855  27.687  1.00  0.00     0.005 A 
ATOM     13  C   UNL A   1      41.203  25.805  27.852  1.00  0.00     0.009 A 
ATOM     14  C   UNL A   1      39.655  23.744  27.012  1.00  0.00     0.026 A 
ATOM     15  C   UNL A   1      41.208  23.440  26.741  1.00  0.00     0.042 A 
BRANCH  15  16
ATOM     16  N   UNL A   1      42.025  21.606  26.722  1.00  0.00    -0.353 N 
ATOM     17  H   UNL A   1      41.661  21.021  27.424  1.00  0.00     0.167 HD
BRANCH  16  18
ATOM     18  C   UNL A   1      43.296  20.774  25.694  1.00  0.00     0.076 A 
ATOM     19  C   UNL A   1      43.787  19.308  25.786  1.00  0.00     0.066 A 
ATOM     20  C   UNL A   1      44.207  21.585  24.980  1.00  0.00     0.066 A 
ATOM     21  Cl  UNL A   1      43.202  17.818  26.602  1.00  0.00    -0.082 Cl
ATOM     22  C   UNL A   1      45.037  18.889  25.267  1.00  0.00     0.023 A 
ATOM     23  C   UNL A   1      45.495  21.105  24.580  1.00  0.00     0.023 A 
ATOM     24  Cl  UNL A   1      43.832  23.072  24.264  1.00  0.00    -0.082 Cl
ATOM     25  C   UNL A   1      45.917  19.792  24.734  1.00  0.00     0.003 A 
ENDBRANCH  16  18
ENDBRANCH  15  16
ENDBRANCH   8   9
ENDBRANCH   6   8
ENDBRANCH   5   6
ENDBRANCH   4   5
ENDBRANCH   3   4
ENDBRANCH   2   3
ENDBRANCH   1   2
BRANCH   1  26
ATOM     26  C   UNL A   1      44.232  23.391  32.507  1.00  0.00     0.188 C 
BRANCH  26  27
ATOM     27  O   UNL A   1      45.079  22.936  33.536  1.00  0.00    -0.376 OA
BRANCH  27  28
ATOM     28  C   UNL A   1      44.403  22.618  34.752  1.00  0.00     0.202 C 
BRANCH  28  29
ATOM     29  C   UNL A   1      44.869  23.273  36.129  1.00  0.00     0.261 C 
BRANCH  29  30
ATOM     30  O   UNL A   1      45.824  24.415  36.052  1.00  0.00    -0.460 OA
BRANCH  30  31
ATOM     31  C   UNL A   1      46.005  25.424  37.034  1.00  0.00     0.338 C 
ATOM     32  O   UNL A   1      46.898  25.270  37.848  1.00  0.00    -0.246 OA
BRANCH  31  33
ATOM     33  C   UNL A   1      44.977  26.769  36.818  1.00  0.00     0.060 A 
ATOM     34  C   UNL A   1      43.101  27.162  36.420  1.00  0.00     0.016 A 
ATOM     35  C   UNL A   1      46.110  27.277  35.503  1.00  0.00     0.016 A 
ATOM     36  C   UNL A   1      42.653  27.820  34.700  1.00  0.00     0.010 A 
ATOM     37  C   UNL A   1      45.545  27.758  33.924  1.00  0.00     0.010 A 
ATOM     38  C   UNL A   1      43.878  28.100  33.369  1.00  0.00    -0.014 A 
BRANCH  38  39
ATOM     39  C   UNL A   1      43.840  28.938  31.675  1.00  0.00     0.031 A 
ATOM     40  C   UNL A   1      45.252  29.093  30.386  1.00  0.00     0.074 A 
ATOM     41  C   UNL A   1      42.685  29.263  31.055  1.00  0.00     0.049 A 
ATOM     42  N   UNL A   1      45.818  30.190  29.912  1.00  0.00    -0.248 NA
ATOM     43  C   UNL A   1      46.429  27.965  29.999  1.00  0.00     0.031 C 
ATOM     44  C   UNL A   1      42.491  29.509  29.615  1.00  0.00     0.029 A 
ATOM     45  N   UNL A   1      41.396  29.352  31.557  1.00  0.00    -0.354 N 
ATOM     46  C   UNL A   1      47.034  29.798  29.244  1.00  0.00     0.074 A 
ATOM     47  C   UNL A   1      47.542  28.653  29.877  1.00  0.00     0.031 C 
ATOM     48  C   UNL A   1      41.258  30.015  29.412  1.00  0.00     0.029 A 
ATOM     49  C   UNL A   1      40.680  30.233  30.728  1.00  0.00     0.049 A 
ATOM     50  H   UNL A   1      41.046  28.884  32.350  1.00  0.00     0.167 HD
ATOM     51  C   UNL A   1      47.242  29.953  27.895  1.00  0.00     0.031 A 
ATOM     52  C   UNL A   1      40.352  31.430  31.280  1.00  0.00     0.031 A 
ATOM     53  C   UNL A   1      46.075  30.625  27.378  1.00  0.00     0.049 A 
ATOM     54  C   UNL A   1      41.276  32.489  30.684  1.00  0.00     0.074 A 
ATOM     55  C   UNL A   1      44.946  30.205  26.701  1.00  0.00     0.029 A 
ATOM     56  N   UNL A   1      45.733  31.790  28.030  1.00  0.00    -0.354 N 
ATOM     57  N   UNL A   1      42.425  32.217  30.107  1.00  0.00    -0.248 NA
ATOM     58  C   UNL A   1      40.896  33.885  30.493  1.00  0.00     0.031 C 
ATOM     59  C   UNL A   1      43.895  31.126  27.029  1.00  0.00     0.029 A 
ATOM     60  C   UNL A   1      44.393  32.078  27.908  1.00  0.00     0.049 A 
ATOM     61  H   UNL A   1      46.372  32.351  28.526  1.00  0.00     0.167 HD
ATOM     62  C   UNL A   1      42.869  33.296  29.402  1.00  0.00     0.074 A 
ATOM     63  C   UNL A   1      41.898  34.332  29.713  1.00  0.00     0.031 C 
ATOM     64  C   UNL A   1      43.939  33.306  28.549  1.00  0.00     0.031 A 
BRANCH  51  65
ATOM     65  C   UNL A   1      48.292  29.177  27.057  1.00  0.00    -0.014 A 
ATOM     66  C   UNL A   1      49.636  29.587  27.099  1.00  0.00     0.010 A 
ATOM     67  C   UNL A   1      48.051  28.035  26.241  1.00  0.00     0.010 A 
ATOM     68  C   UNL A   1      50.660  28.919  26.391  1.00  0.00     0.020 A 
ATOM     69  C   UNL A   1      49.050  27.392  25.476  1.00  0.00     0.020 A 
ATOM     70  C   UNL A   1      50.364  27.822  25.584  1.00  0.00     0.054 A 
BRANCH  70  71
ATOM     71  S   UNL A   1      51.716  26.920  24.771  1.00  0.00     0.124 S 
ATOM     72  O   UNL A   1      51.279  26.876  23.378  1.00  0.00    -0.237 OA
ATOM     73  O   UNL A   1      52.867  27.777  25.043  1.00  0.00    -0.237 OA
ATOM     74  O   UNL A   1      51.734  25.626  25.450  1.00  0.00    -0.744 OA
ENDBRANCH  70  71
ENDBRANCH  51  65
BRANCH  52  75
ATOM     75  C   UNL A   1      39.804  31.192  32.671  1.00  0.00    -0.014 A 
ATOM     76  C   UNL A   1      40.600  31.675  33.753  1.00  0.00     0.010 A 
ATOM     77  C   UNL A   1      38.442  30.969  32.945  1.00  0.00     0.010 A 
ATOM     78  C   UNL A   1      40.074  31.915  35.036  1.00  0.00     0.020 A 
ATOM     79  C   UNL A   1      37.910  31.196  34.241  1.00  0.00     0.020 A 
ATOM     80  C   UNL A   1      38.736  31.626  35.288  1.00  0.00     0.054 A 
BRANCH  80  81
ATOM     81  S   UNL A   1      38.076  31.845  36.981  1.00  0.00     0.124 S 
ATOM     82  O   UNL A   1      37.594  30.503  37.290  1.00  0.00    -0.237 OA
ATOM     83  O   UNL A   1      39.236  32.269  37.768  1.00  0.00    -0.237 OA
ATOM     84  O   UNL A   1      37.036  32.856  36.814  1.00  0.00    -0.744 OA
ENDBRANCH  80  81
ENDBRANCH  52  75
BRANCH  64  85
ATOM     85  C   UNL A   1      44.745  34.558  28.266  1.00  0.00    -0.014 A 
ATOM     86  C   UNL A   1      44.608  35.295  27.085  1.00  0.00     0.010 A 
ATOM     87  C   UNL A   1      45.532  35.143  29.296  1.00  0.00     0.010 A 
ATOM     88  C   UNL A   1      45.324  36.476  26.890  1.00  0.00     0.020 A 
ATOM     89  C   UNL A   1      46.147  36.380  29.159  1.00  0.00     0.020 A 
ATOM     90  C   UNL A   1      46.094  37.004  27.925  1.00  0.00     0.054 A 
BRANCH  90  91
ATOM     91  S   UNL A   1      47.055  38.497  27.634  1.00  0.00     0.124 S 
ATOM     92  O   UNL A   1      46.671  38.823  26.263  1.00  0.00    -0.237 OA
ATOM     93  O   UNL A   1      46.558  39.407  28.662  1.00  0.00    -0.237 OA
ATOM     94  O   UNL A   1      48.438  38.060  27.810  1.00  0.00    -0.744 OA
ENDBRANCH  90  91
ENDBRANCH  64  85
ENDBRANCH  38  39
ENDBRANCH  31  33
ENDBRANCH  30  31
ENDBRANCH  29  30
ENDBRANCH  28  29
ENDBRANCH  27  28
ENDBRANCH  26  27
ENDBRANCH   1  26
TORSDOF 23
ENDMDL
MODEL 2
REMARK VINA RESULT:      -9.0      4.330     10.917
REMARK SMILES Cc1ccc(Nc2c(Cl)cccc2Cl)c(CC(=O)OCCOCCOCCOC(=O)c2ccc(-c3c4nc(c(-c5ccc(S(=O)(=O)[O-])cc5)c5ccc([nH]5)c(-c5ccc(S(=O)(=O)[O-])cc5)c5nc(c(-c6ccc(S(=O)(=O)[O-])cc6)c6ccc3[nH]6)C=C5)C=C4)cc2)c1
REMARK SMILES IDX 23 1 22 2 21 3 20 4 19 5 17 6 18 7 16 8 15 9 1 10 2 11 3 12
REMARK SMILES IDX 91 13 4 14 5 15 6 16 7 18 8 19 13 20 9 21 10 22 12 23 14 24
REMARK SMILES IDX 11 25 24 26 25 27 26 28 27 29 28 30 29 31 30 32 31 33 32 34
REMARK SMILES IDX 90 35 33 36 89 37 34 38 35 39 36 40 83 41 37 42 88 43 82 44
REMARK SMILES IDX 84 45 38 46 87 47 81 48 80 49 39 51 69 52 50 53 68 54 51 55
REMARK SMILES IDX 54 56 67 57 85 58 52 59 53 60 66 62 86 63 55 64 40 65 41 66
REMARK SMILES IDX 49 67 42 68 48 69 43 70 44 71 45 72 46 73 47 74 70 75 71 76
REMARK SMILES IDX 79 77 72 78 78 79 73 80 74 81 75 82 76 83 77 84 56 85 57 86
REMARK SMILES IDX 65 87 58 88 64 89 59 90 60 91 61 92 62 93 63 94
REMARK H PARENT 6 17 84 50 54 61
REMARK Flexibility Score: inf
ROOT
ATOM      1  C   UNL A   1      40.046  28.287  28.628  1.00  0.00     0.188 C 
ENDROOT
BRANCH   1   2
ATOM      2  O   UNL A   1      38.757  27.947  29.054  1.00  0.00    -0.376 OA
BRANCH   2   3
ATOM      3  C   UNL A   1      38.164  28.610  30.142  1.00  0.00     0.202 C 
BRANCH   3   4
ATOM      4  C   UNL A   1      36.973  29.696  30.297  1.00  0.00     0.261 C 
BRANCH   4   5
ATOM      5  O   UNL A   1      36.695  31.477  30.115  1.00  0.00    -0.463 OA
BRANCH   5   6
ATOM      6  C   UNL A   1      37.143  32.860  29.359  1.00  0.00     0.310 C 
ATOM      7  O   UNL A   1      37.889  33.131  28.407  1.00  0.00    -0.252 OA
BRANCH   6   8
ATOM      8  C   UNL A   1      36.309  33.963  29.700  1.00  0.00     0.160 C 
BRANCH   8   9
ATOM      9  C   UNL A   1      34.975  33.295  29.763  1.00  0.00    -0.013 A 
ATOM     10  C   UNL A   1      32.991  35.898  31.715  1.00  0.00     0.044 C 
ATOM     11  C   UNL A   1      33.412  34.981  30.615  1.00  0.00    -0.051 A 
ATOM     12  C   UNL A   1      32.974  35.095  29.314  1.00  0.00     0.005 A 
ATOM     13  C   UNL A   1      34.367  34.022  30.859  1.00  0.00     0.009 A 
ATOM     14  C   UNL A   1      33.472  34.217  28.307  1.00  0.00     0.026 A 
ATOM     15  C   UNL A   1      34.470  32.970  28.469  1.00  0.00     0.042 A 
BRANCH  15  16
ATOM     16  N   UNL A   1      34.377  31.286  27.381  1.00  0.00    -0.353 N 
ATOM     17  H   UNL A   1      35.267  30.926  27.163  1.00  0.00     0.167 HD
BRANCH  16  18
ATOM     18  C   UNL A   1      33.014  30.267  26.698  1.00  0.00     0.076 A 
ATOM     19  C   UNL A   1      33.056  28.780  26.268  1.00  0.00     0.066 A 
ATOM     20  C   UNL A   1      31.897  30.936  26.150  1.00  0.00     0.066 A 
ATOM     21  Cl  UNL A   1      34.206  27.420  26.502  1.00  0.00    -0.082 Cl
ATOM     22  C   UNL A   1      32.112  28.218  25.374  1.00  0.00     0.023 A 
ATOM     23  C   UNL A   1      31.050  30.322  25.173  1.00  0.00     0.023 A 
ATOM     24  Cl  UNL A   1      31.240  32.381  26.741  1.00  0.00    -0.082 Cl
ATOM     25  C   UNL A   1      31.161  28.998  24.772  1.00  0.00     0.003 A 
ENDBRANCH  16  18
ENDBRANCH  15  16
ENDBRANCH   8   9
ENDBRANCH   6   8
ENDBRANCH   5   6
ENDBRANCH   4   5
ENDBRANCH   3   4
ENDBRANCH   2   3
ENDBRANCH   1   2
BRANCH   1  26
ATOM     26  C   UNL A   1      40.326  28.659  27.180  1.00  0.00     0.188 C 
BRANCH  26  27
ATOM     27  O   UNL A   1      40.952  27.658  26.410  1.00  0.00    -0.376 OA
BRANCH  27  28
ATOM     28  C   UNL A   1      40.764  26.334  26.909  1.00  0.00     0.202 C 
BRANCH  28  29
ATOM     29  C   UNL A   1      40.864  25.081  25.928  1.00  0.00     0.261 C 
BRANCH  29  30
ATOM     30  O   UNL A   1      42.150  24.885  25.201  1.00  0.00    -0.460 OA
BRANCH  30  31
ATOM     31  C   UNL A   1      43.144  23.917  25.502  1.00  0.00     0.338 C 
ATOM     32  O   UNL A   1      43.547  23.215  24.593  1.00  0.00    -0.246 OA
BRANCH  31  33
ATOM     33  C   UNL A   1      43.695  23.996  27.116  1.00  0.00     0.060 A 
ATOM     34  C   UNL A   1      42.974  24.042  28.935  1.00  0.00     0.016 A 
ATOM     35  C   UNL A   1      44.528  25.527  26.636  1.00  0.00     0.016 A 
ATOM     36  C   UNL A   1      43.038  25.673  29.899  1.00  0.00     0.010 A 
ATOM     37  C   UNL A   1      44.402  26.988  27.581  1.00  0.00     0.010 A 
ATOM     38  C   UNL A   1      43.726  27.227  29.221  1.00  0.00    -0.014 A 
BRANCH  38  39
ATOM     39  C   UNL A   1      44.162  28.920  29.941  1.00  0.00     0.031 A 
ATOM     40  C   UNL A   1      43.067  30.086  31.001  1.00  0.00     0.074 A 
ATOM     41  C   UNL A   1      45.435  29.360  30.034  1.00  0.00     0.049 A 
ATOM     42  N   UNL A   1      42.660  31.313  30.724  1.00  0.00    -0.248 NA
ATOM     43  C   UNL A   1      41.957  29.670  32.185  1.00  0.00     0.031 C 
ATOM     44  C   UNL A   1      45.944  30.418  30.926  1.00  0.00     0.029 A 
ATOM     45  N   UNL A   1      46.588  28.895  29.421  1.00  0.00    -0.354 N 
ATOM     46  C   UNL A   1      41.603  31.639  31.647  1.00  0.00     0.074 A 
ATOM     47  C   UNL A   1      40.925  30.458  31.986  1.00  0.00     0.031 C 
ATOM     48  C   UNL A   1      47.210  30.720  30.578  1.00  0.00     0.029 A 
ATOM     49  C   UNL A   1      47.500  29.963  29.372  1.00  0.00     0.049 A 
ATOM     50  H   UNL A   1      46.739  27.983  29.082  1.00  0.00     0.167 HD
ATOM     51  C   UNL A   1      41.696  32.638  32.585  1.00  0.00     0.031 A 
ATOM     52  C   UNL A   1      47.749  30.472  28.137  1.00  0.00     0.031 A 
ATOM     53  C   UNL A   1      42.972  33.275  32.375  1.00  0.00     0.049 A 
ATOM     54  C   UNL A   1      47.018  31.808  28.025  1.00  0.00     0.074 A 
ATOM     55  C   UNL A   1      44.203  33.190  32.997  1.00  0.00     0.029 A 
ATOM     56  N   UNL A   1      43.213  33.695  31.083  1.00  0.00    -0.354 N 
ATOM     57  N   UNL A   1      46.010  32.157  28.793  1.00  0.00    -0.248 NA
ATOM     58  C   UNL A   1      47.485  32.924  27.210  1.00  0.00     0.031 C 
ATOM     59  C   UNL A   1      45.195  33.506  32.008  1.00  0.00     0.029 A 
ATOM     60  C   UNL A   1      44.558  33.763  30.803  1.00  0.00     0.049 A 
ATOM     61  H   UNL A   1      42.504  33.919  30.437  1.00  0.00     0.167 HD
ATOM     62  C   UNL A   1      45.771  33.495  28.683  1.00  0.00     0.074 A 
ATOM     63  C   UNL A   1      46.693  33.923  27.644  1.00  0.00     0.031 C 
ATOM     64  C   UNL A   1      44.911  34.218  29.463  1.00  0.00     0.031 A 
BRANCH  51  65
ATOM     65  C   UNL A   1      40.821  32.751  33.862  1.00  0.00    -0.014 A 
ATOM     66  C   UNL A   1      39.671  33.560  33.831  1.00  0.00     0.010 A 
ATOM     67  C   UNL A   1      41.037  32.084  35.101  1.00  0.00     0.010 A 
ATOM     68  C   UNL A   1      38.804  33.695  34.937  1.00  0.00     0.020 A 
ATOM     69  C   UNL A   1      40.216  32.256  36.238  1.00  0.00     0.020 A 
ATOM     70  C   UNL A   1      39.078  33.040  36.136  1.00  0.00     0.054 A 
BRANCH  70  71
ATOM     71  S   UNL A   1      37.888  33.149  37.506  1.00  0.00     0.124 S 
ATOM     72  O   UNL A   1      36.605  33.214  36.811  1.00  0.00    -0.237 OA
ATOM     73  O   UNL A   1      38.146  31.913  38.239  1.00  0.00    -0.237 OA
ATOM     74  O   UNL A   1      38.270  34.375  38.206  1.00  0.00    -0.744 OA
ENDBRANCH  70  71
ENDBRANCH  51  65
BRANCH  52  75
ATOM     75  C   UNL A   1      47.975  29.326  27.174  1.00  0.00    -0.014 A 
ATOM     76  C   UNL A   1      46.920  29.063  26.249  1.00  0.00     0.010 A 
ATOM     77  C   UNL A   1      49.248  28.837  26.828  1.00  0.00     0.010 A 
ATOM     78  C   UNL A   1      47.117  28.349  25.053  1.00  0.00     0.020 A 
ATOM     79  C   UNL A   1      49.449  28.103  25.630  1.00  0.00     0.020 A 
ATOM     80  C   UNL A   1      48.376  27.827  24.772  1.00  0.00     0.054 A 
BRANCH  80  81
ATOM     81  S   UNL A   1      48.610  26.814  23.266  1.00  0.00     0.124 S 
ATOM     82  O   UNL A   1      47.883  27.590  22.267  1.00  0.00    -0.237 OA
ATOM     83  O   UNL A   1      50.061  26.786  23.072  1.00  0.00    -0.237 OA
ATOM     84  O   UNL A   1      48.006  25.532  23.617  1.00  0.00    -0.744 OA
ENDBRANCH  80  81
ENDBRANCH  52  75
BRANCH  64  85
ATOM     85  C   UNL A   1      44.236  35.484  28.975  1.00  0.00    -0.014 A 
ATOM     86  C   UNL A   1      44.761  36.760  29.207  1.00  0.00     0.010 A 
ATOM     87  C   UNL A   1      43.134  35.400  28.080  1.00  0.00     0.010 A 
ATOM     88  C   UNL A   1      44.140  37.896  28.688  1.00  0.00     0.020 A 
ATOM     89  C   UNL A   1      42.588  36.515  27.457  1.00  0.00     0.020 A 
ATOM     90  C   UNL A   1      43.054  37.765  27.824  1.00  0.00     0.054 A 
BRANCH  90  91
ATOM     91  S   UNL A   1      42.232  39.243  27.212  1.00  0.00     0.124 S 
ATOM     92  O   UNL A   1      43.341  39.941  26.567  1.00  0.00    -0.237 OA
ATOM     93  O   UNL A   1      41.220  38.700  26.311  1.00  0.00    -0.237 OA
ATOM     94  O   UNL A   1      41.711  39.877  28.421  1.00  0.00    -0.744 OA
ENDBRANCH  90  91
ENDBRANCH  64  85
ENDBRANCH  38  39
ENDBRANCH  31  33
ENDBRANCH  30  31
ENDBRANCH  29  30
ENDBRANCH  28  29
ENDBRANCH  27  28
ENDBRANCH  26  27
ENDBRANCH   1  26
TORSDOF 23
ENDMDL
MODEL 3
REMARK VINA RESULT:      -8.7      5.391     10.847
REMARK SMILES Cc1ccc(Nc2c(Cl)cccc2Cl)c(CC(=O)OCCOCCOCCOC(=O)c2ccc(-c3c4nc(c(-c5ccc(S(=O)(=O)[O-])cc5)c5ccc([nH]5)c(-c5ccc(S(=O)(=O)[O-])cc5)c5nc(c(-c6ccc(S(=O)(=O)[O-])cc6)c6ccc3[nH]6)C=C5)C=C4)cc2)c1
REMARK SMILES IDX 23 1 22 2 21 3 20 4 19 5 17 6 18 7 16 8 15 9 1 10 2 11 3 12
REMARK SMILES IDX 91 13 4 14 5 15 6 16 7 18 8 19 13 20 9 21 10 22 12 23 14 24
REMARK SMILES IDX 11 25 24 26 25 27 26 28 27 29 28 30 29 31 30 32 31 33 32 34
REMARK SMILES IDX 90 35 33 36 89 37 34 38 35 39 36 40 83 41 37 42 88 43 82 44
REMARK SMILES IDX 84 45 38 46 87 47 81 48 80 49 39 51 69 52 50 53 68 54 51 55
REMARK SMILES IDX 54 56 67 57 85 58 52 59 53 60 66 62 86 63 55 64 40 65 41 66
REMARK SMILES IDX 49 67 42 68 48 69 43 70 44 71 45 72 46 73 47 74 70 75 71 76
REMARK SMILES IDX 79 77 72 78 78 79 73 80 74 81 75 82 76 83 77 84 56 85 57 86
REMARK SMILES IDX 65 87 58 88 64 89 59 90 60 91 61 92 62 93 63 94
REMARK H PARENT 6 17 84 50 54 61
REMARK Flexibility Score: inf
ROOT
ATOM      1  C   UNL A   1      51.133  28.423  21.154  1.00  0.00     0.188 C 
ENDROOT
BRANCH   1   2
ATOM      2  O   UNL A   1      49.937  28.704  21.826  1.00  0.00    -0.376 OA
BRANCH   2   3
ATOM      3  C   UNL A   1      49.511  27.899  22.897  1.00  0.00     0.202 C 
BRANCH   3   4
ATOM      4  C   UNL A   1      48.079  27.316  23.377  1.00  0.00     0.261 C 
BRANCH   4   5
ATOM      5  O   UNL A   1      46.836  27.591  24.666  1.00  0.00    -0.463 OA
BRANCH   5   6
ATOM      6  C   UNL A   1      45.921  26.919  25.849  1.00  0.00     0.310 C 
ATOM      7  O   UNL A   1      46.163  26.293  26.890  1.00  0.00    -0.252 OA
BRANCH   6   8
ATOM      8  C   UNL A   1      44.567  27.362  25.808  1.00  0.00     0.160 C 
BRANCH   8   9
ATOM      9  C   UNL A   1      43.875  26.198  26.439  1.00  0.00    -0.013 A 
ATOM     10  C   UNL A   1      40.916  27.958  28.073  1.00  0.00     0.044 C 
ATOM     11  C   UNL A   1      41.700  27.034  27.200  1.00  0.00    -0.051 A 
ATOM     12  C   UNL A   1      41.173  26.388  26.104  1.00  0.00     0.005 A 
ATOM     13  C   UNL A   1      43.049  26.879  27.415  1.00  0.00     0.009 A 
ATOM     14  C   UNL A   1      42.003  25.570  25.283  1.00  0.00     0.026 A 
ATOM     15  C   UNL A   1      43.548  25.183  25.491  1.00  0.00     0.042 A 
BRANCH  15  16
ATOM     16  N   UNL A   1      44.359  23.416  24.991  1.00  0.00    -0.353 N 
ATOM     17  H   UNL A   1      45.058  23.501  24.304  1.00  0.00     0.167 HD
BRANCH  16  18
ATOM     18  C   UNL A   1      44.091  21.681  25.521  1.00  0.00     0.076 A 
ATOM     19  C   UNL A   1      44.945  20.435  25.177  1.00  0.00     0.066 A 
ATOM     20  C   UNL A   1      42.807  21.320  25.986  1.00  0.00     0.066 A 
ATOM     21  Cl  UNL A   1      46.572  20.164  24.465  1.00  0.00    -0.082 Cl
ATOM     22  C   UNL A   1      44.436  19.116  25.262  1.00  0.00     0.023 A 
ATOM     23  C   UNL A   1      42.338  19.968  25.943  1.00  0.00     0.023 A 
ATOM     24  Cl  UNL A   1      41.783  22.319  26.892  1.00  0.00    -0.082 Cl
ATOM     25  C   UNL A   1      43.123  18.886  25.570  1.00  0.00     0.003 A 
ENDBRANCH  16  18
ENDBRANCH  15  16
ENDBRANCH   8   9
ENDBRANCH   6   8
ENDBRANCH   5   6
ENDBRANCH   4   5
ENDBRANCH   3   4
ENDBRANCH   2   3
ENDBRANCH   1   2
BRANCH   1  26
ATOM     26  C   UNL A   1      52.313  29.381  21.212  1.00  0.00     0.188 C 
BRANCH  26  27
ATOM     27  O   UNL A   1      53.037  29.373  22.421  1.00  0.00    -0.376 OA
BRANCH  27  28
ATOM     28  C   UNL A   1      52.831  30.529  23.232  1.00  0.00     0.202 C 
BRANCH  28  29
ATOM     29  C   UNL A   1      52.467  31.930  22.562  1.00  0.00     0.261 C 
BRANCH  29  30
ATOM     30  O   UNL A   1      51.903  32.985  23.451  1.00  0.00    -0.460 OA
BRANCH  30  31
ATOM     31  C   UNL A   1      52.462  34.268  23.689  1.00  0.00     0.338 C 
ATOM     32  O   UNL A   1      53.034  34.817  22.766  1.00  0.00    -0.246 OA
BRANCH  31  33
ATOM     33  C   UNL A   1      52.117  34.876  25.246  1.00  0.00     0.060 A 
ATOM     34  C   UNL A   1      51.356  34.274  26.946  1.00  0.00     0.016 A 
ATOM     35  C   UNL A   1      51.109  36.122  24.410  1.00  0.00     0.016 A 
ATOM     36  C   UNL A   1      49.625  34.875  27.432  1.00  0.00     0.010 A 
ATOM     37  C   UNL A   1      49.480  36.490  24.914  1.00  0.00     0.010 A 
ATOM     38  C   UNL A   1      48.605  35.983  26.392  1.00  0.00    -0.014 A 
BRANCH  38  39
ATOM     39  C   UNL A   1      46.998  36.947  26.645  1.00  0.00     0.031 A 
ATOM     40  C   UNL A   1      46.563  38.721  26.058  1.00  0.00     0.074 A 
ATOM     41  C   UNL A   1      45.847  36.347  27.019  1.00  0.00     0.049 A 
ATOM     42  N   UNL A   1      46.254  39.778  26.789  1.00  0.00    -0.248 NA
ATOM     43  C   UNL A   1      46.997  39.473  24.625  1.00  0.00     0.031 C 
ATOM     44  C   UNL A   1      44.479  36.867  26.842  1.00  0.00     0.029 A 
ATOM     45  N   UNL A   1      45.630  35.088  27.557  1.00  0.00    -0.354 N 
ATOM     46  C   UNL A   1      46.344  40.937  25.938  1.00  0.00     0.074 A 
ATOM     47  C   UNL A   1      47.324  40.699  24.962  1.00  0.00     0.031 C 
ATOM     48  C   UNL A   1      43.618  36.093  27.531  1.00  0.00     0.029 A 
ATOM     49  C   UNL A   1      44.423  35.140  28.276  1.00  0.00     0.049 A 
ATOM     50  H   UNL A   1      46.214  34.303  27.454  1.00  0.00     0.167 HD
ATOM     51  C   UNL A   1      45.266  41.724  25.612  1.00  0.00     0.031 A 
ATOM     52  C   UNL A   1      44.536  35.057  29.627  1.00  0.00     0.031 A 
ATOM     53  C   UNL A   1      44.140  41.195  26.340  1.00  0.00     0.049 A 
ATOM     54  C   UNL A   1      44.304  36.452  30.203  1.00  0.00     0.074 A 
ATOM     55  C   UNL A   1      43.077  40.379  26.005  1.00  0.00     0.029 A 
ATOM     56  N   UNL A   1      44.337  41.047  27.697  1.00  0.00    -0.354 N 
ATOM     57  N   UNL A   1      44.419  37.560  29.506  1.00  0.00    -0.248 NA
ATOM     58  C   UNL A   1      43.723  36.703  31.518  1.00  0.00     0.031 C 
ATOM     59  C   UNL A   1      42.689  39.684  27.200  1.00  0.00     0.029 A 
ATOM     60  C   UNL A   1      43.527  40.074  28.235  1.00  0.00     0.049 A 
ATOM     61  H   UNL A   1      44.982  41.576  28.220  1.00  0.00     0.167 HD
ATOM     62  C   UNL A   1      43.855  38.604  30.177  1.00  0.00     0.074 A 
ATOM     63  C   UNL A   1      43.473  38.024  31.454  1.00  0.00     0.031 C 
ATOM     64  C   UNL A   1      43.650  39.858  29.672  1.00  0.00     0.031 A 
BRANCH  51  65
ATOM     65  C   UNL A   1      45.193  42.680  24.392  1.00  0.00    -0.014 A 
ATOM     66  C   UNL A   1      45.769  43.959  24.492  1.00  0.00     0.010 A 
ATOM     67  C   UNL A   1      44.615  42.394  23.123  1.00  0.00     0.010 A 
ATOM     68  C   UNL A   1      45.774  44.879  23.421  1.00  0.00     0.020 A 
ATOM     69  C   UNL A   1      44.554  43.324  22.060  1.00  0.00     0.020 A 
ATOM     70  C   UNL A   1      45.169  44.557  22.207  1.00  0.00     0.054 A 
BRANCH  70  71
ATOM     71  S   UNL A   1      45.283  45.720  20.815  1.00  0.00     0.124 S 
ATOM     72  O   UNL A   1      46.588  45.404  20.241  1.00  0.00    -0.237 OA
ATOM     73  O   UNL A   1      44.130  45.344  20.002  1.00  0.00    -0.237 OA
ATOM     74  O   UNL A   1      45.193  47.035  21.447  1.00  0.00    -0.744 OA
ENDBRANCH  70  71
ENDBRANCH  51  65
BRANCH  52  75
ATOM     75  C   UNL A   1      45.496  33.938  29.969  1.00  0.00    -0.014 A 
ATOM     76  C   UNL A   1      45.140  32.636  29.502  1.00  0.00     0.010 A 
ATOM     77  C   UNL A   1      46.853  34.142  30.280  1.00  0.00     0.010 A 
ATOM     78  C   UNL A   1      46.077  31.597  29.360  1.00  0.00     0.020 A 
ATOM     79  C   UNL A   1      47.799  33.092  30.152  1.00  0.00     0.020 A 
ATOM     80  C   UNL A   1      47.399  31.816  29.734  1.00  0.00     0.054 A 
BRANCH  80  81
ATOM     81  S   UNL A   1      48.597  30.436  29.643  1.00  0.00     0.124 S 
ATOM     82  O   UNL A   1      48.303  29.702  30.870  1.00  0.00    -0.237 OA
ATOM     83  O   UNL A   1      48.238  29.727  28.413  1.00  0.00    -0.237 OA
ATOM     84  O   UNL A   1      49.893  31.108  29.617  1.00  0.00    -0.744 OA
ENDBRANCH  80  81
ENDBRANCH  52  75
BRANCH  64  85
ATOM     85  C   UNL A   1      43.595  41.093  30.551  1.00  0.00    -0.014 A 
ATOM     86  C   UNL A   1      42.407  41.782  30.815  1.00  0.00     0.010 A 
ATOM     87  C   UNL A   1      44.737  41.475  31.307  1.00  0.00     0.010 A 
ATOM     88  C   UNL A   1      42.390  42.877  31.679  1.00  0.00     0.020 A 
ATOM     89  C   UNL A   1      44.701  42.483  32.262  1.00  0.00     0.020 A 
ATOM     90  C   UNL A   1      43.539  43.223  32.388  1.00  0.00     0.054 A 
BRANCH  90  91
ATOM     91  S   UNL A   1      43.512  44.674  33.452  1.00  0.00     0.124 S 
ATOM     92  O   UNL A   1      43.252  45.735  32.483  1.00  0.00    -0.237 OA
ATOM     93  O   UNL A   1      42.418  44.379  34.373  1.00  0.00    -0.237 OA
ATOM     94  O   UNL A   1      44.843  44.688  34.055  1.00  0.00    -0.744 OA
ENDBRANCH  90  91
ENDBRANCH  64  85
ENDBRANCH  38  39
ENDBRANCH  31  33
ENDBRANCH  30  31
ENDBRANCH  29  30
ENDBRANCH  28  29
ENDBRANCH  27  28
ENDBRANCH  26  27
ENDBRANCH   1  26
TORSDOF 23
ENDMDL
