MODEL 1
REMARK VINA RESULT:     -10.2      0.000      0.000
REMARK SMILES O=C(OCCOCCOCCOC(=O)c1[nH]ncc1C[NH+]1CCC([N@H+]2CCC[C@@H](C(=O)N3CCCC3)C2)CC1)c1ccc(-c2c3nc(c(-c4ccc(S(=O)(=O)[O-])cc4)c4ccc([nH]4)c(-c4ccc(S(=O)(=O)[O-])cc4)c4nc(c(-c5ccc(S(=O)(=O)[O-])cc5)c5ccc2[nH]5)C=C4)C=C3)cc1
REMARK SMILES IDX 8 1 7 2 6 3 5 4 4 5 3 6 2 7 1 8 40 9 41 10 99 11 42 12 98 13
REMARK SMILES IDX 43 14 44 15 45 16 92 17 46 18 97 19 91 20 93 21 47 22 96 23
REMARK SMILES IDX 90 24 89 25 48 27 78 28 59 29 77 30 60 31 63 32 76 33 94 34
REMARK SMILES IDX 61 35 62 36 75 38 95 39 64 40 49 41 50 42 58 43 51 44 57 45
REMARK SMILES IDX 52 46 53 47 54 48 55 49 56 50 79 51 80 52 88 53 81 54 87 55
REMARK SMILES IDX 82 56 83 57 84 58 85 59 86 60 65 61 66 62 74 63 67 64 73 65
REMARK SMILES IDX 68 66 69 67 70 68 71 69 72 70 9 71 10 72 11 73 12 74 13 75
REMARK SMILES IDX 14 76 15 77 16 78 19 79 17 80 18 82 20 83 21 84 22 85 39 86
REMARK SMILES IDX 23 88 38 89 24 90 25 91 26 92 37 93 27 95 29 96 28 97 30 98
REMARK SMILES IDX 31 99 32 100 33 101 36 102 34 103 35 104
REMARK H PARENT 93 26 63 37 16 81 21 87 25 94
REMARK Flexibility Score: inf
ROOT
ATOM      1  C   UNL A   1      35.807  23.475  25.028  1.00  0.00     0.188 C 
ENDROOT
BRANCH   1   2
ATOM      2  C   UNL A   1      36.389  22.212  25.657  1.00  0.00     0.188 C 
BRANCH   2   3
ATOM      3  O   UNL A   1      37.727  21.988  25.178  1.00  0.00    -0.376 OA
BRANCH   3   4
ATOM      4  C   UNL A   1      37.968  20.605  24.900  1.00  0.00     0.202 C 
BRANCH   4   5
ATOM      5  C   UNL A   1      38.974  19.998  25.885  1.00  0.00     0.261 C 
BRANCH   5   6
ATOM      6  O   UNL A   1      40.303  20.042  25.326  1.00  0.00    -0.460 OA
BRANCH   6   7
ATOM      7  C   UNL A   1      41.446  20.037  26.061  1.00  0.00     0.338 C 
ATOM      8  O   UNL A   1      42.055  18.997  26.285  1.00  0.00    -0.246 OA
BRANCH   7   9
ATOM      9  C   UNL A   1      42.057  21.332  26.431  1.00  0.00     0.060 A 
ATOM     10  C   UNL A   1      42.104  22.406  25.540  1.00  0.00     0.016 A 
ATOM     11  C   UNL A   1      42.510  21.493  27.745  1.00  0.00     0.016 A 
ATOM     12  C   UNL A   1      42.709  23.604  25.932  1.00  0.00     0.010 A 
ATOM     13  C   UNL A   1      43.059  22.714  28.153  1.00  0.00     0.010 A 
ATOM     14  C   UNL A   1      43.191  23.772  27.241  1.00  0.00    -0.014 A 
BRANCH  14  15
ATOM     15  C   UNL A   1      43.810  25.060  27.659  1.00  0.00     0.031 A 
ATOM     16  C   UNL A   1      45.239  25.378  27.320  1.00  0.00     0.074 A 
ATOM     17  C   UNL A   1      43.083  25.966  28.340  1.00  0.00     0.049 A 
ATOM     18  N   UNL A   1      45.934  26.448  27.613  1.00  0.00    -0.248 NA
ATOM     19  C   UNL A   1      45.980  24.364  26.556  1.00  0.00     0.031 C 
ATOM     20  C   UNL A   1      41.690  25.791  28.740  1.00  0.00     0.029 A 
ATOM     21  N   UNL A   1      43.411  27.213  28.810  1.00  0.00    -0.354 N 
ATOM     22  C   UNL A   1      47.198  26.235  27.082  1.00  0.00     0.074 A 
ATOM     23  C   UNL A   1      47.177  24.925  26.462  1.00  0.00     0.031 C 
ATOM     24  C   UNL A   1      41.269  26.899  29.370  1.00  0.00     0.029 A 
ATOM     25  C   UNL A   1      42.371  27.852  29.439  1.00  0.00     0.049 A 
ATOM     26  H   UNL A   1      44.305  27.611  28.705  1.00  0.00     0.167 HD
ATOM     27  C   UNL A   1      48.279  27.052  27.096  1.00  0.00     0.031 A 
ATOM     28  C   UNL A   1      42.301  29.068  30.014  1.00  0.00     0.031 A 
ATOM     29  C   UNL A   1      48.318  28.356  27.697  1.00  0.00     0.049 A 
ATOM     30  C   UNL A   1      43.508  29.954  30.028  1.00  0.00     0.074 A 
ATOM     31  C   UNL A   1      49.374  29.249  27.758  1.00  0.00     0.029 A 
ATOM     32  N   UNL A   1      47.249  28.959  28.341  1.00  0.00    -0.354 N 
ATOM     33  N   UNL A   1      44.697  29.725  29.525  1.00  0.00    -0.248 NA
ATOM     34  C   UNL A   1      43.367  31.257  30.691  1.00  0.00     0.031 C 
ATOM     35  C   UNL A   1      48.943  30.392  28.447  1.00  0.00     0.029 A 
ATOM     36  C   UNL A   1      47.616  30.212  28.803  1.00  0.00     0.049 A 
ATOM     37  H   UNL A   1      46.358  28.556  28.452  1.00  0.00     0.167 HD
ATOM     38  C   UNL A   1      45.448  30.858  29.812  1.00  0.00     0.074 A 
ATOM     39  C   UNL A   1      44.577  31.774  30.521  1.00  0.00     0.031 C 
ATOM     40  C   UNL A   1      46.745  31.110  29.514  1.00  0.00     0.031 A 
BRANCH  27  41
ATOM     41  C   UNL A   1      49.514  26.518  26.431  1.00  0.00    -0.014 A 
ATOM     42  C   UNL A   1      50.436  25.747  27.161  1.00  0.00     0.010 A 
ATOM     43  C   UNL A   1      49.791  26.850  25.094  1.00  0.00     0.010 A 
ATOM     44  C   UNL A   1      51.650  25.370  26.582  1.00  0.00     0.020 A 
ATOM     45  C   UNL A   1      51.000  26.466  24.510  1.00  0.00     0.020 A 
ATOM     46  C   UNL A   1      51.936  25.756  25.269  1.00  0.00     0.054 A 
BRANCH  46  47
ATOM     47  S   UNL A   1      53.544  25.330  24.548  1.00  0.00     0.124 S 
ATOM     48  O   UNL A   1      54.449  26.173  25.326  1.00  0.00    -0.237 OA
ATOM     49  O   UNL A   1      53.653  23.895  24.801  1.00  0.00    -0.237 OA
ATOM     50  O   UNL A   1      53.395  25.701  23.143  1.00  0.00    -0.744 OA
ENDBRANCH  46  47
ENDBRANCH  27  41
BRANCH  28  51
ATOM     51  C   UNL A   1      41.018  29.512  30.611  1.00  0.00    -0.014 A 
ATOM     52  C   UNL A   1      40.713  29.190  31.943  1.00  0.00     0.010 A 
ATOM     53  C   UNL A   1      40.131  30.311  29.870  1.00  0.00     0.010 A 
ATOM     54  C   UNL A   1      39.538  29.664  32.531  1.00  0.00     0.020 A 
ATOM     55  C   UNL A   1      38.958  30.793  30.458  1.00  0.00     0.020 A 
ATOM     56  C   UNL A   1      38.668  30.463  31.784  1.00  0.00     0.054 A 
BRANCH  56  57
ATOM     57  S   UNL A   1      37.186  31.140  32.581  1.00  0.00     0.124 S 
ATOM     58  O   UNL A   1      36.163  30.177  32.186  1.00  0.00    -0.237 OA
ATOM     59  O   UNL A   1      37.548  31.132  33.997  1.00  0.00    -0.237 OA
ATOM     60  O   UNL A   1      37.065  32.468  31.986  1.00  0.00    -0.744 OA
ENDBRANCH  56  57
ENDBRANCH  28  51
BRANCH  40  61
ATOM     61  C   UNL A   1      47.297  32.432  29.960  1.00  0.00    -0.014 A 
ATOM     62  C   UNL A   1      47.866  32.568  31.239  1.00  0.00     0.010 A 
ATOM     63  C   UNL A   1      47.264  33.537  29.095  1.00  0.00     0.010 A 
ATOM     64  C   UNL A   1      48.379  33.801  31.652  1.00  0.00     0.020 A 
ATOM     65  C   UNL A   1      47.783  34.769  29.503  1.00  0.00     0.020 A 
ATOM     66  C   UNL A   1      48.326  34.896  30.785  1.00  0.00     0.054 A 
BRANCH  66  67
ATOM     67  S   UNL A   1      49.027  36.485  31.311  1.00  0.00     0.124 S 
ATOM     68  O   UNL A   1      47.843  37.337  31.360  1.00  0.00    -0.237 OA
ATOM     69  O   UNL A   1      49.628  36.170  32.606  1.00  0.00    -0.237 OA
ATOM     70  O   UNL A   1      49.983  36.800  30.252  1.00  0.00    -0.744 OA
ENDBRANCH  66  67
ENDBRANCH  40  61
ENDBRANCH  14  15
ENDBRANCH   7   9
ENDBRANCH   6   7
ENDBRANCH   5   6
ENDBRANCH   4   5
ENDBRANCH   3   4
ENDBRANCH   2   3
ENDBRANCH   1   2
BRANCH   1  71
ATOM     71  O   UNL A   1      34.450  23.279  24.615  1.00  0.00    -0.376 OA
BRANCH  71  72
ATOM     72  C   UNL A   1      34.289  22.930  23.240  1.00  0.00     0.202 C 
BRANCH  72  73
ATOM     73  C   UNL A   1      33.274  23.842  22.543  1.00  0.00     0.261 C 
BRANCH  73  74
ATOM     74  O   UNL A   1      33.089  25.077  23.256  1.00  0.00    -0.459 OA
BRANCH  74  75
ATOM     75  C   UNL A   1      33.069  26.212  22.513  1.00  0.00     0.356 C 
ATOM     76  O   UNL A   1      33.903  26.532  21.676  1.00  0.00    -0.244 OA
BRANCH  75  77
ATOM     77  C   UNL A   1      31.880  26.962  22.787  1.00  0.00     0.152 A 
ATOM     78  N   UNL A   1      31.081  27.423  21.778  1.00  0.00    -0.271 N 
ATOM     79  C   UNL A   1      31.322  27.450  23.965  1.00  0.00     0.059 A 
ATOM     80  N   UNL A   1      30.023  28.130  22.199  1.00  0.00    -0.183 NA
ATOM     81  H   UNL A   1      31.265  27.250  20.826  1.00  0.00     0.190 HD
ATOM     82  C   UNL A   1      30.185  28.172  23.522  1.00  0.00     0.145 A 
BRANCH  79  83
ATOM     83  C   UNL A   1      31.811  27.317  25.377  1.00  0.00     0.303 C 
BRANCH  83  84
ATOM     84  N   UNL A   1      32.643  28.445  25.819  1.00  0.00    -0.331 N 
ATOM     85  C   UNL A   1      31.885  29.537  26.423  1.00  0.00     0.268 C 
ATOM     86  C   UNL A   1      33.823  28.025  26.595  1.00  0.00     0.268 C 
ATOM     87  H   UNL A   1      33.024  28.853  24.966  1.00  0.00     0.348 HD
ATOM     88  C   UNL A   1      32.760  30.720  26.821  1.00  0.00     0.126 C 
ATOM     89  C   UNL A   1      34.707  29.198  27.036  1.00  0.00     0.126 C 
ATOM     90  C   UNL A   1      33.854  30.232  27.782  1.00  0.00     0.195 C 
BRANCH  90  91
ATOM     91  N   UNL A   1      34.639  31.294  28.444  1.00  0.00    -0.331 N 
ATOM     92  C   UNL A   1      35.898  31.642  27.778  1.00  0.00     0.262 C 
ATOM     93  C   UNL A   1      33.811  32.487  28.679  1.00  0.00     0.275 C 
ATOM     94  H   UNL A   1      34.924  30.899  29.340  1.00  0.00     0.348 HD
ATOM     95  C   UNL A   1      36.689  32.672  28.599  1.00  0.00     0.062 C 
ATOM     96  C   UNL A   1      34.535  33.475  29.594  1.00  0.00     0.134 C 
ATOM     97  C   UNL A   1      35.853  33.905  28.954  1.00  0.00     0.025 C 
BRANCH  96  98
ATOM     98  C   UNL A   1      33.605  34.653  29.859  1.00  0.00     0.231 C 
ATOM     99  O   UNL A   1      32.710  34.957  29.066  1.00  0.00    -0.274 OA
ATOM    100  N   UNL A   1      33.771  35.354  31.033  1.00  0.00    -0.342 N 
ATOM    101  C   UNL A   1      34.850  35.259  32.002  1.00  0.00     0.119 C 
ATOM    102  C   UNL A   1      32.752  36.292  31.468  1.00  0.00     0.119 C 
ATOM    103  C   UNL A   1      34.251  35.841  33.273  1.00  0.00     0.023 C 
ATOM    104  C   UNL A   1      33.296  36.907  32.749  1.00  0.00     0.023 C 
ENDBRANCH  96  98
ENDBRANCH  90  91
ENDBRANCH  83  84
ENDBRANCH  79  83
ENDBRANCH  75  77
ENDBRANCH  74  75
ENDBRANCH  73  74
ENDBRANCH  72  73
ENDBRANCH  71  72
ENDBRANCH   1  71
TORSDOF 24
ENDMDL
MODEL 2
REMARK VINA RESULT:      -9.7      5.047     12.276
REMARK SMILES O=C(OCCOCCOCCOC(=O)c1[nH]ncc1C[NH+]1CCC([N@H+]2CCC[C@@H](C(=O)N3CCCC3)C2)CC1)c1ccc(-c2c3nc(c(-c4ccc(S(=O)(=O)[O-])cc4)c4ccc([nH]4)c(-c4ccc(S(=O)(=O)[O-])cc4)c4nc(c(-c5ccc(S(=O)(=O)[O-])cc5)c5ccc2[nH]5)C=C4)C=C3)cc1
REMARK SMILES IDX 8 1 7 2 6 3 5 4 4 5 3 6 2 7 1 8 40 9 41 10 99 11 42 12 98 13
REMARK SMILES IDX 43 14 44 15 45 16 92 17 46 18 97 19 91 20 93 21 47 22 96 23
REMARK SMILES IDX 90 24 89 25 48 27 78 28 59 29 77 30 60 31 63 32 76 33 94 34
REMARK SMILES IDX 61 35 62 36 75 38 95 39 64 40 49 41 50 42 58 43 51 44 57 45
REMARK SMILES IDX 52 46 53 47 54 48 55 49 56 50 79 51 80 52 88 53 81 54 87 55
REMARK SMILES IDX 82 56 83 57 84 58 85 59 86 60 65 61 66 62 74 63 67 64 73 65
REMARK SMILES IDX 68 66 69 67 70 68 71 69 72 70 9 71 10 72 11 73 12 74 13 75
REMARK SMILES IDX 14 76 15 77 16 78 19 79 17 80 18 82 20 83 21 84 22 85 39 86
REMARK SMILES IDX 23 88 38 89 24 90 25 91 26 92 37 93 27 95 29 96 28 97 30 98
REMARK SMILES IDX 31 99 32 100 33 101 36 102 34 103 35 104
REMARK H PARENT 93 26 63 37 16 81 21 87 25 94
REMARK Flexibility Score: inf
ROOT
ATOM      1  C   UNL A   1      32.320  29.740  25.477  1.00  0.00     0.188 C 
ENDROOT
BRANCH   1   2
ATOM      2  C   UNL A   1      31.992  30.800  26.526  1.00  0.00     0.188 C 
BRANCH   2   3
ATOM      3  O   UNL A   1      32.943  30.746  27.603  1.00  0.00    -0.376 OA
BRANCH   3   4
ATOM      4  C   UNL A   1      33.749  31.928  27.662  1.00  0.00     0.202 C 
BRANCH   4   5
ATOM      5  C   UNL A   1      32.889  33.197  27.673  1.00  0.00     0.261 C 
BRANCH   5   6
ATOM      6  O   UNL A   1      33.606  34.275  28.309  1.00  0.00    -0.460 OA
BRANCH   6   7
ATOM      7  C   UNL A   1      33.767  34.403  29.652  1.00  0.00     0.338 C 
ATOM      8  O   UNL A   1      32.849  34.780  30.372  1.00  0.00    -0.246 OA
BRANCH   7   9
ATOM      9  C   UNL A   1      35.013  33.898  30.268  1.00  0.00     0.060 A 
ATOM     10  C   UNL A   1      36.243  34.529  30.071  1.00  0.00     0.016 A 
ATOM     11  C   UNL A   1      34.919  32.810  31.144  1.00  0.00     0.016 A 
ATOM     12  C   UNL A   1      37.395  34.001  30.660  1.00  0.00     0.010 A 
ATOM     13  C   UNL A   1      36.064  32.321  31.781  1.00  0.00     0.010 A 
ATOM     14  C   UNL A   1      37.319  32.894  31.522  1.00  0.00    -0.014 A 
BRANCH  14  15
ATOM     15  C   UNL A   1      38.548  32.354  32.167  1.00  0.00     0.031 A 
ATOM     16  C   UNL A   1      38.842  32.623  33.615  1.00  0.00     0.074 A 
ATOM     17  C   UNL A   1      39.408  31.604  31.453  1.00  0.00     0.049 A 
ATOM     18  N   UNL A   1      39.868  32.235  34.330  1.00  0.00    -0.248 NA
ATOM     19  C   UNL A   1      37.860  33.428  34.354  1.00  0.00     0.031 C 
ATOM     20  C   UNL A   1      39.252  31.267  30.041  1.00  0.00     0.029 A 
ATOM     21  N   UNL A   1      40.578  30.984  31.817  1.00  0.00    -0.354 N 
ATOM     22  C   UNL A   1      39.665  32.759  35.599  1.00  0.00     0.074 A 
ATOM     23  C   UNL A   1      38.423  33.505  35.551  1.00  0.00     0.031 C 
ATOM     24  C   UNL A   1      40.270  30.478  29.661  1.00  0.00     0.029 A 
ATOM     25  C   UNL A   1      41.162  30.274  30.797  1.00  0.00     0.049 A 
ATOM     26  H   UNL A   1      40.960  31.043  32.722  1.00  0.00     0.167 HD
ATOM     27  C   UNL A   1      40.430  32.628  36.710  1.00  0.00     0.031 A 
ATOM     28  C   UNL A   1      42.290  29.541  30.767  1.00  0.00     0.031 A 
ATOM     29  C   UNL A   1      41.659  31.886  36.781  1.00  0.00     0.049 A 
ATOM     30  C   UNL A   1      43.129  29.414  32.001  1.00  0.00     0.074 A 
ATOM     31  C   UNL A   1      42.498  31.705  37.867  1.00  0.00     0.029 A 
ATOM     32  N   UNL A   1      42.225  31.198  35.721  1.00  0.00    -0.354 N 
ATOM     33  N   UNL A   1      42.917  29.927  33.189  1.00  0.00    -0.248 NA
ATOM     34  C   UNL A   1      44.357  28.617  31.890  1.00  0.00     0.031 C 
ATOM     35  C   UNL A   1      43.578  30.910  37.459  1.00  0.00     0.029 A 
ATOM     36  C   UNL A   1      43.403  30.589  36.123  1.00  0.00     0.049 A 
ATOM     37  H   UNL A   1      41.846  31.147  34.814  1.00  0.00     0.167 HD
ATOM     38  C   UNL A   1      43.990  29.514  33.969  1.00  0.00     0.074 A 
ATOM     39  C   UNL A   1      44.840  28.701  33.123  1.00  0.00     0.031 C 
ATOM     40  C   UNL A   1      44.244  29.790  35.271  1.00  0.00     0.031 A 
BRANCH  27  41
ATOM     41  C   UNL A   1      39.930  33.330  37.938  1.00  0.00    -0.014 A 
ATOM     42  C   UNL A   1      40.362  34.635  38.235  1.00  0.00     0.010 A 
ATOM     43  C   UNL A   1      39.085  32.657  38.837  1.00  0.00     0.010 A 
ATOM     44  C   UNL A   1      40.008  35.234  39.446  1.00  0.00     0.020 A 
ATOM     45  C   UNL A   1      38.722  33.258  40.045  1.00  0.00     0.020 A 
ATOM     46  C   UNL A   1      39.213  34.530  40.355  1.00  0.00     0.054 A 
BRANCH  46  47
ATOM     47  S   UNL A   1      38.819  35.281  41.958  1.00  0.00     0.124 S 
ATOM     48  O   UNL A   1      39.607  36.510  41.910  1.00  0.00    -0.237 OA
ATOM     49  O   UNL A   1      37.371  35.463  41.894  1.00  0.00    -0.237 OA
ATOM     50  O   UNL A   1      39.274  34.282  42.922  1.00  0.00    -0.744 OA
ENDBRANCH  46  47
ENDBRANCH  27  41
BRANCH  28  51
ATOM     51  C   UNL A   1      42.674  28.857  29.508  1.00  0.00    -0.014 A 
ATOM     52  C   UNL A   1      42.109  27.613  29.182  1.00  0.00     0.010 A 
ATOM     53  C   UNL A   1      43.555  29.477  28.605  1.00  0.00     0.010 A 
ATOM     54  C   UNL A   1      42.416  26.997  27.966  1.00  0.00     0.020 A 
ATOM     55  C   UNL A   1      43.857  28.866  27.384  1.00  0.00     0.020 A 
ATOM     56  C   UNL A   1      43.288  27.629  27.075  1.00  0.00     0.054 A 
BRANCH  56  57
ATOM     57  S   UNL A   1      43.615  26.860  25.465  1.00  0.00     0.124 S 
ATOM     58  O   UNL A   1      42.350  27.067  24.767  1.00  0.00    -0.237 OA
ATOM     59  O   UNL A   1      44.749  27.632  24.962  1.00  0.00    -0.237 OA
ATOM     60  O   UNL A   1      43.922  25.475  25.815  1.00  0.00    -0.744 OA
ENDBRANCH  56  57
ENDBRANCH  28  51
BRANCH  40  61
ATOM     61  C   UNL A   1      45.497  29.206  35.854  1.00  0.00    -0.014 A 
ATOM     62  C   UNL A   1      45.470  27.944  36.473  1.00  0.00     0.010 A 
ATOM     63  C   UNL A   1      46.709  29.910  35.768  1.00  0.00     0.010 A 
ATOM     64  C   UNL A   1      46.638  27.402  37.015  1.00  0.00     0.020 A 
ATOM     65  C   UNL A   1      47.880  29.367  36.304  1.00  0.00     0.020 A 
ATOM     66  C   UNL A   1      47.834  28.120  36.935  1.00  0.00     0.054 A 
BRANCH  66  67
ATOM     67  S   UNL A   1      49.357  27.397  37.609  1.00  0.00     0.124 S 
ATOM     68  O   UNL A   1      50.310  27.639  36.530  1.00  0.00    -0.237 OA
ATOM     69  O   UNL A   1      49.579  28.170  38.829  1.00  0.00    -0.237 OA
ATOM     70  O   UNL A   1      48.997  25.997  37.825  1.00  0.00    -0.744 OA
ENDBRANCH  66  67
ENDBRANCH  40  61
ENDBRANCH  14  15
ENDBRANCH   7   9
ENDBRANCH   6   7
ENDBRANCH   5   6
ENDBRANCH   4   5
ENDBRANCH   3   4
ENDBRANCH   2   3
ENDBRANCH   1   2
BRANCH   1  71
ATOM     71  O   UNL A   1      33.405  28.905  25.896  1.00  0.00    -0.376 OA
BRANCH  71  72
ATOM     72  C   UNL A   1      33.033  27.570  26.239  1.00  0.00     0.202 C 
BRANCH  72  73
ATOM     73  C   UNL A   1      33.167  26.622  25.042  1.00  0.00     0.261 C 
BRANCH  73  74
ATOM     74  O   UNL A   1      31.884  26.269  24.497  1.00  0.00    -0.459 OA
BRANCH  74  75
ATOM     75  C   UNL A   1      31.576  24.948  24.469  1.00  0.00     0.356 C 
ATOM     76  O   UNL A   1      30.723  24.400  25.155  1.00  0.00    -0.244 OA
BRANCH  75  77
ATOM     77  C   UNL A   1      32.340  24.283  23.457  1.00  0.00     0.152 A 
ATOM     78  N   UNL A   1      32.413  24.773  22.182  1.00  0.00    -0.271 N 
ATOM     79  C   UNL A   1      33.046  23.083  23.442  1.00  0.00     0.059 A 
ATOM     80  N   UNL A   1      33.144  24.021  21.349  1.00  0.00    -0.183 NA
ATOM     81  H   UNL A   1      31.969  25.606  21.901  1.00  0.00     0.190 HD
ATOM     82  C   UNL A   1      33.502  22.981  22.103  1.00  0.00     0.145 A 
BRANCH  79  83
ATOM     83  C   UNL A   1      33.244  22.082  24.541  1.00  0.00     0.303 C 
BRANCH  83  84
ATOM     84  N   UNL A   1      34.557  22.179  25.195  1.00  0.00    -0.331 N 
ATOM     85  C   UNL A   1      35.538  21.221  24.694  1.00  0.00     0.268 C 
ATOM     86  C   UNL A   1      35.054  23.562  25.291  1.00  0.00     0.268 C 
ATOM     87  H   UNL A   1      34.401  21.890  26.160  1.00  0.00     0.348 HD
ATOM     88  C   UNL A   1      36.873  21.300  25.426  1.00  0.00     0.126 C 
ATOM     89  C   UNL A   1      36.412  23.670  25.996  1.00  0.00     0.126 C 
ATOM     90  C   UNL A   1      37.419  22.732  25.318  1.00  0.00     0.195 C 
BRANCH  90  91
ATOM     91  N   UNL A   1      38.813  22.917  25.770  1.00  0.00    -0.331 N 
ATOM     92  C   UNL A   1      38.984  23.858  26.882  1.00  0.00     0.262 C 
ATOM     93  C   UNL A   1      39.443  21.622  26.064  1.00  0.00     0.275 C 
ATOM     94  H   UNL A   1      39.294  23.357  24.985  1.00  0.00     0.348 HD
ATOM     95  C   UNL A   1      40.472  24.065  27.203  1.00  0.00     0.062 C 
ATOM     96  C   UNL A   1      40.950  21.789  26.271  1.00  0.00     0.134 C 
ATOM     97  C   UNL A   1      41.211  22.743  27.434  1.00  0.00     0.025 C 
BRANCH  96  98
ATOM     98  C   UNL A   1      41.558  20.411  26.500  1.00  0.00     0.231 C 
ATOM     99  O   UNL A   1      40.954  19.537  27.126  1.00  0.00    -0.274 OA
ATOM    100  N   UNL A   1      42.798  20.156  25.957  1.00  0.00    -0.342 N 
ATOM    101  C   UNL A   1      43.728  21.086  25.339  1.00  0.00     0.119 C 
ATOM    102  C   UNL A   1      43.298  18.794  25.900  1.00  0.00     0.119 C 
ATOM    103  C   UNL A   1      44.626  20.196  24.494  1.00  0.00     0.023 C 
ATOM    104  C   UNL A   1      44.692  18.906  25.301  1.00  0.00     0.023 C 
ENDBRANCH  96  98
ENDBRANCH  90  91
ENDBRANCH  83  84
ENDBRANCH  79  83
ENDBRANCH  75  77
ENDBRANCH  74  75
ENDBRANCH  73  74
ENDBRANCH  72  73
ENDBRANCH  71  72
ENDBRANCH   1  71
TORSDOF 24
ENDMDL
MODEL 3
REMARK VINA RESULT:      -9.7      6.120     12.647
REMARK SMILES O=C(OCCOCCOCCOC(=O)c1[nH]ncc1C[NH+]1CCC([N@H+]2CCC[C@@H](C(=O)N3CCCC3)C2)CC1)c1ccc(-c2c3nc(c(-c4ccc(S(=O)(=O)[O-])cc4)c4ccc([nH]4)c(-c4ccc(S(=O)(=O)[O-])cc4)c4nc(c(-c5ccc(S(=O)(=O)[O-])cc5)c5ccc2[nH]5)C=C4)C=C3)cc1
REMARK SMILES IDX 8 1 7 2 6 3 5 4 4 5 3 6 2 7 1 8 40 9 41 10 99 11 42 12 98 13
REMARK SMILES IDX 43 14 44 15 45 16 92 17 46 18 97 19 91 20 93 21 47 22 96 23
REMARK SMILES IDX 90 24 89 25 48 27 78 28 59 29 77 30 60 31 63 32 76 33 94 34
REMARK SMILES IDX 61 35 62 36 75 38 95 39 64 40 49 41 50 42 58 43 51 44 57 45
REMARK SMILES IDX 52 46 53 47 54 48 55 49 56 50 79 51 80 52 88 53 81 54 87 55
REMARK SMILES IDX 82 56 83 57 84 58 85 59 86 60 65 61 66 62 74 63 67 64 73 65
REMARK SMILES IDX 68 66 69 67 70 68 71 69 72 70 9 71 10 72 11 73 12 74 13 75
REMARK SMILES IDX 14 76 15 77 16 78 19 79 17 80 18 82 20 83 21 84 22 85 39 86
REMARK SMILES IDX 23 88 38 89 24 90 25 91 26 92 37 93 27 95 29 96 28 97 30 98
REMARK SMILES IDX 31 99 32 100 33 101 36 102 34 103 35 104
REMARK H PARENT 93 26 63 37 16 81 21 87 25 94
REMARK Flexibility Score: inf
ROOT
ATOM      1  C   UNL A   1      37.408  19.802  24.638  1.00  0.00     0.188 C 
ENDROOT
BRANCH   1   2
ATOM      2  C   UNL A   1      36.914  21.025  25.407  1.00  0.00     0.188 C 
BRANCH   2   3
ATOM      3  O   UNL A   1      36.617  22.098  24.497  1.00  0.00    -0.376 OA
BRANCH   3   4
ATOM      4  C   UNL A   1      37.475  23.225  24.704  1.00  0.00     0.202 C 
BRANCH   4   5
ATOM      5  C   UNL A   1      38.375  23.031  25.930  1.00  0.00     0.261 C 
BRANCH   5   6
ATOM      6  O   UNL A   1      38.552  24.286  26.619  1.00  0.00    -0.460 OA
BRANCH   6   7
ATOM      7  C   UNL A   1      39.758  24.820  26.945  1.00  0.00     0.338 C 
ATOM      8  O   UNL A   1      40.759  24.588  26.277  1.00  0.00    -0.246 OA
BRANCH   7   9
ATOM      9  C   UNL A   1      39.815  25.844  28.011  1.00  0.00     0.060 A 
ATOM     10  C   UNL A   1      40.647  26.962  27.916  1.00  0.00     0.016 A 
ATOM     11  C   UNL A   1      38.935  25.717  29.092  1.00  0.00     0.016 A 
ATOM     12  C   UNL A   1      40.679  27.892  28.960  1.00  0.00     0.010 A 
ATOM     13  C   UNL A   1      38.925  26.682  30.105  1.00  0.00     0.010 A 
ATOM     14  C   UNL A   1      39.818  27.763  30.064  1.00  0.00    -0.014 A 
BRANCH  14  15
ATOM     15  C   UNL A   1      39.839  28.773  31.158  1.00  0.00     0.031 A 
ATOM     16  C   UNL A   1      38.888  29.936  31.155  1.00  0.00     0.074 A 
ATOM     17  C   UNL A   1      40.712  28.645  32.175  1.00  0.00     0.049 A 
ATOM     18  N   UNL A   1      38.778  30.908  32.025  1.00  0.00    -0.248 NA
ATOM     19  C   UNL A   1      37.942  30.016  30.034  1.00  0.00     0.031 C 
ATOM     20  C   UNL A   1      41.693  27.572  32.305  1.00  0.00     0.029 A 
ATOM     21  N   UNL A   1      40.910  29.416  33.293  1.00  0.00    -0.354 N 
ATOM     22  C   UNL A   1      37.760  31.725  31.552  1.00  0.00     0.074 A 
ATOM     23  C   UNL A   1      37.296  31.140  30.309  1.00  0.00     0.031 C 
ATOM     24  C   UNL A   1      42.372  27.732  33.452  1.00  0.00     0.029 A 
ATOM     25  C   UNL A   1      41.891  28.933  34.124  1.00  0.00     0.049 A 
ATOM     26  H   UNL A   1      40.398  30.235  33.480  1.00  0.00     0.167 HD
ATOM     27  C   UNL A   1      37.246  32.853  32.100  1.00  0.00     0.031 A 
ATOM     28  C   UNL A   1      42.359  29.397  35.298  1.00  0.00     0.031 A 
ATOM     29  C   UNL A   1      37.685  33.444  33.334  1.00  0.00     0.049 A 
ATOM     30  C   UNL A   1      41.786  30.651  35.884  1.00  0.00     0.074 A 
ATOM     31  C   UNL A   1      37.220  34.588  33.959  1.00  0.00     0.029 A 
ATOM     32  N   UNL A   1      38.693  32.934  34.136  1.00  0.00    -0.354 N 
ATOM     33  N   UNL A   1      40.827  31.410  35.412  1.00  0.00    -0.248 NA
ATOM     34  C   UNL A   1      42.360  31.112  37.154  1.00  0.00     0.031 C 
ATOM     35  C   UNL A   1      37.954  34.773  35.138  1.00  0.00     0.029 A 
ATOM     36  C   UNL A   1      38.868  33.737  35.250  1.00  0.00     0.049 A 
ATOM     37  H   UNL A   1      39.210  32.118  33.942  1.00  0.00     0.167 HD
ATOM     38  C   UNL A   1      40.683  32.443  36.330  1.00  0.00     0.074 A 
ATOM     39  C   UNL A   1      41.643  32.204  37.389  1.00  0.00     0.031 C 
ATOM     40  C   UNL A   1      39.831  33.495  36.292  1.00  0.00     0.031 A 
BRANCH  27  41
ATOM     41  C   UNL A   1      36.142  33.513  31.327  1.00  0.00    -0.014 A 
ATOM     42  C   UNL A   1      36.306  33.803  29.962  1.00  0.00     0.010 A 
ATOM     43  C   UNL A   1      34.966  33.913  31.986  1.00  0.00     0.010 A 
ATOM     44  C   UNL A   1      35.337  34.542  29.279  1.00  0.00     0.020 A 
ATOM     45  C   UNL A   1      33.991  34.643  31.303  1.00  0.00     0.020 A 
ATOM     46  C   UNL A   1      34.198  34.980  29.962  1.00  0.00     0.054 A 
BRANCH  46  47
ATOM     47  S   UNL A   1      32.980  36.004  29.091  1.00  0.00     0.124 S 
ATOM     48  O   UNL A   1      33.834  37.005  28.457  1.00  0.00    -0.237 OA
ATOM     49  O   UNL A   1      32.341  35.058  28.179  1.00  0.00    -0.237 OA
ATOM     50  O   UNL A   1      32.123  36.500  30.166  1.00  0.00    -0.744 OA
ENDBRANCH  46  47
ENDBRANCH  27  41
BRANCH  28  51
ATOM     51  C   UNL A   1      43.430  28.646  35.997  1.00  0.00    -0.014 A 
ATOM     52  C   UNL A   1      44.754  29.113  35.964  1.00  0.00     0.010 A 
ATOM     53  C   UNL A   1      43.117  27.499  36.747  1.00  0.00     0.010 A 
ATOM     54  C   UNL A   1      45.753  28.447  36.677  1.00  0.00     0.020 A 
ATOM     55  C   UNL A   1      44.114  26.835  37.468  1.00  0.00     0.020 A 
ATOM     56  C   UNL A   1      45.426  27.312  37.425  1.00  0.00     0.054 A 
BRANCH  56  57
ATOM     57  S   UNL A   1      46.715  26.502  38.412  1.00  0.00     0.124 S 
ATOM     58  O   UNL A   1      45.959  26.029  39.568  1.00  0.00    -0.237 OA
ATOM     59  O   UNL A   1      47.208  25.464  37.510  1.00  0.00    -0.237 OA
ATOM     60  O   UNL A   1      47.659  27.584  38.677  1.00  0.00    -0.744 OA
ENDBRANCH  56  57
ENDBRANCH  28  51
BRANCH  40  61
ATOM     61  C   UNL A   1      39.905  34.466  37.432  1.00  0.00    -0.014 A 
ATOM     62  C   UNL A   1      39.115  34.276  38.580  1.00  0.00     0.010 A 
ATOM     63  C   UNL A   1      40.779  35.564  37.368  1.00  0.00     0.010 A 
ATOM     64  C   UNL A   1      39.185  35.183  39.641  1.00  0.00     0.020 A 
ATOM     65  C   UNL A   1      40.856  36.468  38.431  1.00  0.00     0.020 A 
ATOM     66  C   UNL A   1      40.049  36.278  39.556  1.00  0.00     0.054 A 
BRANCH  66  67
ATOM     67  S   UNL A   1      40.165  37.433  40.952  1.00  0.00     0.124 S 
ATOM     68  O   UNL A   1      39.996  36.543  42.096  1.00  0.00    -0.237 OA
ATOM     69  O   UNL A   1      41.500  38.008  40.795  1.00  0.00    -0.237 OA
ATOM     70  O   UNL A   1      39.064  38.363  40.712  1.00  0.00    -0.744 OA
ENDBRANCH  66  67
ENDBRANCH  40  61
ENDBRANCH  14  15
ENDBRANCH   7   9
ENDBRANCH   6   7
ENDBRANCH   5   6
ENDBRANCH   4   5
ENDBRANCH   3   4
ENDBRANCH   2   3
ENDBRANCH   1   2
BRANCH   1  71
ATOM     71  O   UNL A   1      38.835  19.698  24.678  1.00  0.00    -0.376 OA
BRANCH  71  72
ATOM     72  C   UNL A   1      39.362  19.160  25.890  1.00  0.00     0.202 C 
BRANCH  72  73
ATOM     73  C   UNL A   1      40.696  19.813  26.265  1.00  0.00     0.261 C 
BRANCH  73  74
ATOM     74  O   UNL A   1      41.745  19.443  25.352  1.00  0.00    -0.459 OA
BRANCH  74  75
ATOM     75  C   UNL A   1      42.881  18.944  25.899  1.00  0.00     0.356 C 
ATOM     76  O   UNL A   1      42.960  17.926  26.575  1.00  0.00    -0.244 OA
BRANCH  75  77
ATOM     77  C   UNL A   1      44.008  19.736  25.508  1.00  0.00     0.152 A 
ATOM     78  N   UNL A   1      45.234  19.172  25.290  1.00  0.00    -0.271 N 
ATOM     79  C   UNL A   1      44.190  21.108  25.351  1.00  0.00     0.059 A 
ATOM     80  N   UNL A   1      46.189  20.051  24.958  1.00  0.00    -0.183 NA
ATOM     81  H   UNL A   1      45.401  18.204  25.369  1.00  0.00     0.190 HD
ATOM     82  C   UNL A   1      45.564  21.227  25.025  1.00  0.00     0.145 A 
BRANCH  79  83
ATOM     83  C   UNL A   1      43.207  22.225  25.536  1.00  0.00     0.303 C 
BRANCH  83  84
ATOM     84  N   UNL A   1      43.406  22.984  26.779  1.00  0.00    -0.331 N 
ATOM     85  C   UNL A   1      42.905  22.305  27.971  1.00  0.00     0.268 C 
ATOM     86  C   UNL A   1      44.770  23.522  26.916  1.00  0.00     0.268 C 
ATOM     87  H   UNL A   1      42.808  23.805  26.695  1.00  0.00     0.348 HD
ATOM     88  C   UNL A   1      43.069  23.134  29.241  1.00  0.00     0.126 C 
ATOM     89  C   UNL A   1      44.974  24.336  28.201  1.00  0.00     0.126 C 
ATOM     90  C   UNL A   1      44.551  23.496  29.413  1.00  0.00     0.195 C 
BRANCH  90  91
ATOM     91  N   UNL A   1      44.913  24.094  30.715  1.00  0.00    -0.331 N 
ATOM     92  C   UNL A   1      44.477  25.482  30.901  1.00  0.00     0.262 C 
ATOM     93  C   UNL A   1      44.464  23.240  31.825  1.00  0.00     0.275 C 
ATOM     94  H   UNL A   1      45.931  24.142  30.715  1.00  0.00     0.348 HD
ATOM     95  C   UNL A   1      44.993  26.046  32.234  1.00  0.00     0.062 C 
ATOM     96  C   UNL A   1      45.066  23.715  33.149  1.00  0.00     0.134 C 
ATOM     97  C   UNL A   1      44.636  25.153  33.426  1.00  0.00     0.025 C 
BRANCH  96  98
ATOM     98  C   UNL A   1      44.627  22.754  34.247  1.00  0.00     0.231 C 
ATOM     99  O   UNL A   1      43.461  22.728  34.651  1.00  0.00    -0.274 OA
ATOM    100  N   UNL A   1      45.566  21.886  34.757  1.00  0.00    -0.342 N 
ATOM    101  C   UNL A   1      47.002  21.871  34.536  1.00  0.00     0.119 C 
ATOM    102  C   UNL A   1      45.149  20.773  35.590  1.00  0.00     0.119 C 
ATOM    103  C   UNL A   1      47.411  20.451  34.895  1.00  0.00     0.023 C 
ATOM    104  C   UNL A   1      46.438  20.081  36.007  1.00  0.00     0.023 C 
ENDBRANCH  96  98
ENDBRANCH  90  91
ENDBRANCH  83  84
ENDBRANCH  79  83
ENDBRANCH  75  77
ENDBRANCH  74  75
ENDBRANCH  73  74
ENDBRANCH  72  73
ENDBRANCH  71  72
ENDBRANCH   1  71
TORSDOF 24
ENDMDL
