MODEL 1
REMARK VINA RESULT:     -11.0      0.000      0.000
REMARK SMILES CC1=Nc2ncnn2[C@H](c2ccc(F)cc2)[C@@H]1C(=O)OCCOCCOCCOC(=O)c1ccc(-c2c3nc(c(-c4ccc(S(=O)(=O)[O-])cc4)c4ccc([nH]4)c(-c4ccc(S(=O)(=O)[O-])cc4)c4nc(c(-c5ccc(S(=O)(=O)[O-])cc5)c5ccc2[nH]5)C=C4)C=C3)cc1
REMARK SMILES IDX 25 1 24 2 23 3 22 4 21 5 20 6 18 7 19 8 17 9 1 10 2 11 3 12
REMARK SMILES IDX 4 13 9 14 5 15 8 16 6 17 7 18 10 19 11 20 16 21 12 22 15 23
REMARK SMILES IDX 13 24 14 25 26 26 27 27 28 28 29 29 30 30 31 31 32 32 33 33
REMARK SMILES IDX 91 34 34 35 90 36 35 37 36 38 37 39 84 40 38 41 89 42 83 43
REMARK SMILES IDX 85 44 39 45 88 46 82 47 81 48 40 50 70 51 51 52 69 53 52 54
REMARK SMILES IDX 55 55 68 56 86 57 53 58 54 59 67 61 87 62 56 63 41 64 42 65
REMARK SMILES IDX 50 66 43 67 49 68 44 69 45 70 46 71 47 72 48 73 71 74 72 75
REMARK SMILES IDX 80 76 73 77 79 78 74 79 75 80 76 81 77 82 78 83 57 84 58 85
REMARK SMILES IDX 66 86 59 87 65 88 60 89 61 90 62 91 63 92 64 93
REMARK H PARENT 85 49 55 60
REMARK Flexibility Score: inf
ROOT
ATOM      1  C   UNL A   1      32.864  26.993  26.507  1.00  0.00     0.188 C 
ENDROOT
BRANCH   1   2
ATOM      2  C   UNL A   1      31.993  25.793  26.057  1.00  0.00     0.188 C 
BRANCH   2   3
ATOM      3  O   UNL A   1      30.725  26.062  25.497  1.00  0.00    -0.376 OA
BRANCH   3   4
ATOM      4  C   UNL A   1      30.289  25.168  24.484  1.00  0.00     0.202 C 
BRANCH   4   5
ATOM      5  C   UNL A   1      30.831  23.717  24.486  1.00  0.00     0.261 C 
BRANCH   5   6
ATOM      6  O   UNL A   1      31.001  23.101  23.174  1.00  0.00    -0.463 OA
BRANCH   6   7
ATOM      7  C   UNL A   1      32.116  22.368  22.869  1.00  0.00     0.317 C 
ATOM      8  O   UNL A   1      32.164  21.574  21.939  1.00  0.00    -0.251 OA
BRANCH   7   9
ATOM      9  C   UNL A   1      33.281  22.566  23.863  1.00  0.00     0.173 C 
ATOM     10  C   UNL A   1      33.851  24.912  22.809  1.00  0.00     0.063 C 
ATOM     11  C   UNL A   1      34.319  23.559  23.321  1.00  0.00     0.036 C 
ATOM     12  N   UNL A   1      35.601  23.408  23.350  1.00  0.00    -0.220 NA
ATOM     13  C   UNL A   1      36.128  22.313  23.924  1.00  0.00     0.248 A 
ATOM     14  C   UNL A   1      33.917  21.361  24.693  1.00  0.00     0.161 C 
ATOM     15  N   UNL A   1      37.402  22.030  24.090  1.00  0.00    -0.198 NA
ATOM     16  N   UNL A   1      35.384  21.345  24.546  1.00  0.00    -0.221 N 
ATOM     17  C   UNL A   1      37.391  20.912  24.865  1.00  0.00     0.248 A 
ATOM     18  N   UNL A   1      36.180  20.505  25.247  1.00  0.00    -0.157 NA
BRANCH  14  19
ATOM     19  C   UNL A   1      33.393  19.905  24.694  1.00  0.00    -0.022 A 
ATOM     20  C   UNL A   1      32.859  19.282  25.845  1.00  0.00     0.009 A 
ATOM     21  C   UNL A   1      33.553  19.075  23.598  1.00  0.00     0.009 A 
ATOM     22  C   UNL A   1      32.578  17.899  25.877  1.00  0.00     0.039 A 
ATOM     23  C   UNL A   1      33.305  17.699  23.611  1.00  0.00     0.039 A 
ATOM     24  C   UNL A   1      32.824  17.116  24.762  1.00  0.00     0.123 A 
ATOM     25  F   UNL A   1      32.605  15.795  24.791  1.00  0.00    -0.207 F 
ENDBRANCH  14  19
ENDBRANCH   7   9
ENDBRANCH   6   7
ENDBRANCH   5   6
ENDBRANCH   4   5
ENDBRANCH   3   4
ENDBRANCH   2   3
ENDBRANCH   1   2
BRANCH   1  26
ATOM     26  O   UNL A   1      32.278  28.279  26.514  1.00  0.00    -0.376 OA
BRANCH  26  27
ATOM     27  C   UNL A   1      32.967  29.274  25.779  1.00  0.00     0.202 C 
BRANCH  27  28
ATOM     28  C   UNL A   1      33.143  30.610  26.487  1.00  0.00     0.261 C 
BRANCH  28  29
ATOM     29  O   UNL A   1      33.951  30.512  27.656  1.00  0.00    -0.460 OA
BRANCH  29  30
ATOM     30  C   UNL A   1      34.817  31.540  27.875  1.00  0.00     0.338 C 
ATOM     31  O   UNL A   1      34.711  32.681  27.491  1.00  0.00    -0.246 OA
BRANCH  30  32
ATOM     32  C   UNL A   1      36.004  30.945  28.524  1.00  0.00     0.060 A 
ATOM     33  C   UNL A   1      36.985  31.781  29.061  1.00  0.00     0.016 A 
ATOM     34  C   UNL A   1      36.213  29.562  28.399  1.00  0.00     0.016 A 
ATOM     35  C   UNL A   1      38.234  31.238  29.329  1.00  0.00     0.010 A 
ATOM     36  C   UNL A   1      37.453  29.033  28.643  1.00  0.00     0.010 A 
ATOM     37  C   UNL A   1      38.472  29.887  29.038  1.00  0.00    -0.014 A 
BRANCH  37  38
ATOM     38  C   UNL A   1      39.785  29.312  29.243  1.00  0.00     0.031 A 
ATOM     39  C   UNL A   1      40.079  29.004  30.660  1.00  0.00     0.074 A 
ATOM     40  C   UNL A   1      40.596  28.943  28.229  1.00  0.00     0.049 A 
ATOM     41  N   UNL A   1      40.908  29.629  31.422  1.00  0.00    -0.248 NA
ATOM     42  C   UNL A   1      39.257  28.004  31.359  1.00  0.00     0.031 C 
ATOM     43  C   UNL A   1      40.318  28.933  26.790  1.00  0.00     0.029 A 
ATOM     44  N   UNL A   1      41.839  28.397  28.296  1.00  0.00    -0.354 N 
ATOM     45  C   UNL A   1      40.902  28.948  32.631  1.00  0.00     0.074 A 
ATOM     46  C   UNL A   1      39.753  28.078  32.596  1.00  0.00     0.031 C 
ATOM     47  C   UNL A   1      41.268  28.205  26.151  1.00  0.00     0.029 A 
ATOM     48  C   UNL A   1      42.294  27.829  27.110  1.00  0.00     0.049 A 
ATOM     49  H   UNL A   1      42.377  28.403  29.120  1.00  0.00     0.167 HD
ATOM     50  C   UNL A   1      41.990  28.973  33.447  1.00  0.00     0.031 A 
ATOM     51  C   UNL A   1      43.421  27.087  26.941  1.00  0.00     0.031 A 
ATOM     52  C   UNL A   1      42.902  30.030  33.079  1.00  0.00     0.049 A 
ATOM     53  C   UNL A   1      44.335  27.434  28.058  1.00  0.00     0.074 A 
ATOM     54  C   UNL A   1      42.793  31.402  32.953  1.00  0.00     0.029 A 
ATOM     55  N   UNL A   1      44.014  29.674  32.351  1.00  0.00    -0.354 N 
ATOM     56  N   UNL A   1      44.866  28.617  28.193  1.00  0.00    -0.248 NA
ATOM     57  C   UNL A   1      44.260  26.642  29.274  1.00  0.00     0.031 C 
ATOM     58  C   UNL A   1      43.524  31.719  31.770  1.00  0.00     0.029 A 
ATOM     59  C   UNL A   1      44.111  30.545  31.295  1.00  0.00     0.049 A 
ATOM     60  H   UNL A   1      44.628  28.930  32.550  1.00  0.00     0.167 HD
ATOM     61  C   UNL A   1      44.760  28.898  29.546  1.00  0.00     0.074 A 
ATOM     62  C   UNL A   1      44.460  27.609  30.176  1.00  0.00     0.031 C 
ATOM     63  C   UNL A   1      44.642  30.183  29.998  1.00  0.00     0.031 A 
BRANCH  50  64
ATOM     64  C   UNL A   1      42.429  27.795  34.279  1.00  0.00    -0.014 A 
ATOM     65  C   UNL A   1      42.446  27.932  35.681  1.00  0.00     0.010 A 
ATOM     66  C   UNL A   1      43.095  26.678  33.733  1.00  0.00     0.010 A 
ATOM     67  C   UNL A   1      43.161  27.039  36.488  1.00  0.00     0.020 A 
ATOM     68  C   UNL A   1      43.776  25.759  34.533  1.00  0.00     0.020 A 
ATOM     69  C   UNL A   1      43.833  25.965  35.904  1.00  0.00     0.054 A 
BRANCH  69  70
ATOM     70  S   UNL A   1      44.830  24.876  36.948  1.00  0.00     0.124 S 
ATOM     71  O   UNL A   1      46.172  25.410  36.744  1.00  0.00    -0.237 OA
ATOM     72  O   UNL A   1      44.250  25.103  38.269  1.00  0.00    -0.237 OA
ATOM     73  O   UNL A   1      44.589  23.549  36.386  1.00  0.00    -0.744 OA
ENDBRANCH  69  70
ENDBRANCH  50  64
BRANCH  51  74
ATOM     74  C   UNL A   1      43.612  25.872  26.103  1.00  0.00    -0.014 A 
ATOM     75  C   UNL A   1      44.851  25.587  25.495  1.00  0.00     0.010 A 
ATOM     76  C   UNL A   1      42.662  24.831  26.155  1.00  0.00     0.010 A 
ATOM     77  C   UNL A   1      45.155  24.293  25.027  1.00  0.00     0.020 A 
ATOM     78  C   UNL A   1      42.955  23.543  25.689  1.00  0.00     0.020 A 
ATOM     79  C   UNL A   1      44.210  23.271  25.152  1.00  0.00     0.054 A 
BRANCH  79  80
ATOM     80  S   UNL A   1      44.672  21.560  24.736  1.00  0.00     0.124 S 
ATOM     81  O   UNL A   1      44.754  21.603  23.279  1.00  0.00    -0.237 OA
ATOM     82  O   UNL A   1      45.941  21.392  25.436  1.00  0.00    -0.237 OA
ATOM     83  O   UNL A   1      43.565  20.766  25.269  1.00  0.00    -0.744 OA
ENDBRANCH  79  80
ENDBRANCH  51  74
BRANCH  63  84
ATOM     84  C   UNL A   1      44.890  31.314  29.023  1.00  0.00    -0.014 A 
ATOM     85  C   UNL A   1      46.146  31.917  28.804  1.00  0.00     0.010 A 
ATOM     86  C   UNL A   1      43.816  31.707  28.206  1.00  0.00     0.010 A 
ATOM     87  C   UNL A   1      46.305  32.921  27.835  1.00  0.00     0.020 A 
ATOM     88  C   UNL A   1      43.970  32.690  27.227  1.00  0.00     0.020 A 
ATOM     89  C   UNL A   1      45.209  33.308  27.058  1.00  0.00     0.054 A 
BRANCH  89  90
ATOM     90  S   UNL A   1      45.404  34.617  25.816  1.00  0.00     0.124 S 
ATOM     91  O   UNL A   1      44.310  35.529  26.141  1.00  0.00    -0.237 OA
ATOM     92  O   UNL A   1      46.747  35.125  26.085  1.00  0.00    -0.237 OA
ATOM     93  O   UNL A   1      45.261  33.914  24.541  1.00  0.00    -0.744 OA
ENDBRANCH  89  90
ENDBRANCH  63  84
ENDBRANCH  37  38
ENDBRANCH  30  32
ENDBRANCH  29  30
ENDBRANCH  28  29
ENDBRANCH  27  28
ENDBRANCH  26  27
ENDBRANCH   1  26
TORSDOF 21
ENDMDL
MODEL 2
REMARK VINA RESULT:     -11.0      2.873      4.503
REMARK SMILES CC1=Nc2ncnn2[C@H](c2ccc(F)cc2)[C@@H]1C(=O)OCCOCCOCCOC(=O)c1ccc(-c2c3nc(c(-c4ccc(S(=O)(=O)[O-])cc4)c4ccc([nH]4)c(-c4ccc(S(=O)(=O)[O-])cc4)c4nc(c(-c5ccc(S(=O)(=O)[O-])cc5)c5ccc2[nH]5)C=C4)C=C3)cc1
REMARK SMILES IDX 25 1 24 2 23 3 22 4 21 5 20 6 18 7 19 8 17 9 1 10 2 11 3 12
REMARK SMILES IDX 4 13 9 14 5 15 8 16 6 17 7 18 10 19 11 20 16 21 12 22 15 23
REMARK SMILES IDX 13 24 14 25 26 26 27 27 28 28 29 29 30 30 31 31 32 32 33 33
REMARK SMILES IDX 91 34 34 35 90 36 35 37 36 38 37 39 84 40 38 41 89 42 83 43
REMARK SMILES IDX 85 44 39 45 88 46 82 47 81 48 40 50 70 51 51 52 69 53 52 54
REMARK SMILES IDX 55 55 68 56 86 57 53 58 54 59 67 61 87 62 56 63 41 64 42 65
REMARK SMILES IDX 50 66 43 67 49 68 44 69 45 70 46 71 47 72 48 73 71 74 72 75
REMARK SMILES IDX 80 76 73 77 79 78 74 79 75 80 76 81 77 82 78 83 57 84 58 85
REMARK SMILES IDX 66 86 59 87 65 88 60 89 61 90 62 91 63 92 64 93
REMARK H PARENT 85 49 55 60
REMARK Flexibility Score: inf
ROOT
ATOM      1  C   UNL A   1      35.190  33.498  28.009  1.00  0.00     0.188 C 
ENDROOT
BRANCH   1   2
ATOM      2  C   UNL A   1      34.621  32.139  28.487  1.00  0.00     0.188 C 
BRANCH   2   3
ATOM      3  O   UNL A   1      33.584  31.547  27.733  1.00  0.00    -0.376 OA
BRANCH   3   4
ATOM      4  C   UNL A   1      33.941  30.400  26.977  1.00  0.00     0.202 C 
BRANCH   4   5
ATOM      5  C   UNL A   1      33.332  29.030  27.368  1.00  0.00     0.261 C 
BRANCH   5   6
ATOM      6  O   UNL A   1      33.740  27.896  26.546  1.00  0.00    -0.463 OA
BRANCH   6   7
ATOM      7  C   UNL A   1      32.953  27.432  25.526  1.00  0.00     0.317 C 
ATOM      8  O   UNL A   1      31.730  27.450  25.560  1.00  0.00    -0.251 OA
BRANCH   7   9
ATOM      9  C   UNL A   1      33.750  26.799  24.366  1.00  0.00     0.173 C 
ATOM     10  C   UNL A   1      33.457  28.974  22.908  1.00  0.00     0.063 C 
ATOM     11  C   UNL A   1      33.406  27.458  23.023  1.00  0.00     0.036 C 
ATOM     12  N   UNL A   1      33.172  26.841  21.913  1.00  0.00    -0.220 NA
ATOM     13  C   UNL A   1      33.254  25.501  21.867  1.00  0.00     0.248 A 
ATOM     14  C   UNL A   1      34.017  25.229  24.261  1.00  0.00     0.161 C 
ATOM     15  N   UNL A   1      33.105  24.724  20.816  1.00  0.00    -0.198 NA
ATOM     16  N   UNL A   1      33.633  24.723  22.931  1.00  0.00    -0.221 N 
ATOM     17  C   UNL A   1      33.455  23.489  21.268  1.00  0.00     0.248 A 
ATOM     18  N   UNL A   1      33.874  23.452  22.533  1.00  0.00    -0.157 NA
BRANCH  14  19
ATOM     19  C   UNL A   1      33.619  24.185  25.332  1.00  0.00    -0.022 A 
ATOM     20  C   UNL A   1      32.275  23.890  25.655  1.00  0.00     0.009 A 
ATOM     21  C   UNL A   1      34.563  23.581  26.144  1.00  0.00     0.009 A 
ATOM     22  C   UNL A   1      31.936  23.091  26.768  1.00  0.00     0.039 A 
ATOM     23  C   UNL A   1      34.254  22.806  27.266  1.00  0.00     0.039 A 
ATOM     24  C   UNL A   1      32.933  22.572  27.577  1.00  0.00     0.123 A 
ATOM     25  F   UNL A   1      32.628  21.850  28.662  1.00  0.00    -0.207 F 
ENDBRANCH  14  19
ENDBRANCH   7   9
ENDBRANCH   6   7
ENDBRANCH   5   6
ENDBRANCH   4   5
ENDBRANCH   3   4
ENDBRANCH   2   3
ENDBRANCH   1   2
BRANCH   1  26
ATOM     26  O   UNL A   1      35.119  34.600  28.892  1.00  0.00    -0.376 OA
BRANCH  26  27
ATOM     27  C   UNL A   1      34.007  35.459  28.717  1.00  0.00     0.202 C 
BRANCH  27  28
ATOM     28  C   UNL A   1      33.074  35.576  29.915  1.00  0.00     0.261 C 
BRANCH  28  29
ATOM     29  O   UNL A   1      33.299  34.564  30.890  1.00  0.00    -0.460 OA
BRANCH  29  30
ATOM     30  C   UNL A   1      33.779  34.985  32.093  1.00  0.00     0.338 C 
ATOM     31  O   UNL A   1      33.421  35.951  32.727  1.00  0.00    -0.246 OA
BRANCH  30  32
ATOM     32  C   UNL A   1      34.950  34.133  32.389  1.00  0.00     0.060 A 
ATOM     33  C   UNL A   1      36.187  34.729  32.642  1.00  0.00     0.016 A 
ATOM     34  C   UNL A   1      34.833  32.746  32.204  1.00  0.00     0.016 A 
ATOM     35  C   UNL A   1      37.326  33.940  32.554  1.00  0.00     0.010 A 
ATOM     36  C   UNL A   1      35.959  31.974  32.097  1.00  0.00     0.010 A 
ATOM     37  C   UNL A   1      37.198  32.588  32.202  1.00  0.00    -0.014 A 
BRANCH  37  38
ATOM     38  C   UNL A   1      38.373  31.759  32.037  1.00  0.00     0.031 A 
ATOM     39  C   UNL A   1      39.058  31.446  33.310  1.00  0.00     0.074 A 
ATOM     40  C   UNL A   1      38.718  31.193  30.861  1.00  0.00     0.049 A 
ATOM     41  N   UNL A   1      40.194  31.910  33.702  1.00  0.00    -0.248 NA
ATOM     42  C   UNL A   1      38.343  30.665  34.332  1.00  0.00     0.031 C 
ATOM     43  C   UNL A   1      37.982  31.191  29.593  1.00  0.00     0.029 A 
ATOM     44  N   UNL A   1      39.788  30.402  30.584  1.00  0.00    -0.354 N 
ATOM     45  C   UNL A   1      40.462  31.287  34.913  1.00  0.00     0.074 A 
ATOM     46  C   UNL A   1      39.226  30.677  35.334  1.00  0.00     0.031 C 
ATOM     47  C   UNL A   1      38.512  30.259  28.764  1.00  0.00     0.029 A 
ATOM     48  C   UNL A   1      39.710  29.710  29.380  1.00  0.00     0.049 A 
ATOM     49  H   UNL A   1      40.560  30.324  31.189  1.00  0.00     0.167 HD
ATOM     50  C   UNL A   1      41.744  31.113  35.334  1.00  0.00     0.031 A 
ATOM     51  C   UNL A   1      40.558  28.743  28.938  1.00  0.00     0.031 A 
ATOM     52  C   UNL A   1      42.662  31.942  34.590  1.00  0.00     0.049 A 
ATOM     53  C   UNL A   1      41.838  28.929  29.665  1.00  0.00     0.074 A 
ATOM     54  C   UNL A   1      42.775  33.301  34.366  1.00  0.00     0.029 A 
ATOM     55  N   UNL A   1      43.383  31.335  33.586  1.00  0.00    -0.354 N 
ATOM     56  N   UNL A   1      42.594  29.979  29.503  1.00  0.00    -0.248 NA
ATOM     57  C   UNL A   1      42.024  28.214  30.917  1.00  0.00     0.031 C 
ATOM     58  C   UNL A   1      43.117  33.417  32.986  1.00  0.00     0.029 A 
ATOM     59  C   UNL A   1      43.285  32.130  32.472  1.00  0.00     0.049 A 
ATOM     60  H   UNL A   1      43.877  30.487  33.655  1.00  0.00     0.167 HD
ATOM     61  C   UNL A   1      42.997  30.323  30.784  1.00  0.00     0.074 A 
ATOM     62  C   UNL A   1      42.689  29.149  31.604  1.00  0.00     0.031 C 
ATOM     63  C   UNL A   1      43.278  31.619  31.117  1.00  0.00     0.031 A 
BRANCH  50  64
ATOM     64  C   UNL A   1      42.206  29.899  36.098  1.00  0.00    -0.014 A 
ATOM     65  C   UNL A   1      43.436  29.963  36.781  1.00  0.00     0.010 A 
ATOM     66  C   UNL A   1      41.630  28.623  35.929  1.00  0.00     0.010 A 
ATOM     67  C   UNL A   1      44.094  28.801  37.203  1.00  0.00     0.020 A 
ATOM     68  C   UNL A   1      42.258  27.461  36.383  1.00  0.00     0.020 A 
ATOM     69  C   UNL A   1      43.504  27.556  36.987  1.00  0.00     0.054 A 
BRANCH  69  70
ATOM     70  S   UNL A   1      44.407  26.059  37.450  1.00  0.00     0.124 S 
ATOM     71  O   UNL A   1      44.260  26.058  38.902  1.00  0.00    -0.237 OA
ATOM     72  O   UNL A   1      43.668  25.022  36.736  1.00  0.00    -0.237 OA
ATOM     73  O   UNL A   1      45.759  26.309  36.955  1.00  0.00    -0.744 OA
ENDBRANCH  69  70
ENDBRANCH  50  64
BRANCH  51  74
ATOM     74  C   UNL A   1      40.230  27.486  28.211  1.00  0.00    -0.014 A 
ATOM     75  C   UNL A   1      40.909  27.123  27.031  1.00  0.00     0.010 A 
ATOM     76  C   UNL A   1      39.461  26.491  28.848  1.00  0.00     0.010 A 
ATOM     77  C   UNL A   1      40.881  25.798  26.551  1.00  0.00     0.020 A 
ATOM     78  C   UNL A   1      39.425  25.173  28.376  1.00  0.00     0.020 A 
ATOM     79  C   UNL A   1      40.158  24.824  27.244  1.00  0.00     0.054 A 
BRANCH  79  80
ATOM     80  S   UNL A   1      40.285  23.078  26.743  1.00  0.00     0.124 S 
ATOM     81  O   UNL A   1      40.530  22.405  28.015  1.00  0.00    -0.237 OA
ATOM     82  O   UNL A   1      38.984  22.825  26.133  1.00  0.00    -0.237 OA
ATOM     83  O   UNL A   1      41.413  23.070  25.811  1.00  0.00    -0.744 OA
ENDBRANCH  79  80
ENDBRANCH  51  74
BRANCH  63  84
ATOM     84  C   UNL A   1      43.394  32.639  30.003  1.00  0.00    -0.014 A 
ATOM     85  C   UNL A   1      42.401  33.586  29.683  1.00  0.00     0.010 A 
ATOM     86  C   UNL A   1      44.622  32.711  29.323  1.00  0.00     0.010 A 
ATOM     87  C   UNL A   1      42.612  34.540  28.673  1.00  0.00     0.020 A 
ATOM     88  C   UNL A   1      44.849  33.668  28.332  1.00  0.00     0.020 A 
ATOM     89  C   UNL A   1      43.836  34.566  27.997  1.00  0.00     0.054 A 
BRANCH  89  90
ATOM     90  S   UNL A   1      44.108  35.785  26.679  1.00  0.00     0.124 S 
ATOM     91  O   UNL A   1      45.319  35.287  26.032  1.00  0.00    -0.237 OA
ATOM     92  O   UNL A   1      42.885  35.688  25.886  1.00  0.00    -0.237 OA
ATOM     93  O   UNL A   1      44.271  37.048  27.400  1.00  0.00    -0.744 OA
ENDBRANCH  89  90
ENDBRANCH  63  84
ENDBRANCH  37  38
ENDBRANCH  30  32
ENDBRANCH  29  30
ENDBRANCH  28  29
ENDBRANCH  27  28
ENDBRANCH  26  27
ENDBRANCH   1  26
TORSDOF 21
ENDMDL
MODEL 3
REMARK VINA RESULT:     -10.9      3.024      4.553
REMARK SMILES CC1=Nc2ncnn2[C@H](c2ccc(F)cc2)[C@@H]1C(=O)OCCOCCOCCOC(=O)c1ccc(-c2c3nc(c(-c4ccc(S(=O)(=O)[O-])cc4)c4ccc([nH]4)c(-c4ccc(S(=O)(=O)[O-])cc4)c4nc(c(-c5ccc(S(=O)(=O)[O-])cc5)c5ccc2[nH]5)C=C4)C=C3)cc1
REMARK SMILES IDX 25 1 24 2 23 3 22 4 21 5 20 6 18 7 19 8 17 9 1 10 2 11 3 12
REMARK SMILES IDX 4 13 9 14 5 15 8 16 6 17 7 18 10 19 11 20 16 21 12 22 15 23
REMARK SMILES IDX 13 24 14 25 26 26 27 27 28 28 29 29 30 30 31 31 32 32 33 33
REMARK SMILES IDX 91 34 34 35 90 36 35 37 36 38 37 39 84 40 38 41 89 42 83 43
REMARK SMILES IDX 85 44 39 45 88 46 82 47 81 48 40 50 70 51 51 52 69 53 52 54
REMARK SMILES IDX 55 55 68 56 86 57 53 58 54 59 67 61 87 62 56 63 41 64 42 65
REMARK SMILES IDX 50 66 43 67 49 68 44 69 45 70 46 71 47 72 48 73 71 74 72 75
REMARK SMILES IDX 80 76 73 77 79 78 74 79 75 80 76 81 77 82 78 83 57 84 58 85
REMARK SMILES IDX 66 86 59 87 65 88 60 89 61 90 62 91 63 92 64 93
REMARK H PARENT 85 49 55 60
REMARK Flexibility Score: inf
ROOT
ATOM      1  C   UNL A   1      32.681  33.114  27.240  1.00  0.00     0.188 C 
ENDROOT
BRANCH   1   2
ATOM      2  C   UNL A   1      31.429  32.330  26.775  1.00  0.00     0.188 C 
BRANCH   2   3
ATOM      3  O   UNL A   1      31.591  30.981  26.391  1.00  0.00    -0.376 OA
BRANCH   3   4
ATOM      4  C   UNL A   1      32.767  30.338  26.858  1.00  0.00     0.202 C 
BRANCH   4   5
ATOM      5  C   UNL A   1      32.695  28.839  27.245  1.00  0.00     0.261 C 
BRANCH   5   6
ATOM      6  O   UNL A   1      32.488  27.908  26.141  1.00  0.00    -0.463 OA
BRANCH   6   7
ATOM      7  C   UNL A   1      31.537  26.925  26.204  1.00  0.00     0.317 C 
ATOM      8  O   UNL A   1      30.793  26.771  27.163  1.00  0.00    -0.251 OA
BRANCH   7   9
ATOM      9  C   UNL A   1      31.552  25.968  24.993  1.00  0.00     0.173 C 
ATOM     10  C   UNL A   1      33.554  24.604  26.029  1.00  0.00     0.063 C 
ATOM     11  C   UNL A   1      32.920  25.290  24.829  1.00  0.00     0.036 C 
ATOM     12  N   UNL A   1      33.566  25.144  23.721  1.00  0.00    -0.220 NA
ATOM     13  C   UNL A   1      33.021  25.579  22.572  1.00  0.00     0.248 A 
ATOM     14  C   UNL A   1      30.839  26.320  23.609  1.00  0.00     0.161 C 
ATOM     15  N   UNL A   1      33.512  25.458  21.357  1.00  0.00    -0.198 NA
ATOM     16  N   UNL A   1      31.770  26.132  22.482  1.00  0.00    -0.221 N 
ATOM     17  C   UNL A   1      32.507  25.900  20.553  1.00  0.00     0.248 A 
ATOM     18  N   UNL A   1      31.385  26.238  21.189  1.00  0.00    -0.157 NA
BRANCH  14  19
ATOM     19  C   UNL A   1      29.976  27.577  23.347  1.00  0.00    -0.022 A 
ATOM     20  C   UNL A   1      30.497  28.890  23.396  1.00  0.00     0.009 A 
ATOM     21  C   UNL A   1      28.603  27.496  23.193  1.00  0.00     0.009 A 
ATOM     22  C   UNL A   1      29.658  30.024  23.356  1.00  0.00     0.039 A 
ATOM     23  C   UNL A   1      27.747  28.602  23.175  1.00  0.00     0.039 A 
ATOM     24  C   UNL A   1      28.285  29.867  23.266  1.00  0.00     0.123 A 
ATOM     25  F   UNL A   1      27.472  30.930  23.273  1.00  0.00    -0.207 F 
ENDBRANCH  14  19
ENDBRANCH   7   9
ENDBRANCH   6   7
ENDBRANCH   5   6
ENDBRANCH   4   5
ENDBRANCH   3   4
ENDBRANCH   2   3
ENDBRANCH   1   2
BRANCH   1  26
ATOM     26  O   UNL A   1      32.491  34.260  28.046  1.00  0.00    -0.376 OA
BRANCH  26  27
ATOM     27  C   UNL A   1      33.671  34.908  28.484  1.00  0.00     0.202 C 
BRANCH  27  28
ATOM     28  C   UNL A   1      34.397  34.238  29.643  1.00  0.00     0.261 C 
BRANCH  28  29
ATOM     29  O   UNL A   1      34.785  32.900  29.350  1.00  0.00    -0.460 OA
BRANCH  29  30
ATOM     30  C   UNL A   1      35.174  32.141  30.412  1.00  0.00     0.338 C 
ATOM     31  O   UNL A   1      34.701  32.142  31.525  1.00  0.00    -0.246 OA
BRANCH  30  32
ATOM     32  C   UNL A   1      36.407  31.445  29.990  1.00  0.00     0.060 A 
ATOM     33  C   UNL A   1      36.414  30.051  29.903  1.00  0.00     0.016 A 
ATOM     34  C   UNL A   1      37.595  32.187  29.888  1.00  0.00     0.016 A 
ATOM     35  C   UNL A   1      37.640  29.401  29.867  1.00  0.00     0.010 A 
ATOM     36  C   UNL A   1      38.804  31.544  29.874  1.00  0.00     0.010 A 
ATOM     37  C   UNL A   1      38.819  30.158  29.935  1.00  0.00    -0.014 A 
BRANCH  37  38
ATOM     38  C   UNL A   1      40.110  29.504  29.968  1.00  0.00     0.031 A 
ATOM     39  C   UNL A   1      40.587  29.210  31.337  1.00  0.00     0.074 A 
ATOM     40  C   UNL A   1      40.741  29.059  28.861  1.00  0.00     0.049 A 
ATOM     41  N   UNL A   1      41.554  29.796  31.953  1.00  0.00    -0.248 NA
ATOM     42  C   UNL A   1      39.814  28.282  32.179  1.00  0.00     0.031 C 
ATOM     43  C   UNL A   1      40.258  29.034  27.477  1.00  0.00     0.029 A 
ATOM     44  N   UNL A   1      41.945  28.434  28.767  1.00  0.00    -0.354 N 
ATOM     45  C   UNL A   1      41.681  29.144  33.172  1.00  0.00     0.074 A 
ATOM     46  C   UNL A   1      40.487  28.352  33.330  1.00  0.00     0.031 C 
ATOM     47  C   UNL A   1      41.058  28.231  26.733  1.00  0.00     0.029 A 
ATOM     48  C   UNL A   1      42.187  27.810  27.547  1.00  0.00     0.049 A 
ATOM     49  H   UNL A   1      42.596  28.424  29.505  1.00  0.00     0.167 HD
ATOM     50  C   UNL A   1      42.875  29.117  33.822  1.00  0.00     0.031 A 
ATOM     51  C   UNL A   1      43.230  26.992  27.242  1.00  0.00     0.031 A 
ATOM     52  C   UNL A   1      43.788  30.103  33.294  1.00  0.00     0.049 A 
ATOM     53  C   UNL A   1      44.315  27.303  28.205  1.00  0.00     0.074 A 
ATOM     54  C   UNL A   1      43.747  31.476  33.141  1.00  0.00     0.029 A 
ATOM     55  N   UNL A   1      44.759  29.658  32.426  1.00  0.00    -0.354 N 
ATOM     56  N   UNL A   1      44.932  28.452  28.225  1.00  0.00    -0.248 NA
ATOM     57  C   UNL A   1      44.368  26.546  29.445  1.00  0.00     0.031 C 
ATOM     58  C   UNL A   1      44.316  31.717  31.855  1.00  0.00     0.029 A 
ATOM     59  C   UNL A   1      44.756  30.496  31.340  1.00  0.00     0.049 A 
ATOM     60  H   UNL A   1      45.347  28.880  32.559  1.00  0.00     0.167 HD
ATOM     61  C   UNL A   1      45.041  28.770  29.570  1.00  0.00     0.074 A 
ATOM     62  C   UNL A   1      44.757  27.519  30.277  1.00  0.00     0.031 C 
ATOM     63  C   UNL A   1      45.070  30.070  29.992  1.00  0.00     0.031 A 
BRANCH  50  64
ATOM     64  C   UNL A   1      43.356  27.932  34.620  1.00  0.00    -0.014 A 
ATOM     65  C   UNL A   1      43.690  28.125  35.975  1.00  0.00     0.010 A 
ATOM     66  C   UNL A   1      43.766  26.722  34.023  1.00  0.00     0.010 A 
ATOM     67  C   UNL A   1      44.464  27.190  36.672  1.00  0.00     0.020 A 
ATOM     68  C   UNL A   1      44.503  25.764  34.721  1.00  0.00     0.020 A 
ATOM     69  C   UNL A   1      44.877  26.021  36.033  1.00  0.00     0.054 A 
BRANCH  69  70
ATOM     70  S   UNL A   1      45.955  24.867  36.915  1.00  0.00     0.124 S 
ATOM     71  O   UNL A   1      46.062  25.499  38.225  1.00  0.00    -0.237 OA
ATOM     72  O   UNL A   1      45.182  23.630  36.868  1.00  0.00    -0.237 OA
ATOM     73  O   UNL A   1      47.178  24.863  36.115  1.00  0.00    -0.744 OA
ENDBRANCH  69  70
ENDBRANCH  50  64
BRANCH  51  74
ATOM     74  C   UNL A   1      43.222  25.748  26.426  1.00  0.00    -0.014 A 
ATOM     75  C   UNL A   1      44.124  25.565  25.359  1.00  0.00     0.010 A 
ATOM     76  C   UNL A   1      42.531  24.610  26.892  1.00  0.00     0.010 A 
ATOM     77  C   UNL A   1      44.382  24.284  24.832  1.00  0.00     0.020 A 
ATOM     78  C   UNL A   1      42.779  23.334  26.371  1.00  0.00     0.020 A 
ATOM     79  C   UNL A   1      43.724  23.171  25.361  1.00  0.00     0.054 A 
BRANCH  79  80
ATOM     80  S   UNL A   1      44.202  21.499  24.823  1.00  0.00     0.124 S 
ATOM     81  O   UNL A   1      45.428  21.264  25.581  1.00  0.00    -0.237 OA
ATOM     82  O   UNL A   1      43.051  20.694  25.217  1.00  0.00    -0.237 OA
ATOM     83  O   UNL A   1      44.387  21.642  23.379  1.00  0.00    -0.744 OA
ENDBRANCH  79  80
ENDBRANCH  51  74
BRANCH  63  84
ATOM     84  C   UNL A   1      45.244  31.160  28.955  1.00  0.00    -0.014 A 
ATOM     85  C   UNL A   1      46.490  31.607  28.470  1.00  0.00     0.010 A 
ATOM     86  C   UNL A   1      44.078  31.675  28.363  1.00  0.00     0.010 A 
ATOM     87  C   UNL A   1      46.563  32.581  27.461  1.00  0.00     0.020 A 
ATOM     88  C   UNL A   1      44.142  32.630  27.345  1.00  0.00     0.020 A 
ATOM     89  C   UNL A   1      45.384  33.094  26.912  1.00  0.00     0.054 A 
BRANCH  89  90
ATOM     90  S   UNL A   1      45.473  34.366  25.620  1.00  0.00     0.124 S 
ATOM     91  O   UNL A   1      44.766  33.737  24.507  1.00  0.00    -0.237 OA
ATOM     92  O   UNL A   1      44.794  35.504  26.234  1.00  0.00    -0.237 OA
ATOM     93  O   UNL A   1      46.909  34.551  25.410  1.00  0.00    -0.744 OA
ENDBRANCH  89  90
ENDBRANCH  63  84
ENDBRANCH  37  38
ENDBRANCH  30  32
ENDBRANCH  29  30
ENDBRANCH  28  29
ENDBRANCH  27  28
ENDBRANCH  26  27
ENDBRANCH   1  26
TORSDOF 21
ENDMDL
