MODEL 1
REMARK VINA RESULT:     -11.4      0.000      0.000
REMARK SMILES Cc1ccc([C@H](C)NC(=O)[C@H]2[C@@H]3CC[C@@H](C3)[C@@H]2C(=O)OCCOCCOCCOC(=O)c2ccc(-c3c4nc(c(-c5ccc(S(=O)(=O)[O-])cc5)c5ccc([nH]5)c(-c5ccc(S(=O)(=O)[O-])cc5)c5nc(c(-c6ccc(S(=O)(=O)[O-])cc6)c6ccc3[nH]6)C=C5)C=C4)cc2)cc1
REMARK SMILES IDX 24 1 23 2 22 3 21 4 20 5 18 6 19 7 17 8 11 9 12 10 13 11
REMARK SMILES IDX 16 12 15 13 14 14 9 15 8 16 10 18 6 19 7 20 5 21 1 22 2 23
REMARK SMILES IDX 3 24 93 25 4 26 92 27 25 28 26 29 27 30 28 31 29 32 30 33
REMARK SMILES IDX 31 34 32 35 33 36 91 37 34 38 90 39 35 40 36 41 37 42 84 43
REMARK SMILES IDX 38 44 89 45 83 46 85 47 39 48 88 49 82 50 81 51 40 53 70 54
REMARK SMILES IDX 51 55 69 56 52 57 55 58 68 59 86 60 53 61 54 62 67 64 87 65
REMARK SMILES IDX 56 66 41 67 42 68 50 69 43 70 49 71 44 72 45 73 46 74 47 75
REMARK SMILES IDX 48 76 71 77 72 78 80 79 73 80 79 81 74 82 75 83 76 84 77 85
REMARK SMILES IDX 78 86 57 87 58 88 66 89 59 90 65 91 60 92 61 93 62 94 63 95
REMARK SMILES IDX 64 96
REMARK H PARENT 8 17 85 52 55 63
REMARK Flexibility Score: inf
ROOT
ATOM      1  C   UNL A   1      36.014  21.016  24.973  1.00  0.00     0.188 C 
ENDROOT
BRANCH   1   2
ATOM      2  O   UNL A   1      35.659  21.244  26.345  1.00  0.00    -0.376 OA
BRANCH   2   3
ATOM      3  C   UNL A   1      34.580  22.071  26.768  1.00  0.00     0.202 C 
BRANCH   3   4
ATOM      4  C   UNL A   1      33.049  21.560  26.692  1.00  0.00     0.261 C 
BRANCH   4   5
ATOM      5  O   UNL A   1      31.919  22.488  26.352  1.00  0.00    -0.463 OA
BRANCH   5   6
ATOM      6  C   UNL A   1      31.706  23.883  26.322  1.00  0.00     0.310 C 
ATOM      7  O   UNL A   1      31.107  24.448  27.197  1.00  0.00    -0.252 OA
BRANCH   6   8
ATOM      8  C   UNL A   1      32.514  24.752  24.943  1.00  0.00     0.115 C 
ATOM      9  C   UNL A   1      31.508  24.797  23.785  1.00  0.00     0.096 C 
ATOM     10  C   UNL A   1      32.372  24.682  22.503  1.00  0.00     0.002 C 
ATOM     11  C   UNL A   1      33.180  23.356  22.466  1.00  0.00     0.005 C 
ATOM     12  C   UNL A   1      33.490  25.643  22.812  1.00  0.00     0.009 C 
ATOM     13  C   UNL A   1      33.901  24.880  24.111  1.00  0.00     0.004 C 
ATOM     14  C   UNL A   1      34.396  23.673  23.330  1.00  0.00     0.005 C 
BRANCH   9  15
ATOM     15  C   UNL A   1      30.532  26.002  23.833  1.00  0.00     0.224 C 
ATOM     16  N   UNL A   1      30.827  27.324  24.014  1.00  0.00    -0.349 N 
ATOM     17  H   UNL A   1      30.034  27.837  24.289  1.00  0.00     0.164 HD
ATOM     18  O   UNL A   1      29.323  25.755  23.716  1.00  0.00    -0.275 OA
BRANCH  16  19
ATOM     19  C   UNL A   1      32.020  28.186  23.907  1.00  0.00     0.109 C 
ATOM     20  C   UNL A   1      31.721  29.357  22.954  1.00  0.00     0.036 C 
BRANCH  19  21
ATOM     21  C   UNL A   1      32.548  28.806  25.187  1.00  0.00    -0.026 A 
ATOM     22  C   UNL A   1      34.672  31.039  28.180  1.00  0.00     0.044 C 
ATOM     23  C   UNL A   1      33.914  30.210  27.195  1.00  0.00    -0.051 A 
ATOM     24  C   UNL A   1      34.469  29.042  26.674  1.00  0.00     0.004 A 
ATOM     25  C   UNL A   1      32.631  30.602  26.801  1.00  0.00     0.004 A 
ATOM     26  C   UNL A   1      33.793  28.349  25.675  1.00  0.00     0.006 A 
ATOM     27  C   UNL A   1      31.954  29.913  25.796  1.00  0.00     0.006 A 
ENDBRANCH  19  21
ENDBRANCH  16  19
ENDBRANCH   9  15
ENDBRANCH   6   8
ENDBRANCH   5   6
ENDBRANCH   4   5
ENDBRANCH   3   4
ENDBRANCH   2   3
ENDBRANCH   1   2
BRANCH   1  28
ATOM     28  C   UNL A   1      37.379  21.412  24.434  1.00  0.00     0.188 C 
BRANCH  28  29
ATOM     29  O   UNL A   1      38.337  21.128  25.435  1.00  0.00    -0.376 OA
BRANCH  29  30
ATOM     30  C   UNL A   1      38.905  19.839  25.416  1.00  0.00     0.202 C 
BRANCH  30  31
ATOM     31  C   UNL A   1      40.334  19.845  25.955  1.00  0.00     0.261 C 
BRANCH  31  32
ATOM     32  O   UNL A   1      41.057  21.053  25.619  1.00  0.00    -0.460 OA
BRANCH  32  33
ATOM     33  C   UNL A   1      41.981  21.521  26.528  1.00  0.00     0.338 C 
ATOM     34  O   UNL A   1      43.096  21.043  26.623  1.00  0.00    -0.246 OA
BRANCH  33  35
ATOM     35  C   UNL A   1      41.546  22.808  27.144  1.00  0.00     0.060 A 
ATOM     36  C   UNL A   1      40.423  23.590  26.885  1.00  0.00     0.016 A 
ATOM     37  C   UNL A   1      42.344  23.284  28.122  1.00  0.00     0.016 A 
ATOM     38  C   UNL A   1      40.229  24.927  27.475  1.00  0.00     0.010 A 
ATOM     39  C   UNL A   1      42.144  24.590  28.604  1.00  0.00     0.010 A 
ATOM     40  C   UNL A   1      41.170  25.587  28.305  1.00  0.00    -0.014 A 
BRANCH  40  41
ATOM     41  C   UNL A   1      41.181  27.279  28.635  1.00  0.00     0.031 A 
ATOM     42  C   UNL A   1      40.079  28.629  28.789  1.00  0.00     0.074 A 
ATOM     43  C   UNL A   1      42.311  27.628  29.302  1.00  0.00     0.049 A 
ATOM     44  N   UNL A   1      40.399  29.781  29.376  1.00  0.00    -0.248 NA
ATOM     45  C   UNL A   1      38.666  28.855  28.356  1.00  0.00     0.031 C 
ATOM     46  C   UNL A   1      42.454  28.597  30.395  1.00  0.00     0.029 A 
ATOM     47  N   UNL A   1      43.610  27.180  29.115  1.00  0.00    -0.354 N 
ATOM     48  C   UNL A   1      39.262  30.565  29.620  1.00  0.00     0.074 A 
ATOM     49  C   UNL A   1      38.241  30.003  28.850  1.00  0.00     0.031 C 
ATOM     50  C   UNL A   1      43.746  28.862  30.591  1.00  0.00     0.029 A 
ATOM     51  C   UNL A   1      44.471  28.189  29.546  1.00  0.00     0.049 A 
ATOM     52  H   UNL A   1      43.876  26.309  28.744  1.00  0.00     0.167 HD
ATOM     53  C   UNL A   1      39.157  31.606  30.491  1.00  0.00     0.031 A 
ATOM     54  C   UNL A   1      45.387  28.732  28.707  1.00  0.00     0.031 A 
ATOM     55  C   UNL A   1      40.463  32.094  30.853  1.00  0.00     0.049 A 
ATOM     56  C   UNL A   1      45.307  30.229  28.637  1.00  0.00     0.074 A 
ATOM     57  C   UNL A   1      41.232  32.039  31.994  1.00  0.00     0.029 A 
ATOM     58  N   UNL A   1      41.275  32.570  29.832  1.00  0.00    -0.354 N 
ATOM     59  N   UNL A   1      44.332  30.918  29.165  1.00  0.00    -0.248 NA
ATOM     60  C   UNL A   1      46.296  31.086  27.997  1.00  0.00     0.031 C 
ATOM     61  C   UNL A   1      42.560  32.393  31.621  1.00  0.00     0.029 A 
ATOM     62  C   UNL A   1      42.573  32.719  30.273  1.00  0.00     0.049 A 
ATOM     63  H   UNL A   1      40.967  32.774  28.920  1.00  0.00     0.167 HD
ATOM     64  C   UNL A   1      44.519  32.251  28.946  1.00  0.00     0.074 A 
ATOM     65  C   UNL A   1      45.782  32.307  28.232  1.00  0.00     0.031 C 
ATOM     66  C   UNL A   1      43.604  33.181  29.347  1.00  0.00     0.031 A 
BRANCH  53  67
ATOM     67  C   UNL A   1      37.826  32.149  31.064  1.00  0.00    -0.014 A 
ATOM     68  C   UNL A   1      37.013  33.009  30.295  1.00  0.00     0.010 A 
ATOM     69  C   UNL A   1      37.371  31.948  32.394  1.00  0.00     0.010 A 
ATOM     70  C   UNL A   1      35.837  33.612  30.810  1.00  0.00     0.020 A 
ATOM     71  C   UNL A   1      36.176  32.496  32.906  1.00  0.00     0.020 A 
ATOM     72  C   UNL A   1      35.423  33.348  32.115  1.00  0.00     0.054 A 
BRANCH  72  73
ATOM     73  S   UNL A   1      33.938  34.158  32.789  1.00  0.00     0.124 S 
ATOM     74  O   UNL A   1      34.494  34.994  33.852  1.00  0.00    -0.237 OA
ATOM     75  O   UNL A   1      33.407  34.878  31.637  1.00  0.00    -0.237 OA
ATOM     76  O   UNL A   1      33.110  33.046  33.254  1.00  0.00    -0.744 OA
ENDBRANCH  72  73
ENDBRANCH  53  67
BRANCH  54  77
ATOM     77  C   UNL A   1      45.950  27.722  27.762  1.00  0.00    -0.014 A 
ATOM     78  C   UNL A   1      46.076  26.421  28.306  1.00  0.00     0.010 A 
ATOM     79  C   UNL A   1      45.795  27.845  26.364  1.00  0.00     0.010 A 
ATOM     80  C   UNL A   1      45.889  25.284  27.517  1.00  0.00     0.020 A 
ATOM     81  C   UNL A   1      45.630  26.695  25.560  1.00  0.00     0.020 A 
ATOM     82  C   UNL A   1      45.630  25.426  26.154  1.00  0.00     0.054 A 
BRANCH  82  83
ATOM     83  S   UNL A   1      45.034  23.955  25.257  1.00  0.00     0.124 S 
ATOM     84  O   UNL A   1      45.238  22.889  26.231  1.00  0.00    -0.237 OA
ATOM     85  O   UNL A   1      43.637  24.305  24.996  1.00  0.00    -0.237 OA
ATOM     86  O   UNL A   1      45.888  23.910  24.074  1.00  0.00    -0.744 OA
ENDBRANCH  82  83
ENDBRANCH  54  77
BRANCH  66  87
ATOM     87  C   UNL A   1      43.554  34.612  28.857  1.00  0.00    -0.014 A 
ATOM     88  C   UNL A   1      43.805  35.711  29.695  1.00  0.00     0.010 A 
ATOM     89  C   UNL A   1      43.499  34.868  27.465  1.00  0.00     0.010 A 
ATOM     90  C   UNL A   1      44.046  36.989  29.178  1.00  0.00     0.020 A 
ATOM     91  C   UNL A   1      43.795  36.131  26.934  1.00  0.00     0.020 A 
ATOM     92  C   UNL A   1      44.090  37.180  27.799  1.00  0.00     0.054 A 
BRANCH  92  93
ATOM     93  S   UNL A   1      44.783  38.731  27.164  1.00  0.00     0.124 S 
ATOM     94  O   UNL A   1      45.906  38.256  26.361  1.00  0.00    -0.237 OA
ATOM     95  O   UNL A   1      43.668  39.297  26.408  1.00  0.00    -0.237 OA
ATOM     96  O   UNL A   1      45.134  39.465  28.375  1.00  0.00    -0.744 OA
ENDBRANCH  92  93
ENDBRANCH  66  87
ENDBRANCH  40  41
ENDBRANCH  33  35
ENDBRANCH  32  33
ENDBRANCH  31  32
ENDBRANCH  30  31
ENDBRANCH  29  30
ENDBRANCH  28  29
ENDBRANCH   1  28
TORSDOF 23
ENDMDL
MODEL 2
REMARK VINA RESULT:     -11.2      1.507      2.431
REMARK SMILES Cc1ccc([C@H](C)NC(=O)[C@H]2[C@@H]3CC[C@@H](C3)[C@@H]2C(=O)OCCOCCOCCOC(=O)c2ccc(-c3c4nc(c(-c5ccc(S(=O)(=O)[O-])cc5)c5ccc([nH]5)c(-c5ccc(S(=O)(=O)[O-])cc5)c5nc(c(-c6ccc(S(=O)(=O)[O-])cc6)c6ccc3[nH]6)C=C5)C=C4)cc2)cc1
REMARK SMILES IDX 24 1 23 2 22 3 21 4 20 5 18 6 19 7 17 8 11 9 12 10 13 11
REMARK SMILES IDX 16 12 15 13 14 14 9 15 8 16 10 18 6 19 7 20 5 21 1 22 2 23
REMARK SMILES IDX 3 24 93 25 4 26 92 27 25 28 26 29 27 30 28 31 29 32 30 33
REMARK SMILES IDX 31 34 32 35 33 36 91 37 34 38 90 39 35 40 36 41 37 42 84 43
REMARK SMILES IDX 38 44 89 45 83 46 85 47 39 48 88 49 82 50 81 51 40 53 70 54
REMARK SMILES IDX 51 55 69 56 52 57 55 58 68 59 86 60 53 61 54 62 67 64 87 65
REMARK SMILES IDX 56 66 41 67 42 68 50 69 43 70 49 71 44 72 45 73 46 74 47 75
REMARK SMILES IDX 48 76 71 77 72 78 80 79 73 80 79 81 74 82 75 83 76 84 77 85
REMARK SMILES IDX 78 86 57 87 58 88 66 89 59 90 65 91 60 92 61 93 62 94 63 95
REMARK SMILES IDX 64 96
REMARK H PARENT 8 17 85 52 55 63
REMARK Flexibility Score: inf
ROOT
ATOM      1  C   UNL A   1      35.071  21.005  24.903  1.00  0.00     0.188 C 
ENDROOT
BRANCH   1   2
ATOM      2  O   UNL A   1      34.555  21.028  26.242  1.00  0.00    -0.376 OA
BRANCH   2   3
ATOM      3  C   UNL A   1      33.307  21.604  26.612  1.00  0.00     0.202 C 
BRANCH   3   4
ATOM      4  C   UNL A   1      32.066  21.657  25.578  1.00  0.00     0.261 C 
BRANCH   4   5
ATOM      5  O   UNL A   1      31.031  22.743  25.636  1.00  0.00    -0.463 OA
BRANCH   5   6
ATOM      6  C   UNL A   1      30.949  24.061  26.135  1.00  0.00     0.310 C 
ATOM      7  O   UNL A   1      29.961  24.467  26.684  1.00  0.00    -0.252 OA
BRANCH   6   8
ATOM      8  C   UNL A   1      32.483  25.031  25.994  1.00  0.00     0.115 C 
ATOM      9  C   UNL A   1      32.104  26.394  25.402  1.00  0.00     0.096 C 
ATOM     10  C   UNL A   1      33.313  26.794  24.519  1.00  0.00     0.002 C 
ATOM     11  C   UNL A   1      33.568  25.764  23.385  1.00  0.00     0.005 C 
ATOM     12  C   UNL A   1      34.468  26.453  25.424  1.00  0.00     0.009 C 
ATOM     13  C   UNL A   1      34.040  24.956  25.546  1.00  0.00     0.004 C 
ATOM     14  C   UNL A   1      34.365  24.671  24.088  1.00  0.00     0.005 C 
BRANCH   9  15
ATOM     15  C   UNL A   1      31.661  27.446  26.452  1.00  0.00     0.224 C 
ATOM     16  N   UNL A   1      31.688  28.809  26.350  1.00  0.00    -0.349 N 
ATOM     17  H   UNL A   1      31.631  29.239  27.233  1.00  0.00     0.164 HD
ATOM     18  O   UNL A   1      31.246  27.019  27.540  1.00  0.00    -0.275 OA
BRANCH  16  19
ATOM     19  C   UNL A   1      31.781  29.806  25.265  1.00  0.00     0.109 C 
ATOM     20  C   UNL A   1      33.076  29.576  24.468  1.00  0.00     0.036 C 
BRANCH  19  21
ATOM     21  C   UNL A   1      30.656  29.832  24.247  1.00  0.00    -0.026 A 
ATOM     22  C   UNL A   1      28.034  30.633  20.939  1.00  0.00     0.044 C 
ATOM     23  C   UNL A   1      28.884  30.326  22.129  1.00  0.00    -0.051 A 
ATOM     24  C   UNL A   1      28.867  31.158  23.247  1.00  0.00     0.004 A 
ATOM     25  C   UNL A   1      29.694  29.186  22.127  1.00  0.00     0.004 A 
ATOM     26  C   UNL A   1      29.750  30.915  24.295  1.00  0.00     0.006 A 
ATOM     27  C   UNL A   1      30.583  28.943  23.173  1.00  0.00     0.006 A 
ENDBRANCH  19  21
ENDBRANCH  16  19
ENDBRANCH   9  15
ENDBRANCH   6   8
ENDBRANCH   5   6
ENDBRANCH   4   5
ENDBRANCH   3   4
ENDBRANCH   2   3
ENDBRANCH   1   2
BRANCH   1  28
ATOM     28  C   UNL A   1      36.325  21.778  24.526  1.00  0.00     0.188 C 
BRANCH  28  29
ATOM     29  O   UNL A   1      37.406  21.229  25.256  1.00  0.00    -0.376 OA
BRANCH  29  30
ATOM     30  C   UNL A   1      37.751  19.895  24.963  1.00  0.00     0.202 C 
BRANCH  30  31
ATOM     31  C   UNL A   1      39.149  19.551  25.471  1.00  0.00     0.261 C 
BRANCH  31  32
ATOM     32  O   UNL A   1      40.100  20.624  25.273  1.00  0.00    -0.460 OA
BRANCH  32  33
ATOM     33  C   UNL A   1      40.959  20.920  26.310  1.00  0.00     0.338 C 
ATOM     34  O   UNL A   1      41.939  20.240  26.553  1.00  0.00    -0.246 OA
BRANCH  33  35
ATOM     35  C   UNL A   1      40.692  22.272  26.879  1.00  0.00     0.060 A 
ATOM     36  C   UNL A   1      39.759  23.234  26.500  1.00  0.00     0.016 A 
ATOM     37  C   UNL A   1      41.450  22.617  27.940  1.00  0.00     0.016 A 
ATOM     38  C   UNL A   1      39.740  24.594  27.070  1.00  0.00     0.010 A 
ATOM     39  C   UNL A   1      41.431  23.945  28.401  1.00  0.00     0.010 A 
ATOM     40  C   UNL A   1      40.685  25.093  28.000  1.00  0.00    -0.014 A 
BRANCH  40  41
ATOM     41  C   UNL A   1      40.957  26.762  28.335  1.00  0.00     0.031 A 
ATOM     42  C   UNL A   1      40.073  28.217  28.734  1.00  0.00     0.074 A 
ATOM     43  C   UNL A   1      42.235  26.963  28.748  1.00  0.00     0.049 A 
ATOM     44  N   UNL A   1      40.639  29.308  29.249  1.00  0.00    -0.248 NA
ATOM     45  C   UNL A   1      38.635  28.610  28.615  1.00  0.00     0.031 C 
ATOM     46  C   UNL A   1      42.715  27.874  29.794  1.00  0.00     0.029 A 
ATOM     47  N   UNL A   1      43.407  26.384  28.283  1.00  0.00    -0.354 N 
ATOM     48  C   UNL A   1      39.675  30.203  29.738  1.00  0.00     0.074 A 
ATOM     49  C   UNL A   1      38.458  29.780  29.199  1.00  0.00     0.031 C 
ATOM     50  C   UNL A   1      44.042  27.992  29.710  1.00  0.00     0.029 A 
ATOM     51  C   UNL A   1      44.447  27.278  28.528  1.00  0.00     0.049 A 
ATOM     52  H   UNL A   1      43.488  25.502  27.856  1.00  0.00     0.167 HD
ATOM     53  C   UNL A   1      39.876  31.220  30.620  1.00  0.00     0.031 A 
ATOM     54  C   UNL A   1      45.220  27.746  27.517  1.00  0.00     0.031 A 
ATOM     55  C   UNL A   1      41.275  31.551  30.699  1.00  0.00     0.049 A 
ATOM     56  C   UNL A   1      45.298  29.244  27.479  1.00  0.00     0.074 A 
ATOM     57  C   UNL A   1      42.258  31.375  31.647  1.00  0.00     0.029 A 
ATOM     58  N   UNL A   1      41.901  31.969  29.532  1.00  0.00    -0.354 N 
ATOM     59  N   UNL A   1      44.540  30.017  28.210  1.00  0.00    -0.248 NA
ATOM     60  C   UNL A   1      46.218  30.009  26.650  1.00  0.00     0.031 C 
ATOM     61  C   UNL A   1      43.508  31.594  31.001  1.00  0.00     0.029 A 
ATOM     62  C   UNL A   1      43.271  31.961  29.685  1.00  0.00     0.049 A 
ATOM     63  H   UNL A   1      41.432  32.235  28.708  1.00  0.00     0.167 HD
ATOM     64  C   UNL A   1      44.827  31.328  27.968  1.00  0.00     0.074 A 
ATOM     65  C   UNL A   1      45.908  31.270  27.000  1.00  0.00     0.031 C 
ATOM     66  C   UNL A   1      44.128  32.338  28.563  1.00  0.00     0.031 A 
BRANCH  53  67
ATOM     67  C   UNL A   1      38.766  31.885  31.470  1.00  0.00    -0.014 A 
ATOM     68  C   UNL A   1      38.799  33.271  31.731  1.00  0.00     0.010 A 
ATOM     69  C   UNL A   1      37.728  31.186  32.141  1.00  0.00     0.010 A 
ATOM     70  C   UNL A   1      37.864  33.910  32.586  1.00  0.00     0.020 A 
ATOM     71  C   UNL A   1      36.757  31.813  32.950  1.00  0.00     0.020 A 
ATOM     72  C   UNL A   1      36.844  33.175  33.189  1.00  0.00     0.054 A 
BRANCH  72  73
ATOM     73  S   UNL A   1      35.672  33.988  34.321  1.00  0.00     0.124 S 
ATOM     74  O   UNL A   1      35.693  35.372  33.851  1.00  0.00    -0.237 OA
ATOM     75  O   UNL A   1      34.430  33.262  34.082  1.00  0.00    -0.237 OA
ATOM     76  O   UNL A   1      36.260  33.781  35.644  1.00  0.00    -0.744 OA
ENDBRANCH  72  73
ENDBRANCH  53  67
BRANCH  54  77
ATOM     77  C   UNL A   1      45.452  26.712  26.464  1.00  0.00    -0.014 A 
ATOM     78  C   UNL A   1      46.365  25.696  26.837  1.00  0.00     0.010 A 
ATOM     79  C   UNL A   1      44.470  26.402  25.499  1.00  0.00     0.010 A 
ATOM     80  C   UNL A   1      46.205  24.381  26.394  1.00  0.00     0.020 A 
ATOM     81  C   UNL A   1      44.323  25.078  25.030  1.00  0.00     0.020 A 
ATOM     82  C   UNL A   1      45.163  24.069  25.521  1.00  0.00     0.054 A 
BRANCH  82  83
ATOM     83  S   UNL A   1      44.779  22.305  25.271  1.00  0.00     0.124 S 
ATOM     84  O   UNL A   1      46.000  21.801  24.655  1.00  0.00    -0.237 OA
ATOM     85  O   UNL A   1      44.536  21.850  26.641  1.00  0.00    -0.237 OA
ATOM     86  O   UNL A   1      43.598  22.333  24.415  1.00  0.00    -0.744 OA
ENDBRANCH  82  83
ENDBRANCH  54  77
BRANCH  66  87
ATOM     87  C   UNL A   1      44.138  33.782  28.109  1.00  0.00    -0.014 A 
ATOM     88  C   UNL A   1      43.506  34.213  26.931  1.00  0.00     0.010 A 
ATOM     89  C   UNL A   1      44.579  34.789  29.004  1.00  0.00     0.010 A 
ATOM     90  C   UNL A   1      43.270  35.568  26.678  1.00  0.00     0.020 A 
ATOM     91  C   UNL A   1      44.297  36.144  28.786  1.00  0.00     0.020 A 
ATOM     92  C   UNL A   1      43.621  36.522  27.631  1.00  0.00     0.054 A 
BRANCH  92  93
ATOM     93  S   UNL A   1      42.958  38.201  27.458  1.00  0.00     0.124 S 
ATOM     94  O   UNL A   1      44.045  38.887  26.767  1.00  0.00    -0.237 OA
ATOM     95  O   UNL A   1      41.748  37.990  26.667  1.00  0.00    -0.237 OA
ATOM     96  O   UNL A   1      42.721  38.614  28.837  1.00  0.00    -0.744 OA
ENDBRANCH  92  93
ENDBRANCH  66  87
ENDBRANCH  40  41
ENDBRANCH  33  35
ENDBRANCH  32  33
ENDBRANCH  31  32
ENDBRANCH  30  31
ENDBRANCH  29  30
ENDBRANCH  28  29
ENDBRANCH   1  28
TORSDOF 23
ENDMDL
MODEL 3
REMARK VINA RESULT:     -11.1      2.064      3.992
REMARK SMILES Cc1ccc([C@H](C)NC(=O)[C@H]2[C@@H]3CC[C@@H](C3)[C@@H]2C(=O)OCCOCCOCCOC(=O)c2ccc(-c3c4nc(c(-c5ccc(S(=O)(=O)[O-])cc5)c5ccc([nH]5)c(-c5ccc(S(=O)(=O)[O-])cc5)c5nc(c(-c6ccc(S(=O)(=O)[O-])cc6)c6ccc3[nH]6)C=C5)C=C4)cc2)cc1
REMARK SMILES IDX 24 1 23 2 22 3 21 4 20 5 18 6 19 7 17 8 11 9 12 10 13 11
REMARK SMILES IDX 16 12 15 13 14 14 9 15 8 16 10 18 6 19 7 20 5 21 1 22 2 23
REMARK SMILES IDX 3 24 93 25 4 26 92 27 25 28 26 29 27 30 28 31 29 32 30 33
REMARK SMILES IDX 31 34 32 35 33 36 91 37 34 38 90 39 35 40 36 41 37 42 84 43
REMARK SMILES IDX 38 44 89 45 83 46 85 47 39 48 88 49 82 50 81 51 40 53 70 54
REMARK SMILES IDX 51 55 69 56 52 57 55 58 68 59 86 60 53 61 54 62 67 64 87 65
REMARK SMILES IDX 56 66 41 67 42 68 50 69 43 70 49 71 44 72 45 73 46 74 47 75
REMARK SMILES IDX 48 76 71 77 72 78 80 79 73 80 79 81 74 82 75 83 76 84 77 85
REMARK SMILES IDX 78 86 57 87 58 88 66 89 59 90 65 91 60 92 61 93 62 94 63 95
REMARK SMILES IDX 64 96
REMARK H PARENT 8 17 85 52 55 63
REMARK Flexibility Score: inf
ROOT
ATOM      1  C   UNL A   1      35.610  21.436  25.996  1.00  0.00     0.188 C 
ENDROOT
BRANCH   1   2
ATOM      2  O   UNL A   1      34.823  22.527  26.493  1.00  0.00    -0.376 OA
BRANCH   2   3
ATOM      3  C   UNL A   1      33.475  22.409  26.935  1.00  0.00     0.202 C 
BRANCH   3   4
ATOM      4  C   UNL A   1      32.644  23.696  27.452  1.00  0.00     0.261 C 
BRANCH   4   5
ATOM      5  O   UNL A   1      31.439  24.209  26.718  1.00  0.00    -0.463 OA
BRANCH   5   6
ATOM      6  C   UNL A   1      31.022  25.433  26.152  1.00  0.00     0.310 C 
ATOM      7  O   UNL A   1      30.618  26.337  26.833  1.00  0.00    -0.252 OA
BRANCH   6   8
ATOM      8  C   UNL A   1      31.270  25.571  24.355  1.00  0.00     0.115 C 
ATOM      9  C   UNL A   1      32.722  26.012  24.130  1.00  0.00     0.096 C 
ATOM     10  C   UNL A   1      32.672  26.921  22.876  1.00  0.00     0.002 C 
ATOM     11  C   UNL A   1      31.760  28.159  23.095  1.00  0.00     0.005 C 
ATOM     12  C   UNL A   1      31.783  26.119  21.963  1.00  0.00     0.009 C 
ATOM     13  C   UNL A   1      30.599  26.112  22.981  1.00  0.00     0.004 C 
ATOM     14  C   UNL A   1      30.364  27.607  22.825  1.00  0.00     0.005 C 
BRANCH   9  15
ATOM     15  C   UNL A   1      33.742  24.844  24.074  1.00  0.00     0.224 C 
ATOM     16  N   UNL A   1      33.534  23.556  23.668  1.00  0.00    -0.349 N 
ATOM     17  H   UNL A   1      34.242  22.955  23.993  1.00  0.00     0.164 HD
ATOM     18  O   UNL A   1      34.896  25.082  24.463  1.00  0.00    -0.275 OA
BRANCH  16  19
ATOM     19  C   UNL A   1      32.528  22.827  22.871  1.00  0.00     0.109 C 
ATOM     20  C   UNL A   1      32.880  22.938  21.377  1.00  0.00     0.036 C 
BRANCH  19  21
ATOM     21  C   UNL A   1      32.355  21.347  23.155  1.00  0.00    -0.026 A 
ATOM     22  C   UNL A   1      32.803  17.096  23.587  1.00  0.00     0.044 C 
ATOM     23  C   UNL A   1      32.569  18.564  23.436  1.00  0.00    -0.051 A 
ATOM     24  C   UNL A   1      32.236  19.106  22.195  1.00  0.00     0.004 A 
ATOM     25  C   UNL A   1      32.671  19.400  24.552  1.00  0.00     0.004 A 
ATOM     26  C   UNL A   1      32.135  20.486  22.057  1.00  0.00     0.006 A 
ATOM     27  C   UNL A   1      32.576  20.784  24.414  1.00  0.00     0.006 A 
ENDBRANCH  19  21
ENDBRANCH  16  19
ENDBRANCH   9  15
ENDBRANCH   6   8
ENDBRANCH   5   6
ENDBRANCH   4   5
ENDBRANCH   3   4
ENDBRANCH   2   3
ENDBRANCH   1   2
BRANCH   1  28
ATOM     28  C   UNL A   1      36.250  21.487  24.618  1.00  0.00     0.188 C 
BRANCH  28  29
ATOM     29  O   UNL A   1      37.642  21.289  24.780  1.00  0.00    -0.376 OA
BRANCH  29  30
ATOM     30  C   UNL A   1      38.046  20.030  25.266  1.00  0.00     0.202 C 
BRANCH  30  31
ATOM     31  C   UNL A   1      39.495  20.053  25.750  1.00  0.00     0.261 C 
BRANCH  31  32
ATOM     32  O   UNL A   1      39.824  21.257  26.483  1.00  0.00    -0.460 OA
BRANCH  32  33
ATOM     33  C   UNL A   1      40.919  21.219  27.320  1.00  0.00     0.338 C 
ATOM     34  O   UNL A   1      41.477  20.177  27.609  1.00  0.00    -0.246 OA
BRANCH  33  35
ATOM     35  C   UNL A   1      41.465  22.583  27.575  1.00  0.00     0.060 A 
ATOM     36  C   UNL A   1      42.014  23.125  28.734  1.00  0.00     0.016 A 
ATOM     37  C   UNL A   1      41.452  23.422  26.518  1.00  0.00     0.016 A 
ATOM     38  C   UNL A   1      42.358  24.554  28.861  1.00  0.00     0.010 A 
ATOM     39  C   UNL A   1      41.733  24.785  26.713  1.00  0.00     0.010 A 
ATOM     40  C   UNL A   1      42.115  25.534  27.866  1.00  0.00    -0.014 A 
BRANCH  40  41
ATOM     41  C   UNL A   1      42.086  27.235  28.141  1.00  0.00     0.031 A 
ATOM     42  C   UNL A   1      40.951  28.531  28.448  1.00  0.00     0.074 A 
ATOM     43  C   UNL A   1      43.292  27.667  28.589  1.00  0.00     0.049 A 
ATOM     44  N   UNL A   1      41.301  29.720  28.937  1.00  0.00    -0.248 NA
ATOM     45  C   UNL A   1      39.473  28.666  28.264  1.00  0.00     0.031 C 
ATOM     46  C   UNL A   1      43.567  28.683  29.612  1.00  0.00     0.029 A 
ATOM     47  N   UNL A   1      44.563  27.281  28.189  1.00  0.00    -0.354 N 
ATOM     48  C   UNL A   1      40.180  30.452  29.355  1.00  0.00     0.074 A 
ATOM     49  C   UNL A   1      39.076  29.808  28.792  1.00  0.00     0.031 C 
ATOM     50  C   UNL A   1      44.856  29.023  29.570  1.00  0.00     0.029 A 
ATOM     51  C   UNL A   1      45.426  28.348  28.433  1.00  0.00     0.049 A 
ATOM     52  H   UNL A   1      44.811  26.412  27.802  1.00  0.00     0.167 HD
ATOM     53  C   UNL A   1      40.169  31.519  30.200  1.00  0.00     0.031 A 
ATOM     54  C   UNL A   1      46.149  28.906  27.431  1.00  0.00     0.031 A 
ATOM     55  C   UNL A   1      41.487  32.087  30.314  1.00  0.00     0.049 A 
ATOM     56  C   UNL A   1      45.972  30.394  27.334  1.00  0.00     0.074 A 
ATOM     57  C   UNL A   1      42.445  32.116  31.303  1.00  0.00     0.029 A 
ATOM     58  N   UNL A   1      42.080  32.565  29.153  1.00  0.00    -0.354 N 
ATOM     59  N   UNL A   1      45.065  31.050  28.006  1.00  0.00    -0.248 NA
ATOM     60  C   UNL A   1      46.783  31.276  26.506  1.00  0.00     0.031 C 
ATOM     61  C   UNL A   1      43.665  32.523  30.692  1.00  0.00     0.029 A 
ATOM     62  C   UNL A   1      43.424  32.798  29.354  1.00  0.00     0.049 A 
ATOM     63  H   UNL A   1      41.607  32.718  28.304  1.00  0.00     0.167 HD
ATOM     64  C   UNL A   1      45.134  32.382  27.720  1.00  0.00     0.074 A 
ATOM     65  C   UNL A   1      46.248  32.477  26.793  1.00  0.00     0.031 C 
ATOM     66  C   UNL A   1      44.250  33.277  28.248  1.00  0.00     0.031 A 
BRANCH  53  67
ATOM     67  C   UNL A   1      38.928  32.012  30.983  1.00  0.00    -0.014 A 
ATOM     68  C   UNL A   1      38.140  33.070  30.482  1.00  0.00     0.010 A 
ATOM     69  C   UNL A   1      38.549  31.561  32.275  1.00  0.00     0.010 A 
ATOM     70  C   UNL A   1      37.055  33.625  31.208  1.00  0.00     0.020 A 
ATOM     71  C   UNL A   1      37.440  32.064  32.988  1.00  0.00     0.020 A 
ATOM     72  C   UNL A   1      36.708  33.115  32.458  1.00  0.00     0.054 A 
BRANCH  72  73
ATOM     73  S   UNL A   1      35.345  33.858  33.408  1.00  0.00     0.124 S 
ATOM     74  O   UNL A   1      35.623  33.397  34.767  1.00  0.00    -0.237 OA
ATOM     75  O   UNL A   1      35.528  35.287  33.179  1.00  0.00    -0.237 OA
ATOM     76  O   UNL A   1      34.142  33.288  32.802  1.00  0.00    -0.744 OA
ENDBRANCH  72  73
ENDBRANCH  53  67
BRANCH  54  77
ATOM     77  C   UNL A   1      46.597  27.892  26.431  1.00  0.00    -0.014 A 
ATOM     78  C   UNL A   1      46.047  28.066  25.138  1.00  0.00     0.010 A 
ATOM     79  C   UNL A   1      47.846  27.243  26.540  1.00  0.00     0.010 A 
ATOM     80  C   UNL A   1      46.781  27.758  23.991  1.00  0.00     0.020 A 
ATOM     81  C   UNL A   1      48.580  26.908  25.380  1.00  0.00     0.020 A 
ATOM     82  C   UNL A   1      48.060  27.214  24.116  1.00  0.00     0.054 A 
BRANCH  82  83
ATOM     83  S   UNL A   1      49.104  27.179  22.622  1.00  0.00     0.124 S 
ATOM     84  O   UNL A   1      48.631  25.983  21.936  1.00  0.00    -0.237 OA
ATOM     85  O   UNL A   1      48.758  28.448  21.980  1.00  0.00    -0.237 OA
ATOM     86  O   UNL A   1      50.460  27.112  23.158  1.00  0.00    -0.744 OA
ENDBRANCH  82  83
ENDBRANCH  54  77
BRANCH  66  87
ATOM     87  C   UNL A   1      44.033  34.685  27.735  1.00  0.00    -0.014 A 
ATOM     88  C   UNL A   1      43.028  35.010  26.810  1.00  0.00     0.010 A 
ATOM     89  C   UNL A   1      44.687  35.766  28.376  1.00  0.00     0.010 A 
ATOM     90  C   UNL A   1      42.650  36.336  26.573  1.00  0.00     0.020 A 
ATOM     91  C   UNL A   1      44.278  37.093  28.188  1.00  0.00     0.020 A 
ATOM     92  C   UNL A   1      43.242  37.366  27.301  1.00  0.00     0.054 A 
BRANCH  92  93
ATOM     93  S   UNL A   1      42.470  39.006  27.262  1.00  0.00     0.124 S 
ATOM     94  O   UNL A   1      42.310  39.301  28.682  1.00  0.00    -0.237 OA
ATOM     95  O   UNL A   1      43.466  39.815  26.563  1.00  0.00    -0.237 OA
ATOM     96  O   UNL A   1      41.235  38.781  26.517  1.00  0.00    -0.744 OA
ENDBRANCH  92  93
ENDBRANCH  66  87
ENDBRANCH  40  41
ENDBRANCH  33  35
ENDBRANCH  32  33
ENDBRANCH  31  32
ENDBRANCH  30  31
ENDBRANCH  29  30
ENDBRANCH  28  29
ENDBRANCH   1  28
TORSDOF 23
ENDMDL
