MODEL 1
REMARK VINA RESULT:     -10.6      0.000      0.000
REMARK SMILES O=C(OCCOCCOCCOC(=O)c1nccnc1C(=O)Nc1n[nH]c2ncccc12)c1ccc(-c2c3nc(c(-c4ccc(S(=O)(=O)[O-])cc4)c4ccc([nH]4)c(-c4ccc(S(=O)(=O)[O-])cc4)c4nc(c(-c5ccc(S(=O)(=O)[O-])cc5)c5ccc2[nH]5)C=C4)C=C3)cc1
REMARK SMILES IDX 7 1 6 2 5 3 4 4 3 5 2 6 1 7 33 8 34 9 92 10 35 11 91 12
REMARK SMILES IDX 36 13 37 14 38 15 85 16 39 17 90 18 84 19 86 20 40 21 89 22
REMARK SMILES IDX 83 23 82 24 41 26 71 27 52 28 70 29 53 30 56 31 69 32 87 33
REMARK SMILES IDX 54 34 55 35 68 37 88 38 57 39 42 40 43 41 51 42 44 43 50 44
REMARK SMILES IDX 45 45 46 46 47 47 48 48 49 49 72 50 73 51 81 52 74 53 80 54
REMARK SMILES IDX 75 55 76 56 77 57 78 58 79 59 58 60 59 61 67 62 60 63 66 64
REMARK SMILES IDX 61 65 62 66 63 67 64 68 65 69 8 70 9 71 10 72 11 73 12 74
REMARK SMILES IDX 13 75 14 76 15 77 16 78 20 79 17 80 19 81 18 82 21 83 22 84
REMARK SMILES IDX 23 85 24 87 25 88 32 89 26 90 27 91 31 92 28 94 30 95 29 96
REMARK H PARENT 86 25 56 36 23 86 26 93
REMARK Flexibility Score: inf
ROOT
ATOM      1  C   UNL A   1      38.580  21.138  25.531  1.00  0.00     0.188 C 
ENDROOT
BRANCH   1   2
ATOM      2  O   UNL A   1      39.034  22.053  26.524  1.00  0.00    -0.376 OA
BRANCH   2   3
ATOM      3  C   UNL A   1      40.418  21.955  26.848  1.00  0.00     0.202 C 
BRANCH   3   4
ATOM      4  C   UNL A   1      41.195  23.237  26.513  1.00  0.00     0.261 C 
BRANCH   4   5
ATOM      5  O   UNL A   1      40.278  24.343  26.505  1.00  0.00    -0.460 OA
BRANCH   5   6
ATOM      6  C   UNL A   1      40.787  25.561  26.206  1.00  0.00     0.338 C 
ATOM      7  O   UNL A   1      41.179  25.937  25.102  1.00  0.00    -0.246 OA
BRANCH   6   8
ATOM      8  C   UNL A   1      40.823  26.362  27.455  1.00  0.00     0.060 A 
ATOM      9  C   UNL A   1      39.886  26.088  28.457  1.00  0.00     0.016 A 
ATOM     10  C   UNL A   1      41.784  27.362  27.667  1.00  0.00     0.016 A 
ATOM     11  C   UNL A   1      39.872  26.829  29.629  1.00  0.00     0.010 A 
ATOM     12  C   UNL A   1      41.767  28.121  28.853  1.00  0.00     0.010 A 
ATOM     13  C   UNL A   1      40.795  27.868  29.832  1.00  0.00    -0.014 A 
BRANCH  13  14
ATOM     14  C   UNL A   1      40.479  28.782  30.961  1.00  0.00     0.031 A 
ATOM     15  C   UNL A   1      41.471  28.798  32.076  1.00  0.00     0.074 A 
ATOM     16  C   UNL A   1      39.514  29.721  30.906  1.00  0.00     0.049 A 
ATOM     17  N   UNL A   1      41.586  29.648  33.055  1.00  0.00    -0.248 NA
ATOM     18  C   UNL A   1      42.468  27.713  32.079  1.00  0.00     0.031 C 
ATOM     19  C   UNL A   1      38.468  29.772  29.912  1.00  0.00     0.029 A 
ATOM     20  N   UNL A   1      39.271  30.841  31.659  1.00  0.00    -0.354 N 
ATOM     21  C   UNL A   1      42.664  29.196  33.798  1.00  0.00     0.074 A 
ATOM     22  C   UNL A   1      43.191  28.022  33.141  1.00  0.00     0.031 C 
ATOM     23  C   UNL A   1      37.829  30.945  29.956  1.00  0.00     0.029 A 
ATOM     24  C   UNL A   1      38.255  31.630  31.162  1.00  0.00     0.049 A 
ATOM     25  H   UNL A   1      39.774  31.061  32.478  1.00  0.00     0.167 HD
ATOM     26  C   UNL A   1      43.130  29.690  34.964  1.00  0.00     0.031 A 
ATOM     27  C   UNL A   1      37.642  32.718  31.666  1.00  0.00     0.031 A 
ATOM     28  C   UNL A   1      42.496  30.768  35.664  1.00  0.00     0.049 A 
ATOM     29  C   UNL A   1      38.093  33.176  33.014  1.00  0.00     0.074 A 
ATOM     30  C   UNL A   1      42.797  31.279  36.910  1.00  0.00     0.029 A 
ATOM     31  N   UNL A   1      41.394  31.471  35.190  1.00  0.00    -0.354 N 
ATOM     32  N   UNL A   1      39.095  32.719  33.726  1.00  0.00    -0.248 NA
ATOM     33  C   UNL A   1      37.318  34.241  33.655  1.00  0.00     0.031 C 
ATOM     34  C   UNL A   1      41.836  32.247  37.218  1.00  0.00     0.029 A 
ATOM     35  C   UNL A   1      40.982  32.392  36.133  1.00  0.00     0.049 A 
ATOM     36  H   UNL A   1      40.970  31.332  34.313  1.00  0.00     0.167 HD
ATOM     37  C   UNL A   1      39.067  33.429  34.911  1.00  0.00     0.074 A 
ATOM     38  C   UNL A   1      37.963  34.369  34.808  1.00  0.00     0.031 C 
ATOM     39  C   UNL A   1      39.876  33.308  35.989  1.00  0.00     0.031 A 
BRANCH  26  40
ATOM     40  C   UNL A   1      44.266  28.935  35.586  1.00  0.00    -0.014 A 
ATOM     41  C   UNL A   1      44.039  27.863  36.470  1.00  0.00     0.010 A 
ATOM     42  C   UNL A   1      45.580  29.386  35.370  1.00  0.00     0.010 A 
ATOM     43  C   UNL A   1      45.106  27.295  37.170  1.00  0.00     0.020 A 
ATOM     44  C   UNL A   1      46.649  28.804  36.049  1.00  0.00     0.020 A 
ATOM     45  C   UNL A   1      46.402  27.780  36.965  1.00  0.00     0.054 A 
BRANCH  45  46
ATOM     46  S   UNL A   1      47.763  27.059  37.921  1.00  0.00     0.124 S 
ATOM     47  O   UNL A   1      48.456  26.269  36.906  1.00  0.00    -0.237 OA
ATOM     48  O   UNL A   1      48.482  28.238  38.396  1.00  0.00    -0.237 OA
ATOM     49  O   UNL A   1      47.086  26.285  38.958  1.00  0.00    -0.744 OA
ENDBRANCH  45  46
ENDBRANCH  26  40
BRANCH  27  50
ATOM     50  C   UNL A   1      36.462  33.307  30.967  1.00  0.00    -0.014 A 
ATOM     51  C   UNL A   1      35.228  33.472  31.620  1.00  0.00     0.010 A 
ATOM     52  C   UNL A   1      36.598  33.786  29.647  1.00  0.00     0.010 A 
ATOM     53  C   UNL A   1      34.172  34.135  30.980  1.00  0.00     0.020 A 
ATOM     54  C   UNL A   1      35.561  34.480  29.020  1.00  0.00     0.020 A 
ATOM     55  C   UNL A   1      34.352  34.649  29.692  1.00  0.00     0.054 A 
BRANCH  55  56
ATOM     56  S   UNL A   1      33.025  35.634  28.939  1.00  0.00     0.124 S 
ATOM     57  O   UNL A   1      32.406  34.670  28.036  1.00  0.00    -0.237 OA
ATOM     58  O   UNL A   1      32.233  36.022  30.104  1.00  0.00    -0.237 OA
ATOM     59  O   UNL A   1      33.747  36.731  28.299  1.00  0.00    -0.744 OA
ENDBRANCH  55  56
ENDBRANCH  27  50
BRANCH  39  60
ATOM     60  C   UNL A   1      39.628  34.247  37.128  1.00  0.00    -0.014 A 
ATOM     61  C   UNL A   1      38.841  33.865  38.227  1.00  0.00     0.010 A 
ATOM     62  C   UNL A   1      40.286  35.488  37.133  1.00  0.00     0.010 A 
ATOM     63  C   UNL A   1      38.722  34.718  39.324  1.00  0.00     0.020 A 
ATOM     64  C   UNL A   1      40.189  36.329  38.239  1.00  0.00     0.020 A 
ATOM     65  C   UNL A   1      39.405  35.939  39.326  1.00  0.00     0.054 A 
BRANCH  65  66
ATOM     66  S   UNL A   1      39.321  36.981  40.805  1.00  0.00     0.124 S 
ATOM     67  O   UNL A   1      38.456  38.069  40.359  1.00  0.00    -0.237 OA
ATOM     68  O   UNL A   1      38.739  36.080  41.798  1.00  0.00    -0.237 OA
ATOM     69  O   UNL A   1      40.715  37.350  41.047  1.00  0.00    -0.744 OA
ENDBRANCH  65  66
ENDBRANCH  39  60
ENDBRANCH  13  14
ENDBRANCH   6   8
ENDBRANCH   5   6
ENDBRANCH   4   5
ENDBRANCH   3   4
ENDBRANCH   2   3
ENDBRANCH   1   2
BRANCH   1  70
ATOM     70  C   UNL A   1      37.159  21.498  25.010  1.00  0.00     0.188 C 
BRANCH  70  71
ATOM     71  O   UNL A   1      36.175  20.431  25.049  1.00  0.00    -0.376 OA
BRANCH  71  72
ATOM     72  C   UNL A   1      34.794  20.809  24.840  1.00  0.00     0.202 C 
BRANCH  72  73
ATOM     73  C   UNL A   1      34.605  22.355  24.546  1.00  0.00     0.261 C 
BRANCH  73  74
ATOM     74  O   UNL A   1      33.372  22.818  23.891  1.00  0.00    -0.458 OA
BRANCH  74  75
ATOM     75  C   UNL A   1      33.256  24.093  23.381  1.00  0.00     0.359 C 
ATOM     76  O   UNL A   1      34.067  24.607  22.626  1.00  0.00    -0.244 OA
BRANCH  75  77
ATOM     77  C   UNL A   1      31.989  24.788  23.838  1.00  0.00     0.179 A 
ATOM     78  N   UNL A   1      31.443  24.298  24.999  1.00  0.00    -0.245 NA
ATOM     79  C   UNL A   1      31.383  25.870  23.177  1.00  0.00     0.161 A 
ATOM     80  C   UNL A   1      30.338  24.942  25.470  1.00  0.00     0.132 A 
ATOM     81  N   UNL A   1      30.225  26.456  23.635  1.00  0.00    -0.247 NA
ATOM     82  C   UNL A   1      29.742  25.996  24.803  1.00  0.00     0.132 A 
BRANCH  79  83
ATOM     83  C   UNL A   1      31.834  26.548  21.929  1.00  0.00     0.278 C 
ATOM     84  O   UNL A   1      31.507  26.086  20.836  1.00  0.00    -0.267 OA
ATOM     85  N   UNL A   1      32.755  27.585  21.986  1.00  0.00    -0.303 N 
ATOM     86  H   UNL A   1      33.506  27.627  21.349  1.00  0.00     0.172 HD
BRANCH  85  87
ATOM     87  C   UNL A   1      32.598  28.545  22.944  1.00  0.00     0.164 A 
ATOM     88  N   UNL A   1      31.642  29.436  22.724  1.00  0.00    -0.155 NA
ATOM     89  C   UNL A   1      33.007  28.530  24.296  1.00  0.00     0.063 A 
ATOM     90  N   UNL A   1      31.224  29.674  23.970  1.00  0.00    -0.259 N 
ATOM     91  C   UNL A   1      32.066  29.268  24.961  1.00  0.00     0.157 A 
ATOM     92  C   UNL A   1      33.912  27.843  25.084  1.00  0.00     0.017 A 
ATOM     93  H   UNL A   1      30.365  30.114  24.161  1.00  0.00     0.192 HD
ATOM     94  N   UNL A   1      31.898  29.375  26.296  1.00  0.00    -0.237 NA
ATOM     95  C   UNL A   1      33.783  27.887  26.474  1.00  0.00     0.021 A 
ATOM     96  C   UNL A   1      32.770  28.650  27.017  1.00  0.00     0.113 A 
ENDBRANCH  85  87
ENDBRANCH  79  83
ENDBRANCH  75  77
ENDBRANCH  74  75
ENDBRANCH  73  74
ENDBRANCH  72  73
ENDBRANCH  71  72
ENDBRANCH  70  71
ENDBRANCH   1  70
TORSDOF 22
ENDMDL
MODEL 2
REMARK VINA RESULT:     -10.2      1.901      2.878
REMARK SMILES O=C(OCCOCCOCCOC(=O)c1nccnc1C(=O)Nc1n[nH]c2ncccc12)c1ccc(-c2c3nc(c(-c4ccc(S(=O)(=O)[O-])cc4)c4ccc([nH]4)c(-c4ccc(S(=O)(=O)[O-])cc4)c4nc(c(-c5ccc(S(=O)(=O)[O-])cc5)c5ccc2[nH]5)C=C4)C=C3)cc1
REMARK SMILES IDX 7 1 6 2 5 3 4 4 3 5 2 6 1 7 33 8 34 9 92 10 35 11 91 12
REMARK SMILES IDX 36 13 37 14 38 15 85 16 39 17 90 18 84 19 86 20 40 21 89 22
REMARK SMILES IDX 83 23 82 24 41 26 71 27 52 28 70 29 53 30 56 31 69 32 87 33
REMARK SMILES IDX 54 34 55 35 68 37 88 38 57 39 42 40 43 41 51 42 44 43 50 44
REMARK SMILES IDX 45 45 46 46 47 47 48 48 49 49 72 50 73 51 81 52 74 53 80 54
REMARK SMILES IDX 75 55 76 56 77 57 78 58 79 59 58 60 59 61 67 62 60 63 66 64
REMARK SMILES IDX 61 65 62 66 63 67 64 68 65 69 8 70 9 71 10 72 11 73 12 74
REMARK SMILES IDX 13 75 14 76 15 77 16 78 20 79 17 80 19 81 18 82 21 83 22 84
REMARK SMILES IDX 23 85 24 87 25 88 32 89 26 90 27 91 31 92 28 94 30 95 29 96
REMARK H PARENT 86 25 56 36 23 86 26 93
REMARK Flexibility Score: inf
ROOT
ATOM      1  C   UNL A   1      41.174  22.063  27.098  1.00  0.00     0.188 C 
ENDROOT
BRANCH   1   2
ATOM      2  O   UNL A   1      42.144  22.491  26.147  1.00  0.00    -0.376 OA
BRANCH   2   3
ATOM      3  C   UNL A   1      42.948  23.593  26.557  1.00  0.00     0.202 C 
BRANCH   3   4
ATOM      4  C   UNL A   1      42.668  24.864  25.741  1.00  0.00     0.261 C 
BRANCH   4   5
ATOM      5  O   UNL A   1      42.053  25.837  26.600  1.00  0.00    -0.460 OA
BRANCH   5   6
ATOM      6  C   UNL A   1      40.706  25.780  26.729  1.00  0.00     0.338 C 
ATOM      7  O   UNL A   1      39.928  25.188  25.982  1.00  0.00    -0.246 OA
BRANCH   6   8
ATOM      8  C   UNL A   1      40.324  26.586  27.914  1.00  0.00     0.060 A 
ATOM      9  C   UNL A   1      40.862  27.870  28.056  1.00  0.00     0.016 A 
ATOM     10  C   UNL A   1      39.421  26.108  28.876  1.00  0.00     0.016 A 
ATOM     11  C   UNL A   1      40.547  28.647  29.161  1.00  0.00     0.010 A 
ATOM     12  C   UNL A   1      39.107  26.891  30.003  1.00  0.00     0.010 A 
ATOM     13  C   UNL A   1      39.686  28.159  30.158  1.00  0.00    -0.014 A 
BRANCH  13  14
ATOM     14  C   UNL A   1      39.683  28.937  31.425  1.00  0.00     0.031 A 
ATOM     15  C   UNL A   1      40.907  28.799  32.270  1.00  0.00     0.074 A 
ATOM     16  C   UNL A   1      38.778  29.894  31.705  1.00  0.00     0.049 A 
ATOM     17  N   UNL A   1      41.285  29.523  33.282  1.00  0.00    -0.248 NA
ATOM     18  C   UNL A   1      41.824  27.702  31.916  1.00  0.00     0.031 C 
ATOM     19  C   UNL A   1      37.534  30.086  30.998  1.00  0.00     0.029 A 
ATOM     20  N   UNL A   1      38.769  30.920  32.615  1.00  0.00    -0.354 N 
ATOM     21  C   UNL A   1      42.483  28.964  33.695  1.00  0.00     0.074 A 
ATOM     22  C   UNL A   1      42.788  27.867  32.805  1.00  0.00     0.031 C 
ATOM     23  C   UNL A   1      36.978  31.257  31.323  1.00  0.00     0.029 A 
ATOM     24  C   UNL A   1      37.703  31.783  32.463  1.00  0.00     0.049 A 
ATOM     25  H   UNL A   1      39.458  31.030  33.311  1.00  0.00     0.167 HD
ATOM     26  C   UNL A   1      43.230  29.305  34.767  1.00  0.00     0.031 A 
ATOM     27  C   UNL A   1      37.276  32.815  33.216  1.00  0.00     0.031 A 
ATOM     28  C   UNL A   1      42.827  30.303  35.713  1.00  0.00     0.049 A 
ATOM     29  C   UNL A   1      38.049  33.098  34.462  1.00  0.00     0.074 A 
ATOM     30  C   UNL A   1      43.433  30.655  36.902  1.00  0.00     0.029 A 
ATOM     31  N   UNL A   1      41.680  31.079  35.594  1.00  0.00    -0.354 N 
ATOM     32  N   UNL A   1      39.166  32.539  34.863  1.00  0.00    -0.248 NA
ATOM     33  C   UNL A   1      37.494  34.093  35.384  1.00  0.00     0.031 C 
ATOM     34  C   UNL A   1      42.616  31.597  37.535  1.00  0.00     0.029 A 
ATOM     35  C   UNL A   1      41.541  31.889  36.705  1.00  0.00     0.049 A 
ATOM     36  H   UNL A   1      41.058  31.055  34.831  1.00  0.00     0.167 HD
ATOM     37  C   UNL A   1      39.447  33.102  36.093  1.00  0.00     0.074 A 
ATOM     38  C   UNL A   1      38.395  34.069  36.359  1.00  0.00     0.031 C 
ATOM     39  C   UNL A   1      40.477  32.837  36.930  1.00  0.00     0.031 A 
BRANCH  26  40
ATOM     40  C   UNL A   1      44.442  28.458  35.014  1.00  0.00    -0.014 A 
ATOM     41  C   UNL A   1      44.378  27.299  35.810  1.00  0.00     0.010 A 
ATOM     42  C   UNL A   1      45.688  28.901  34.537  1.00  0.00     0.010 A 
ATOM     43  C   UNL A   1      45.551  26.631  36.170  1.00  0.00     0.020 A 
ATOM     44  C   UNL A   1      46.858  28.221  34.874  1.00  0.00     0.020 A 
ATOM     45  C   UNL A   1      46.784  27.105  35.711  1.00  0.00     0.054 A 
BRANCH  45  46
ATOM     46  S   UNL A   1      48.295  26.250  36.230  1.00  0.00     0.124 S 
ATOM     47  O   UNL A   1      47.956  25.840  37.590  1.00  0.00    -0.237 OA
ATOM     48  O   UNL A   1      48.401  25.166  35.256  1.00  0.00    -0.237 OA
ATOM     49  O   UNL A   1      49.327  27.279  36.128  1.00  0.00    -0.744 OA
ENDBRANCH  45  46
ENDBRANCH  26  40
BRANCH  27  50
ATOM     50  C   UNL A   1      35.996  33.507  32.886  1.00  0.00    -0.014 A 
ATOM     51  C   UNL A   1      34.782  33.134  33.489  1.00  0.00     0.010 A 
ATOM     52  C   UNL A   1      36.004  34.613  32.011  1.00  0.00     0.010 A 
ATOM     53  C   UNL A   1      33.617  33.875  33.250  1.00  0.00     0.020 A 
ATOM     54  C   UNL A   1      34.854  35.377  31.800  1.00  0.00     0.020 A 
ATOM     55  C   UNL A   1      33.665  35.001  32.422  1.00  0.00     0.054 A 
BRANCH  55  56
ATOM     56  S   UNL A   1      32.182  36.034  32.246  1.00  0.00     0.124 S 
ATOM     57  O   UNL A   1      32.239  36.409  30.838  1.00  0.00    -0.237 OA
ATOM     58  O   UNL A   1      31.117  35.107  32.620  1.00  0.00    -0.237 OA
ATOM     59  O   UNL A   1      32.414  37.115  33.201  1.00  0.00    -0.744 OA
ENDBRANCH  55  56
ENDBRANCH  27  50
BRANCH  39  60
ATOM     60  C   UNL A   1      40.544  33.637  38.193  1.00  0.00    -0.014 A 
ATOM     61  C   UNL A   1      41.094  34.929  38.206  1.00  0.00     0.010 A 
ATOM     62  C   UNL A   1      39.946  33.116  39.352  1.00  0.00     0.010 A 
ATOM     63  C   UNL A   1      41.039  35.694  39.371  1.00  0.00     0.020 A 
ATOM     64  C   UNL A   1      39.867  33.888  40.508  1.00  0.00     0.020 A 
ATOM     65  C   UNL A   1      40.417  35.172  40.510  1.00  0.00     0.054 A 
BRANCH  65  66
ATOM     66  S   UNL A   1      40.263  36.223  41.977  1.00  0.00     0.124 S 
ATOM     67  O   UNL A   1      39.083  37.020  41.655  1.00  0.00    -0.237 OA
ATOM     68  O   UNL A   1      40.090  35.247  43.052  1.00  0.00    -0.237 OA
ATOM     69  O   UNL A   1      41.525  36.959  42.009  1.00  0.00    -0.744 OA
ENDBRANCH  65  66
ENDBRANCH  39  60
ENDBRANCH  13  14
ENDBRANCH   6   8
ENDBRANCH   5   6
ENDBRANCH   4   5
ENDBRANCH   3   4
ENDBRANCH   2   3
ENDBRANCH   1   2
BRANCH   1  70
ATOM     70  C   UNL A   1      40.057  21.199  26.445  1.00  0.00     0.188 C 
BRANCH  70  71
ATOM     71  O   UNL A   1      38.845  21.903  26.065  1.00  0.00    -0.376 OA
BRANCH  71  72
ATOM     72  C   UNL A   1      37.862  21.152  25.315  1.00  0.00     0.202 C 
BRANCH  72  73
ATOM     73  C   UNL A   1      36.529  21.964  25.041  1.00  0.00     0.261 C 
BRANCH  73  74
ATOM     74  O   UNL A   1      35.423  21.880  26.007  1.00  0.00    -0.458 OA
BRANCH  74  75
ATOM     75  C   UNL A   1      34.487  22.884  26.129  1.00  0.00     0.359 C 
ATOM     76  O   UNL A   1      34.190  23.422  27.183  1.00  0.00    -0.244 OA
BRANCH  75  77
ATOM     77  C   UNL A   1      33.879  23.274  24.796  1.00  0.00     0.179 A 
ATOM     78  N   UNL A   1      34.732  23.916  23.932  1.00  0.00    -0.245 NA
ATOM     79  C   UNL A   1      32.555  23.007  24.409  1.00  0.00     0.161 A 
ATOM     80  C   UNL A   1      34.232  24.224  22.702  1.00  0.00     0.132 A 
ATOM     81  N   UNL A   1      32.053  23.394  23.187  1.00  0.00    -0.247 NA
ATOM     82  C   UNL A   1      32.924  23.970  22.338  1.00  0.00     0.132 A 
BRANCH  79  83
ATOM     83  C   UNL A   1      31.496  22.309  25.191  1.00  0.00     0.278 C 
ATOM     84  O   UNL A   1      31.568  21.091  25.357  1.00  0.00    -0.267 OA
ATOM     85  N   UNL A   1      30.348  22.985  25.582  1.00  0.00    -0.303 N 
ATOM     86  H   UNL A   1      29.461  22.566  25.492  1.00  0.00     0.172 HD
BRANCH  85  87
ATOM     87  C   UNL A   1      30.477  24.245  26.093  1.00  0.00     0.164 A 
ATOM     88  N   UNL A   1      31.197  24.353  27.200  1.00  0.00    -0.155 NA
ATOM     89  C   UNL A   1      30.305  25.490  25.448  1.00  0.00     0.063 A 
ATOM     90  N   UNL A   1      31.762  25.550  27.020  1.00  0.00    -0.259 N 
ATOM     91  C   UNL A   1      31.187  26.335  26.067  1.00  0.00     0.157 A 
ATOM     92  C   UNL A   1      29.689  25.977  24.311  1.00  0.00     0.017 A 
ATOM     93  H   UNL A   1      32.542  25.846  27.541  1.00  0.00     0.192 HD
ATOM     94  N   UNL A   1      31.549  27.575  25.676  1.00  0.00    -0.237 NA
ATOM     95  C   UNL A   1      30.034  27.244  23.833  1.00  0.00     0.021 A 
ATOM     96  C   UNL A   1      30.960  27.983  24.539  1.00  0.00     0.113 A 
ENDBRANCH  85  87
ENDBRANCH  79  83
ENDBRANCH  75  77
ENDBRANCH  74  75
ENDBRANCH  73  74
ENDBRANCH  72  73
ENDBRANCH  71  72
ENDBRANCH  70  71
ENDBRANCH   1  70
TORSDOF 22
ENDMDL
MODEL 3
REMARK VINA RESULT:     -10.2      5.236     12.718
REMARK SMILES O=C(OCCOCCOCCOC(=O)c1nccnc1C(=O)Nc1n[nH]c2ncccc12)c1ccc(-c2c3nc(c(-c4ccc(S(=O)(=O)[O-])cc4)c4ccc([nH]4)c(-c4ccc(S(=O)(=O)[O-])cc4)c4nc(c(-c5ccc(S(=O)(=O)[O-])cc5)c5ccc2[nH]5)C=C4)C=C3)cc1
REMARK SMILES IDX 7 1 6 2 5 3 4 4 3 5 2 6 1 7 33 8 34 9 92 10 35 11 91 12
REMARK SMILES IDX 36 13 37 14 38 15 85 16 39 17 90 18 84 19 86 20 40 21 89 22
REMARK SMILES IDX 83 23 82 24 41 26 71 27 52 28 70 29 53 30 56 31 69 32 87 33
REMARK SMILES IDX 54 34 55 35 68 37 88 38 57 39 42 40 43 41 51 42 44 43 50 44
REMARK SMILES IDX 45 45 46 46 47 47 48 48 49 49 72 50 73 51 81 52 74 53 80 54
REMARK SMILES IDX 75 55 76 56 77 57 78 58 79 59 58 60 59 61 67 62 60 63 66 64
REMARK SMILES IDX 61 65 62 66 63 67 64 68 65 69 8 70 9 71 10 72 11 73 12 74
REMARK SMILES IDX 13 75 14 76 15 77 16 78 20 79 17 80 19 81 18 82 21 83 22 84
REMARK SMILES IDX 23 85 24 87 25 88 32 89 26 90 27 91 31 92 28 94 30 95 29 96
REMARK H PARENT 86 25 56 36 23 86 26 93
REMARK Flexibility Score: inf
ROOT
ATOM      1  C   UNL A   1      33.930  34.863  31.947  1.00  0.00     0.188 C 
ENDROOT
BRANCH   1   2
ATOM      2  O   UNL A   1      33.689  33.918  30.908  1.00  0.00    -0.376 OA
BRANCH   2   3
ATOM      3  C   UNL A   1      33.668  34.461  29.592  1.00  0.00     0.202 C 
BRANCH   3   4
ATOM      4  C   UNL A   1      34.219  33.484  28.542  1.00  0.00     0.261 C 
BRANCH   4   5
ATOM      5  O   UNL A   1      34.300  32.176  29.127  1.00  0.00    -0.460 OA
BRANCH   5   6
ATOM      6  C   UNL A   1      34.267  31.120  28.280  1.00  0.00     0.338 C 
ATOM      7  O   UNL A   1      33.298  30.745  27.620  1.00  0.00    -0.246 OA
BRANCH   6   8
ATOM      8  C   UNL A   1      35.599  30.468  28.307  1.00  0.00     0.060 A 
ATOM      9  C   UNL A   1      36.057  29.923  29.511  1.00  0.00     0.016 A 
ATOM     10  C   UNL A   1      36.395  30.360  27.156  1.00  0.00     0.016 A 
ATOM     11  C   UNL A   1      37.307  29.325  29.583  1.00  0.00     0.010 A 
ATOM     12  C   UNL A   1      37.668  29.761  27.229  1.00  0.00     0.010 A 
ATOM     13  C   UNL A   1      38.136  29.258  28.451  1.00  0.00    -0.014 A 
BRANCH  13  14
ATOM     14  C   UNL A   1      39.550  28.894  28.726  1.00  0.00     0.031 A 
ATOM     15  C   UNL A   1      40.300  29.839  29.608  1.00  0.00     0.074 A 
ATOM     16  C   UNL A   1      40.079  27.692  28.428  1.00  0.00     0.049 A 
ATOM     17  N   UNL A   1      41.443  29.666  30.204  1.00  0.00    -0.248 NA
ATOM     18  C   UNL A   1      39.667  31.147  29.852  1.00  0.00     0.031 C 
ATOM     19  C   UNL A   1      39.476  26.723  27.543  1.00  0.00     0.029 A 
ATOM     20  N   UNL A   1      41.206  27.044  28.863  1.00  0.00    -0.354 N 
ATOM     21  C   UNL A   1      41.674  30.848  30.889  1.00  0.00     0.074 A 
ATOM     22  C   UNL A   1      40.539  31.714  30.666  1.00  0.00     0.031 C 
ATOM     23  C   UNL A   1      40.088  25.540  27.648  1.00  0.00     0.029 A 
ATOM     24  C   UNL A   1      41.297  25.740  28.422  1.00  0.00     0.049 A 
ATOM     25  H   UNL A   1      41.887  27.470  29.434  1.00  0.00     0.167 HD
ATOM     26  C   UNL A   1      42.772  31.197  31.592  1.00  0.00     0.031 A 
ATOM     27  C   UNL A   1      42.288  24.832  28.521  1.00  0.00     0.031 A 
ATOM     28  C   UNL A   1      43.941  30.371  31.674  1.00  0.00     0.049 A 
ATOM     29  C   UNL A   1      43.541  25.280  29.199  1.00  0.00     0.074 A 
ATOM     30  C   UNL A   1      45.159  30.662  32.251  1.00  0.00     0.029 A 
ATOM     31  N   UNL A   1      44.046  29.102  31.116  1.00  0.00    -0.354 N 
ATOM     32  N   UNL A   1      43.762  26.416  29.815  1.00  0.00    -0.248 NA
ATOM     33  C   UNL A   1      44.690  24.371  29.153  1.00  0.00     0.031 C 
ATOM     34  C   UNL A   1      46.024  29.595  31.984  1.00  0.00     0.029 A 
ATOM     35  C   UNL A   1      45.321  28.607  31.307  1.00  0.00     0.049 A 
ATOM     36  H   UNL A   1      43.319  28.627  30.652  1.00  0.00     0.167 HD
ATOM     37  C   UNL A   1      45.081  26.371  30.223  1.00  0.00     0.074 A 
ATOM     38  C   UNL A   1      45.602  25.080  29.807  1.00  0.00     0.031 C 
ATOM     39  C   UNL A   1      45.798  27.316  30.875  1.00  0.00     0.031 A 
BRANCH  26  40
ATOM     40  C   UNL A   1      42.773  32.585  32.155  1.00  0.00    -0.014 A 
ATOM     41  C   UNL A   1      43.296  33.672  31.429  1.00  0.00     0.010 A 
ATOM     42  C   UNL A   1      42.350  32.781  33.482  1.00  0.00     0.010 A 
ATOM     43  C   UNL A   1      43.447  34.917  32.043  1.00  0.00     0.020 A 
ATOM     44  C   UNL A   1      42.477  34.029  34.089  1.00  0.00     0.020 A 
ATOM     45  C   UNL A   1      43.049  35.083  33.374  1.00  0.00     0.054 A 
BRANCH  45  46
ATOM     46  S   UNL A   1      43.300  36.695  34.165  1.00  0.00     0.124 S 
ATOM     47  O   UNL A   1      44.422  36.419  35.058  1.00  0.00    -0.237 OA
ATOM     48  O   UNL A   1      43.600  37.565  33.031  1.00  0.00    -0.237 OA
ATOM     49  O   UNL A   1      42.024  36.956  34.828  1.00  0.00    -0.744 OA
ENDBRANCH  45  46
ENDBRANCH  26  40
BRANCH  27  50
ATOM     50  C   UNL A   1      42.172  23.515  27.828  1.00  0.00    -0.014 A 
ATOM     51  C   UNL A   1      42.616  23.339  26.506  1.00  0.00     0.010 A 
ATOM     52  C   UNL A   1      41.680  22.396  28.531  1.00  0.00     0.010 A 
ATOM     53  C   UNL A   1      42.603  22.066  25.919  1.00  0.00     0.020 A 
ATOM     54  C   UNL A   1      41.701  21.120  27.963  1.00  0.00     0.020 A 
ATOM     55  C   UNL A   1      42.164  20.964  26.658  1.00  0.00     0.054 A 
BRANCH  55  56
ATOM     56  S   UNL A   1      42.296  19.304  25.934  1.00  0.00     0.124 S 
ATOM     57  O   UNL A   1      43.231  19.524  24.836  1.00  0.00    -0.237 OA
ATOM     58  O   UNL A   1      42.801  18.519  27.058  1.00  0.00    -0.237 OA
ATOM     59  O   UNL A   1      40.921  18.999  25.546  1.00  0.00    -0.744 OA
ENDBRANCH  55  56
ENDBRANCH  27  50
BRANCH  39  60
ATOM     60  C   UNL A   1      47.212  26.970  31.221  1.00  0.00    -0.014 A 
ATOM     61  C   UNL A   1      47.531  26.347  32.439  1.00  0.00     0.010 A 
ATOM     62  C   UNL A   1      48.212  27.181  30.258  1.00  0.00     0.010 A 
ATOM     63  C   UNL A   1      48.841  25.934  32.684  1.00  0.00     0.020 A 
ATOM     64  C   UNL A   1      49.514  26.747  30.490  1.00  0.00     0.020 A 
ATOM     65  C   UNL A   1      49.820  26.128  31.704  1.00  0.00     0.054 A 
BRANCH  65  66
ATOM     66  S   UNL A   1      51.488  25.488  32.002  1.00  0.00     0.124 S 
ATOM     67  O   UNL A   1      52.113  25.653  30.693  1.00  0.00    -0.237 OA
ATOM     68  O   UNL A   1      51.986  26.371  33.054  1.00  0.00    -0.237 OA
ATOM     69  O   UNL A   1      51.259  24.104  32.414  1.00  0.00    -0.744 OA
ENDBRANCH  65  66
ENDBRANCH  39  60
ENDBRANCH  13  14
ENDBRANCH   6   8
ENDBRANCH   5   6
ENDBRANCH   4   5
ENDBRANCH   3   4
ENDBRANCH   2   3
ENDBRANCH   1   2
BRANCH   1  70
ATOM     70  C   UNL A   1      35.450  35.095  32.184  1.00  0.00     0.188 C 
BRANCH  70  71
ATOM     71  O   UNL A   1      36.348  34.155  31.537  1.00  0.00    -0.376 OA
BRANCH  71  72
ATOM     72  C   UNL A   1      37.767  34.400  31.684  1.00  0.00     0.202 C 
BRANCH  72  73
ATOM     73  C   UNL A   1      38.384  33.742  32.986  1.00  0.00     0.261 C 
BRANCH  73  74
ATOM     74  O   UNL A   1      37.521  32.936  33.865  1.00  0.00    -0.458 OA
BRANCH  74  75
ATOM     75  C   UNL A   1      37.405  31.571  33.714  1.00  0.00     0.359 C 
ATOM     76  O   UNL A   1      36.487  31.021  33.128  1.00  0.00    -0.244 OA
BRANCH  75  77
ATOM     77  C   UNL A   1      38.565  30.819  34.336  1.00  0.00     0.179 A 
ATOM     78  N   UNL A   1      39.368  30.148  33.446  1.00  0.00    -0.245 NA
ATOM     79  C   UNL A   1      38.859  30.788  35.710  1.00  0.00     0.161 A 
ATOM     80  C   UNL A   1      40.455  29.513  33.968  1.00  0.00     0.132 A 
ATOM     81  N   UNL A   1      39.922  30.079  36.219  1.00  0.00    -0.247 NA
ATOM     82  C   UNL A   1      40.725  29.478  35.322  1.00  0.00     0.132 A 
BRANCH  79  83
ATOM     83  C   UNL A   1      38.125  31.463  36.817  1.00  0.00     0.278 C 
ATOM     84  O   UNL A   1      37.355  30.810  37.521  1.00  0.00    -0.267 OA
ATOM     85  N   UNL A   1      38.168  32.845  36.950  1.00  0.00    -0.303 N 
ATOM     86  H   UNL A   1      37.349  33.358  37.144  1.00  0.00     0.172 HD
BRANCH  85  87
ATOM     87  C   UNL A   1      39.370  33.476  36.806  1.00  0.00     0.164 A 
ATOM     88  N   UNL A   1      39.385  34.522  35.993  1.00  0.00    -0.155 NA
ATOM     89  C   UNL A   1      40.497  33.449  37.656  1.00  0.00     0.063 A 
ATOM     90  N   UNL A   1      40.287  35.300  36.597  1.00  0.00    -0.259 N 
ATOM     91  C   UNL A   1      41.077  34.681  37.517  1.00  0.00     0.157 A 
ATOM     92  C   UNL A   1      40.999  32.650  38.666  1.00  0.00     0.017 A 
ATOM     93  H   UNL A   1      40.375  36.258  36.391  1.00  0.00     0.192 HD
ATOM     94  N   UNL A   1      42.058  35.218  38.273  1.00  0.00    -0.237 NA
ATOM     95  C   UNL A   1      41.997  33.150  39.505  1.00  0.00     0.021 A 
ATOM     96  C   UNL A   1      42.476  34.422  39.272  1.00  0.00     0.113 A 
ENDBRANCH  85  87
ENDBRANCH  79  83
ENDBRANCH  75  77
ENDBRANCH  74  75
ENDBRANCH  73  74
ENDBRANCH  72  73
ENDBRANCH  71  72
ENDBRANCH  70  71
ENDBRANCH   1  70
TORSDOF 22
ENDMDL
