MODEL 1
REMARK VINA RESULT:      -7.8      0.000      0.000
REMARK SMILES CC[C@H]1CCCC[C@@H]1Sc1csc(C(=O)OCCOCCOCCOC(=O)c2ccc(-c3c4nc(c(-c5ccc(S(=O)(=O)[O-])cc5)c5ccc([nH]5)c(-c5ccc(S(=O)(=O)[O-])cc5)c5nc(c(-c6ccc(S(=O)(=O)[O-])cc6)c6ccc3[nH]6)C=C5)C=C4)cc2)c1
REMARK SMILES IDX 20 1 19 2 18 3 17 4 16 5 14 6 15 7 13 8 10 9 11 10 88 11
REMARK SMILES IDX 12 12 9 13 8 14 3 15 4 16 5 17 7 18 6 19 2 20 1 21 21 22
REMARK SMILES IDX 22 23 23 24 24 25 25 26 26 27 27 28 28 29 29 30 87 31 30 32
REMARK SMILES IDX 86 33 31 34 32 35 33 36 80 37 34 38 85 39 79 40 81 41 35 42
REMARK SMILES IDX 84 43 78 44 77 45 36 47 66 48 47 49 65 50 48 51 51 52 64 53
REMARK SMILES IDX 82 54 49 55 50 56 63 58 83 59 52 60 37 61 38 62 46 63 39 64
REMARK SMILES IDX 45 65 40 66 41 67 42 68 43 69 44 70 67 71 68 72 76 73 69 74
REMARK SMILES IDX 75 75 70 76 71 77 72 78 73 79 74 80 53 81 54 82 62 83 55 84
REMARK SMILES IDX 61 85 56 86 57 87 58 88 59 89 60 90
REMARK H PARENT 81 46 51 57
REMARK Flexibility Score: inf
ROOT
ATOM      1  C   UNL A   1      33.075  34.660  29.787  1.00  0.00     0.188 C 
ENDROOT
BRANCH   1   2
ATOM      2  O   UNL A   1      33.494  34.241  28.493  1.00  0.00    -0.376 OA
BRANCH   2   3
ATOM      3  C   UNL A   1      34.817  34.508  28.053  1.00  0.00     0.202 C 
BRANCH   3   4
ATOM      4  C   UNL A   1      35.822  33.353  28.045  1.00  0.00     0.261 C 
BRANCH   4   5
ATOM      5  O   UNL A   1      35.398  32.207  27.289  1.00  0.00    -0.459 OA
BRANCH   5   6
ATOM      6  C   UNL A   1      35.273  31.047  28.005  1.00  0.00     0.348 C 
ATOM      7  O   UNL A   1      35.791  30.853  29.098  1.00  0.00    -0.245 OA
BRANCH   6   8
ATOM      8  C   UNL A   1      34.394  30.121  27.315  1.00  0.00     0.113 A 
ATOM      9  C   UNL A   1      33.458  28.261  26.238  1.00  0.00     0.019 A 
ATOM     10  C   UNL A   1      32.406  29.145  26.221  1.00  0.00     0.080 A 
ATOM     11  C   UNL A   1      34.622  28.842  26.837  1.00  0.00     0.042 A 
ATOM     12  S   UNL A   1      32.788  30.625  26.985  1.00  0.00    -0.136 S 
BRANCH   9  13
ATOM     13  S   UNL A   1      33.480  26.604  25.642  1.00  0.00    -0.122 SA
BRANCH  13  14
ATOM     14  C   UNL A   1      32.194  26.545  24.319  1.00  0.00     0.055 C 
ATOM     15  C   UNL A   1      31.380  25.219  24.423  1.00  0.00     0.002 C 
ATOM     16  C   UNL A   1      32.230  24.008  23.991  1.00  0.00     0.005 C 
ATOM     17  C   UNL A   1      32.820  24.178  22.596  1.00  0.00     0.000 C 
ATOM     18  C   UNL A   1      32.838  26.697  22.928  1.00  0.00     0.015 C 
ATOM     19  C   UNL A   1      33.625  25.467  22.474  1.00  0.00     0.001 C 
BRANCH  15  20
ATOM     20  C   UNL A   1      30.056  25.344  23.621  1.00  0.00     0.001 C 
ATOM     21  C   UNL A   1      29.047  26.318  24.214  1.00  0.00     0.004 C 
ENDBRANCH  15  20
ENDBRANCH  13  14
ENDBRANCH   9  13
ENDBRANCH   6   8
ENDBRANCH   5   6
ENDBRANCH   4   5
ENDBRANCH   3   4
ENDBRANCH   2   3
ENDBRANCH   1   2
BRANCH   1  22
ATOM     22  C   UNL A   1      34.089  34.721  30.947  1.00  0.00     0.188 C 
BRANCH  22  23
ATOM     23  O   UNL A   1      33.634  34.110  32.144  1.00  0.00    -0.376 OA
BRANCH  23  24
ATOM     24  C   UNL A   1      34.633  33.607  33.018  1.00  0.00     0.202 C 
BRANCH  24  25
ATOM     25  C   UNL A   1      35.346  32.332  32.551  1.00  0.00     0.261 C 
BRANCH  25  26
ATOM     26  O   UNL A   1      36.467  32.530  31.678  1.00  0.00    -0.460 OA
BRANCH  26  27
ATOM     27  C   UNL A   1      37.611  32.982  32.238  1.00  0.00     0.338 C 
ATOM     28  O   UNL A   1      37.713  33.747  33.179  1.00  0.00    -0.246 OA
BRANCH  27  29
ATOM     29  C   UNL A   1      38.735  32.260  31.605  1.00  0.00     0.060 A 
ATOM     30  C   UNL A   1      39.600  31.508  32.408  1.00  0.00     0.016 A 
ATOM     31  C   UNL A   1      38.929  32.325  30.222  1.00  0.00     0.016 A 
ATOM     32  C   UNL A   1      40.680  30.835  31.826  1.00  0.00     0.010 A 
ATOM     33  C   UNL A   1      40.017  31.663  29.645  1.00  0.00     0.010 A 
ATOM     34  C   UNL A   1      40.913  30.935  30.446  1.00  0.00    -0.014 A 
BRANCH  34  35
ATOM     35  C   UNL A   1      42.170  30.408  29.858  1.00  0.00     0.031 A 
ATOM     36  C   UNL A   1      43.328  31.350  29.668  1.00  0.00     0.074 A 
ATOM     37  C   UNL A   1      42.284  29.118  29.494  1.00  0.00     0.049 A 
ATOM     38  N   UNL A   1      44.507  31.119  29.153  1.00  0.00    -0.248 NA
ATOM     39  C   UNL A   1      43.127  32.737  30.120  1.00  0.00     0.031 C 
ATOM     40  C   UNL A   1      41.250  28.097  29.650  1.00  0.00     0.029 A 
ATOM     41  N   UNL A   1      43.332  28.450  28.908  1.00  0.00    -0.354 N 
ATOM     42  C   UNL A   1      45.190  32.329  29.218  1.00  0.00     0.074 A 
ATOM     43  C   UNL A   1      44.284  33.296  29.798  1.00  0.00     0.031 C 
ATOM     44  C   UNL A   1      41.712  26.931  29.162  1.00  0.00     0.029 A 
ATOM     45  C   UNL A   1      43.061  27.129  28.636  1.00  0.00     0.049 A 
ATOM     46  H   UNL A   1      44.195  28.876  28.703  1.00  0.00     0.167 HD
ATOM     47  C   UNL A   1      46.457  32.611  28.832  1.00  0.00     0.031 A 
ATOM     48  C   UNL A   1      43.810  26.194  28.018  1.00  0.00     0.031 A 
ATOM     49  C   UNL A   1      47.352  31.659  28.231  1.00  0.00     0.049 A 
ATOM     50  C   UNL A   1      45.191  26.550  27.529  1.00  0.00     0.074 A 
ATOM     51  C   UNL A   1      48.660  31.849  27.818  1.00  0.00     0.029 A 
ATOM     52  N   UNL A   1      47.029  30.342  27.944  1.00  0.00    -0.354 N 
ATOM     53  N   UNL A   1      45.834  27.688  27.631  1.00  0.00    -0.248 NA
ATOM     54  C   UNL A   1      45.950  25.490  26.847  1.00  0.00     0.031 C 
ATOM     55  C   UNL A   1      49.111  30.658  27.237  1.00  0.00     0.029 A 
ATOM     56  C   UNL A   1      48.102  29.714  27.337  1.00  0.00     0.049 A 
ATOM     57  H   UNL A   1      46.164  29.917  28.143  1.00  0.00     0.167 HD
ATOM     58  C   UNL A   1      47.081  27.474  27.050  1.00  0.00     0.074 A 
ATOM     59  C   UNL A   1      47.105  26.095  26.608  1.00  0.00     0.031 C 
ATOM     60  C   UNL A   1      48.113  28.340  26.901  1.00  0.00     0.031 A 
BRANCH  47  61
ATOM     61  C   UNL A   1      46.936  34.023  29.022  1.00  0.00    -0.014 A 
ATOM     62  C   UNL A   1      47.139  34.875  27.922  1.00  0.00     0.010 A 
ATOM     63  C   UNL A   1      47.164  34.512  30.321  1.00  0.00     0.010 A 
ATOM     64  C   UNL A   1      47.601  36.180  28.114  1.00  0.00     0.020 A 
ATOM     65  C   UNL A   1      47.604  35.824  30.519  1.00  0.00     0.020 A 
ATOM     66  C   UNL A   1      47.836  36.644  29.413  1.00  0.00     0.054 A 
BRANCH  66  67
ATOM     67  S   UNL A   1      48.424  38.345  29.637  1.00  0.00     0.124 S 
ATOM     68  O   UNL A   1      49.858  38.144  29.831  1.00  0.00    -0.237 OA
ATOM     69  O   UNL A   1      48.045  38.985  28.379  1.00  0.00    -0.237 OA
ATOM     70  O   UNL A   1      47.696  38.811  30.814  1.00  0.00    -0.744 OA
ENDBRANCH  66  67
ENDBRANCH  47  61
BRANCH  48  71
ATOM     71  C   UNL A   1      43.265  24.824  27.807  1.00  0.00    -0.014 A 
ATOM     72  C   UNL A   1      43.407  23.835  28.795  1.00  0.00     0.010 A 
ATOM     73  C   UNL A   1      42.608  24.500  26.605  1.00  0.00     0.010 A 
ATOM     74  C   UNL A   1      42.916  22.543  28.582  1.00  0.00     0.020 A 
ATOM     75  C   UNL A   1      42.095  23.216  26.397  1.00  0.00     0.020 A 
ATOM     76  C   UNL A   1      42.263  22.243  27.383  1.00  0.00     0.054 A 
BRANCH  76  77
ATOM     77  S   UNL A   1      41.593  20.573  27.145  1.00  0.00     0.124 S 
ATOM     78  O   UNL A   1      40.397  20.603  27.980  1.00  0.00    -0.237 OA
ATOM     79  O   UNL A   1      41.357  20.526  25.705  1.00  0.00    -0.237 OA
ATOM     80  O   UNL A   1      42.667  19.703  27.622  1.00  0.00    -0.744 OA
ENDBRANCH  76  77
ENDBRANCH  48  71
BRANCH  60  81
ATOM     81  C   UNL A   1      49.375  27.820  26.264  1.00  0.00    -0.014 A 
ATOM     82  C   UNL A   1      49.541  27.820  24.868  1.00  0.00     0.010 A 
ATOM     83  C   UNL A   1      50.434  27.382  27.080  1.00  0.00     0.010 A 
ATOM     84  C   UNL A   1      50.736  27.369  24.298  1.00  0.00     0.020 A 
ATOM     85  C   UNL A   1      51.638  26.952  26.517  1.00  0.00     0.020 A 
ATOM     86  C   UNL A   1      51.776  26.935  25.127  1.00  0.00     0.054 A 
BRANCH  86  87
ATOM     87  S   UNL A   1      53.335  26.399  24.369  1.00  0.00     0.124 S 
ATOM     88  O   UNL A   1      53.304  27.097  23.087  1.00  0.00    -0.237 OA
ATOM     89  O   UNL A   1      54.337  26.876  25.319  1.00  0.00    -0.237 OA
ATOM     90  O   UNL A   1      53.201  24.947  24.292  1.00  0.00    -0.744 OA
ENDBRANCH  86  87
ENDBRANCH  60  81
ENDBRANCH  34  35
ENDBRANCH  27  29
ENDBRANCH  26  27
ENDBRANCH  25  26
ENDBRANCH  24  25
ENDBRANCH  23  24
ENDBRANCH  22  23
ENDBRANCH   1  22
TORSDOF 23
ENDMDL
MODEL 2
REMARK VINA RESULT:      -7.8      3.664     10.178
REMARK SMILES CC[C@H]1CCCC[C@@H]1Sc1csc(C(=O)OCCOCCOCCOC(=O)c2ccc(-c3c4nc(c(-c5ccc(S(=O)(=O)[O-])cc5)c5ccc([nH]5)c(-c5ccc(S(=O)(=O)[O-])cc5)c5nc(c(-c6ccc(S(=O)(=O)[O-])cc6)c6ccc3[nH]6)C=C5)C=C4)cc2)c1
REMARK SMILES IDX 20 1 19 2 18 3 17 4 16 5 14 6 15 7 13 8 10 9 11 10 88 11
REMARK SMILES IDX 12 12 9 13 8 14 3 15 4 16 5 17 7 18 6 19 2 20 1 21 21 22
REMARK SMILES IDX 22 23 23 24 24 25 25 26 26 27 27 28 28 29 29 30 87 31 30 32
REMARK SMILES IDX 86 33 31 34 32 35 33 36 80 37 34 38 85 39 79 40 81 41 35 42
REMARK SMILES IDX 84 43 78 44 77 45 36 47 66 48 47 49 65 50 48 51 51 52 64 53
REMARK SMILES IDX 82 54 49 55 50 56 63 58 83 59 52 60 37 61 38 62 46 63 39 64
REMARK SMILES IDX 45 65 40 66 41 67 42 68 43 69 44 70 67 71 68 72 76 73 69 74
REMARK SMILES IDX 75 75 70 76 71 77 72 78 73 79 74 80 53 81 54 82 62 83 55 84
REMARK SMILES IDX 61 85 56 86 57 87 58 88 59 89 60 90
REMARK H PARENT 81 46 51 57
REMARK Flexibility Score: inf
ROOT
ATOM      1  C   UNL A   1      42.876  22.717  28.381  1.00  0.00     0.188 C 
ENDROOT
BRANCH   1   2
ATOM      2  O   UNL A   1      42.076  23.877  28.584  1.00  0.00    -0.376 OA
BRANCH   2   3
ATOM      3  C   UNL A   1      42.207  24.992  27.716  1.00  0.00     0.202 C 
BRANCH   3   4
ATOM      4  C   UNL A   1      41.468  24.953  26.376  1.00  0.00     0.261 C 
BRANCH   4   5
ATOM      5  O   UNL A   1      40.138  25.498  26.420  1.00  0.00    -0.459 OA
BRANCH   5   6
ATOM      6  C   UNL A   1      39.258  24.829  27.227  1.00  0.00     0.348 C 
ATOM      7  O   UNL A   1      39.055  25.106  28.403  1.00  0.00    -0.245 OA
BRANCH   6   8
ATOM      8  C   UNL A   1      38.562  23.803  26.474  1.00  0.00     0.113 A 
ATOM      9  C   UNL A   1      37.049  22.600  25.147  1.00  0.00     0.019 A 
ATOM     10  C   UNL A   1      37.991  21.639  25.428  1.00  0.00     0.080 A 
ATOM     11  C   UNL A   1      37.361  23.843  25.786  1.00  0.00     0.042 A 
ATOM     12  S   UNL A   1      39.272  22.244  26.383  1.00  0.00    -0.136 S 
BRANCH   9  13
ATOM     13  S   UNL A   1      35.617  22.438  24.135  1.00  0.00    -0.122 SA
BRANCH  13  14
ATOM     14  C   UNL A   1      34.394  23.634  24.827  1.00  0.00     0.055 C 
ATOM     15  C   UNL A   1      33.080  22.890  25.219  1.00  0.00     0.002 C 
ATOM     16  C   UNL A   1      32.301  22.439  23.968  1.00  0.00     0.005 C 
ATOM     17  C   UNL A   1      32.010  23.594  23.016  1.00  0.00     0.000 C 
ATOM     18  C   UNL A   1      34.114  24.768  23.823  1.00  0.00     0.015 C 
ATOM     19  C   UNL A   1      33.282  24.332  22.615  1.00  0.00     0.001 C 
BRANCH  15  20
ATOM     20  C   UNL A   1      32.232  23.774  26.172  1.00  0.00     0.001 C 
ATOM     21  C   UNL A   1      30.910  23.152  26.603  1.00  0.00     0.004 C 
ENDBRANCH  15  20
ENDBRANCH  13  14
ENDBRANCH   9  13
ENDBRANCH   6   8
ENDBRANCH   5   6
ENDBRANCH   4   5
ENDBRANCH   3   4
ENDBRANCH   2   3
ENDBRANCH   1   2
BRANCH   1  22
ATOM     22  C   UNL A   1      42.987  22.090  26.977  1.00  0.00     0.188 C 
BRANCH  22  23
ATOM     23  O   UNL A   1      44.294  22.134  26.427  1.00  0.00    -0.376 OA
BRANCH  23  24
ATOM     24  C   UNL A   1      45.212  23.025  27.042  1.00  0.00     0.202 C 
BRANCH  24  25
ATOM     25  C   UNL A   1      45.585  24.266  26.223  1.00  0.00     0.261 C 
BRANCH  25  26
ATOM     26  O   UNL A   1      46.975  24.621  26.228  1.00  0.00    -0.460 OA
BRANCH  26  27
ATOM     27  C   UNL A   1      47.393  25.491  25.281  1.00  0.00     0.338 C 
ATOM     28  O   UNL A   1      47.770  25.222  24.155  1.00  0.00    -0.246 OA
BRANCH  27  29
ATOM     29  C   UNL A   1      47.165  26.857  25.797  1.00  0.00     0.060 A 
ATOM     30  C   UNL A   1      47.470  27.140  27.133  1.00  0.00     0.016 A 
ATOM     31  C   UNL A   1      46.656  27.854  24.960  1.00  0.00     0.016 A 
ATOM     32  C   UNL A   1      47.242  28.424  27.641  1.00  0.00     0.010 A 
ATOM     33  C   UNL A   1      46.415  29.132  25.474  1.00  0.00     0.010 A 
ATOM     34  C   UNL A   1      46.684  29.417  26.823  1.00  0.00    -0.014 A 
BRANCH  34  35
ATOM     35  C   UNL A   1      46.239  30.707  27.409  1.00  0.00     0.031 A 
ATOM     36  C   UNL A   1      47.118  31.918  27.240  1.00  0.00     0.074 A 
ATOM     37  C   UNL A   1      45.078  30.806  28.082  1.00  0.00     0.049 A 
ATOM     38  N   UNL A   1      46.945  33.134  27.685  1.00  0.00    -0.248 NA
ATOM     39  C   UNL A   1      48.355  31.727  26.465  1.00  0.00     0.031 C 
ATOM     40  C   UNL A   1      44.124  29.719  28.293  1.00  0.00     0.029 A 
ATOM     41  N   UNL A   1      44.511  31.881  28.721  1.00  0.00    -0.354 N 
ATOM     42  C   UNL A   1      48.050  33.856  27.246  1.00  0.00     0.074 A 
ATOM     43  C   UNL A   1      48.897  32.935  26.522  1.00  0.00     0.031 C 
ATOM     44  C   UNL A   1      43.092  30.181  29.021  1.00  0.00     0.029 A 
ATOM     45  C   UNL A   1      43.324  31.586  29.351  1.00  0.00     0.049 A 
ATOM     46  H   UNL A   1      44.916  32.779  28.728  1.00  0.00     0.167 HD
ATOM     47  C   UNL A   1      48.333  35.168  27.427  1.00  0.00     0.031 A 
ATOM     48  C   UNL A   1      42.528  32.357  30.118  1.00  0.00     0.031 A 
ATOM     49  C   UNL A   1      47.507  36.082  28.168  1.00  0.00     0.049 A 
ATOM     50  C   UNL A   1      42.901  33.797  30.367  1.00  0.00     0.074 A 
ATOM     51  C   UNL A   1      47.706  37.433  28.394  1.00  0.00     0.029 A 
ATOM     52  N   UNL A   1      46.331  35.736  28.815  1.00  0.00    -0.354 N 
ATOM     53  N   UNL A   1      43.930  34.472  29.915  1.00  0.00    -0.248 NA
ATOM     54  C   UNL A   1      41.999  34.579  31.226  1.00  0.00     0.031 C 
ATOM     55  C   UNL A   1      46.673  37.893  29.219  1.00  0.00     0.029 A 
ATOM     56  C   UNL A   1      45.805  36.841  29.462  1.00  0.00     0.049 A 
ATOM     57  H   UNL A   1      45.928  34.838  28.814  1.00  0.00     0.167 HD
ATOM     58  C   UNL A   1      43.786  35.764  30.412  1.00  0.00     0.074 A 
ATOM     59  C   UNL A   1      42.565  35.778  31.192  1.00  0.00     0.031 C 
ATOM     60  C   UNL A   1      44.589  36.842  30.236  1.00  0.00     0.031 A 
BRANCH  47  61
ATOM     61  C   UNL A   1      49.615  35.682  26.833  1.00  0.00    -0.014 A 
ATOM     62  C   UNL A   1      50.836  35.559  27.523  1.00  0.00     0.010 A 
ATOM     63  C   UNL A   1      49.604  36.277  25.559  1.00  0.00     0.010 A 
ATOM     64  C   UNL A   1      52.015  36.057  26.965  1.00  0.00     0.020 A 
ATOM     65  C   UNL A   1      50.787  36.756  24.987  1.00  0.00     0.020 A 
ATOM     66  C   UNL A   1      51.982  36.658  25.703  1.00  0.00     0.054 A 
BRANCH  66  67
ATOM     67  S   UNL A   1      53.529  37.286  24.995  1.00  0.00     0.124 S 
ATOM     68  O   UNL A   1      54.523  36.746  25.920  1.00  0.00    -0.237 OA
ATOM     69  O   UNL A   1      53.535  36.699  23.658  1.00  0.00    -0.237 OA
ATOM     70  O   UNL A   1      53.366  38.737  25.035  1.00  0.00    -0.744 OA
ENDBRANCH  66  67
ENDBRANCH  47  61
BRANCH  48  71
ATOM     71  C   UNL A   1      41.296  31.782  30.726  1.00  0.00    -0.014 A 
ATOM     72  C   UNL A   1      40.027  32.093  30.208  1.00  0.00     0.010 A 
ATOM     73  C   UNL A   1      41.390  30.924  31.838  1.00  0.00     0.010 A 
ATOM     74  C   UNL A   1      38.873  31.570  30.798  1.00  0.00     0.020 A 
ATOM     75  C   UNL A   1      40.239  30.380  32.416  1.00  0.00     0.020 A 
ATOM     76  C   UNL A   1      38.987  30.716  31.900  1.00  0.00     0.054 A 
BRANCH  76  77
ATOM     77  S   UNL A   1      37.478  30.011  32.622  1.00  0.00     0.124 S 
ATOM     78  O   UNL A   1      36.612  31.182  32.720  1.00  0.00    -0.237 OA
ATOM     79  O   UNL A   1      37.085  29.014  31.630  1.00  0.00    -0.237 OA
ATOM     80  O   UNL A   1      37.936  29.462  33.898  1.00  0.00    -0.744 OA
ENDBRANCH  76  77
ENDBRANCH  48  71
BRANCH  60  81
ATOM     81  C   UNL A   1      44.163  38.142  30.866  1.00  0.00    -0.014 A 
ATOM     82  C   UNL A   1      43.494  39.129  30.120  1.00  0.00     0.010 A 
ATOM     83  C   UNL A   1      44.381  38.350  32.240  1.00  0.00     0.010 A 
ATOM     84  C   UNL A   1      43.073  40.312  30.733  1.00  0.00     0.020 A 
ATOM     85  C   UNL A   1      43.940  39.521  32.861  1.00  0.00     0.020 A 
ATOM     86  C   UNL A   1      43.300  40.502  32.101  1.00  0.00     0.054 A 
BRANCH  86  87
ATOM     87  S   UNL A   1      42.702  42.024  32.886  1.00  0.00     0.124 S 
ATOM     88  O   UNL A   1      43.950  42.690  33.246  1.00  0.00    -0.237 OA
ATOM     89  O   UNL A   1      41.936  42.661  31.817  1.00  0.00    -0.237 OA
ATOM     90  O   UNL A   1      41.905  41.542  34.011  1.00  0.00    -0.744 OA
ENDBRANCH  86  87
ENDBRANCH  60  81
ENDBRANCH  34  35
ENDBRANCH  27  29
ENDBRANCH  26  27
ENDBRANCH  25  26
ENDBRANCH  24  25
ENDBRANCH  23  24
ENDBRANCH  22  23
ENDBRANCH   1  22
TORSDOF 23
ENDMDL
MODEL 3
REMARK VINA RESULT:      -7.8      6.654      8.690
REMARK SMILES CC[C@H]1CCCC[C@@H]1Sc1csc(C(=O)OCCOCCOCCOC(=O)c2ccc(-c3c4nc(c(-c5ccc(S(=O)(=O)[O-])cc5)c5ccc([nH]5)c(-c5ccc(S(=O)(=O)[O-])cc5)c5nc(c(-c6ccc(S(=O)(=O)[O-])cc6)c6ccc3[nH]6)C=C5)C=C4)cc2)c1
REMARK SMILES IDX 20 1 19 2 18 3 17 4 16 5 14 6 15 7 13 8 10 9 11 10 88 11
REMARK SMILES IDX 12 12 9 13 8 14 3 15 4 16 5 17 7 18 6 19 2 20 1 21 21 22
REMARK SMILES IDX 22 23 23 24 24 25 25 26 26 27 27 28 28 29 29 30 87 31 30 32
REMARK SMILES IDX 86 33 31 34 32 35 33 36 80 37 34 38 85 39 79 40 81 41 35 42
REMARK SMILES IDX 84 43 78 44 77 45 36 47 66 48 47 49 65 50 48 51 51 52 64 53
REMARK SMILES IDX 82 54 49 55 50 56 63 58 83 59 52 60 37 61 38 62 46 63 39 64
REMARK SMILES IDX 45 65 40 66 41 67 42 68 43 69 44 70 67 71 68 72 76 73 69 74
REMARK SMILES IDX 75 75 70 76 71 77 72 78 73 79 74 80 53 81 54 82 62 83 55 84
REMARK SMILES IDX 61 85 56 86 57 87 58 88 59 89 60 90
REMARK H PARENT 81 46 51 57
REMARK Flexibility Score: inf
ROOT
ATOM      1  C   UNL A   1      34.332  34.271  30.611  1.00  0.00     0.188 C 
ENDROOT
BRANCH   1   2
ATOM      2  O   UNL A   1      34.275  32.943  30.099  1.00  0.00    -0.376 OA
BRANCH   2   3
ATOM      3  C   UNL A   1      34.275  32.721  28.697  1.00  0.00     0.202 C 
BRANCH   3   4
ATOM      4  C   UNL A   1      35.342  31.789  28.115  1.00  0.00     0.261 C 
BRANCH   4   5
ATOM      5  O   UNL A   1      36.251  31.252  29.090  1.00  0.00    -0.459 OA
BRANCH   5   6
ATOM      6  C   UNL A   1      37.508  31.795  29.080  1.00  0.00     0.348 C 
ATOM      7  O   UNL A   1      37.740  32.997  29.111  1.00  0.00    -0.245 OA
BRANCH   6   8
ATOM      8  C   UNL A   1      38.510  30.746  29.095  1.00  0.00     0.113 A 
ATOM      9  C   UNL A   1      39.666  28.715  28.911  1.00  0.00     0.019 A 
ATOM     10  C   UNL A   1      40.657  29.553  29.365  1.00  0.00     0.080 A 
ATOM     11  C   UNL A   1      38.413  29.398  28.793  1.00  0.00     0.042 A 
ATOM     12  S   UNL A   1      40.106  31.157  29.571  1.00  0.00    -0.136 S 
BRANCH   9  13
ATOM     13  S   UNL A   1      39.811  27.012  28.486  1.00  0.00    -0.122 SA
BRANCH  13  14
ATOM     14  C   UNL A   1      41.593  26.761  28.078  1.00  0.00     0.055 C 
ATOM     15  C   UNL A   1      41.816  26.904  26.541  1.00  0.00     0.002 C 
ATOM     16  C   UNL A   1      41.220  25.706  25.778  1.00  0.00     0.005 C 
ATOM     17  C   UNL A   1      41.752  24.369  26.283  1.00  0.00     0.000 C 
ATOM     18  C   UNL A   1      42.079  25.390  28.587  1.00  0.00     0.015 C 
ATOM     19  C   UNL A   1      41.539  24.206  27.784  1.00  0.00     0.001 C 
BRANCH  15  20
ATOM     20  C   UNL A   1      43.324  27.121  26.241  1.00  0.00     0.001 C 
ATOM     21  C   UNL A   1      43.914  28.388  26.848  1.00  0.00     0.004 C 
ENDBRANCH  15  20
ENDBRANCH  13  14
ENDBRANCH   9  13
ENDBRANCH   6   8
ENDBRANCH   5   6
ENDBRANCH   4   5
ENDBRANCH   3   4
ENDBRANCH   2   3
ENDBRANCH   1   2
BRANCH   1  22
ATOM     22  C   UNL A   1      34.500  34.511  32.124  1.00  0.00     0.188 C 
BRANCH  22  23
ATOM     23  O   UNL A   1      35.581  33.799  32.705  1.00  0.00    -0.376 OA
BRANCH  23  24
ATOM     24  C   UNL A   1      36.838  34.459  32.723  1.00  0.00     0.202 C 
BRANCH  24  25
ATOM     25  C   UNL A   1      37.999  33.662  33.331  1.00  0.00     0.261 C 
BRANCH  25  26
ATOM     26  O   UNL A   1      38.585  32.668  32.479  1.00  0.00    -0.460 OA
BRANCH  26  27
ATOM     27  C   UNL A   1      38.261  31.379  32.723  1.00  0.00     0.338 C 
ATOM     28  O   UNL A   1      37.173  30.855  32.566  1.00  0.00    -0.246 OA
BRANCH  27  29
ATOM     29  C   UNL A   1      39.507  30.662  33.070  1.00  0.00     0.060 A 
ATOM     30  C   UNL A   1      40.678  31.397  33.284  1.00  0.00     0.016 A 
ATOM     31  C   UNL A   1      39.513  29.269  33.188  1.00  0.00     0.016 A 
ATOM     32  C   UNL A   1      41.869  30.732  33.595  1.00  0.00     0.010 A 
ATOM     33  C   UNL A   1      40.707  28.606  33.485  1.00  0.00     0.010 A 
ATOM     34  C   UNL A   1      41.897  29.331  33.665  1.00  0.00    -0.014 A 
BRANCH  34  35
ATOM     35  C   UNL A   1      43.191  28.612  33.778  1.00  0.00     0.031 A 
ATOM     36  C   UNL A   1      43.799  28.429  35.143  1.00  0.00     0.074 A 
ATOM     37  C   UNL A   1      43.820  28.131  32.690  1.00  0.00     0.049 A 
ATOM     38  N   UNL A   1      44.928  27.860  35.476  1.00  0.00    -0.248 NA
ATOM     39  C   UNL A   1      43.030  28.961  36.280  1.00  0.00     0.031 C 
ATOM     40  C   UNL A   1      43.326  28.217  31.317  1.00  0.00     0.029 A 
ATOM     41  N   UNL A   1      45.024  27.479  32.576  1.00  0.00    -0.354 N 
ATOM     42  C   UNL A   1      45.006  27.964  36.861  1.00  0.00     0.074 A 
ATOM     43  C   UNL A   1      43.824  28.672  37.301  1.00  0.00     0.031 C 
ATOM     44  C   UNL A   1      44.225  27.645  30.495  1.00  0.00     0.029 A 
ATOM     45  C   UNL A   1      45.368  27.178  31.279  1.00  0.00     0.049 A 
ATOM     46  H   UNL A   1      45.586  27.247  33.350  1.00  0.00     0.167 HD
ATOM     47  C   UNL A   1      45.973  27.508  37.693  1.00  0.00     0.031 A 
ATOM     48  C   UNL A   1      46.484  26.609  30.781  1.00  0.00     0.031 A 
ATOM     49  C   UNL A   1      47.161  26.826  37.258  1.00  0.00     0.049 A 
ATOM     50  C   UNL A   1      47.581  26.176  31.720  1.00  0.00     0.074 A 
ATOM     51  C   UNL A   1      48.192  26.316  38.029  1.00  0.00     0.029 A 
ATOM     52  N   UNL A   1      47.486  26.570  35.936  1.00  0.00    -0.354 N 
ATOM     53  N   UNL A   1      47.623  26.249  33.029  1.00  0.00    -0.248 NA
ATOM     54  C   UNL A   1      48.780  25.577  31.113  1.00  0.00     0.031 C 
ATOM     55  C   UNL A   1      49.164  25.794  37.168  1.00  0.00     0.029 A 
ATOM     56  C   UNL A   1      48.713  25.932  35.865  1.00  0.00     0.049 A 
ATOM     57  H   UNL A   1      46.928  26.807  35.160  1.00  0.00     0.167 HD
ATOM     58  C   UNL A   1      48.838  25.682  33.403  1.00  0.00     0.074 A 
ATOM     59  C   UNL A   1      49.497  25.263  32.183  1.00  0.00     0.031 C 
ATOM     60  C   UNL A   1      49.358  25.520  34.644  1.00  0.00     0.031 A 
BRANCH  47  61
ATOM     61  C   UNL A   1      45.792  27.766  39.163  1.00  0.00    -0.014 A 
ATOM     62  C   UNL A   1      46.331  28.916  39.770  1.00  0.00     0.010 A 
ATOM     63  C   UNL A   1      45.056  26.859  39.945  1.00  0.00     0.010 A 
ATOM     64  C   UNL A   1      46.168  29.133  41.140  1.00  0.00     0.020 A 
ATOM     65  C   UNL A   1      44.871  27.084  41.312  1.00  0.00     0.020 A 
ATOM     66  C   UNL A   1      45.444  28.212  41.904  1.00  0.00     0.054 A 
BRANCH  66  67
ATOM     67  S   UNL A   1      45.238  28.522  43.679  1.00  0.00     0.124 S 
ATOM     68  O   UNL A   1      46.270  27.664  44.256  1.00  0.00    -0.237 OA
ATOM     69  O   UNL A   1      45.486  29.958  43.786  1.00  0.00    -0.237 OA
ATOM     70  O   UNL A   1      43.864  28.108  43.946  1.00  0.00    -0.744 OA
ENDBRANCH  66  67
ENDBRANCH  47  61
BRANCH  48  71
ATOM     71  C   UNL A   1      46.634  26.426  29.311  1.00  0.00    -0.014 A 
ATOM     72  C   UNL A   1      47.271  27.403  28.527  1.00  0.00     0.010 A 
ATOM     73  C   UNL A   1      46.128  25.271  28.686  1.00  0.00     0.010 A 
ATOM     74  C   UNL A   1      47.387  27.238  27.143  1.00  0.00     0.020 A 
ATOM     75  C   UNL A   1      46.263  25.091  27.305  1.00  0.00     0.020 A 
ATOM     76  C   UNL A   1      46.881  26.081  26.542  1.00  0.00     0.054 A 
BRANCH  76  77
ATOM     77  S   UNL A   1      47.083  25.865  24.751  1.00  0.00     0.124 S 
ATOM     78  O   UNL A   1      46.477  27.085  24.227  1.00  0.00    -0.237 OA
ATOM     79  O   UNL A   1      48.533  25.765  24.603  1.00  0.00    -0.237 OA
ATOM     80  O   UNL A   1      46.350  24.632  24.472  1.00  0.00    -0.744 OA
ENDBRANCH  76  77
ENDBRANCH  48  71
BRANCH  60  81
ATOM     81  C   UNL A   1      50.692  24.830  34.758  1.00  0.00    -0.014 A 
ATOM     82  C   UNL A   1      50.784  23.429  34.832  1.00  0.00     0.010 A 
ATOM     83  C   UNL A   1      51.873  25.594  34.727  1.00  0.00     0.010 A 
ATOM     84  C   UNL A   1      52.034  22.806  34.898  1.00  0.00     0.020 A 
ATOM     85  C   UNL A   1      53.125  24.975  34.769  1.00  0.00     0.020 A 
ATOM     86  C   UNL A   1      53.197  23.583  34.868  1.00  0.00     0.054 A 
BRANCH  86  87
ATOM     87  S   UNL A   1      54.809  22.752  34.906  1.00  0.00     0.124 S 
ATOM     88  O   UNL A   1      55.028  22.452  33.493  1.00  0.00    -0.237 OA
ATOM     89  O   UNL A   1      55.687  23.772  35.474  1.00  0.00    -0.237 OA
ATOM     90  O   UNL A   1      54.579  21.591  35.761  1.00  0.00    -0.744 OA
ENDBRANCH  86  87
ENDBRANCH  60  81
ENDBRANCH  34  35
ENDBRANCH  27  29
ENDBRANCH  26  27
ENDBRANCH  25  26
ENDBRANCH  24  25
ENDBRANCH  23  24
ENDBRANCH  22  23
ENDBRANCH   1  22
TORSDOF 23
ENDMDL
