MODEL 1
REMARK VINA RESULT:      -7.6      0.000      0.000
REMARK SMILES O=C(OCCOCCOCCOC(=O)c1ccc(-c2c3nc(c(-c4ccc(S(=O)(=O)[O-])cc4)c4ccc([nH]4)c(-c4ccc(S(=O)(=O)[O-])cc4)c4nc(c(-c5ccc(S(=O)(=O)[O-])cc5)c5ccc2[nH]5)C=C4)C=C3)cc1)c1ccc(NC(=O)[C@@H]2CC=CC[C@H]2C(=O)Nc2cccc([N+](=O)[O-])c2)cc1
REMARK SMILES IDX 7 1 6 2 5 3 4 4 3 5 2 6 1 7 75 8 76 9 101 10 77 11 100 12
REMARK SMILES IDX 78 13 79 14 80 15 81 17 82 18 83 19 87 20 84 21 86 22 85 23
REMARK SMILES IDX 88 24 89 25 90 26 91 28 92 29 99 30 93 31 95 32 94 33 96 34
REMARK SMILES IDX 97 35 98 36 8 37 9 38 10 39 11 40 12 41 13 42 14 43 15 44
REMARK SMILES IDX 16 45 74 46 17 47 73 48 18 49 19 50 20 51 67 52 21 53 72 54
REMARK SMILES IDX 66 55 68 56 22 57 71 58 65 59 64 60 23 62 53 63 34 64 52 65
REMARK SMILES IDX 35 66 38 67 51 68 69 69 36 70 37 71 50 73 70 74 39 75 24 76
REMARK SMILES IDX 25 77 33 78 26 79 32 80 27 81 28 82 29 83 30 84 31 85 54 86
REMARK SMILES IDX 55 87 63 88 56 89 62 90 57 91 58 92 59 93 60 94 61 95 40 96
REMARK SMILES IDX 41 97 49 98 42 99 48 100 43 101 44 102 45 103 46 104 47 105
REMARK H PARENT 79 16 90 27 68 61 38 72
REMARK Flexibility Score: inf
ROOT
ATOM      1  C   UNL A   1      35.872  33.880  35.205  1.00  0.00     0.188 C 
ENDROOT
BRANCH   1   2
ATOM      2  O   UNL A   1      36.678  32.718  34.972  1.00  0.00    -0.376 OA
BRANCH   2   3
ATOM      3  C   UNL A   1      36.565  32.204  33.645  1.00  0.00     0.202 C 
BRANCH   3   4
ATOM      4  C   UNL A   1      37.635  31.178  33.238  1.00  0.00     0.261 C 
BRANCH   4   5
ATOM      5  O   UNL A   1      37.178  30.269  32.222  1.00  0.00    -0.460 OA
BRANCH   5   6
ATOM      6  C   UNL A   1      37.609  28.993  32.029  1.00  0.00     0.338 C 
ATOM      7  O   UNL A   1      37.447  28.160  32.916  1.00  0.00    -0.246 OA
BRANCH   6   8
ATOM      8  C   UNL A   1      38.303  28.581  30.775  1.00  0.00     0.060 A 
ATOM      9  C   UNL A   1      39.228  27.549  30.747  1.00  0.00     0.018 A 
ATOM     10  C   UNL A   1      37.920  29.143  29.550  1.00  0.00     0.018 A 
ATOM     11  C   UNL A   1      39.823  27.153  29.548  1.00  0.00     0.027 A 
ATOM     12  C   UNL A   1      38.513  28.719  28.341  1.00  0.00     0.027 A 
ATOM     13  C   UNL A   1      39.507  27.735  28.331  1.00  0.00     0.041 A 
BRANCH  13  14
ATOM     14  N   UNL A   1      40.050  27.321  27.096  1.00  0.00    -0.326 N 
ATOM     15  C   UNL A   1      41.325  27.134  26.617  1.00  0.00     0.228 C 
ATOM     16  H   UNL A   1      39.358  27.119  26.426  1.00  0.00     0.169 HD
ATOM     17  O   UNL A   1      41.452  26.572  25.524  1.00  0.00    -0.274 OA
BRANCH  15  18
ATOM     18  C   UNL A   1      42.560  27.703  27.324  1.00  0.00     0.095 C 
ATOM     19  C   UNL A   1      42.471  29.244  27.313  1.00  0.00     0.041 C 
ATOM     20  C   UNL A   1      43.878  27.207  26.686  1.00  0.00     0.095 C 
ATOM     21  C   UNL A   1      43.741  29.904  27.770  1.00  0.00    -0.030 C 
ATOM     22  C   UNL A   1      45.082  28.168  26.634  1.00  0.00     0.041 C 
ATOM     23  C   UNL A   1      44.941  29.404  27.458  1.00  0.00    -0.030 C 
BRANCH  20  24
ATOM     24  C   UNL A   1      44.357  25.857  27.189  1.00  0.00     0.228 C 
ATOM     25  O   UNL A   1      43.664  25.279  28.032  1.00  0.00    -0.274 OA
ATOM     26  N   UNL A   1      45.455  25.176  26.760  1.00  0.00    -0.326 N 
ATOM     27  H   UNL A   1      45.374  24.211  26.941  1.00  0.00     0.169 HD
BRANCH  26  28
ATOM     28  C   UNL A   1      46.674  25.480  26.128  1.00  0.00     0.048 A 
ATOM     29  C   UNL A   1      47.804  25.546  26.953  1.00  0.00     0.026 A 
ATOM     30  C   UNL A   1      46.814  25.868  24.802  1.00  0.00     0.111 A 
ATOM     31  C   UNL A   1      49.041  25.990  26.471  1.00  0.00     0.009 A 
ATOM     32  C   UNL A   1      48.037  26.370  24.328  1.00  0.00     0.271 A 
ATOM     33  C   UNL A   1      49.160  26.422  25.155  1.00  0.00     0.086 A 
BRANCH  32  34
ATOM     34  N   UNL A   1      48.103  26.938  22.975  1.00  0.00     0.062 N 
ATOM     35  O   UNL A   1      48.722  26.293  22.115  1.00  0.00    -0.258 OA
ATOM     36  O   UNL A   1      47.568  28.036  22.779  1.00  0.00    -0.258 OA
ENDBRANCH  32  34
ENDBRANCH  26  28
ENDBRANCH  20  24
ENDBRANCH  15  18
ENDBRANCH  13  14
ENDBRANCH   6   8
ENDBRANCH   5   6
ENDBRANCH   4   5
ENDBRANCH   3   4
ENDBRANCH   2   3
ENDBRANCH   1   2
BRANCH   1  37
ATOM     37  C   UNL A   1      35.796  34.750  33.948  1.00  0.00     0.188 C 
BRANCH  37  38
ATOM     38  O   UNL A   1      34.465  34.925  33.458  1.00  0.00    -0.376 OA
BRANCH  38  39
ATOM     39  C   UNL A   1      34.332  35.734  32.288  1.00  0.00     0.202 C 
BRANCH  39  40
ATOM     40  C   UNL A   1      33.904  34.962  31.035  1.00  0.00     0.261 C 
BRANCH  40  41
ATOM     41  O   UNL A   1      34.802  33.870  30.738  1.00  0.00    -0.460 OA
BRANCH  41  42
ATOM     42  C   UNL A   1      35.609  34.075  29.668  1.00  0.00     0.338 C 
ATOM     43  O   UNL A   1      35.292  34.551  28.586  1.00  0.00    -0.246 OA
BRANCH  42  44
ATOM     44  C   UNL A   1      36.986  33.651  29.960  1.00  0.00     0.060 A 
ATOM     45  C   UNL A   1      37.692  34.243  31.013  1.00  0.00     0.016 A 
ATOM     46  C   UNL A   1      37.633  32.792  29.073  1.00  0.00     0.016 A 
ATOM     47  C   UNL A   1      39.065  34.001  31.155  1.00  0.00     0.010 A 
ATOM     48  C   UNL A   1      38.997  32.529  29.241  1.00  0.00     0.010 A 
ATOM     49  C   UNL A   1      39.739  33.159  30.256  1.00  0.00    -0.014 A 
BRANCH  49  50
ATOM     50  C   UNL A   1      41.225  33.033  30.277  1.00  0.00     0.031 A 
ATOM     51  C   UNL A   1      42.074  34.196  29.817  1.00  0.00     0.074 A 
ATOM     52  C   UNL A   1      41.834  31.904  30.693  1.00  0.00     0.049 A 
ATOM     53  N   UNL A   1      43.375  34.277  29.690  1.00  0.00    -0.248 NA
ATOM     54  C   UNL A   1      41.362  35.429  29.438  1.00  0.00     0.031 C 
ATOM     55  C   UNL A   1      41.158  30.700  31.174  1.00  0.00     0.029 A 
ATOM     56  N   UNL A   1      43.172  31.588  30.770  1.00  0.00    -0.354 N 
ATOM     57  C   UNL A   1      43.631  35.549  29.190  1.00  0.00     0.074 A 
ATOM     58  C   UNL A   1      42.351  36.195  29.006  1.00  0.00     0.031 C 
ATOM     59  C   UNL A   1      42.083  29.782  31.505  1.00  0.00     0.029 A 
ATOM     60  C   UNL A   1      43.415  30.310  31.219  1.00  0.00     0.049 A 
ATOM     61  H   UNL A   1      43.887  32.217  30.525  1.00  0.00     0.167 HD
ATOM     62  C   UNL A   1      44.821  36.140  28.921  1.00  0.00     0.031 A 
ATOM     63  C   UNL A   1      44.572  29.634  31.368  1.00  0.00     0.031 A 
ATOM     64  C   UNL A   1      46.104  35.525  29.129  1.00  0.00     0.049 A 
ATOM     65  C   UNL A   1      45.882  30.301  31.034  1.00  0.00     0.074 A 
ATOM     66  C   UNL A   1      47.360  36.074  28.933  1.00  0.00     0.029 A 
ATOM     67  N   UNL A   1      46.299  34.230  29.580  1.00  0.00    -0.354 N 
ATOM     68  N   UNL A   1      46.102  31.520  30.606  1.00  0.00    -0.248 NA
ATOM     69  C   UNL A   1      47.102  29.498  31.214  1.00  0.00     0.031 C 
ATOM     70  C   UNL A   1      48.316  35.095  29.221  1.00  0.00     0.029 A 
ATOM     71  C   UNL A   1      47.655  33.954  29.647  1.00  0.00     0.049 A 
ATOM     72  H   UNL A   1      45.582  33.599  29.817  1.00  0.00     0.167 HD
ATOM     73  C   UNL A   1      47.485  31.637  30.490  1.00  0.00     0.074 A 
ATOM     74  C   UNL A   1      48.052  30.374  30.909  1.00  0.00     0.031 C 
ATOM     75  C   UNL A   1      48.217  32.699  30.073  1.00  0.00     0.031 A 
BRANCH  62  76
ATOM     76  C   UNL A   1      44.794  37.537  28.360  1.00  0.00    -0.014 A 
ATOM     77  C   UNL A   1      44.741  37.761  26.973  1.00  0.00     0.010 A 
ATOM     78  C   UNL A   1      44.761  38.637  29.236  1.00  0.00     0.010 A 
ATOM     79  C   UNL A   1      44.688  39.065  26.471  1.00  0.00     0.020 A 
ATOM     80  C   UNL A   1      44.683  39.941  28.739  1.00  0.00     0.020 A 
ATOM     81  C   UNL A   1      44.660  40.146  27.357  1.00  0.00     0.054 A 
BRANCH  81  82
ATOM     82  S   UNL A   1      44.552  41.824  26.678  1.00  0.00     0.124 S 
ATOM     83  O   UNL A   1      43.222  41.818  26.072  1.00  0.00    -0.237 OA
ATOM     84  O   UNL A   1      44.696  42.662  27.865  1.00  0.00    -0.237 OA
ATOM     85  O   UNL A   1      45.664  41.890  25.733  1.00  0.00    -0.744 OA
ENDBRANCH  81  82
ENDBRANCH  62  76
BRANCH  63  86
ATOM     86  C   UNL A   1      44.557  28.223  31.845  1.00  0.00    -0.014 A 
ATOM     87  C   UNL A   1      44.354  27.164  30.942  1.00  0.00     0.010 A 
ATOM     88  C   UNL A   1      44.708  27.936  33.215  1.00  0.00     0.010 A 
ATOM     89  C   UNL A   1      44.274  25.847  31.402  1.00  0.00     0.020 A 
ATOM     90  C   UNL A   1      44.657  26.617  33.675  1.00  0.00     0.020 A 
ATOM     91  C   UNL A   1      44.424  25.582  32.766  1.00  0.00     0.054 A 
BRANCH  91  92
ATOM     92  S   UNL A   1      44.354  23.862  33.340  1.00  0.00     0.124 S 
ATOM     93  O   UNL A   1      44.204  23.129  32.088  1.00  0.00    -0.237 OA
ATOM     94  O   UNL A   1      45.638  23.702  34.020  1.00  0.00    -0.237 OA
ATOM     95  O   UNL A   1      43.189  23.847  34.223  1.00  0.00    -0.744 OA
ENDBRANCH  91  92
ENDBRANCH  63  86
BRANCH  75  96
ATOM     96  C   UNL A   1      49.717  32.565  30.081  1.00  0.00    -0.014 A 
ATOM     97  C   UNL A   1      50.415  32.107  28.950  1.00  0.00     0.010 A 
ATOM     98  C   UNL A   1      50.444  32.965  31.218  1.00  0.00     0.010 A 
ATOM     99  C   UNL A   1      51.811  32.025  28.966  1.00  0.00     0.020 A 
ATOM    100  C   UNL A   1      51.841  32.909  31.228  1.00  0.00     0.020 A 
ATOM    101  C   UNL A   1      52.515  32.426  30.106  1.00  0.00     0.054 A 
BRANCH 101 102
ATOM    102  S   UNL A   1      54.329  32.356  30.085  1.00  0.00     0.124 S 
ATOM    103  O   UNL A   1      54.685  33.441  30.995  1.00  0.00    -0.237 OA
ATOM    104  O   UNL A   1      54.605  31.008  30.575  1.00  0.00    -0.237 OA
ATOM    105  O   UNL A   1      54.668  32.582  28.682  1.00  0.00    -0.744 OA
ENDBRANCH 101 102
ENDBRANCH  75  96
ENDBRANCH  49  50
ENDBRANCH  42  44
ENDBRANCH  41  42
ENDBRANCH  40  41
ENDBRANCH  39  40
ENDBRANCH  38  39
ENDBRANCH  37  38
ENDBRANCH   1  37
TORSDOF 25
ENDMDL
MODEL 2
REMARK VINA RESULT:      -7.5      1.857      7.903
REMARK SMILES O=C(OCCOCCOCCOC(=O)c1ccc(-c2c3nc(c(-c4ccc(S(=O)(=O)[O-])cc4)c4ccc([nH]4)c(-c4ccc(S(=O)(=O)[O-])cc4)c4nc(c(-c5ccc(S(=O)(=O)[O-])cc5)c5ccc2[nH]5)C=C4)C=C3)cc1)c1ccc(NC(=O)[C@@H]2CC=CC[C@H]2C(=O)Nc2cccc([N+](=O)[O-])c2)cc1
REMARK SMILES IDX 7 1 6 2 5 3 4 4 3 5 2 6 1 7 75 8 76 9 101 10 77 11 100 12
REMARK SMILES IDX 78 13 79 14 80 15 81 17 82 18 83 19 87 20 84 21 86 22 85 23
REMARK SMILES IDX 88 24 89 25 90 26 91 28 92 29 99 30 93 31 95 32 94 33 96 34
REMARK SMILES IDX 97 35 98 36 8 37 9 38 10 39 11 40 12 41 13 42 14 43 15 44
REMARK SMILES IDX 16 45 74 46 17 47 73 48 18 49 19 50 20 51 67 52 21 53 72 54
REMARK SMILES IDX 66 55 68 56 22 57 71 58 65 59 64 60 23 62 53 63 34 64 52 65
REMARK SMILES IDX 35 66 38 67 51 68 69 69 36 70 37 71 50 73 70 74 39 75 24 76
REMARK SMILES IDX 25 77 33 78 26 79 32 80 27 81 28 82 29 83 30 84 31 85 54 86
REMARK SMILES IDX 55 87 63 88 56 89 62 90 57 91 58 92 59 93 60 94 61 95 40 96
REMARK SMILES IDX 41 97 49 98 42 99 48 100 43 101 44 102 45 103 46 104 47 105
REMARK H PARENT 79 16 90 27 68 61 38 72
REMARK Flexibility Score: inf
ROOT
ATOM      1  C   UNL A   1      35.436  34.202  34.974  1.00  0.00     0.188 C 
ENDROOT
BRANCH   1   2
ATOM      2  O   UNL A   1      36.341  33.092  34.929  1.00  0.00    -0.376 OA
BRANCH   2   3
ATOM      3  C   UNL A   1      36.313  32.385  33.688  1.00  0.00     0.202 C 
BRANCH   3   4
ATOM      4  C   UNL A   1      37.274  31.191  33.583  1.00  0.00     0.261 C 
BRANCH   4   5
ATOM      5  O   UNL A   1      36.897  30.259  32.554  1.00  0.00    -0.460 OA
BRANCH   5   6
ATOM      6  C   UNL A   1      37.435  29.027  32.346  1.00  0.00     0.338 C 
ATOM      7  O   UNL A   1      37.407  28.195  33.248  1.00  0.00    -0.246 OA
BRANCH   6   8
ATOM      8  C   UNL A   1      38.088  28.665  31.055  1.00  0.00     0.060 A 
ATOM      9  C   UNL A   1      38.840  27.510  30.906  1.00  0.00     0.018 A 
ATOM     10  C   UNL A   1      37.829  29.424  29.906  1.00  0.00     0.018 A 
ATOM     11  C   UNL A   1      39.397  27.174  29.671  1.00  0.00     0.027 A 
ATOM     12  C   UNL A   1      38.379  29.060  28.658  1.00  0.00     0.027 A 
ATOM     13  C   UNL A   1      39.208  27.940  28.533  1.00  0.00     0.041 A 
BRANCH  13  14
ATOM     14  N   UNL A   1      39.711  27.597  27.260  1.00  0.00    -0.326 N 
ATOM     15  C   UNL A   1      40.962  27.330  26.758  1.00  0.00     0.228 C 
ATOM     16  H   UNL A   1      39.005  27.535  26.577  1.00  0.00     0.169 HD
ATOM     17  O   UNL A   1      41.036  26.869  25.613  1.00  0.00    -0.274 OA
BRANCH  15  18
ATOM     18  C   UNL A   1      42.246  27.696  27.511  1.00  0.00     0.095 C 
ATOM     19  C   UNL A   1      41.915  28.786  28.552  1.00  0.00     0.041 C 
ATOM     20  C   UNL A   1      43.374  28.148  26.556  1.00  0.00     0.095 C 
ATOM     21  C   UNL A   1      43.142  29.384  29.180  1.00  0.00    -0.030 C 
ATOM     22  C   UNL A   1      44.339  29.255  27.024  1.00  0.00     0.041 C 
ATOM     23  C   UNL A   1      44.257  29.595  28.474  1.00  0.00    -0.030 C 
BRANCH  20  24
ATOM     24  C   UNL A   1      44.188  27.016  25.956  1.00  0.00     0.228 C 
ATOM     25  O   UNL A   1      44.869  27.265  24.956  1.00  0.00    -0.274 OA
ATOM     26  N   UNL A   1      44.297  25.750  26.444  1.00  0.00    -0.326 N 
ATOM     27  H   UNL A   1      45.122  25.312  26.131  1.00  0.00     0.169 HD
BRANCH  26  28
ATOM     28  C   UNL A   1      43.547  24.899  27.276  1.00  0.00     0.048 A 
ATOM     29  C   UNL A   1      43.928  24.850  28.623  1.00  0.00     0.026 A 
ATOM     30  C   UNL A   1      42.579  24.003  26.843  1.00  0.00     0.111 A 
ATOM     31  C   UNL A   1      43.363  23.930  29.515  1.00  0.00     0.009 A 
ATOM     32  C   UNL A   1      42.051  23.039  27.717  1.00  0.00     0.271 A 
ATOM     33  C   UNL A   1      42.430  23.005  29.059  1.00  0.00     0.086 A 
BRANCH  32  34
ATOM     34  N   UNL A   1      41.167  21.995  27.184  1.00  0.00     0.062 N 
ATOM     35  O   UNL A   1      40.766  21.128  27.975  1.00  0.00    -0.258 OA
ATOM     36  O   UNL A   1      40.900  22.020  25.975  1.00  0.00    -0.258 OA
ENDBRANCH  32  34
ENDBRANCH  26  28
ENDBRANCH  20  24
ENDBRANCH  15  18
ENDBRANCH  13  14
ENDBRANCH   6   8
ENDBRANCH   5   6
ENDBRANCH   4   5
ENDBRANCH   3   4
ENDBRANCH   2   3
ENDBRANCH   1   2
BRANCH   1  37
ATOM     37  C   UNL A   1      35.341  34.882  33.606  1.00  0.00     0.188 C 
BRANCH  37  38
ATOM     38  O   UNL A   1      34.016  34.900  33.071  1.00  0.00    -0.376 OA
BRANCH  38  39
ATOM     39  C   UNL A   1      33.780  35.840  32.021  1.00  0.00     0.202 C 
BRANCH  39  40
ATOM     40  C   UNL A   1      33.352  35.204  30.694  1.00  0.00     0.261 C 
BRANCH  40  41
ATOM     41  O   UNL A   1      34.166  34.059  30.353  1.00  0.00    -0.460 OA
BRANCH  41  42
ATOM     42  C   UNL A   1      35.044  34.269  29.342  1.00  0.00     0.338 C 
ATOM     43  O   UNL A   1      34.798  34.733  28.236  1.00  0.00    -0.246 OA
BRANCH  42  44
ATOM     44  C   UNL A   1      36.403  33.867  29.734  1.00  0.00     0.060 A 
ATOM     45  C   UNL A   1      37.000  34.433  30.865  1.00  0.00     0.016 A 
ATOM     46  C   UNL A   1      37.146  33.061  28.874  1.00  0.00     0.016 A 
ATOM     47  C   UNL A   1      38.362  34.219  31.115  1.00  0.00     0.010 A 
ATOM     48  C   UNL A   1      38.497  32.825  29.147  1.00  0.00     0.010 A 
ATOM     49  C   UNL A   1      39.133  33.432  30.245  1.00  0.00    -0.014 A 
BRANCH  49  50
ATOM     50  C   UNL A   1      40.616  33.341  30.389  1.00  0.00     0.031 A 
ATOM     51  C   UNL A   1      41.213  32.215  31.203  1.00  0.00     0.074 A 
ATOM     52  C   UNL A   1      41.439  34.240  29.815  1.00  0.00     0.049 A 
ATOM     53  N   UNL A   1      42.464  31.986  31.512  1.00  0.00    -0.248 NA
ATOM     54  C   UNL A   1      40.273  31.222  31.751  1.00  0.00     0.031 C 
ATOM     55  C   UNL A   1      41.021  35.376  28.994  1.00  0.00     0.029 A 
ATOM     56  N   UNL A   1      42.812  34.338  29.844  1.00  0.00    -0.354 N 
ATOM     57  C   UNL A   1      42.458  30.849  32.311  1.00  0.00     0.074 A 
ATOM     58  C   UNL A   1      41.076  30.450  32.467  1.00  0.00     0.031 C 
ATOM     59  C   UNL A   1      42.113  36.049  28.590  1.00  0.00     0.029 A 
ATOM     60  C   UNL A   1      43.306  35.423  29.156  1.00  0.00     0.049 A 
ATOM     61  H   UNL A   1      43.387  33.693  30.312  1.00  0.00     0.167 HD
ATOM     62  C   UNL A   1      43.502  30.179  32.857  1.00  0.00     0.031 A 
ATOM     63  C   UNL A   1      44.567  35.875  29.012  1.00  0.00     0.031 A 
ATOM     64  C   UNL A   1      44.883  30.540  32.685  1.00  0.00     0.049 A 
ATOM     65  C   UNL A   1      45.712  35.132  29.653  1.00  0.00     0.074 A 
ATOM     66  C   UNL A   1      46.006  29.885  33.160  1.00  0.00     0.029 A 
ATOM     67  N   UNL A   1      45.332  31.649  31.986  1.00  0.00    -0.354 N 
ATOM     68  N   UNL A   1      45.685  34.033  30.367  1.00  0.00    -0.248 NA
ATOM     69  C   UNL A   1      47.059  35.689  29.459  1.00  0.00     0.031 C 
ATOM     70  C   UNL A   1      47.134  30.622  32.787  1.00  0.00     0.029 A 
ATOM     71  C   UNL A   1      46.715  31.708  32.036  1.00  0.00     0.049 A 
ATOM     72  H   UNL A   1      44.755  32.298  31.524  1.00  0.00     0.167 HD
ATOM     73  C   UNL A   1      47.012  33.755  30.684  1.00  0.00     0.074 A 
ATOM     74  C   UNL A   1      47.817  34.789  30.071  1.00  0.00     0.031 C 
ATOM     75  C   UNL A   1      47.515  32.733  31.418  1.00  0.00     0.031 A 
BRANCH  62  76
ATOM     76  C   UNL A   1      43.191  28.976  33.707  1.00  0.00    -0.014 A 
ATOM     77  C   UNL A   1      42.856  29.113  35.065  1.00  0.00     0.010 A 
ATOM     78  C   UNL A   1      43.177  27.697  33.121  1.00  0.00     0.010 A 
ATOM     79  C   UNL A   1      42.543  27.987  35.832  1.00  0.00     0.020 A 
ATOM     80  C   UNL A   1      42.839  26.571  33.878  1.00  0.00     0.020 A 
ATOM     81  C   UNL A   1      42.537  26.723  35.234  1.00  0.00     0.054 A 
BRANCH  81  82
ATOM     82  S   UNL A   1      42.088  25.285  36.243  1.00  0.00     0.124 S 
ATOM     83  O   UNL A   1      43.012  25.407  37.369  1.00  0.00    -0.237 OA
ATOM     84  O   UNL A   1      40.684  25.536  36.554  1.00  0.00    -0.237 OA
ATOM     85  O   UNL A   1      42.334  24.148  35.359  1.00  0.00    -0.744 OA
ENDBRANCH  81  82
ENDBRANCH  62  76
BRANCH  63  86
ATOM     86  C   UNL A   1      44.832  37.118  28.235  1.00  0.00    -0.014 A 
ATOM     87  C   UNL A   1      45.332  37.049  26.922  1.00  0.00     0.010 A 
ATOM     88  C   UNL A   1      44.620  38.380  28.820  1.00  0.00     0.010 A 
ATOM     89  C   UNL A   1      45.642  38.216  26.219  1.00  0.00     0.020 A 
ATOM     90  C   UNL A   1      44.902  39.550  28.110  1.00  0.00     0.020 A 
ATOM     91  C   UNL A   1      45.427  39.460  26.818  1.00  0.00     0.054 A 
BRANCH  91  92
ATOM     92  S   UNL A   1      45.800  40.966  25.877  1.00  0.00     0.124 S 
ATOM     93  O   UNL A   1      44.712  40.996  24.906  1.00  0.00    -0.237 OA
ATOM     94  O   UNL A   1      45.761  42.002  26.907  1.00  0.00    -0.237 OA
ATOM     95  O   UNL A   1      47.128  40.700  25.328  1.00  0.00    -0.744 OA
ENDBRANCH  91  92
ENDBRANCH  63  86
BRANCH  75  96
ATOM     96  C   UNL A   1      49.011  32.650  31.575  1.00  0.00    -0.014 A 
ATOM     97  C   UNL A   1      49.629  32.877  32.817  1.00  0.00     0.010 A 
ATOM     98  C   UNL A   1      49.805  32.274  30.475  1.00  0.00     0.010 A 
ATOM     99  C   UNL A   1      51.016  32.760  32.949  1.00  0.00     0.020 A 
ATOM    100  C   UNL A   1      51.189  32.130  30.610  1.00  0.00     0.020 A 
ATOM    101  C   UNL A   1      51.787  32.387  31.844  1.00  0.00     0.054 A 
BRANCH 101 102
ATOM    102  S   UNL A   1      53.580  32.193  32.053  1.00  0.00     0.124 S 
ATOM    103  O   UNL A   1      53.727  30.741  32.078  1.00  0.00    -0.237 OA
ATOM    104  O   UNL A   1      54.116  32.859  30.869  1.00  0.00    -0.237 OA
ATOM    105  O   UNL A   1      53.857  32.869  33.318  1.00  0.00    -0.744 OA
ENDBRANCH 101 102
ENDBRANCH  75  96
ENDBRANCH  49  50
ENDBRANCH  42  44
ENDBRANCH  41  42
ENDBRANCH  40  41
ENDBRANCH  39  40
ENDBRANCH  38  39
ENDBRANCH  37  38
ENDBRANCH   1  37
TORSDOF 25
ENDMDL
MODEL 3
REMARK VINA RESULT:      -7.5      5.992     14.471
REMARK SMILES O=C(OCCOCCOCCOC(=O)c1ccc(-c2c3nc(c(-c4ccc(S(=O)(=O)[O-])cc4)c4ccc([nH]4)c(-c4ccc(S(=O)(=O)[O-])cc4)c4nc(c(-c5ccc(S(=O)(=O)[O-])cc5)c5ccc2[nH]5)C=C4)C=C3)cc1)c1ccc(NC(=O)[C@@H]2CC=CC[C@H]2C(=O)Nc2cccc([N+](=O)[O-])c2)cc1
REMARK SMILES IDX 7 1 6 2 5 3 4 4 3 5 2 6 1 7 75 8 76 9 101 10 77 11 100 12
REMARK SMILES IDX 78 13 79 14 80 15 81 17 82 18 83 19 87 20 84 21 86 22 85 23
REMARK SMILES IDX 88 24 89 25 90 26 91 28 92 29 99 30 93 31 95 32 94 33 96 34
REMARK SMILES IDX 97 35 98 36 8 37 9 38 10 39 11 40 12 41 13 42 14 43 15 44
REMARK SMILES IDX 16 45 74 46 17 47 73 48 18 49 19 50 20 51 67 52 21 53 72 54
REMARK SMILES IDX 66 55 68 56 22 57 71 58 65 59 64 60 23 62 53 63 34 64 52 65
REMARK SMILES IDX 35 66 38 67 51 68 69 69 36 70 37 71 50 73 70 74 39 75 24 76
REMARK SMILES IDX 25 77 33 78 26 79 32 80 27 81 28 82 29 83 30 84 31 85 54 86
REMARK SMILES IDX 55 87 63 88 56 89 62 90 57 91 58 92 59 93 60 94 61 95 40 96
REMARK SMILES IDX 41 97 49 98 42 99 48 100 43 101 44 102 45 103 46 104 47 105
REMARK H PARENT 79 16 90 27 68 61 38 72
REMARK Flexibility Score: inf
ROOT
ATOM      1  C   UNL A   1      43.706  42.790  31.641  1.00  0.00     0.188 C 
ENDROOT
BRANCH   1   2
ATOM      2  O   UNL A   1      44.758  43.530  31.008  1.00  0.00    -0.376 OA
BRANCH   2   3
ATOM      3  C   UNL A   1      44.552  43.727  29.609  1.00  0.00     0.202 C 
BRANCH   3   4
ATOM      4  C   UNL A   1      45.547  44.674  28.920  1.00  0.00     0.261 C 
BRANCH   4   5
ATOM      5  O   UNL A   1      46.367  44.008  27.944  1.00  0.00    -0.460 OA
BRANCH   5   6
ATOM      6  C   UNL A   1      46.553  44.390  26.652  1.00  0.00     0.338 C 
ATOM      7  O   UNL A   1      47.604  44.935  26.327  1.00  0.00    -0.246 OA
BRANCH   6   8
ATOM      8  C   UNL A   1      45.498  44.191  25.616  1.00  0.00     0.060 A 
ATOM      9  C   UNL A   1      44.680  43.072  25.601  1.00  0.00     0.018 A 
ATOM     10  C   UNL A   1      45.211  45.217  24.707  1.00  0.00     0.018 A 
ATOM     11  C   UNL A   1      43.669  42.938  24.648  1.00  0.00     0.027 A 
ATOM     12  C   UNL A   1      44.171  45.079  23.762  1.00  0.00     0.027 A 
ATOM     13  C   UNL A   1      43.405  43.911  23.698  1.00  0.00     0.041 A 
BRANCH  13  14
ATOM     14  N   UNL A   1      42.356  43.829  22.758  1.00  0.00    -0.326 N 
ATOM     15  C   UNL A   1      42.226  43.284  21.503  1.00  0.00     0.228 C 
ATOM     16  H   UNL A   1      41.529  44.260  23.073  1.00  0.00     0.169 HD
ATOM     17  O   UNL A   1      41.091  43.220  21.018  1.00  0.00    -0.274 OA
BRANCH  15  18
ATOM     18  C   UNL A   1      43.436  42.876  20.654  1.00  0.00     0.095 C 
ATOM     19  C   UNL A   1      44.539  42.341  21.592  1.00  0.00     0.041 C 
ATOM     20  C   UNL A   1      43.952  44.039  19.776  1.00  0.00     0.095 C 
ATOM     21  C   UNL A   1      45.851  42.135  20.889  1.00  0.00    -0.030 C 
ATOM     22  C   UNL A   1      45.468  44.160  19.527  1.00  0.00     0.041 C 
ATOM     23  C   UNL A   1      46.274  42.973  19.936  1.00  0.00    -0.030 C 
BRANCH  20  24
ATOM     24  C   UNL A   1      43.228  44.203  18.453  1.00  0.00     0.228 C 
ATOM     25  O   UNL A   1      42.599  43.234  18.017  1.00  0.00    -0.274 OA
ATOM     26  N   UNL A   1      43.145  45.342  17.711  1.00  0.00    -0.326 N 
ATOM     27  H   UNL A   1      42.361  45.328  17.115  1.00  0.00     0.169 HD
BRANCH  26  28
ATOM     28  C   UNL A   1      43.879  46.534  17.568  1.00  0.00     0.048 A 
ATOM     29  C   UNL A   1      45.093  46.438  16.876  1.00  0.00     0.026 A 
ATOM     30  C   UNL A   1      43.576  47.741  18.182  1.00  0.00     0.111 A 
ATOM     31  C   UNL A   1      45.984  47.515  16.801  1.00  0.00     0.009 A 
ATOM     32  C   UNL A   1      44.491  48.806  18.162  1.00  0.00     0.271 A 
ATOM     33  C   UNL A   1      45.694  48.704  17.462  1.00  0.00     0.086 A 
BRANCH  32  34
ATOM     34  N   UNL A   1      44.219  50.001  18.971  1.00  0.00     0.062 N 
ATOM     35  O   UNL A   1      45.187  50.552  19.518  1.00  0.00    -0.258 OA
ATOM     36  O   UNL A   1      43.043  50.368  19.088  1.00  0.00    -0.258 OA
ENDBRANCH  32  34
ENDBRANCH  26  28
ENDBRANCH  20  24
ENDBRANCH  15  18
ENDBRANCH  13  14
ENDBRANCH   6   8
ENDBRANCH   5   6
ENDBRANCH   4   5
ENDBRANCH   3   4
ENDBRANCH   2   3
ENDBRANCH   1   2
BRANCH   1  37
ATOM     37  C   UNL A   1      43.969  41.285  31.551  1.00  0.00     0.188 C 
BRANCH  37  38
ATOM     38  O   UNL A   1      45.338  40.961  31.299  1.00  0.00    -0.376 OA
BRANCH  38  39
ATOM     39  C   UNL A   1      45.647  39.568  31.233  1.00  0.00     0.202 C 
BRANCH  39  40
ATOM     40  C   UNL A   1      46.717  39.210  30.195  1.00  0.00     0.261 C 
BRANCH  40  41
ATOM     41  O   UNL A   1      46.609  37.836  29.757  1.00  0.00    -0.460 OA
BRANCH  41  42
ATOM     42  C   UNL A   1      47.774  37.282  29.338  1.00  0.00     0.338 C 
ATOM     43  O   UNL A   1      48.862  37.836  29.245  1.00  0.00    -0.246 OA
BRANCH  42  44
ATOM     44  C   UNL A   1      47.588  35.865  28.995  1.00  0.00     0.060 A 
ATOM     45  C   UNL A   1      47.072  35.510  27.744  1.00  0.00     0.016 A 
ATOM     46  C   UNL A   1      47.761  34.900  29.985  1.00  0.00     0.016 A 
ATOM     47  C   UNL A   1      46.691  34.185  27.498  1.00  0.00     0.010 A 
ATOM     48  C   UNL A   1      47.410  33.572  29.721  1.00  0.00     0.010 A 
ATOM     49  C   UNL A   1      46.834  33.204  28.492  1.00  0.00    -0.014 A 
BRANCH  49  50
ATOM     50  C   UNL A   1      46.270  31.834  28.316  1.00  0.00     0.031 A 
ATOM     51  C   UNL A   1      47.125  30.756  27.690  1.00  0.00     0.074 A 
ATOM     52  C   UNL A   1      45.013  31.531  28.698  1.00  0.00     0.049 A 
ATOM     53  N   UNL A   1      46.814  29.521  27.384  1.00  0.00    -0.248 NA
ATOM     54  C   UNL A   1      48.512  31.121  27.354  1.00  0.00     0.031 C 
ATOM     55  C   UNL A   1      44.067  32.454  29.324  1.00  0.00     0.029 A 
ATOM     56  N   UNL A   1      44.313  30.349  28.607  1.00  0.00    -0.354 N 
ATOM     57  C   UNL A   1      47.949  28.977  26.794  1.00  0.00     0.074 A 
ATOM     58  C   UNL A   1      48.947  30.022  26.756  1.00  0.00     0.031 C 
ATOM     59  C   UNL A   1      42.917  31.803  29.569  1.00  0.00     0.029 A 
ATOM     60  C   UNL A   1      43.023  30.430  29.080  1.00  0.00     0.049 A 
ATOM     61  H   UNL A   1      44.699  29.523  28.238  1.00  0.00     0.167 HD
ATOM     62  C   UNL A   1      48.158  27.718  26.337  1.00  0.00     0.031 A 
ATOM     63  C   UNL A   1      42.034  29.514  29.101  1.00  0.00     0.031 A 
ATOM     64  C   UNL A   1      47.190  26.657  26.398  1.00  0.00     0.049 A 
ATOM     65  C   UNL A   1      42.278  28.128  28.561  1.00  0.00     0.074 A 
ATOM     66  C   UNL A   1      47.338  25.337  26.006  1.00  0.00     0.029 A 
ATOM     67  N   UNL A   1      45.897  26.788  26.879  1.00  0.00    -0.354 N 
ATOM     68  N   UNL A   1      43.374  27.623  28.049  1.00  0.00    -0.248 NA
ATOM     69  C   UNL A   1      41.149  27.186  28.610  1.00  0.00     0.031 C 
ATOM     70  C   UNL A   1      46.121  24.680  26.208  1.00  0.00     0.029 A 
ATOM     71  C   UNL A   1      45.230  25.578  26.774  1.00  0.00     0.049 A 
ATOM     72  H   UNL A   1      45.510  27.617  27.241  1.00  0.00     0.167 HD
ATOM     73  C   UNL A   1      43.074  26.299  27.741  1.00  0.00     0.074 A 
ATOM     74  C   UNL A   1      41.701  26.075  28.138  1.00  0.00     0.031 C 
ATOM     75  C   UNL A   1      43.867  25.356  27.179  1.00  0.00     0.031 A 
BRANCH  62  76
ATOM     76  C   UNL A   1      49.497  27.413  25.719  1.00  0.00    -0.014 A 
ATOM     77  C   UNL A   1      49.677  27.442  24.326  1.00  0.00     0.010 A 
ATOM     78  C   UNL A   1      50.602  27.153  26.550  1.00  0.00     0.010 A 
ATOM     79  C   UNL A   1      50.933  27.184  23.771  1.00  0.00     0.020 A 
ATOM     80  C   UNL A   1      51.866  26.920  26.000  1.00  0.00     0.020 A 
ATOM     81  C   UNL A   1      52.020  26.924  24.612  1.00  0.00     0.054 A 
BRANCH  81  82
ATOM     82  S   UNL A   1      53.647  26.632  23.866  1.00  0.00     0.124 S 
ATOM     83  O   UNL A   1      54.046  25.376  24.496  1.00  0.00    -0.237 OA
ATOM     84  O   UNL A   1      53.337  26.549  22.441  1.00  0.00    -0.237 OA
ATOM     85  O   UNL A   1      54.427  27.802  24.263  1.00  0.00    -0.744 OA
ENDBRANCH  81  82
ENDBRANCH  62  76
BRANCH  63  86
ATOM     86  C   UNL A   1      40.694  29.875  29.643  1.00  0.00    -0.014 A 
ATOM     87  C   UNL A   1      39.607  30.093  28.777  1.00  0.00     0.010 A 
ATOM     88  C   UNL A   1      40.509  30.038  31.028  1.00  0.00     0.010 A 
ATOM     89  C   UNL A   1      38.368  30.496  29.283  1.00  0.00     0.020 A 
ATOM     90  C   UNL A   1      39.263  30.414  31.540  1.00  0.00     0.020 A 
ATOM     91  C   UNL A   1      38.205  30.656  30.662  1.00  0.00     0.054 A 
BRANCH  91  92
ATOM     92  S   UNL A   1      36.579  31.143  31.304  1.00  0.00     0.124 S 
ATOM     93  O   UNL A   1      36.906  32.326  32.093  1.00  0.00    -0.237 OA
ATOM     94  O   UNL A   1      35.815  31.386  30.082  1.00  0.00    -0.237 OA
ATOM     95  O   UNL A   1      36.153  29.973  32.069  1.00  0.00    -0.744 OA
ENDBRANCH  91  92
ENDBRANCH  63  86
BRANCH  75  96
ATOM     96  C   UNL A   1      43.292  23.976  26.988  1.00  0.00    -0.014 A 
ATOM     97  C   UNL A   1      42.770  23.567  25.749  1.00  0.00     0.010 A 
ATOM     98  C   UNL A   1      43.335  23.054  28.050  1.00  0.00     0.010 A 
ATOM     99  C   UNL A   1      42.274  22.270  25.583  1.00  0.00     0.020 A 
ATOM    100  C   UNL A   1      42.864  21.749  27.881  1.00  0.00     0.020 A 
ATOM    101  C   UNL A   1      42.324  21.369  26.651  1.00  0.00     0.054 A 
BRANCH 101 102
ATOM    102  S   UNL A   1      41.720  19.676  26.398  1.00  0.00     0.124 S 
ATOM    103  O   UNL A   1      40.295  19.894  26.165  1.00  0.00    -0.237 OA
ATOM    104  O   UNL A   1      42.486  19.231  25.236  1.00  0.00    -0.237 OA
ATOM    105  O   UNL A   1      42.051  18.999  27.649  1.00  0.00    -0.744 OA
ENDBRANCH 101 102
ENDBRANCH  75  96
ENDBRANCH  49  50
ENDBRANCH  42  44
ENDBRANCH  41  42
ENDBRANCH  40  41
ENDBRANCH  39  40
ENDBRANCH  38  39
ENDBRANCH  37  38
ENDBRANCH   1  37
TORSDOF 25
ENDMDL
