MODEL 1
REMARK VINA RESULT:     -10.0      0.000      0.000
REMARK SMILES Cc1cc2c(c(C)c1Br)C=C(C(=O)OCCOCCOCCOC(=O)c1ccc(-c3c4nc(c(-c5ccc(S(=O)(=O)[O-])cc5)c5ccc([nH]5)c(-c5ccc(S(=O)(=O)[O-])cc5)c5nc(c(-c6ccc(S(=O)(=O)[O-])cc6)c6ccc3[nH]6)C=C5)C=C4)cc1)[C@@H](C(F)(F)F)O2
REMARK SMILES IDX 19 1 18 2 17 3 16 4 15 5 14 6 12 7 13 8 11 9 1 10 2 11 3 12
REMARK SMILES IDX 8 13 4 14 6 15 9 16 5 17 91 18 7 19 10 20 86 21 87 22 88 23
REMARK SMILES IDX 89 24 90 25 20 26 21 27 22 28 23 29 24 30 25 31 26 32 27 33
REMARK SMILES IDX 85 34 28 35 84 36 29 37 30 38 31 39 78 40 32 41 83 42 77 43
REMARK SMILES IDX 79 44 33 45 82 46 76 47 75 48 34 50 64 51 45 52 63 53 46 54
REMARK SMILES IDX 49 55 62 56 80 57 47 58 48 59 61 61 81 62 50 63 35 64 36 65
REMARK SMILES IDX 44 66 37 67 43 68 38 69 39 70 40 71 41 72 42 73 65 74 66 75
REMARK SMILES IDX 74 76 67 77 73 78 68 79 69 80 70 81 71 82 72 83 51 84 52 85
REMARK SMILES IDX 60 86 53 87 59 88 54 89 55 90 56 91 57 92 58 93
REMARK H PARENT 79 49 49 60
REMARK Flexibility Score: inf
ROOT
ATOM      1  C   UNL A   1      34.537  34.010  28.687  1.00  0.00     0.188 C 
ENDROOT
BRANCH   1   2
ATOM      2  C   UNL A   1      34.797  32.638  28.029  1.00  0.00     0.188 C 
BRANCH   2   3
ATOM      3  O   UNL A   1      33.898  31.568  28.225  1.00  0.00    -0.376 OA
BRANCH   3   4
ATOM      4  C   UNL A   1      33.608  30.631  27.203  1.00  0.00     0.202 C 
BRANCH   4   5
ATOM      5  C   UNL A   1      33.806  29.117  27.341  1.00  0.00     0.261 C 
BRANCH   5   6
ATOM      6  O   UNL A   1      33.120  28.312  26.381  1.00  0.00    -0.460 OA
BRANCH   6   7
ATOM      7  C   UNL A   1      32.007  27.696  26.848  1.00  0.00     0.338 C 
ATOM      8  O   UNL A   1      31.270  28.089  27.738  1.00  0.00    -0.246 OA
BRANCH   7   9
ATOM      9  C   UNL A   1      31.734  26.497  26.037  1.00  0.00     0.087 C 
ATOM     10  C   UNL A   1      32.021  21.106  22.484  1.00  0.00     0.046 C 
ATOM     11  C   UNL A   1      32.110  22.133  23.583  1.00  0.00    -0.033 A 
ATOM     12  C   UNL A   1      31.267  23.249  23.509  1.00  0.00     0.051 A 
ATOM     13  C   UNL A   1      33.039  22.049  24.640  1.00  0.00     0.024 A 
ATOM     14  C   UNL A   1      31.379  24.292  24.424  1.00  0.00     0.128 A 
ATOM     15  C   UNL A   1      33.130  23.076  25.612  1.00  0.00    -0.026 A 
ATOM     16  Br  UNL A   1      34.217  20.541  24.700  1.00  0.00    -0.050 Br
ATOM     17  C   UNL A   1      32.326  24.235  25.451  1.00  0.00     0.021 A 
ATOM     18  O   UNL A   1      30.516  25.331  24.214  1.00  0.00    -0.475 OA
ATOM     19  C   UNL A   1      34.075  22.987  26.792  1.00  0.00     0.046 C 
ATOM     20  C   UNL A   1      32.497  25.425  26.282  1.00  0.00     0.027 C 
ATOM     21  C   UNL A   1      30.654  26.541  24.999  1.00  0.00     0.316 C 
BRANCH  21  22
ATOM     22  C   UNL A   1      30.807  27.726  24.034  1.00  0.00     0.430 C 
ATOM     23  F   UNL A   1      30.531  28.901  24.652  1.00  0.00    -0.167 F 
ATOM     24  F   UNL A   1      32.072  27.833  23.563  1.00  0.00    -0.167 F 
ATOM     25  F   UNL A   1      29.985  27.627  22.967  1.00  0.00    -0.167 F 
ENDBRANCH  21  22
ENDBRANCH   7   9
ENDBRANCH   6   7
ENDBRANCH   5   6
ENDBRANCH   4   5
ENDBRANCH   3   4
ENDBRANCH   2   3
ENDBRANCH   1   2
BRANCH   1  26
ATOM     26  O   UNL A   1      34.146  34.106  30.043  1.00  0.00    -0.376 OA
BRANCH  26  27
ATOM     27  C   UNL A   1      35.100  33.819  31.056  1.00  0.00     0.202 C 
BRANCH  27  28
ATOM     28  C   UNL A   1      35.226  32.406  31.633  1.00  0.00     0.261 C 
BRANCH  28  29
ATOM     29  O   UNL A   1      36.329  31.652  31.109  1.00  0.00    -0.460 OA
BRANCH  29  30
ATOM     30  C   UNL A   1      37.363  31.477  31.969  1.00  0.00     0.338 C 
ATOM     31  O   UNL A   1      37.356  31.641  33.177  1.00  0.00    -0.246 OA
BRANCH  30  32
ATOM     32  C   UNL A   1      38.492  30.853  31.254  1.00  0.00     0.060 A 
ATOM     33  C   UNL A   1      39.525  30.290  32.016  1.00  0.00     0.016 A 
ATOM     34  C   UNL A   1      38.559  30.862  29.861  1.00  0.00     0.016 A 
ATOM     35  C   UNL A   1      40.642  29.749  31.385  1.00  0.00     0.010 A 
ATOM     36  C   UNL A   1      39.695  30.347  29.229  1.00  0.00     0.010 A 
ATOM     37  C   UNL A   1      40.751  29.813  29.989  1.00  0.00    -0.014 A 
BRANCH  37  38
ATOM     38  C   UNL A   1      42.048  29.494  29.348  1.00  0.00     0.031 A 
ATOM     39  C   UNL A   1      42.265  28.099  28.829  1.00  0.00     0.074 A 
ATOM     40  C   UNL A   1      43.001  30.431  29.198  1.00  0.00     0.049 A 
ATOM     41  N   UNL A   1      43.319  27.589  28.247  1.00  0.00    -0.248 NA
ATOM     42  C   UNL A   1      41.141  27.158  28.976  1.00  0.00     0.031 C 
ATOM     43  C   UNL A   1      42.888  31.830  29.605  1.00  0.00     0.029 A 
ATOM     44  N   UNL A   1      44.258  30.339  28.654  1.00  0.00    -0.354 N 
ATOM     45  C   UNL A   1      42.983  26.273  27.951  1.00  0.00     0.074 A 
ATOM     46  C   UNL A   1      41.640  26.053  28.440  1.00  0.00     0.031 C 
ATOM     47  C   UNL A   1      44.034  32.466  29.301  1.00  0.00     0.029 A 
ATOM     48  C   UNL A   1      44.972  31.513  28.709  1.00  0.00     0.049 A 
ATOM     49  H   UNL A   1      44.616  29.510  28.261  1.00  0.00     0.167 HD
ATOM     50  C   UNL A   1      43.725  25.333  27.322  1.00  0.00     0.031 A 
ATOM     51  C   UNL A   1      46.241  31.779  28.340  1.00  0.00     0.031 A 
ATOM     52  C   UNL A   1      45.069  25.539  26.861  1.00  0.00     0.049 A 
ATOM     53  C   UNL A   1      47.086  30.681  27.744  1.00  0.00     0.074 A 
ATOM     54  C   UNL A   1      45.907  24.640  26.223  1.00  0.00     0.029 A 
ATOM     55  N   UNL A   1      45.779  26.721  26.995  1.00  0.00    -0.354 N 
ATOM     56  N   UNL A   1      46.752  29.444  27.463  1.00  0.00    -0.248 NA
ATOM     57  C   UNL A   1      48.480  31.016  27.416  1.00  0.00     0.031 C 
ATOM     58  C   UNL A   1      47.140  25.263  26.020  1.00  0.00     0.029 A 
ATOM     59  C   UNL A   1      47.053  26.568  26.478  1.00  0.00     0.049 A 
ATOM     60  H   UNL A   1      45.428  27.548  27.398  1.00  0.00     0.167 HD
ATOM     61  C   UNL A   1      47.887  28.862  26.905  1.00  0.00     0.074 A 
ATOM     62  C   UNL A   1      48.912  29.884  26.875  1.00  0.00     0.031 C 
ATOM     63  C   UNL A   1      48.063  27.595  26.455  1.00  0.00     0.031 A 
BRANCH  50  64
ATOM     64  C   UNL A   1      43.103  23.980  27.115  1.00  0.00    -0.014 A 
ATOM     65  C   UNL A   1      43.080  23.031  28.153  1.00  0.00     0.010 A 
ATOM     66  C   UNL A   1      42.478  23.677  25.891  1.00  0.00     0.010 A 
ATOM     67  C   UNL A   1      42.456  21.796  27.964  1.00  0.00     0.020 A 
ATOM     68  C   UNL A   1      41.835  22.451  25.707  1.00  0.00     0.020 A 
ATOM     69  C   UNL A   1      41.835  21.514  26.743  1.00  0.00     0.054 A 
BRANCH  69  70
ATOM     70  S   UNL A   1      40.992  19.921  26.546  1.00  0.00     0.124 S 
ATOM     71  O   UNL A   1      40.933  19.439  27.923  1.00  0.00    -0.237 OA
ATOM     72  O   UNL A   1      39.711  20.309  25.960  1.00  0.00    -0.237 OA
ATOM     73  O   UNL A   1      41.876  19.166  25.660  1.00  0.00    -0.744 OA
ENDBRANCH  69  70
ENDBRANCH  50  64
BRANCH  51  74
ATOM     74  C   UNL A   1      46.810  33.139  28.545  1.00  0.00    -0.014 A 
ATOM     75  C   UNL A   1      47.519  33.450  29.719  1.00  0.00     0.010 A 
ATOM     76  C   UNL A   1      46.626  34.141  27.573  1.00  0.00     0.010 A 
ATOM     77  C   UNL A   1      48.018  34.740  29.924  1.00  0.00     0.020 A 
ATOM     78  C   UNL A   1      47.145  35.424  27.763  1.00  0.00     0.020 A 
ATOM     79  C   UNL A   1      47.829  35.719  28.945  1.00  0.00     0.054 A 
BRANCH  79  80
ATOM     80  S   UNL A   1      48.518  37.375  29.217  1.00  0.00     0.124 S 
ATOM     81  O   UNL A   1      49.896  37.209  28.765  1.00  0.00    -0.237 OA
ATOM     82  O   UNL A   1      47.670  38.211  28.370  1.00  0.00    -0.237 OA
ATOM     83  O   UNL A   1      48.351  37.584  30.653  1.00  0.00    -0.744 OA
ENDBRANCH  79  80
ENDBRANCH  51  74
BRANCH  63  84
ATOM     84  C   UNL A   1      49.402  27.235  25.869  1.00  0.00    -0.014 A 
ATOM     85  C   UNL A   1      49.688  27.473  24.513  1.00  0.00     0.010 A 
ATOM     86  C   UNL A   1      50.417  26.735  26.706  1.00  0.00     0.010 A 
ATOM     87  C   UNL A   1      50.961  27.205  24.002  1.00  0.00     0.020 A 
ATOM     88  C   UNL A   1      51.698  26.489  26.204  1.00  0.00     0.020 A 
ATOM     89  C   UNL A   1      51.959  26.717  24.852  1.00  0.00     0.054 A 
BRANCH  89  90
ATOM     90  S   UNL A   1      53.619  26.439  24.176  1.00  0.00     0.124 S 
ATOM     91  O   UNL A   1      54.166  27.793  24.146  1.00  0.00    -0.237 OA
ATOM     92  O   UNL A   1      54.219  25.541  25.160  1.00  0.00    -0.237 OA
ATOM     93  O   UNL A   1      53.367  25.840  22.867  1.00  0.00    -0.744 OA
ENDBRANCH  89  90
ENDBRANCH  63  84
ENDBRANCH  37  38
ENDBRANCH  30  32
ENDBRANCH  29  30
ENDBRANCH  28  29
ENDBRANCH  27  28
ENDBRANCH  26  27
ENDBRANCH   1  26
TORSDOF 21
ENDMDL
MODEL 2
REMARK VINA RESULT:      -9.9      4.935      9.542
REMARK SMILES Cc1cc2c(c(C)c1Br)C=C(C(=O)OCCOCCOCCOC(=O)c1ccc(-c3c4nc(c(-c5ccc(S(=O)(=O)[O-])cc5)c5ccc([nH]5)c(-c5ccc(S(=O)(=O)[O-])cc5)c5nc(c(-c6ccc(S(=O)(=O)[O-])cc6)c6ccc3[nH]6)C=C5)C=C4)cc1)[C@@H](C(F)(F)F)O2
REMARK SMILES IDX 19 1 18 2 17 3 16 4 15 5 14 6 12 7 13 8 11 9 1 10 2 11 3 12
REMARK SMILES IDX 8 13 4 14 6 15 9 16 5 17 91 18 7 19 10 20 86 21 87 22 88 23
REMARK SMILES IDX 89 24 90 25 20 26 21 27 22 28 23 29 24 30 25 31 26 32 27 33
REMARK SMILES IDX 85 34 28 35 84 36 29 37 30 38 31 39 78 40 32 41 83 42 77 43
REMARK SMILES IDX 79 44 33 45 82 46 76 47 75 48 34 50 64 51 45 52 63 53 46 54
REMARK SMILES IDX 49 55 62 56 80 57 47 58 48 59 61 61 81 62 50 63 35 64 36 65
REMARK SMILES IDX 44 66 37 67 43 68 38 69 39 70 40 71 41 72 42 73 65 74 66 75
REMARK SMILES IDX 74 76 67 77 73 78 68 79 69 80 70 81 71 82 72 83 51 84 52 85
REMARK SMILES IDX 60 86 53 87 59 88 54 89 55 90 56 91 57 92 58 93
REMARK H PARENT 79 49 49 60
REMARK Flexibility Score: inf
ROOT
ATOM      1  C   UNL A   1      34.478  33.572  29.427  1.00  0.00     0.188 C 
ENDROOT
BRANCH   1   2
ATOM      2  C   UNL A   1      35.036  32.459  28.513  1.00  0.00     0.188 C 
BRANCH   2   3
ATOM      3  O   UNL A   1      34.362  31.225  28.394  1.00  0.00    -0.376 OA
BRANCH   3   4
ATOM      4  C   UNL A   1      34.997  30.068  27.881  1.00  0.00     0.202 C 
BRANCH   4   5
ATOM      5  C   UNL A   1      36.422  30.045  27.318  1.00  0.00     0.261 C 
BRANCH   5   6
ATOM      6  O   UNL A   1      37.381  29.313  28.083  1.00  0.00    -0.460 OA
BRANCH   6   7
ATOM      7  C   UNL A   1      38.275  30.077  28.756  1.00  0.00     0.338 C 
ATOM      8  O   UNL A   1      38.085  31.191  29.217  1.00  0.00    -0.246 OA
BRANCH   7   9
ATOM      9  C   UNL A   1      39.517  29.314  28.959  1.00  0.00     0.087 C 
ATOM     10  C   UNL A   1      44.603  25.347  28.541  1.00  0.00     0.046 C 
ATOM     11  C   UNL A   1      43.575  26.426  28.320  1.00  0.00    -0.033 A 
ATOM     12  C   UNL A   1      42.804  26.834  29.415  1.00  0.00     0.051 A 
ATOM     13  C   UNL A   1      43.317  26.994  27.055  1.00  0.00     0.024 A 
ATOM     14  C   UNL A   1      41.758  27.740  29.257  1.00  0.00     0.128 A 
ATOM     15  C   UNL A   1      42.291  27.957  26.886  1.00  0.00    -0.026 A 
ATOM     16  Br  UNL A   1      44.346  26.391  25.558  1.00  0.00    -0.050 Br
ATOM     17  C   UNL A   1      41.470  28.276  27.998  1.00  0.00     0.021 A 
ATOM     18  O   UNL A   1      41.071  28.024  30.404  1.00  0.00    -0.475 OA
ATOM     19  C   UNL A   1      42.029  28.629  25.554  1.00  0.00     0.046 C 
ATOM     20  C   UNL A   1      40.268  29.098  27.871  1.00  0.00     0.027 C 
ATOM     21  C   UNL A   1      39.863  28.820  30.331  1.00  0.00     0.316 C 
BRANCH  21  22
ATOM     22  C   UNL A   1      38.722  28.023  30.979  1.00  0.00     0.430 C 
ATOM     23  F   UNL A   1      39.035  27.662  32.248  1.00  0.00    -0.167 F 
ATOM     24  F   UNL A   1      37.581  28.749  31.062  1.00  0.00    -0.167 F 
ATOM     25  F   UNL A   1      38.433  26.894  30.296  1.00  0.00    -0.167 F 
ENDBRANCH  21  22
ENDBRANCH   7   9
ENDBRANCH   6   7
ENDBRANCH   5   6
ENDBRANCH   4   5
ENDBRANCH   3   4
ENDBRANCH   2   3
ENDBRANCH   1   2
BRANCH   1  26
ATOM     26  O   UNL A   1      34.235  33.333  30.800  1.00  0.00    -0.376 OA
BRANCH  26  27
ATOM     27  C   UNL A   1      34.600  34.328  31.747  1.00  0.00     0.202 C 
BRANCH  27  28
ATOM     28  C   UNL A   1      34.232  34.173  33.226  1.00  0.00     0.261 C 
BRANCH  28  29
ATOM     29  O   UNL A   1      34.834  33.039  33.866  1.00  0.00    -0.460 OA
BRANCH  29  30
ATOM     30  C   UNL A   1      35.836  33.334  34.731  1.00  0.00     0.338 C 
ATOM     31  O   UNL A   1      35.733  33.835  35.838  1.00  0.00    -0.246 OA
BRANCH  30  32
ATOM     32  C   UNL A   1      37.102  32.776  34.221  1.00  0.00     0.060 A 
ATOM     33  C   UNL A   1      38.296  33.183  34.831  1.00  0.00     0.016 A 
ATOM     34  C   UNL A   1      37.120  31.905  33.131  1.00  0.00     0.016 A 
ATOM     35  C   UNL A   1      39.519  32.733  34.340  1.00  0.00     0.010 A 
ATOM     36  C   UNL A   1      38.350  31.478  32.619  1.00  0.00     0.010 A 
ATOM     37  C   UNL A   1      39.553  31.911  33.205  1.00  0.00    -0.014 A 
BRANCH  37  38
ATOM     38  C   UNL A   1      40.847  31.665  32.527  1.00  0.00     0.031 A 
ATOM     39  C   UNL A   1      41.341  32.685  31.538  1.00  0.00     0.074 A 
ATOM     40  C   UNL A   1      41.586  30.577  32.808  1.00  0.00     0.049 A 
ATOM     41  N   UNL A   1      42.432  32.676  30.818  1.00  0.00    -0.248 NA
ATOM     42  C   UNL A   1      40.499  33.878  31.344  1.00  0.00     0.031 C 
ATOM     43  C   UNL A   1      41.244  29.549  33.789  1.00  0.00     0.029 A 
ATOM     44  N   UNL A   1      42.787  30.162  32.289  1.00  0.00    -0.354 N 
ATOM     45  C   UNL A   1      42.412  33.862  30.092  1.00  0.00     0.074 A 
ATOM     46  C   UNL A   1      41.190  34.554  30.438  1.00  0.00     0.031 C 
ATOM     47  C   UNL A   1      42.213  28.615  33.796  1.00  0.00     0.029 A 
ATOM     48  C   UNL A   1      43.225  28.963  32.799  1.00  0.00     0.049 A 
ATOM     49  H   UNL A   1      43.288  30.674  31.614  1.00  0.00     0.167 HD
ATOM     50  C   UNL A   1      43.332  34.335  29.222  1.00  0.00     0.031 A 
ATOM     51  C   UNL A   1      44.308  28.225  32.483  1.00  0.00     0.031 A 
ATOM     52  C   UNL A   1      44.532  33.637  28.854  1.00  0.00     0.049 A 
ATOM     53  C   UNL A   1      45.261  28.722  31.424  1.00  0.00     0.074 A 
ATOM     54  C   UNL A   1      45.520  34.031  27.969  1.00  0.00     0.029 A 
ATOM     55  N   UNL A   1      44.906  32.395  29.344  1.00  0.00    -0.354 N 
ATOM     56  N   UNL A   1      45.233  29.849  30.753  1.00  0.00    -0.248 NA
ATOM     57  C   UNL A   1      46.392  27.846  31.081  1.00  0.00     0.031 C 
ATOM     58  C   UNL A   1      46.463  33.005  27.882  1.00  0.00     0.029 A 
ATOM     59  C   UNL A   1      46.094  31.996  28.759  1.00  0.00     0.049 A 
ATOM     60  H   UNL A   1      44.401  31.874  30.009  1.00  0.00     0.167 HD
ATOM     61  C   UNL A   1      46.352  29.826  29.927  1.00  0.00     0.074 A 
ATOM     62  C   UNL A   1      47.044  28.582  30.190  1.00  0.00     0.031 C 
ATOM     63  C   UNL A   1      46.771  30.754  29.031  1.00  0.00     0.031 A 
BRANCH  50  64
ATOM     64  C   UNL A   1      43.064  35.669  28.583  1.00  0.00    -0.014 A 
ATOM     65  C   UNL A   1      42.354  35.759  27.372  1.00  0.00     0.010 A 
ATOM     66  C   UNL A   1      43.469  36.849  29.233  1.00  0.00     0.010 A 
ATOM     67  C   UNL A   1      42.069  37.008  26.814  1.00  0.00     0.020 A 
ATOM     68  C   UNL A   1      43.167  38.099  28.689  1.00  0.00     0.020 A 
ATOM     69  C   UNL A   1      42.475  38.170  27.477  1.00  0.00     0.054 A 
BRANCH  69  70
ATOM     70  S   UNL A   1      42.047  39.776  26.752  1.00  0.00     0.124 S 
ATOM     71  O   UNL A   1      43.290  40.144  26.079  1.00  0.00    -0.237 OA
ATOM     72  O   UNL A   1      40.931  39.440  25.870  1.00  0.00    -0.237 OA
ATOM     73  O   UNL A   1      41.699  40.599  27.908  1.00  0.00    -0.744 OA
ENDBRANCH  69  70
ENDBRANCH  50  64
BRANCH  51  74
ATOM     74  C   UNL A   1      44.545  26.918  33.155  1.00  0.00    -0.014 A 
ATOM     75  C   UNL A   1      44.131  25.716  32.553  1.00  0.00     0.010 A 
ATOM     76  C   UNL A   1      45.169  26.870  34.416  1.00  0.00     0.010 A 
ATOM     77  C   UNL A   1      44.322  24.495  33.205  1.00  0.00     0.020 A 
ATOM     78  C   UNL A   1      45.383  25.649  35.060  1.00  0.00     0.020 A 
ATOM     79  C   UNL A   1      44.947  24.468  34.454  1.00  0.00     0.054 A 
BRANCH  79  80
ATOM     80  S   UNL A   1      45.217  22.867  35.265  1.00  0.00     0.124 S 
ATOM     81  O   UNL A   1      44.211  22.027  34.621  1.00  0.00    -0.237 OA
ATOM     82  O   UNL A   1      46.605  22.570  34.920  1.00  0.00    -0.237 OA
ATOM     83  O   UNL A   1      44.982  23.154  36.678  1.00  0.00    -0.744 OA
ENDBRANCH  79  80
ENDBRANCH  51  74
BRANCH  63  84
ATOM     84  C   UNL A   1      48.047  30.482  28.279  1.00  0.00    -0.014 A 
ATOM     85  C   UNL A   1      49.277  30.992  28.730  1.00  0.00     0.010 A 
ATOM     86  C   UNL A   1      48.027  29.632  27.158  1.00  0.00     0.010 A 
ATOM     87  C   UNL A   1      50.463  30.668  28.064  1.00  0.00     0.020 A 
ATOM     88  C   UNL A   1      49.213  29.285  26.505  1.00  0.00     0.020 A 
ATOM     89  C   UNL A   1      50.423  29.813  26.958  1.00  0.00     0.054 A 
BRANCH  89  90
ATOM     90  S   UNL A   1      51.984  29.358  26.153  1.00  0.00     0.124 S 
ATOM     91  O   UNL A   1      52.832  29.033  27.297  1.00  0.00    -0.237 OA
ATOM     92  O   UNL A   1      51.595  28.224  25.317  1.00  0.00    -0.237 OA
ATOM     93  O   UNL A   1      52.363  30.564  25.420  1.00  0.00    -0.744 OA
ENDBRANCH  89  90
ENDBRANCH  63  84
ENDBRANCH  37  38
ENDBRANCH  30  32
ENDBRANCH  29  30
ENDBRANCH  28  29
ENDBRANCH  27  28
ENDBRANCH  26  27
ENDBRANCH   1  26
TORSDOF 21
ENDMDL
MODEL 3
REMARK VINA RESULT:      -9.5     10.520     16.005
REMARK SMILES Cc1cc2c(c(C)c1Br)C=C(C(=O)OCCOCCOCCOC(=O)c1ccc(-c3c4nc(c(-c5ccc(S(=O)(=O)[O-])cc5)c5ccc([nH]5)c(-c5ccc(S(=O)(=O)[O-])cc5)c5nc(c(-c6ccc(S(=O)(=O)[O-])cc6)c6ccc3[nH]6)C=C5)C=C4)cc1)[C@@H](C(F)(F)F)O2
REMARK SMILES IDX 19 1 18 2 17 3 16 4 15 5 14 6 12 7 13 8 11 9 1 10 2 11 3 12
REMARK SMILES IDX 8 13 4 14 6 15 9 16 5 17 91 18 7 19 10 20 86 21 87 22 88 23
REMARK SMILES IDX 89 24 90 25 20 26 21 27 22 28 23 29 24 30 25 31 26 32 27 33
REMARK SMILES IDX 85 34 28 35 84 36 29 37 30 38 31 39 78 40 32 41 83 42 77 43
REMARK SMILES IDX 79 44 33 45 82 46 76 47 75 48 34 50 64 51 45 52 63 53 46 54
REMARK SMILES IDX 49 55 62 56 80 57 47 58 48 59 61 61 81 62 50 63 35 64 36 65
REMARK SMILES IDX 44 66 37 67 43 68 38 69 39 70 40 71 41 72 42 73 65 74 66 75
REMARK SMILES IDX 74 76 67 77 73 78 68 79 69 80 70 81 71 82 72 83 51 84 52 85
REMARK SMILES IDX 60 86 53 87 59 88 54 89 55 90 56 91 57 92 58 93
REMARK H PARENT 79 49 49 60
REMARK Flexibility Score: inf
ROOT
ATOM      1  C   UNL A   1      48.615  20.219  36.420  1.00  0.00     0.188 C 
ENDROOT
BRANCH   1   2
ATOM      2  C   UNL A   1      47.791  19.884  37.683  1.00  0.00     0.188 C 
BRANCH   2   3
ATOM      3  O   UNL A   1      48.438  19.608  38.907  1.00  0.00    -0.376 OA
BRANCH   3   4
ATOM      4  C   UNL A   1      47.789  18.921  39.962  1.00  0.00     0.202 C 
BRANCH   4   5
ATOM      5  C   UNL A   1      46.527  18.069  39.788  1.00  0.00     0.261 C 
BRANCH   5   6
ATOM      6  O   UNL A   1      46.138  17.296  40.924  1.00  0.00    -0.460 OA
BRANCH   6   7
ATOM      7  C   UNL A   1      44.925  17.615  41.439  1.00  0.00     0.338 C 
ATOM      8  O   UNL A   1      44.349  18.687  41.347  1.00  0.00    -0.246 OA
BRANCH   7   9
ATOM      9  C   UNL A   1      44.324  16.419  42.053  1.00  0.00     0.087 C 
ATOM     10  C   UNL A   1      43.081  10.644  44.675  1.00  0.00     0.046 C 
ATOM     11  C   UNL A   1      43.592  12.031  44.380  1.00  0.00    -0.033 A 
ATOM     12  C   UNL A   1      42.846  12.834  43.510  1.00  0.00     0.051 A 
ATOM     13  C   UNL A   1      44.810  12.526  44.890  1.00  0.00     0.024 A 
ATOM     14  C   UNL A   1      43.319  14.078  43.101  1.00  0.00     0.128 A 
ATOM     15  C   UNL A   1      45.281  13.812  44.527  1.00  0.00    -0.026 A 
ATOM     16  Br  UNL A   1      45.842  11.397  46.040  1.00  0.00    -0.050 Br
ATOM     17  C   UNL A   1      44.545  14.559  43.571  1.00  0.00     0.021 A 
ATOM     18  O   UNL A   1      42.503  14.740  42.227  1.00  0.00    -0.475 OA
ATOM     19  C   UNL A   1      46.553  14.396  45.104  1.00  0.00     0.046 C 
ATOM     20  C   UNL A   1      45.055  15.797  42.987  1.00  0.00     0.027 C 
ATOM     21  C   UNL A   1      42.968  15.964  41.606  1.00  0.00     0.316 C 
BRANCH  21  22
ATOM     22  C   UNL A   1      42.872  15.797  40.083  1.00  0.00     0.430 C 
ATOM     23  F   UNL A   1      42.464  16.947  39.488  1.00  0.00    -0.167 F 
ATOM     24  F   UNL A   1      44.069  15.489  39.531  1.00  0.00    -0.167 F 
ATOM     25  F   UNL A   1      42.001  14.827  39.727  1.00  0.00    -0.167 F 
ENDBRANCH  21  22
ENDBRANCH   7   9
ENDBRANCH   6   7
ENDBRANCH   5   6
ENDBRANCH   4   5
ENDBRANCH   3   4
ENDBRANCH   2   3
ENDBRANCH   1   2
BRANCH   1  26
ATOM     26  O   UNL A   1      49.053  21.539  36.164  1.00  0.00    -0.376 OA
BRANCH  26  27
ATOM     27  C   UNL A   1      48.388  22.621  36.802  1.00  0.00     0.202 C 
BRANCH  27  28
ATOM     28  C   UNL A   1      48.197  23.958  36.078  1.00  0.00     0.261 C 
BRANCH  28  29
ATOM     29  O   UNL A   1      47.634  24.994  36.894  1.00  0.00    -0.460 OA
BRANCH  29  30
ATOM     30  C   UNL A   1      48.076  26.246  36.617  1.00  0.00     0.338 C 
ATOM     31  O   UNL A   1      49.234  26.617  36.521  1.00  0.00    -0.246 OA
BRANCH  30  32
ATOM     32  C   UNL A   1      46.931  27.096  36.242  1.00  0.00     0.060 A 
ATOM     33  C   UNL A   1      45.647  26.679  36.622  1.00  0.00     0.016 A 
ATOM     34  C   UNL A   1      47.108  28.257  35.490  1.00  0.00     0.016 A 
ATOM     35  C   UNL A   1      44.531  27.416  36.233  1.00  0.00     0.010 A 
ATOM     36  C   UNL A   1      45.985  28.979  35.074  1.00  0.00     0.010 A 
ATOM     37  C   UNL A   1      44.693  28.547  35.421  1.00  0.00    -0.014 A 
BRANCH  37  38
ATOM     38  C   UNL A   1      43.502  29.159  34.786  1.00  0.00     0.031 A 
ATOM     39  C   UNL A   1      43.091  28.675  33.422  1.00  0.00     0.074 A 
ATOM     40  C   UNL A   1      42.779  30.099  35.421  1.00  0.00     0.049 A 
ATOM     41  N   UNL A   1      42.098  29.071  32.670  1.00  0.00    -0.248 NA
ATOM     42  C   UNL A   1      43.902  27.595  32.833  1.00  0.00     0.031 C 
ATOM     43  C   UNL A   1      43.040  30.607  36.766  1.00  0.00     0.029 A 
ATOM     44  N   UNL A   1      41.668  30.792  35.008  1.00  0.00    -0.354 N 
ATOM     45  C   UNL A   1      42.158  28.285  31.526  1.00  0.00     0.074 A 
ATOM     46  C   UNL A   1      43.300  27.408  31.668  1.00  0.00     0.031 C 
ATOM     47  C   UNL A   1      42.116  31.538  37.066  1.00  0.00     0.029 A 
ATOM     48  C   UNL A   1      41.221  31.714  35.924  1.00  0.00     0.049 A 
ATOM     49  H   UNL A   1      41.234  30.644  34.138  1.00  0.00     0.167 HD
ATOM     50  C   UNL A   1      41.333  28.287  30.454  1.00  0.00     0.031 A 
ATOM     51  C   UNL A   1      40.215  32.608  35.840  1.00  0.00     0.031 A 
ATOM     52  C   UNL A   1      40.216  29.177  30.297  1.00  0.00     0.049 A 
ATOM     53  C   UNL A   1      39.379  32.669  34.585  1.00  0.00     0.074 A 
ATOM     54  C   UNL A   1      39.329  29.263  29.238  1.00  0.00     0.029 A 
ATOM     55  N   UNL A   1      39.836  30.140  31.217  1.00  0.00    -0.354 N 
ATOM     56  N   UNL A   1      39.443  31.913  33.515  1.00  0.00    -0.248 NA
ATOM     57  C   UNL A   1      38.335  33.704  34.529  1.00  0.00     0.031 C 
ATOM     58  C   UNL A   1      38.445  30.314  29.495  1.00  0.00     0.029 A 
ATOM     59  C   UNL A   1      38.745  30.845  30.740  1.00  0.00     0.049 A 
ATOM     60  H   UNL A   1      40.277  30.300  32.083  1.00  0.00     0.167 HD
ATOM     61  C   UNL A   1      38.435  32.367  32.670  1.00  0.00     0.074 A 
ATOM     62  C   UNL A   1      37.767  33.453  33.357  1.00  0.00     0.031 C 
ATOM     63  C   UNL A   1      38.092  31.923  31.435  1.00  0.00     0.031 A 
BRANCH  50  64
ATOM     64  C   UNL A   1      41.622  27.309  29.350  1.00  0.00    -0.014 A 
ATOM     65  C   UNL A   1      42.662  27.545  28.433  1.00  0.00     0.010 A 
ATOM     66  C   UNL A   1      40.890  26.111  29.268  1.00  0.00     0.010 A 
ATOM     67  C   UNL A   1      42.953  26.605  27.441  1.00  0.00     0.020 A 
ATOM     68  C   UNL A   1      41.193  25.159  28.292  1.00  0.00     0.020 A 
ATOM     69  C   UNL A   1      42.218  25.417  27.378  1.00  0.00     0.054 A 
BRANCH  69  70
ATOM     70  S   UNL A   1      42.652  24.196  26.110  1.00  0.00     0.124 S 
ATOM     71  O   UNL A   1      41.461  23.351  26.085  1.00  0.00    -0.237 OA
ATOM     72  O   UNL A   1      42.860  25.025  24.926  1.00  0.00    -0.237 OA
ATOM     73  O   UNL A   1      43.856  23.557  26.639  1.00  0.00    -0.744 OA
ENDBRANCH  69  70
ENDBRANCH  50  64
BRANCH  51  74
ATOM     74  C   UNL A   1      39.951  33.545  36.966  1.00  0.00    -0.014 A 
ATOM     75  C   UNL A   1      38.961  33.257  37.922  1.00  0.00     0.010 A 
ATOM     76  C   UNL A   1      40.677  34.746  37.077  1.00  0.00     0.010 A 
ATOM     77  C   UNL A   1      38.690  34.158  38.956  1.00  0.00     0.020 A 
ATOM     78  C   UNL A   1      40.427  35.637  38.123  1.00  0.00     0.020 A 
ATOM     79  C   UNL A   1      39.426  35.342  39.051  1.00  0.00     0.054 A 
BRANCH  79  80
ATOM     80  S   UNL A   1      39.082  36.479  40.423  1.00  0.00     0.124 S 
ATOM     81  O   UNL A   1      40.412  36.686  40.987  1.00  0.00    -0.237 OA
ATOM     82  O   UNL A   1      38.498  37.630  39.738  1.00  0.00    -0.237 OA
ATOM     83  O   UNL A   1      38.154  35.729  41.266  1.00  0.00    -0.744 OA
ENDBRANCH  79  80
ENDBRANCH  51  74
BRANCH  63  84
ATOM     84  C   UNL A   1      36.929  32.587  30.745  1.00  0.00    -0.014 A 
ATOM     85  C   UNL A   1      35.610  32.380  31.187  1.00  0.00     0.010 A 
ATOM     86  C   UNL A   1      37.167  33.499  29.701  1.00  0.00     0.010 A 
ATOM     87  C   UNL A   1      34.549  33.063  30.584  1.00  0.00     0.020 A 
ATOM     88  C   UNL A   1      36.112  34.202  29.113  1.00  0.00     0.020 A 
ATOM     89  C   UNL A   1      34.808  33.972  29.554  1.00  0.00     0.054 A 
BRANCH  89  90
ATOM     90  S   UNL A   1      33.419  34.892  28.835  1.00  0.00     0.124 S 
ATOM     91  O   UNL A   1      32.936  33.965  27.815  1.00  0.00    -0.237 OA
ATOM     92  O   UNL A   1      32.534  35.082  29.981  1.00  0.00    -0.237 OA
ATOM     93  O   UNL A   1      34.038  36.113  28.323  1.00  0.00    -0.744 OA
ENDBRANCH  89  90
ENDBRANCH  63  84
ENDBRANCH  37  38
ENDBRANCH  30  32
ENDBRANCH  29  30
ENDBRANCH  28  29
ENDBRANCH  27  28
ENDBRANCH  26  27
ENDBRANCH   1  26
TORSDOF 21
ENDMDL
