MODEL 1
REMARK VINA RESULT:      -9.5      0.000      0.000
REMARK SMILES O=C(OCCOCCOCCOC(=O)[C@@H]1[C@@H](C(=O)Nc2nc(-c3ccc(F)cc3)cs2)[C@H]2C=C[C@@H]1O2)c1ccc(-c2c3nc(c(-c4ccc(S(=O)(=O)[O-])cc4)c4ccc([nH]4)c(-c4ccc(S(=O)(=O)[O-])cc4)c4nc(c(-c5ccc(S(=O)(=O)[O-])cc5)c5ccc2[nH]5)C=C4)C=C3)cc1
REMARK SMILES IDX 7 1 6 2 5 3 4 4 3 5 2 6 1 7 37 8 38 9 96 10 39 11 95 12
REMARK SMILES IDX 40 13 41 14 42 15 89 16 43 17 94 18 88 19 90 20 44 21 93 22
REMARK SMILES IDX 87 23 86 24 45 26 75 27 56 28 74 29 57 30 60 31 73 32 91 33
REMARK SMILES IDX 58 34 59 35 72 37 92 38 61 39 46 40 47 41 55 42 48 43 54 44
REMARK SMILES IDX 49 45 50 46 51 47 52 48 53 49 76 50 77 51 85 52 78 53 84 54
REMARK SMILES IDX 79 55 80 56 81 57 82 58 83 59 62 60 63 61 71 62 64 63 70 64
REMARK SMILES IDX 65 65 66 66 67 67 68 68 69 69 8 70 9 71 10 72 11 73 12 74
REMARK SMILES IDX 13 75 14 76 15 77 16 78 35 79 32 80 34 81 36 82 33 83 17 84
REMARK SMILES IDX 18 85 19 86 20 88 21 89 31 90 22 91 30 92 23 93 24 94 29 95
REMARK SMILES IDX 25 96 28 97 26 98 27 99
REMARK H PARENT 90 25 60 36 19 87
REMARK Flexibility Score: inf
ROOT
ATOM      1  C   UNL A   1      34.327  31.787  28.155  1.00  0.00     0.188 C 
ENDROOT
BRANCH   1   2
ATOM      2  O   UNL A   1      33.851  32.955  28.824  1.00  0.00    -0.376 OA
BRANCH   2   3
ATOM      3  C   UNL A   1      34.821  33.522  29.706  1.00  0.00     0.202 C 
BRANCH   3   4
ATOM      4  C   UNL A   1      36.233  32.919  29.613  1.00  0.00     0.261 C 
BRANCH   4   5
ATOM      5  O   UNL A   1      37.031  32.987  30.812  1.00  0.00    -0.460 OA
BRANCH   5   6
ATOM      6  C   UNL A   1      37.938  33.851  31.310  1.00  0.00     0.338 C 
ATOM      7  O   UNL A   1      37.705  34.355  32.408  1.00  0.00    -0.246 OA
BRANCH   6   8
ATOM      8  C   UNL A   1      39.181  34.280  30.599  1.00  0.00     0.060 A 
ATOM      9  C   UNL A   1      39.259  34.715  29.276  1.00  0.00     0.016 A 
ATOM     10  C   UNL A   1      40.372  34.248  31.348  1.00  0.00     0.016 A 
ATOM     11  C   UNL A   1      40.476  35.064  28.689  1.00  0.00     0.010 A 
ATOM     12  C   UNL A   1      41.598  34.588  30.772  1.00  0.00     0.010 A 
ATOM     13  C   UNL A   1      41.654  34.959  29.423  1.00  0.00    -0.014 A 
BRANCH  13  14
ATOM     14  C   UNL A   1      42.958  34.996  28.732  1.00  0.00     0.031 A 
ATOM     15  C   UNL A   1      43.724  33.721  28.670  1.00  0.00     0.074 A 
ATOM     16  C   UNL A   1      43.433  36.116  28.167  1.00  0.00     0.049 A 
ATOM     17  N   UNL A   1      44.928  33.517  28.226  1.00  0.00    -0.248 NA
ATOM     18  C   UNL A   1      43.030  32.514  29.151  1.00  0.00     0.031 C 
ATOM     19  C   UNL A   1      42.667  37.337  28.042  1.00  0.00     0.029 A 
ATOM     20  N   UNL A   1      44.640  36.439  27.613  1.00  0.00    -0.354 N 
ATOM     21  C   UNL A   1      45.150  32.160  28.394  1.00  0.00     0.074 A 
ATOM     22  C   UNL A   1      43.963  31.592  28.992  1.00  0.00     0.031 C 
ATOM     23  C   UNL A   1      43.431  38.317  27.540  1.00  0.00     0.029 A 
ATOM     24  C   UNL A   1      44.754  37.778  27.302  1.00  0.00     0.049 A 
ATOM     25  H   UNL A   1      45.357  35.782  27.452  1.00  0.00     0.167 HD
ATOM     26  C   UNL A   1      46.265  31.466  28.082  1.00  0.00     0.031 A 
ATOM     27  C   UNL A   1      45.814  38.501  26.895  1.00  0.00     0.031 A 
ATOM     28  C   UNL A   1      47.442  32.098  27.555  1.00  0.00     0.049 A 
ATOM     29  C   UNL A   1      47.081  37.741  26.663  1.00  0.00     0.074 A 
ATOM     30  C   UNL A   1      48.664  31.534  27.255  1.00  0.00     0.029 A 
ATOM     31  N   UNL A   1      47.541  33.458  27.273  1.00  0.00    -0.354 N 
ATOM     32  N   UNL A   1      47.293  36.457  26.845  1.00  0.00    -0.248 NA
ATOM     33  C   UNL A   1      48.232  38.487  26.153  1.00  0.00     0.031 C 
ATOM     34  C   UNL A   1      49.520  32.564  26.848  1.00  0.00     0.029 A 
ATOM     35  C   UNL A   1      48.811  33.759  26.824  1.00  0.00     0.049 A 
ATOM     36  H   UNL A   1      46.811  34.111  27.380  1.00  0.00     0.167 HD
ATOM     37  C   UNL A   1      48.593  36.227  26.436  1.00  0.00     0.074 A 
ATOM     38  C   UNL A   1      49.120  37.510  26.002  1.00  0.00     0.031 C 
ATOM     39  C   UNL A   1      49.282  35.060  26.407  1.00  0.00     0.031 A 
BRANCH  26  40
ATOM     40  C   UNL A   1      46.252  30.005  28.429  1.00  0.00    -0.014 A 
ATOM     41  C   UNL A   1      46.778  29.534  29.649  1.00  0.00     0.010 A 
ATOM     42  C   UNL A   1      45.818  29.079  27.467  1.00  0.00     0.010 A 
ATOM     43  C   UNL A   1      46.944  28.163  29.862  1.00  0.00     0.020 A 
ATOM     44  C   UNL A   1      45.952  27.707  27.690  1.00  0.00     0.020 A 
ATOM     45  C   UNL A   1      46.544  27.259  28.874  1.00  0.00     0.054 A 
BRANCH  45  46
ATOM     46  S   UNL A   1      46.823  25.489  29.148  1.00  0.00     0.124 S 
ATOM     47  O   UNL A   1      47.255  25.468  30.544  1.00  0.00    -0.237 OA
ATOM     48  O   UNL A   1      45.505  24.915  28.892  1.00  0.00    -0.237 OA
ATOM     49  O   UNL A   1      47.852  25.145  28.171  1.00  0.00    -0.744 OA
ENDBRANCH  45  46
ENDBRANCH  26  40
BRANCH  27  50
ATOM     50  C   UNL A   1      45.682  39.972  26.689  1.00  0.00    -0.014 A 
ATOM     51  C   UNL A   1      45.778  40.869  27.766  1.00  0.00     0.010 A 
ATOM     52  C   UNL A   1      45.559  40.496  25.385  1.00  0.00     0.010 A 
ATOM     53  C   UNL A   1      45.751  42.253  27.547  1.00  0.00     0.020 A 
ATOM     54  C   UNL A   1      45.556  41.878  25.159  1.00  0.00     0.020 A 
ATOM     55  C   UNL A   1      45.647  42.750  26.244  1.00  0.00     0.054 A 
BRANCH  55  56
ATOM     56  S   UNL A   1      45.673  44.548  25.988  1.00  0.00     0.124 S 
ATOM     57  O   UNL A   1      44.527  44.746  25.105  1.00  0.00    -0.237 OA
ATOM     58  O   UNL A   1      45.516  45.061  27.347  1.00  0.00    -0.237 OA
ATOM     59  O   UNL A   1      46.979  44.795  25.380  1.00  0.00    -0.744 OA
ENDBRANCH  55  56
ENDBRANCH  27  50
BRANCH  39  60
ATOM     60  C   UNL A   1      50.670  35.115  25.846  1.00  0.00    -0.014 A 
ATOM     61  C   UNL A   1      50.899  34.988  24.466  1.00  0.00     0.010 A 
ATOM     62  C   UNL A   1      51.736  35.417  26.711  1.00  0.00     0.010 A 
ATOM     63  C   UNL A   1      52.184  35.173  23.958  1.00  0.00     0.020 A 
ATOM     64  C   UNL A   1      53.014  35.629  26.201  1.00  0.00     0.020 A 
ATOM     65  C   UNL A   1      53.230  35.505  24.828  1.00  0.00     0.054 A 
BRANCH  65  66
ATOM     66  S   UNL A   1      54.862  35.855  24.127  1.00  0.00     0.124 S 
ATOM     67  O   UNL A   1      54.915  37.313  24.199  1.00  0.00    -0.237 OA
ATOM     68  O   UNL A   1      55.757  35.146  25.038  1.00  0.00    -0.237 OA
ATOM     69  O   UNL A   1      54.786  35.299  22.778  1.00  0.00    -0.744 OA
ENDBRANCH  65  66
ENDBRANCH  39  60
ENDBRANCH  13  14
ENDBRANCH   6   8
ENDBRANCH   5   6
ENDBRANCH   4   5
ENDBRANCH   3   4
ENDBRANCH   2   3
ENDBRANCH   1   2
BRANCH   1  70
ATOM     70  C   UNL A   1      33.286  30.974  27.372  1.00  0.00     0.188 C 
BRANCH  70  71
ATOM     71  O   UNL A   1      33.655  29.836  26.611  1.00  0.00    -0.376 OA
BRANCH  71  72
ATOM     72  C   UNL A   1      33.431  28.548  27.146  1.00  0.00     0.202 C 
BRANCH  72  73
ATOM     73  C   UNL A   1      32.002  28.107  27.442  1.00  0.00     0.261 C 
BRANCH  73  74
ATOM     74  O   UNL A   1      31.208  27.731  26.329  1.00  0.00    -0.463 OA
BRANCH  74  75
ATOM     75  C   UNL A   1      31.212  26.421  25.999  1.00  0.00     0.312 C 
ATOM     76  O   UNL A   1      31.147  25.496  26.803  1.00  0.00    -0.252 OA
BRANCH  75  77
ATOM     77  C   UNL A   1      31.313  26.216  24.516  1.00  0.00     0.147 C 
ATOM     78  C   UNL A   1      32.250  25.046  24.093  1.00  0.00     0.129 C 
ATOM     79  C   UNL A   1      31.988  27.438  23.880  1.00  0.00     0.157 C 
ATOM     80  C   UNL A   1      33.203  25.803  23.138  1.00  0.00     0.155 C 
ATOM     81  C   UNL A   1      31.790  27.415  22.395  1.00  0.00     0.004 C 
ATOM     82  O   UNL A   1      33.381  27.021  23.921  1.00  0.00    -0.365 OA
ATOM     83  C   UNL A   1      32.536  26.401  21.937  1.00  0.00     0.004 C 
BRANCH  78  84
ATOM     84  C   UNL A   1      31.470  23.908  23.460  1.00  0.00     0.233 C 
ATOM     85  O   UNL A   1      30.293  24.058  23.127  1.00  0.00    -0.274 OA
ATOM     86  N   UNL A   1      32.077  22.734  23.118  1.00  0.00    -0.302 N 
ATOM     87  H   UNL A   1      31.687  22.255  22.350  1.00  0.00     0.172 HD
BRANCH  86  88
ATOM     88  C   UNL A   1      33.153  22.139  23.706  1.00  0.00     0.189 A 
ATOM     89  N   UNL A   1      34.389  22.560  23.788  1.00  0.00    -0.220 NA
ATOM     90  S   UNL A   1      32.789  20.690  24.535  1.00  0.00    -0.105 S 
ATOM     91  C   UNL A   1      35.102  21.716  24.633  1.00  0.00     0.084 A 
ATOM     92  C   UNL A   1      34.421  20.600  25.071  1.00  0.00     0.097 A 
BRANCH  91  93
ATOM     93  C   UNL A   1      36.462  22.043  25.021  1.00  0.00     0.001 A 
ATOM     94  C   UNL A   1      37.430  21.026  25.031  1.00  0.00     0.013 A 
ATOM     95  C   UNL A   1      36.787  23.312  25.515  1.00  0.00     0.013 A 
ATOM     96  C   UNL A   1      38.680  21.250  25.614  1.00  0.00     0.040 A 
ATOM     97  C   UNL A   1      38.038  23.532  26.098  1.00  0.00     0.040 A 
ATOM     98  C   UNL A   1      38.963  22.494  26.165  1.00  0.00     0.123 A 
ATOM     99  F   UNL A   1      40.128  22.686  26.796  1.00  0.00    -0.207 F 
ENDBRANCH  91  93
ENDBRANCH  86  88
ENDBRANCH  78  84
ENDBRANCH  75  77
ENDBRANCH  74  75
ENDBRANCH  73  74
ENDBRANCH  72  73
ENDBRANCH  71  72
ENDBRANCH  70  71
ENDBRANCH   1  70
TORSDOF 23
ENDMDL
MODEL 2
REMARK VINA RESULT:      -9.4      7.882      9.374
REMARK SMILES O=C(OCCOCCOCCOC(=O)[C@@H]1[C@@H](C(=O)Nc2nc(-c3ccc(F)cc3)cs2)[C@H]2C=C[C@@H]1O2)c1ccc(-c2c3nc(c(-c4ccc(S(=O)(=O)[O-])cc4)c4ccc([nH]4)c(-c4ccc(S(=O)(=O)[O-])cc4)c4nc(c(-c5ccc(S(=O)(=O)[O-])cc5)c5ccc2[nH]5)C=C4)C=C3)cc1
REMARK SMILES IDX 7 1 6 2 5 3 4 4 3 5 2 6 1 7 37 8 38 9 96 10 39 11 95 12
REMARK SMILES IDX 40 13 41 14 42 15 89 16 43 17 94 18 88 19 90 20 44 21 93 22
REMARK SMILES IDX 87 23 86 24 45 26 75 27 56 28 74 29 57 30 60 31 73 32 91 33
REMARK SMILES IDX 58 34 59 35 72 37 92 38 61 39 46 40 47 41 55 42 48 43 54 44
REMARK SMILES IDX 49 45 50 46 51 47 52 48 53 49 76 50 77 51 85 52 78 53 84 54
REMARK SMILES IDX 79 55 80 56 81 57 82 58 83 59 62 60 63 61 71 62 64 63 70 64
REMARK SMILES IDX 65 65 66 66 67 67 68 68 69 69 8 70 9 71 10 72 11 73 12 74
REMARK SMILES IDX 13 75 14 76 15 77 16 78 35 79 32 80 34 81 36 82 33 83 17 84
REMARK SMILES IDX 18 85 19 86 20 88 21 89 31 90 22 91 30 92 23 93 24 94 29 95
REMARK SMILES IDX 25 96 28 97 26 98 27 99
REMARK H PARENT 90 25 60 36 19 87
REMARK Flexibility Score: inf
ROOT
ATOM      1  C   UNL A   1      31.723  30.887  26.832  1.00  0.00     0.188 C 
ENDROOT
BRANCH   1   2
ATOM      2  O   UNL A   1      31.104  31.779  25.904  1.00  0.00    -0.376 OA
BRANCH   2   3
ATOM      3  C   UNL A   1      31.369  33.152  26.194  1.00  0.00     0.202 C 
BRANCH   3   4
ATOM      4  C   UNL A   1      32.132  33.417  27.505  1.00  0.00     0.261 C 
BRANCH   4   5
ATOM      5  O   UNL A   1      33.564  33.541  27.390  1.00  0.00    -0.460 OA
BRANCH   5   6
ATOM      6  C   UNL A   1      34.543  34.059  28.157  1.00  0.00     0.338 C 
ATOM      7  O   UNL A   1      34.573  35.281  28.299  1.00  0.00    -0.246 OA
BRANCH   6   8
ATOM      8  C   UNL A   1      35.628  33.260  28.804  1.00  0.00     0.060 A 
ATOM      9  C   UNL A   1      35.446  32.184  29.672  1.00  0.00     0.016 A 
ATOM     10  C   UNL A   1      36.949  33.631  28.491  1.00  0.00     0.016 A 
ATOM     11  C   UNL A   1      36.526  31.519  30.254  1.00  0.00     0.010 A 
ATOM     12  C   UNL A   1      38.040  32.979  29.071  1.00  0.00     0.010 A 
ATOM     13  C   UNL A   1      37.825  31.944  29.989  1.00  0.00    -0.014 A 
BRANCH  13  14
ATOM     14  C   UNL A   1      38.939  31.483  30.841  1.00  0.00     0.031 A 
ATOM     15  C   UNL A   1      39.737  30.332  30.340  1.00  0.00     0.074 A 
ATOM     16  C   UNL A   1      39.238  32.077  32.006  1.00  0.00     0.049 A 
ATOM     17  N   UNL A   1      40.682  29.673  30.942  1.00  0.00    -0.248 NA
ATOM     18  C   UNL A   1      39.447  29.878  28.968  1.00  0.00     0.031 C 
ATOM     19  C   UNL A   1      38.615  33.300  32.465  1.00  0.00     0.029 A 
ATOM     20  N   UNL A   1      40.100  31.759  33.018  1.00  0.00    -0.354 N 
ATOM     21  C   UNL A   1      41.088  28.709  30.035  1.00  0.00     0.074 A 
ATOM     22  C   UNL A   1      40.280  28.859  28.846  1.00  0.00     0.031 C 
ATOM     23  C   UNL A   1      39.028  33.596  33.704  1.00  0.00     0.029 A 
ATOM     24  C   UNL A   1      39.960  32.571  34.125  1.00  0.00     0.049 A 
ATOM     25  H   UNL A   1      40.754  31.025  32.963  1.00  0.00     0.167 HD
ATOM     26  C   UNL A   1      42.048  27.776  30.203  1.00  0.00     0.031 A 
ATOM     27  C   UNL A   1      40.502  32.485  35.354  1.00  0.00     0.031 A 
ATOM     28  C   UNL A   1      42.771  27.629  31.435  1.00  0.00     0.049 A 
ATOM     29  C   UNL A   1      41.480  31.375  35.568  1.00  0.00     0.074 A 
ATOM     30  C   UNL A   1      43.722  26.689  31.772  1.00  0.00     0.029 A 
ATOM     31  N   UNL A   1      42.593  28.446  32.549  1.00  0.00    -0.354 N 
ATOM     32  N   UNL A   1      41.845  30.448  34.710  1.00  0.00    -0.248 NA
ATOM     33  C   UNL A   1      42.139  31.296  36.872  1.00  0.00     0.031 C 
ATOM     34  C   UNL A   1      44.075  26.902  33.109  1.00  0.00     0.029 A 
ATOM     35  C   UNL A   1      43.400  28.019  33.585  1.00  0.00     0.049 A 
ATOM     36  H   UNL A   1      41.981  29.216  32.591  1.00  0.00     0.167 HD
ATOM     37  C   UNL A   1      42.808  29.695  35.354  1.00  0.00     0.074 A 
ATOM     38  C   UNL A   1      42.964  30.273  36.679  1.00  0.00     0.031 C 
ATOM     39  C   UNL A   1      43.512  28.634  34.888  1.00  0.00     0.031 A 
BRANCH  26  40
ATOM     40  C   UNL A   1      42.239  26.813  29.066  1.00  0.00    -0.014 A 
ATOM     41  C   UNL A   1      41.719  25.505  29.115  1.00  0.00     0.010 A 
ATOM     42  C   UNL A   1      43.057  27.186  27.987  1.00  0.00     0.010 A 
ATOM     43  C   UNL A   1      42.082  24.566  28.145  1.00  0.00     0.020 A 
ATOM     44  C   UNL A   1      43.396  26.259  26.998  1.00  0.00     0.020 A 
ATOM     45  C   UNL A   1      42.931  24.946  27.102  1.00  0.00     0.054 A 
BRANCH  45  46
ATOM     46  S   UNL A   1      43.435  23.696  25.889  1.00  0.00     0.124 S 
ATOM     47  O   UNL A   1      44.617  23.121  26.527  1.00  0.00    -0.237 OA
ATOM     48  O   UNL A   1      42.268  22.821  25.829  1.00  0.00    -0.237 OA
ATOM     49  O   UNL A   1      43.695  24.472  24.680  1.00  0.00    -0.744 OA
ENDBRANCH  45  46
ENDBRANCH  26  40
BRANCH  27  50
ATOM     50  C   UNL A   1      40.128  33.472  36.407  1.00  0.00    -0.014 A 
ATOM     51  C   UNL A   1      39.292  33.112  37.477  1.00  0.00     0.010 A 
ATOM     52  C   UNL A   1      40.693  34.764  36.400  1.00  0.00     0.010 A 
ATOM     53  C   UNL A   1      39.027  34.018  38.513  1.00  0.00     0.020 A 
ATOM     54  C   UNL A   1      40.451  35.665  37.445  1.00  0.00     0.020 A 
ATOM     55  C   UNL A   1      39.614  35.287  38.494  1.00  0.00     0.054 A 
BRANCH  55  56
ATOM     56  S   UNL A   1      39.297  36.419  39.879  1.00  0.00     0.124 S 
ATOM     57  O   UNL A   1      38.807  37.611  39.193  1.00  0.00    -0.237 OA
ATOM     58  O   UNL A   1      38.300  35.689  40.660  1.00  0.00    -0.237 OA
ATOM     59  O   UNL A   1      40.603  36.560  40.520  1.00  0.00    -0.744 OA
ENDBRANCH  55  56
ENDBRANCH  27  50
BRANCH  39  60
ATOM     60  C   UNL A   1      44.544  28.058  35.806  1.00  0.00    -0.014 A 
ATOM     61  C   UNL A   1      45.845  28.585  35.857  1.00  0.00     0.010 A 
ATOM     62  C   UNL A   1      44.157  27.054  36.712  1.00  0.00     0.010 A 
ATOM     63  C   UNL A   1      46.746  28.116  36.811  1.00  0.00     0.020 A 
ATOM     64  C   UNL A   1      45.047  26.605  37.684  1.00  0.00     0.020 A 
ATOM     65  C   UNL A   1      46.336  27.139  37.727  1.00  0.00     0.054 A 
BRANCH  65  66
ATOM     66  S   UNL A   1      47.488  26.635  39.030  1.00  0.00     0.124 S 
ATOM     67  O   UNL A   1      48.460  27.725  39.013  1.00  0.00    -0.237 OA
ATOM     68  O   UNL A   1      46.627  26.576  40.208  1.00  0.00    -0.237 OA
ATOM     69  O   UNL A   1      47.990  25.343  38.566  1.00  0.00    -0.744 OA
ENDBRANCH  65  66
ENDBRANCH  39  60
ENDBRANCH  13  14
ENDBRANCH   6   8
ENDBRANCH   5   6
ENDBRANCH   4   5
ENDBRANCH   3   4
ENDBRANCH   2   3
ENDBRANCH   1   2
BRANCH   1  70
ATOM     70  C   UNL A   1      32.937  30.099  26.319  1.00  0.00     0.188 C 
BRANCH  70  71
ATOM     71  O   UNL A   1      34.224  30.268  26.889  1.00  0.00    -0.376 OA
BRANCH  71  72
ATOM     72  C   UNL A   1      34.965  29.126  27.264  1.00  0.00     0.202 C 
BRANCH  72  73
ATOM     73  C   UNL A   1      35.070  27.958  26.290  1.00  0.00     0.261 C 
BRANCH  73  74
ATOM     74  O   UNL A   1      33.961  27.078  26.229  1.00  0.00    -0.463 OA
BRANCH  74  75
ATOM     75  C   UNL A   1      34.029  26.082  25.319  1.00  0.00     0.312 C 
ATOM     76  O   UNL A   1      34.928  25.248  25.259  1.00  0.00    -0.252 OA
BRANCH  75  77
ATOM     77  C   UNL A   1      32.869  26.110  24.368  1.00  0.00     0.147 C 
ATOM     78  C   UNL A   1      32.403  24.706  23.882  1.00  0.00     0.129 C 
ATOM     79  C   UNL A   1      33.299  26.795  23.063  1.00  0.00     0.157 C 
ATOM     80  C   UNL A   1      32.492  24.912  22.352  1.00  0.00     0.155 C 
ATOM     81  C   UNL A   1      32.092  27.143  22.248  1.00  0.00     0.004 C 
ATOM     82  O   UNL A   1      33.754  25.643  22.299  1.00  0.00    -0.365 OA
ATOM     83  C   UNL A   1      31.589  25.980  21.813  1.00  0.00     0.004 C 
BRANCH  78  84
ATOM     84  C   UNL A   1      31.020  24.364  24.408  1.00  0.00     0.233 C 
ATOM     85  O   UNL A   1      30.115  25.201  24.396  1.00  0.00    -0.274 OA
ATOM     86  N   UNL A   1      30.697  23.093  24.787  1.00  0.00    -0.302 N 
ATOM     87  H   UNL A   1      29.752  22.838  24.675  1.00  0.00     0.172 HD
BRANCH  86  88
ATOM     88  C   UNL A   1      31.517  22.133  25.300  1.00  0.00     0.189 A 
ATOM     89  N   UNL A   1      31.713  20.907  24.890  1.00  0.00    -0.220 NA
ATOM     90  S   UNL A   1      32.491  22.663  26.600  1.00  0.00    -0.105 S 
ATOM     91  C   UNL A   1      32.769  20.351  25.604  1.00  0.00     0.084 A 
ATOM     92  C   UNL A   1      33.265  21.127  26.631  1.00  0.00     0.097 A 
BRANCH  91  93
ATOM     93  C   UNL A   1      33.297  19.049  25.242  1.00  0.00     0.001 A 
ATOM     94  C   UNL A   1      32.597  17.896  25.634  1.00  0.00     0.013 A 
ATOM     95  C   UNL A   1      34.553  18.922  24.635  1.00  0.00     0.013 A 
ATOM     96  C   UNL A   1      33.187  16.636  25.505  1.00  0.00     0.040 A 
ATOM     97  C   UNL A   1      35.140  17.660  24.509  1.00  0.00     0.040 A 
ATOM     98  C   UNL A   1      34.463  16.533  24.967  1.00  0.00     0.123 A 
ATOM     99  F   UNL A   1      35.064  15.337  24.918  1.00  0.00    -0.207 F 
ENDBRANCH  91  93
ENDBRANCH  86  88
ENDBRANCH  78  84
ENDBRANCH  75  77
ENDBRANCH  74  75
ENDBRANCH  73  74
ENDBRANCH  72  73
ENDBRANCH  71  72
ENDBRANCH  70  71
ENDBRANCH   1  70
TORSDOF 23
ENDMDL
MODEL 3
REMARK VINA RESULT:      -9.1      7.523     14.607
REMARK SMILES O=C(OCCOCCOCCOC(=O)[C@@H]1[C@@H](C(=O)Nc2nc(-c3ccc(F)cc3)cs2)[C@H]2C=C[C@@H]1O2)c1ccc(-c2c3nc(c(-c4ccc(S(=O)(=O)[O-])cc4)c4ccc([nH]4)c(-c4ccc(S(=O)(=O)[O-])cc4)c4nc(c(-c5ccc(S(=O)(=O)[O-])cc5)c5ccc2[nH]5)C=C4)C=C3)cc1
REMARK SMILES IDX 7 1 6 2 5 3 4 4 3 5 2 6 1 7 37 8 38 9 96 10 39 11 95 12
REMARK SMILES IDX 40 13 41 14 42 15 89 16 43 17 94 18 88 19 90 20 44 21 93 22
REMARK SMILES IDX 87 23 86 24 45 26 75 27 56 28 74 29 57 30 60 31 73 32 91 33
REMARK SMILES IDX 58 34 59 35 72 37 92 38 61 39 46 40 47 41 55 42 48 43 54 44
REMARK SMILES IDX 49 45 50 46 51 47 52 48 53 49 76 50 77 51 85 52 78 53 84 54
REMARK SMILES IDX 79 55 80 56 81 57 82 58 83 59 62 60 63 61 71 62 64 63 70 64
REMARK SMILES IDX 65 65 66 66 67 67 68 68 69 69 8 70 9 71 10 72 11 73 12 74
REMARK SMILES IDX 13 75 14 76 15 77 16 78 35 79 32 80 34 81 36 82 33 83 17 84
REMARK SMILES IDX 18 85 19 86 20 88 21 89 31 90 22 91 30 92 23 93 24 94 29 95
REMARK SMILES IDX 25 96 28 97 26 98 27 99
REMARK H PARENT 90 25 60 36 19 87
REMARK Flexibility Score: inf
ROOT
ATOM      1  C   UNL A   1      33.628  35.356  31.726  1.00  0.00     0.188 C 
ENDROOT
BRANCH   1   2
ATOM      2  O   UNL A   1      33.715  34.268  30.806  1.00  0.00    -0.376 OA
BRANCH   2   3
ATOM      3  C   UNL A   1      34.580  34.543  29.703  1.00  0.00     0.202 C 
BRANCH   3   4
ATOM      4  C   UNL A   1      34.165  33.910  28.363  1.00  0.00     0.261 C 
BRANCH   4   5
ATOM      5  O   UNL A   1      35.041  32.888  27.848  1.00  0.00    -0.460 OA
BRANCH   5   6
ATOM      6  C   UNL A   1      35.021  31.540  27.813  1.00  0.00     0.338 C 
ATOM      7  O   UNL A   1      34.013  30.993  27.370  1.00  0.00    -0.246 OA
BRANCH   6   8
ATOM      8  C   UNL A   1      36.117  30.662  28.326  1.00  0.00     0.060 A 
ATOM      9  C   UNL A   1      35.968  29.606  29.225  1.00  0.00     0.016 A 
ATOM     10  C   UNL A   1      37.411  30.930  27.841  1.00  0.00     0.016 A 
ATOM     11  C   UNL A   1      37.061  28.863  29.672  1.00  0.00     0.010 A 
ATOM     12  C   UNL A   1      38.515  30.199  28.285  1.00  0.00     0.010 A 
ATOM     13  C   UNL A   1      38.343  29.187  29.236  1.00  0.00    -0.014 A 
BRANCH  13  14
ATOM     14  C   UNL A   1      39.520  28.644  29.945  1.00  0.00     0.031 A 
ATOM     15  C   UNL A   1      39.838  29.237  31.272  1.00  0.00     0.074 A 
ATOM     16  C   UNL A   1      40.265  27.653  29.434  1.00  0.00     0.049 A 
ATOM     17  N   UNL A   1      40.869  29.020  32.033  1.00  0.00    -0.248 NA
ATOM     18  C   UNL A   1      38.851  30.182  31.824  1.00  0.00     0.031 C 
ATOM     19  C   UNL A   1      39.911  26.920  28.237  1.00  0.00     0.029 A 
ATOM     20  N   UNL A   1      41.452  27.092  29.811  1.00  0.00    -0.354 N 
ATOM     21  C   UNL A   1      40.670  29.818  33.148  1.00  0.00     0.074 A 
ATOM     22  C   UNL A   1      39.429  30.534  32.959  1.00  0.00     0.031 C 
ATOM     23  C   UNL A   1      40.890  26.069  27.905  1.00  0.00     0.029 A 
ATOM     24  C   UNL A   1      41.949  26.198  28.885  1.00  0.00     0.049 A 
ATOM     25  H   UNL A   1      41.908  27.304  30.658  1.00  0.00     0.167 HD
ATOM     26  C   UNL A   1      41.476  29.941  34.224  1.00  0.00     0.031 A 
ATOM     27  C   UNL A   1      43.137  25.569  28.817  1.00  0.00     0.031 A 
ATOM     28  C   UNL A   1      42.735  29.257  34.324  1.00  0.00     0.049 A 
ATOM     29  C   UNL A   1      44.074  25.803  29.959  1.00  0.00     0.074 A 
ATOM     30  C   UNL A   1      43.683  29.336  35.322  1.00  0.00     0.029 A 
ATOM     31  N   UNL A   1      43.227  28.378  33.363  1.00  0.00    -0.354 N 
ATOM     32  N   UNL A   1      43.890  26.580  31.004  1.00  0.00    -0.248 NA
ATOM     33  C   UNL A   1      45.346  25.080  29.949  1.00  0.00     0.031 C 
ATOM     34  C   UNL A   1      44.775  28.551  34.934  1.00  0.00     0.029 A 
ATOM     35  C   UNL A   1      44.478  27.924  33.730  1.00  0.00     0.049 A 
ATOM     36  H   UNL A   1      42.752  28.119  32.540  1.00  0.00     0.167 HD
ATOM     37  C   UNL A   1      45.007  26.412  31.801  1.00  0.00     0.074 A 
ATOM     38  C   UNL A   1      45.864  25.462  31.111  1.00  0.00     0.031 C 
ATOM     39  C   UNL A   1      45.290  26.977  33.000  1.00  0.00     0.031 A 
BRANCH  26  40
ATOM     40  C   UNL A   1      41.040  30.931  35.265  1.00  0.00    -0.014 A 
ATOM     41  C   UNL A   1      39.757  30.873  35.845  1.00  0.00     0.010 A 
ATOM     42  C   UNL A   1      41.885  32.008  35.578  1.00  0.00     0.010 A 
ATOM     43  C   UNL A   1      39.301  31.917  36.653  1.00  0.00     0.020 A 
ATOM     44  C   UNL A   1      41.444  33.039  36.412  1.00  0.00     0.020 A 
ATOM     45  C   UNL A   1      40.143  33.001  36.918  1.00  0.00     0.054 A 
BRANCH  45  46
ATOM     46  S   UNL A   1      39.508  34.372  37.920  1.00  0.00     0.124 S 
ATOM     47  O   UNL A   1      40.208  35.516  37.339  1.00  0.00    -0.237 OA
ATOM     48  O   UNL A   1      38.073  34.319  37.662  1.00  0.00    -0.237 OA
ATOM     49  O   UNL A   1      39.910  34.023  39.280  1.00  0.00    -0.744 OA
ENDBRANCH  45  46
ENDBRANCH  26  40
BRANCH  27  50
ATOM     50  C   UNL A   1      43.454  24.690  27.656  1.00  0.00    -0.014 A 
ATOM     51  C   UNL A   1      43.679  25.227  26.377  1.00  0.00     0.010 A 
ATOM     52  C   UNL A   1      43.631  23.303  27.844  1.00  0.00     0.010 A 
ATOM     53  C   UNL A   1      44.072  24.401  25.315  1.00  0.00     0.020 A 
ATOM     54  C   UNL A   1      44.047  22.478  26.792  1.00  0.00     0.020 A 
ATOM     55  C   UNL A   1      44.260  23.032  25.530  1.00  0.00     0.054 A 
BRANCH  55  56
ATOM     56  S   UNL A   1      44.825  21.997  24.148  1.00  0.00     0.124 S 
ATOM     57  O   UNL A   1      44.321  22.733  22.992  1.00  0.00    -0.237 OA
ATOM     58  O   UNL A   1      46.277  22.012  24.318  1.00  0.00    -0.237 OA
ATOM     59  O   UNL A   1      44.186  20.707  24.395  1.00  0.00    -0.744 OA
ENDBRANCH  55  56
ENDBRANCH  27  50
BRANCH  39  60
ATOM     60  C   UNL A   1      46.563  26.548  33.660  1.00  0.00    -0.014 A 
ATOM     61  C   UNL A   1      47.480  27.493  34.150  1.00  0.00     0.010 A 
ATOM     62  C   UNL A   1      46.774  25.178  33.894  1.00  0.00     0.010 A 
ATOM     63  C   UNL A   1      48.592  27.068  34.874  1.00  0.00     0.020 A 
ATOM     64  C   UNL A   1      47.870  24.754  34.641  1.00  0.00     0.020 A 
ATOM     65  C   UNL A   1      48.772  25.702  35.126  1.00  0.00     0.054 A 
BRANCH  65  66
ATOM     66  S   UNL A   1      50.160  25.188  36.169  1.00  0.00     0.124 S 
ATOM     67  O   UNL A   1      50.809  24.182  35.332  1.00  0.00    -0.237 OA
ATOM     68  O   UNL A   1      50.902  26.434  36.347  1.00  0.00    -0.237 OA
ATOM     69  O   UNL A   1      49.514  24.675  37.375  1.00  0.00    -0.744 OA
ENDBRANCH  65  66
ENDBRANCH  39  60
ENDBRANCH  13  14
ENDBRANCH   6   8
ENDBRANCH   5   6
ENDBRANCH   4   5
ENDBRANCH   3   4
ENDBRANCH   2   3
ENDBRANCH   1   2
BRANCH   1  70
ATOM     70  C   UNL A   1      34.353  35.179  33.068  1.00  0.00     0.188 C 
BRANCH  70  71
ATOM     71  O   UNL A   1      35.751  35.383  33.188  1.00  0.00    -0.376 OA
BRANCH  71  72
ATOM     72  C   UNL A   1      36.631  34.333  32.848  1.00  0.00     0.202 C 
BRANCH  72  73
ATOM     73  C   UNL A   1      37.906  34.655  32.076  1.00  0.00     0.261 C 
BRANCH  73  74
ATOM     74  O   UNL A   1      39.082  33.969  32.473  1.00  0.00    -0.463 OA
BRANCH  74  75
ATOM     75  C   UNL A   1      39.898  34.618  33.332  1.00  0.00     0.312 C 
ATOM     76  O   UNL A   1      39.521  35.395  34.204  1.00  0.00    -0.252 OA
BRANCH  75  77
ATOM     77  C   UNL A   1      41.341  34.282  33.097  1.00  0.00     0.147 C 
ATOM     78  C   UNL A   1      42.220  35.495  32.667  1.00  0.00     0.129 C 
ATOM     79  C   UNL A   1      41.453  33.338  31.892  1.00  0.00     0.157 C 
ATOM     80  C   UNL A   1      42.817  34.936  31.354  1.00  0.00     0.155 C 
ATOM     81  C   UNL A   1      42.818  32.723  31.851  1.00  0.00     0.004 C 
ATOM     82  O   UNL A   1      41.617  34.304  30.816  1.00  0.00    -0.365 OA
ATOM     83  C   UNL A   1      43.661  33.711  31.525  1.00  0.00     0.004 C 
BRANCH  78  84
ATOM     84  C   UNL A   1      43.236  35.855  33.736  1.00  0.00     0.233 C 
ATOM     85  O   UNL A   1      43.466  35.086  34.672  1.00  0.00    -0.274 OA
ATOM     86  N   UNL A   1      44.017  36.969  33.629  1.00  0.00    -0.302 N 
ATOM     87  H   UNL A   1      44.904  36.914  34.053  1.00  0.00     0.172 HD
BRANCH  86  88
ATOM     88  C   UNL A   1      43.723  38.147  33.011  1.00  0.00     0.189 A 
ATOM     89  N   UNL A   1      43.124  39.207  33.491  1.00  0.00    -0.220 NA
ATOM     90  S   UNL A   1      44.321  38.272  31.416  1.00  0.00    -0.105 S 
ATOM     91  C   UNL A   1      43.202  40.235  32.558  1.00  0.00     0.084 A 
ATOM     92  C   UNL A   1      43.747  39.891  31.339  1.00  0.00     0.097 A 
BRANCH  91  93
ATOM     93  C   UNL A   1      42.752  41.572  32.899  1.00  0.00     0.001 A 
ATOM     94  C   UNL A   1      42.760  42.567  31.907  1.00  0.00     0.013 A 
ATOM     95  C   UNL A   1      42.446  41.917  34.221  1.00  0.00     0.013 A 
ATOM     96  C   UNL A   1      42.555  43.906  32.251  1.00  0.00     0.040 A 
ATOM     97  C   UNL A   1      42.243  43.258  34.561  1.00  0.00     0.040 A 
ATOM     98  C   UNL A   1      42.323  44.241  33.579  1.00  0.00     0.123 A 
ATOM     99  F   UNL A   1      42.208  45.530  33.924  1.00  0.00    -0.207 F 
ENDBRANCH  91  93
ENDBRANCH  86  88
ENDBRANCH  78  84
ENDBRANCH  75  77
ENDBRANCH  74  75
ENDBRANCH  73  74
ENDBRANCH  72  73
ENDBRANCH  71  72
ENDBRANCH  70  71
ENDBRANCH   1  70
TORSDOF 23
ENDMDL
