MODEL 1
REMARK VINA RESULT:      -9.9      0.000      0.000
REMARK SMILES Cc1nn(C)c(C)c1CNC(=O)N[C@H]1CC[C@@H](C(=O)OCCOCCOCCOC(=O)c2ccc(-c3c4nc(c(-c5ccc(S(=O)(=O)[O-])cc5)c5ccc([nH]5)c(-c5ccc(S(=O)(=O)[O-])cc5)c5nc(c(-c6ccc(S(=O)(=O)[O-])cc6)c6ccc3[nH]6)C=C5)C=C4)cc2)C1
REMARK SMILES IDX 24 1 23 2 22 3 21 4 20 5 18 6 19 7 17 8 14 9 15 10 92 11
REMARK SMILES IDX 16 12 13 13 10 14 11 15 12 17 9 19 8 20 1 21 2 22 3 23 4 24
REMARK SMILES IDX 6 25 5 26 7 27 25 28 26 29 27 30 28 31 29 32 30 33 31 34
REMARK SMILES IDX 32 35 33 36 91 37 34 38 90 39 35 40 36 41 37 42 84 43 38 44
REMARK SMILES IDX 89 45 83 46 85 47 39 48 88 49 82 50 81 51 40 53 70 54 51 55
REMARK SMILES IDX 69 56 52 57 55 58 68 59 86 60 53 61 54 62 67 64 87 65 56 66
REMARK SMILES IDX 41 67 42 68 50 69 43 70 49 71 44 72 45 73 46 74 47 75 48 76
REMARK SMILES IDX 71 77 72 78 80 79 73 80 79 81 74 82 75 83 76 84 77 85 78 86
REMARK SMILES IDX 57 87 58 88 66 89 59 90 65 91 60 92 61 93 62 94 63 95 64 96
REMARK H PARENT 10 16 13 18 85 52 55 63
REMARK Flexibility Score: inf
ROOT
ATOM      1  C   UNL A   1      39.845  22.055  26.773  1.00  0.00     0.188 C 
ENDROOT
BRANCH   1   2
ATOM      2  O   UNL A   1      38.864  22.066  25.749  1.00  0.00    -0.376 OA
BRANCH   2   3
ATOM      3  C   UNL A   1      38.200  20.855  25.401  1.00  0.00     0.202 C 
BRANCH   3   4
ATOM      4  C   UNL A   1      36.717  20.851  24.981  1.00  0.00     0.261 C 
BRANCH   4   5
ATOM      5  O   UNL A   1      35.842  21.593  25.851  1.00  0.00    -0.463 OA
BRANCH   5   6
ATOM      6  C   UNL A   1      34.579  21.804  25.400  1.00  0.00     0.309 C 
ATOM      7  O   UNL A   1      33.566  21.445  25.989  1.00  0.00    -0.252 OA
BRANCH   6   8
ATOM      8  C   UNL A   1      34.535  22.644  24.127  1.00  0.00     0.101 C 
ATOM      9  C   UNL A   1      32.837  24.359  24.305  1.00  0.00     0.084 C 
ATOM     10  C   UNL A   1      34.183  25.054  24.468  1.00  0.00     0.026 C 
ATOM     11  C   UNL A   1      33.171  23.071  23.584  1.00  0.00     0.040 C 
ATOM     12  C   UNL A   1      35.262  23.974  24.334  1.00  0.00     0.017 C 
BRANCH   9  13
ATOM     13  N   UNL A   1      32.205  24.071  25.583  1.00  0.00    -0.335 N 
ATOM     14  N   UNL A   1      30.499  25.679  25.813  1.00  0.00    -0.334 N 
ATOM     15  C   UNL A   1      31.168  24.605  26.237  1.00  0.00     0.315 C 
ATOM     16  H   UNL A   1      29.697  25.873  26.350  1.00  0.00     0.165 HD
ATOM     17  O   UNL A   1      30.787  24.055  27.274  1.00  0.00    -0.249 OA
ATOM     18  H   UNL A   1      32.630  23.327  26.068  1.00  0.00     0.165 HD
BRANCH  14  19
ATOM     19  C   UNL A   1      30.699  26.616  24.738  1.00  0.00     0.157 C 
BRANCH  19  20
ATOM     20  C   UNL A   1      31.643  27.712  25.120  1.00  0.00     0.015 A 
ATOM     21  C   UNL A   1      32.433  28.354  22.701  1.00  0.00     0.069 C 
ATOM     22  C   UNL A   1      32.434  28.444  24.183  1.00  0.00     0.065 A 
ATOM     23  N   UNL A   1      33.261  29.302  24.783  1.00  0.00    -0.178 NA
ATOM     24  N   UNL A   1      32.984  29.171  26.088  1.00  0.00    -0.272 N 
ATOM     25  C   UNL A   1      31.951  28.302  26.345  1.00  0.00     0.040 A 
ATOM     26  C   UNL A   1      33.794  29.910  27.029  1.00  0.00     0.174 C 
ATOM     27  C   UNL A   1      31.402  28.134  27.718  1.00  0.00     0.067 C 
ENDBRANCH  19  20
ENDBRANCH  14  19
ENDBRANCH   9  13
ENDBRANCH   6   8
ENDBRANCH   5   6
ENDBRANCH   4   5
ENDBRANCH   3   4
ENDBRANCH   2   3
ENDBRANCH   1   2
BRANCH   1  28
ATOM     28  C   UNL A   1      40.773  20.841  26.894  1.00  0.00     0.188 C 
BRANCH  28  29
ATOM     29  O   UNL A   1      42.149  21.128  26.935  1.00  0.00    -0.376 OA
BRANCH  29  30
ATOM     30  C   UNL A   1      42.766  21.698  25.789  1.00  0.00     0.202 C 
BRANCH  30  31
ATOM     31  C   UNL A   1      43.250  23.166  25.690  1.00  0.00     0.261 C 
BRANCH  31  32
ATOM     32  O   UNL A   1      42.591  24.166  26.480  1.00  0.00    -0.460 OA
BRANCH  32  33
ATOM     33  C   UNL A   1      42.772  25.460  26.119  1.00  0.00     0.338 C 
ATOM     34  O   UNL A   1      43.059  25.874  25.005  1.00  0.00    -0.246 OA
BRANCH  33  35
ATOM     35  C   UNL A   1      42.302  26.311  27.237  1.00  0.00     0.060 A 
ATOM     36  C   UNL A   1      42.880  27.578  27.423  1.00  0.00     0.016 A 
ATOM     37  C   UNL A   1      41.279  25.877  28.081  1.00  0.00     0.016 A 
ATOM     38  C   UNL A   1      42.448  28.406  28.460  1.00  0.00     0.010 A 
ATOM     39  C   UNL A   1      40.871  26.694  29.140  1.00  0.00     0.010 A 
ATOM     40  C   UNL A   1      41.469  27.951  29.350  1.00  0.00    -0.014 A 
BRANCH  40  41
ATOM     41  C   UNL A   1      41.202  28.691  30.610  1.00  0.00     0.031 A 
ATOM     42  C   UNL A   1      40.080  29.695  30.620  1.00  0.00     0.074 A 
ATOM     43  C   UNL A   1      41.934  28.486  31.720  1.00  0.00     0.049 A 
ATOM     44  N   UNL A   1      39.719  30.526  31.562  1.00  0.00    -0.248 NA
ATOM     45  C   UNL A   1      39.259  29.771  29.401  1.00  0.00     0.031 C 
ATOM     46  C   UNL A   1      43.007  27.503  31.861  1.00  0.00     0.029 A 
ATOM     47  N   UNL A   1      41.889  29.112  32.942  1.00  0.00    -0.354 N 
ATOM     48  C   UNL A   1      38.641  31.235  31.044  1.00  0.00     0.074 A 
ATOM     49  C   UNL A   1      38.423  30.754  29.698  1.00  0.00     0.031 C 
ATOM     50  C   UNL A   1      43.527  27.601  33.098  1.00  0.00     0.029 A 
ATOM     51  C   UNL A   1      42.856  28.681  33.819  1.00  0.00     0.049 A 
ATOM     52  H   UNL A   1      41.225  29.804  33.168  1.00  0.00     0.167 HD
ATOM     53  C   UNL A   1      37.897  32.200  31.636  1.00  0.00     0.031 A 
ATOM     54  C   UNL A   1      43.182  29.128  35.050  1.00  0.00     0.031 A 
ATOM     55  C   UNL A   1      38.129  32.691  32.968  1.00  0.00     0.049 A 
ATOM     56  C   UNL A   1      42.400  30.270  35.653  1.00  0.00     0.074 A 
ATOM     57  C   UNL A   1      37.427  33.662  33.660  1.00  0.00     0.029 A 
ATOM     58  N   UNL A   1      39.143  32.257  33.808  1.00  0.00    -0.354 N 
ATOM     59  N   UNL A   1      41.375  30.924  35.158  1.00  0.00    -0.248 NA
ATOM     60  C   UNL A   1      42.820  30.733  36.985  1.00  0.00     0.031 C 
ATOM     61  C   UNL A   1      38.056  33.863  34.892  1.00  0.00     0.029 A 
ATOM     62  C   UNL A   1      39.105  32.962  34.999  1.00  0.00     0.049 A 
ATOM     63  H   UNL A   1      39.795  31.553  33.590  1.00  0.00     0.167 HD
ATOM     64  C   UNL A   1      41.006  31.848  36.132  1.00  0.00     0.074 A 
ATOM     65  C   UNL A   1      41.910  31.660  37.248  1.00  0.00     0.031 C 
ATOM     66  C   UNL A   1      40.008  32.765  36.106  1.00  0.00     0.031 A 
BRANCH  53  67
ATOM     67  C   UNL A   1      36.786  32.817  30.827  1.00  0.00    -0.014 A 
ATOM     68  C   UNL A   1      37.049  33.795  29.851  1.00  0.00     0.010 A 
ATOM     69  C   UNL A   1      35.462  32.383  31.021  1.00  0.00     0.010 A 
ATOM     70  C   UNL A   1      36.004  34.355  29.112  1.00  0.00     0.020 A 
ATOM     71  C   UNL A   1      34.418  32.918  30.262  1.00  0.00     0.020 A 
ATOM     72  C   UNL A   1      34.694  33.913  29.322  1.00  0.00     0.054 A 
BRANCH  72  73
ATOM     73  S   UNL A   1      33.362  34.638  28.328  1.00  0.00     0.124 S 
ATOM     74  O   UNL A   1      34.109  35.453  27.373  1.00  0.00    -0.237 OA
ATOM     75  O   UNL A   1      32.705  33.460  27.768  1.00  0.00    -0.237 OA
ATOM     76  O   UNL A   1      32.570  35.387  29.300  1.00  0.00    -0.744 OA
ENDBRANCH  72  73
ENDBRANCH  53  67
BRANCH  54  77
ATOM     77  C   UNL A   1      44.315  28.511  35.796  1.00  0.00    -0.014 A 
ATOM     78  C   UNL A   1      44.095  27.433  36.671  1.00  0.00     0.010 A 
ATOM     79  C   UNL A   1      45.623  29.009  35.644  1.00  0.00     0.010 A 
ATOM     80  C   UNL A   1      45.156  26.875  37.391  1.00  0.00     0.020 A 
ATOM     81  C   UNL A   1      46.692  28.433  36.338  1.00  0.00     0.020 A 
ATOM     82  C   UNL A   1      46.449  27.377  37.217  1.00  0.00     0.054 A 
BRANCH  82  83
ATOM     83  S   UNL A   1      47.816  26.601  38.124  1.00  0.00     0.124 S 
ATOM     84  O   UNL A   1      47.106  25.763  39.086  1.00  0.00    -0.237 OA
ATOM     85  O   UNL A   1      48.529  25.888  37.067  1.00  0.00    -0.237 OA
ATOM     86  O   UNL A   1      48.536  27.737  38.696  1.00  0.00    -0.744 OA
ENDBRANCH  82  83
ENDBRANCH  54  77
BRANCH  66  87
ATOM     87  C   UNL A   1      39.799  33.611  37.337  1.00  0.00    -0.014 A 
ATOM     88  C   UNL A   1      40.471  34.834  37.513  1.00  0.00     0.010 A 
ATOM     89  C   UNL A   1      38.860  33.203  38.305  1.00  0.00     0.010 A 
ATOM     90  C   UNL A   1      40.232  35.615  38.649  1.00  0.00     0.020 A 
ATOM     91  C   UNL A   1      38.595  33.997  39.423  1.00  0.00     0.020 A 
ATOM     92  C   UNL A   1      39.293  35.193  39.595  1.00  0.00     0.054 A 
BRANCH  92  93
ATOM     93  S   UNL A   1      38.969  36.248  41.035  1.00  0.00     0.124 S 
ATOM     94  O   UNL A   1      38.560  37.502  40.407  1.00  0.00    -0.237 OA
ATOM     95  O   UNL A   1      37.912  35.519  41.732  1.00  0.00    -0.237 OA
ATOM     96  O   UNL A   1      40.253  36.291  41.731  1.00  0.00    -0.744 OA
ENDBRANCH  92  93
ENDBRANCH  66  87
ENDBRANCH  40  41
ENDBRANCH  33  35
ENDBRANCH  32  33
ENDBRANCH  31  32
ENDBRANCH  30  31
ENDBRANCH  29  30
ENDBRANCH  28  29
ENDBRANCH   1  28
TORSDOF 23
ENDMDL
MODEL 2
REMARK VINA RESULT:      -9.5      1.499      2.228
REMARK SMILES Cc1nn(C)c(C)c1CNC(=O)N[C@H]1CC[C@@H](C(=O)OCCOCCOCCOC(=O)c2ccc(-c3c4nc(c(-c5ccc(S(=O)(=O)[O-])cc5)c5ccc([nH]5)c(-c5ccc(S(=O)(=O)[O-])cc5)c5nc(c(-c6ccc(S(=O)(=O)[O-])cc6)c6ccc3[nH]6)C=C5)C=C4)cc2)C1
REMARK SMILES IDX 24 1 23 2 22 3 21 4 20 5 18 6 19 7 17 8 14 9 15 10 92 11
REMARK SMILES IDX 16 12 13 13 10 14 11 15 12 17 9 19 8 20 1 21 2 22 3 23 4 24
REMARK SMILES IDX 6 25 5 26 7 27 25 28 26 29 27 30 28 31 29 32 30 33 31 34
REMARK SMILES IDX 32 35 33 36 91 37 34 38 90 39 35 40 36 41 37 42 84 43 38 44
REMARK SMILES IDX 89 45 83 46 85 47 39 48 88 49 82 50 81 51 40 53 70 54 51 55
REMARK SMILES IDX 69 56 52 57 55 58 68 59 86 60 53 61 54 62 67 64 87 65 56 66
REMARK SMILES IDX 41 67 42 68 50 69 43 70 49 71 44 72 45 73 46 74 47 75 48 76
REMARK SMILES IDX 71 77 72 78 80 79 73 80 79 81 74 82 75 83 76 84 77 85 78 86
REMARK SMILES IDX 57 87 58 88 66 89 59 90 65 91 60 92 61 93 62 94 63 95 64 96
REMARK H PARENT 10 16 13 18 85 52 55 63
REMARK Flexibility Score: inf
ROOT
ATOM      1  C   UNL A   1      40.637  22.501  27.452  1.00  0.00     0.188 C 
ENDROOT
BRANCH   1   2
ATOM      2  O   UNL A   1      39.912  21.368  27.004  1.00  0.00    -0.376 OA
BRANCH   2   3
ATOM      3  C   UNL A   1      39.076  21.481  25.857  1.00  0.00     0.202 C 
BRANCH   3   4
ATOM      4  C   UNL A   1      38.381  20.245  25.253  1.00  0.00     0.261 C 
BRANCH   4   5
ATOM      5  O   UNL A   1      36.997  20.440  24.905  1.00  0.00    -0.463 OA
BRANCH   5   6
ATOM      6  C   UNL A   1      36.616  21.715  24.637  1.00  0.00     0.309 C 
ATOM      7  O   UNL A   1      36.862  22.304  23.591  1.00  0.00    -0.252 OA
BRANCH   6   8
ATOM      8  C   UNL A   1      35.741  22.317  25.733  1.00  0.00     0.101 C 
ATOM      9  C   UNL A   1      33.707  23.225  24.787  1.00  0.00     0.084 C 
ATOM     10  C   UNL A   1      33.325  21.926  25.485  1.00  0.00     0.026 C 
ATOM     11  C   UNL A   1      35.010  23.627  25.443  1.00  0.00     0.040 C 
ATOM     12  C   UNL A   1      34.608  21.358  26.104  1.00  0.00     0.017 C 
BRANCH   9  13
ATOM     13  N   UNL A   1      33.898  23.049  23.356  1.00  0.00    -0.335 N 
ATOM     14  N   UNL A   1      31.849  23.666  22.371  1.00  0.00    -0.334 N 
ATOM     15  C   UNL A   1      33.121  23.270  22.290  1.00  0.00     0.315 C 
ATOM     16  H   UNL A   1      31.456  23.890  21.497  1.00  0.00     0.165 HD
ATOM     17  O   UNL A   1      33.616  23.131  21.169  1.00  0.00    -0.249 OA
ATOM     18  H   UNL A   1      34.786  22.692  23.122  1.00  0.00     0.165 HD
BRANCH  14  19
ATOM     19  C   UNL A   1      30.928  23.837  23.464  1.00  0.00     0.157 C 
BRANCH  19  20
ATOM     20  C   UNL A   1      30.901  25.250  23.956  1.00  0.00     0.015 A 
ATOM     21  C   UNL A   1      30.525  24.728  26.501  1.00  0.00     0.069 C 
ATOM     22  C   UNL A   1      30.679  25.614  25.319  1.00  0.00     0.065 A 
ATOM     23  N   UNL A   1      30.610  26.936  25.483  1.00  0.00    -0.178 NA
ATOM     24  N   UNL A   1      30.830  27.433  24.258  1.00  0.00    -0.272 N 
ATOM     25  C   UNL A   1      31.109  26.471  23.318  1.00  0.00     0.040 A 
ATOM     26  C   UNL A   1      30.722  28.863  24.078  1.00  0.00     0.174 C 
ATOM     27  C   UNL A   1      31.523  26.835  21.935  1.00  0.00     0.067 C 
ENDBRANCH  19  20
ENDBRANCH  14  19
ENDBRANCH   9  13
ENDBRANCH   6   8
ENDBRANCH   5   6
ENDBRANCH   4   5
ENDBRANCH   3   4
ENDBRANCH   2   3
ENDBRANCH   1   2
BRANCH   1  28
ATOM     28  C   UNL A   1      42.109  22.644  27.048  1.00  0.00     0.188 C 
BRANCH  28  29
ATOM     29  O   UNL A   1      42.364  22.639  25.664  1.00  0.00    -0.376 OA
BRANCH  29  30
ATOM     30  C   UNL A   1      43.488  23.355  25.171  1.00  0.00     0.202 C 
BRANCH  30  31
ATOM     31  C   UNL A   1      43.551  24.896  25.024  1.00  0.00     0.261 C 
BRANCH  31  32
ATOM     32  O   UNL A   1      42.430  25.679  25.457  1.00  0.00    -0.460 OA
BRANCH  32  33
ATOM     33  C   UNL A   1      42.557  27.027  25.402  1.00  0.00     0.338 C 
ATOM     34  O   UNL A   1      42.544  27.722  24.396  1.00  0.00    -0.246 OA
BRANCH  33  35
ATOM     35  C   UNL A   1      42.445  27.548  26.784  1.00  0.00     0.060 A 
ATOM     36  C   UNL A   1      41.748  26.795  27.745  1.00  0.00     0.016 A 
ATOM     37  C   UNL A   1      43.045  28.756  27.141  1.00  0.00     0.016 A 
ATOM     38  C   UNL A   1      41.638  27.255  29.058  1.00  0.00     0.010 A 
ATOM     39  C   UNL A   1      42.904  29.231  28.449  1.00  0.00     0.010 A 
ATOM     40  C   UNL A   1      42.180  28.497  29.408  1.00  0.00    -0.014 A 
BRANCH  40  41
ATOM     41  C   UNL A   1      41.833  29.126  30.707  1.00  0.00     0.031 A 
ATOM     42  C   UNL A   1      40.623  30.020  30.762  1.00  0.00     0.074 A 
ATOM     43  C   UNL A   1      42.568  28.917  31.814  1.00  0.00     0.049 A 
ATOM     44  N   UNL A   1      40.176  30.753  31.749  1.00  0.00    -0.248 NA
ATOM     45  C   UNL A   1      39.812  30.100  29.536  1.00  0.00     0.031 C 
ATOM     46  C   UNL A   1      43.725  28.028  31.910  1.00  0.00     0.029 A 
ATOM     47  N   UNL A   1      42.452  29.455  33.073  1.00  0.00    -0.354 N 
ATOM     48  C   UNL A   1      39.043  31.392  31.259  1.00  0.00     0.074 A 
ATOM     49  C   UNL A   1      38.885  30.982  29.881  1.00  0.00     0.031 C 
ATOM     50  C   UNL A   1      44.220  28.093  33.159  1.00  0.00     0.029 A 
ATOM     51  C   UNL A   1      43.445  29.059  33.937  1.00  0.00     0.049 A 
ATOM     52  H   UNL A   1      41.725  30.067  33.331  1.00  0.00     0.167 HD
ATOM     53  C   UNL A   1      38.207  32.244  31.898  1.00  0.00     0.031 A 
ATOM     54  C   UNL A   1      43.714  29.452  35.199  1.00  0.00     0.031 A 
ATOM     55  C   UNL A   1      38.378  32.667  33.263  1.00  0.00     0.049 A 
ATOM     56  C   UNL A   1      42.824  30.476  35.860  1.00  0.00     0.074 A 
ATOM     57  C   UNL A   1      37.581  33.523  34.003  1.00  0.00     0.029 A 
ATOM     58  N   UNL A   1      39.419  32.274  34.090  1.00  0.00    -0.354 N 
ATOM     59  N   UNL A   1      41.749  31.065  35.390  1.00  0.00    -0.248 NA
ATOM     60  C   UNL A   1      43.184  30.887  37.226  1.00  0.00     0.031 C 
ATOM     61  C   UNL A   1      38.176  33.699  35.256  1.00  0.00     0.029 A 
ATOM     62  C   UNL A   1      39.302  32.893  35.323  1.00  0.00     0.049 A 
ATOM     63  H   UNL A   1      40.135  31.648  33.839  1.00  0.00     0.167 HD
ATOM     64  C   UNL A   1      41.286  31.886  36.415  1.00  0.00     0.074 A 
ATOM     65  C   UNL A   1      42.190  31.710  37.532  1.00  0.00     0.031 C 
ATOM     66  C   UNL A   1      40.207  32.708  36.430  1.00  0.00     0.031 A 
BRANCH  53  67
ATOM     67  C   UNL A   1      37.053  32.809  31.111  1.00  0.00    -0.014 A 
ATOM     68  C   UNL A   1      35.734  32.373  31.333  1.00  0.00     0.010 A 
ATOM     69  C   UNL A   1      37.288  33.819  30.161  1.00  0.00     0.010 A 
ATOM     70  C   UNL A   1      34.678  32.909  30.593  1.00  0.00     0.020 A 
ATOM     71  C   UNL A   1      36.231  34.381  29.441  1.00  0.00     0.020 A 
ATOM     72  C   UNL A   1      34.933  33.911  29.651  1.00  0.00     0.054 A 
BRANCH  72  73
ATOM     73  S   UNL A   1      33.539  34.608  28.724  1.00  0.00     0.124 S 
ATOM     74  O   UNL A   1      33.166  33.492  27.857  1.00  0.00    -0.237 OA
ATOM     75  O   UNL A   1      32.582  34.928  29.781  1.00  0.00    -0.237 OA
ATOM     76  O   UNL A   1      34.117  35.761  28.040  1.00  0.00    -0.744 OA
ENDBRANCH  72  73
ENDBRANCH  53  67
BRANCH  54  77
ATOM     77  C   UNL A   1      44.891  28.894  35.923  1.00  0.00    -0.014 A 
ATOM     78  C   UNL A   1      44.765  27.738  36.713  1.00  0.00     0.010 A 
ATOM     79  C   UNL A   1      46.146  29.526  35.836  1.00  0.00     0.010 A 
ATOM     80  C   UNL A   1      45.864  27.233  37.414  1.00  0.00     0.020 A 
ATOM     81  C   UNL A   1      47.256  29.006  36.510  1.00  0.00     0.020 A 
ATOM     82  C   UNL A   1      47.104  27.869  37.305  1.00  0.00     0.054 A 
BRANCH  82  83
ATOM     83  S   UNL A   1      48.527  27.164  38.184  1.00  0.00     0.124 S 
ATOM     84  O   UNL A   1      49.604  27.351  37.219  1.00  0.00    -0.237 OA
ATOM     85  O   UNL A   1      48.598  27.996  39.383  1.00  0.00    -0.237 OA
ATOM     86  O   UNL A   1      48.131  25.776  38.420  1.00  0.00    -0.744 OA
ENDBRANCH  82  83
ENDBRANCH  54  77
BRANCH  66  87
ATOM     87  C   UNL A   1      39.907  33.450  37.709  1.00  0.00    -0.014 A 
ATOM     88  C   UNL A   1      40.555  34.656  38.030  1.00  0.00     0.010 A 
ATOM     89  C   UNL A   1      38.909  32.960  38.574  1.00  0.00     0.010 A 
ATOM     90  C   UNL A   1      40.232  35.340  39.206  1.00  0.00     0.020 A 
ATOM     91  C   UNL A   1      38.561  33.659  39.732  1.00  0.00     0.020 A 
ATOM     92  C   UNL A   1      39.235  34.839  40.049  1.00  0.00     0.054 A 
BRANCH  92  93
ATOM     93  S   UNL A   1      38.804  35.772  41.544  1.00  0.00     0.124 S 
ATOM     94  O   UNL A   1      38.871  37.152  41.072  1.00  0.00    -0.237 OA
ATOM     95  O   UNL A   1      37.465  35.276  41.853  1.00  0.00    -0.237 OA
ATOM     96  O   UNL A   1      39.840  35.391  42.502  1.00  0.00    -0.744 OA
ENDBRANCH  92  93
ENDBRANCH  66  87
ENDBRANCH  40  41
ENDBRANCH  33  35
ENDBRANCH  32  33
ENDBRANCH  31  32
ENDBRANCH  30  31
ENDBRANCH  29  30
ENDBRANCH  28  29
ENDBRANCH   1  28
TORSDOF 23
ENDMDL
MODEL 3
REMARK VINA RESULT:      -9.0      1.377      8.141
REMARK SMILES Cc1nn(C)c(C)c1CNC(=O)N[C@H]1CC[C@@H](C(=O)OCCOCCOCCOC(=O)c2ccc(-c3c4nc(c(-c5ccc(S(=O)(=O)[O-])cc5)c5ccc([nH]5)c(-c5ccc(S(=O)(=O)[O-])cc5)c5nc(c(-c6ccc(S(=O)(=O)[O-])cc6)c6ccc3[nH]6)C=C5)C=C4)cc2)C1
REMARK SMILES IDX 24 1 23 2 22 3 21 4 20 5 18 6 19 7 17 8 14 9 15 10 92 11
REMARK SMILES IDX 16 12 13 13 10 14 11 15 12 17 9 19 8 20 1 21 2 22 3 23 4 24
REMARK SMILES IDX 6 25 5 26 7 27 25 28 26 29 27 30 28 31 29 32 30 33 31 34
REMARK SMILES IDX 32 35 33 36 91 37 34 38 90 39 35 40 36 41 37 42 84 43 38 44
REMARK SMILES IDX 89 45 83 46 85 47 39 48 88 49 82 50 81 51 40 53 70 54 51 55
REMARK SMILES IDX 69 56 52 57 55 58 68 59 86 60 53 61 54 62 67 64 87 65 56 66
REMARK SMILES IDX 41 67 42 68 50 69 43 70 49 71 44 72 45 73 46 74 47 75 48 76
REMARK SMILES IDX 71 77 72 78 80 79 73 80 79 81 74 82 75 83 76 84 77 85 78 86
REMARK SMILES IDX 57 87 58 88 66 89 59 90 65 91 60 92 61 93 62 94 63 95 64 96
REMARK H PARENT 10 16 13 18 85 52 55 63
REMARK Flexibility Score: inf
ROOT
ATOM      1  C   UNL A   1      37.966  21.747  25.358  1.00  0.00     0.188 C 
ENDROOT
BRANCH   1   2
ATOM      2  O   UNL A   1      36.602  21.968  25.677  1.00  0.00    -0.376 OA
BRANCH   2   3
ATOM      3  C   UNL A   1      35.641  20.959  25.383  1.00  0.00     0.202 C 
BRANCH   3   4
ATOM      4  C   UNL A   1      34.130  21.254  25.449  1.00  0.00     0.261 C 
BRANCH   4   5
ATOM      5  O   UNL A   1      33.719  22.052  26.575  1.00  0.00    -0.463 OA
BRANCH   5   6
ATOM      6  C   UNL A   1      32.968  23.148  26.297  1.00  0.00     0.309 C 
ATOM      7  O   UNL A   1      32.345  23.790  27.134  1.00  0.00    -0.252 OA
BRANCH   6   8
ATOM      8  C   UNL A   1      33.065  23.580  24.836  1.00  0.00     0.101 C 
ATOM      9  C   UNL A   1      32.379  25.888  24.590  1.00  0.00     0.084 C 
ATOM     10  C   UNL A   1      33.898  25.865  24.467  1.00  0.00     0.026 C 
ATOM     11  C   UNL A   1      31.961  24.470  24.266  1.00  0.00     0.040 C 
ATOM     12  C   UNL A   1      34.334  24.402  24.601  1.00  0.00     0.017 C 
BRANCH   9  13
ATOM     13  N   UNL A   1      31.937  26.249  25.928  1.00  0.00    -0.335 N 
ATOM     14  N   UNL A   1      31.511  28.564  25.843  1.00  0.00    -0.334 N 
ATOM     15  C   UNL A   1      31.520  27.392  26.482  1.00  0.00     0.315 C 
ATOM     16  H   UNL A   1      31.070  29.280  26.354  1.00  0.00     0.165 HD
ATOM     17  O   UNL A   1      31.090  27.357  27.638  1.00  0.00    -0.249 OA
ATOM     18  H   UNL A   1      31.947  25.492  26.558  1.00  0.00     0.165 HD
BRANCH  14  19
ATOM     19  C   UNL A   1      32.006  29.004  24.565  1.00  0.00     0.157 C 
BRANCH  19  20
ATOM     20  C   UNL A   1      30.895  29.334  23.619  1.00  0.00     0.015 A 
ATOM     21  C   UNL A   1      31.105  27.220  22.078  1.00  0.00     0.069 C 
ATOM     22  C   UNL A   1      30.544  28.531  22.492  1.00  0.00     0.065 A 
ATOM     23  N   UNL A   1      29.582  29.089  21.755  1.00  0.00    -0.178 NA
ATOM     24  N   UNL A   1      29.272  30.215  22.413  1.00  0.00    -0.272 N 
ATOM     25  C   UNL A   1      29.959  30.367  23.593  1.00  0.00     0.040 A 
ATOM     26  C   UNL A   1      28.312  31.110  21.808  1.00  0.00     0.174 C 
ATOM     27  C   UNL A   1      29.648  31.478  24.534  1.00  0.00     0.067 C 
ENDBRANCH  19  20
ENDBRANCH  14  19
ENDBRANCH   9  13
ENDBRANCH   6   8
ENDBRANCH   5   6
ENDBRANCH   4   5
ENDBRANCH   3   4
ENDBRANCH   2   3
ENDBRANCH   1   2
BRANCH   1  28
ATOM     28  C   UNL A   1      39.037  22.125  26.388  1.00  0.00     0.188 C 
BRANCH  28  29
ATOM     29  O   UNL A   1      40.197  21.331  26.380  1.00  0.00    -0.376 OA
BRANCH  29  30
ATOM     30  C   UNL A   1      40.944  21.195  27.582  1.00  0.00     0.202 C 
BRANCH  30  31
ATOM     31  C   UNL A   1      41.564  22.376  28.368  1.00  0.00     0.261 C 
BRANCH  31  32
ATOM     32  O   UNL A   1      42.570  23.178  27.733  1.00  0.00    -0.460 OA
BRANCH  32  33
ATOM     33  C   UNL A   1      42.144  24.201  26.952  1.00  0.00     0.338 C 
ATOM     34  O   UNL A   1      41.803  24.133  25.781  1.00  0.00    -0.246 OA
BRANCH  33  35
ATOM     35  C   UNL A   1      41.905  25.370  27.831  1.00  0.00     0.060 A 
ATOM     36  C   UNL A   1      43.005  26.032  28.404  1.00  0.00     0.016 A 
ATOM     37  C   UNL A   1      40.610  25.829  28.069  1.00  0.00     0.016 A 
ATOM     38  C   UNL A   1      42.810  27.144  29.225  1.00  0.00     0.010 A 
ATOM     39  C   UNL A   1      40.415  26.922  28.920  1.00  0.00     0.010 A 
ATOM     40  C   UNL A   1      41.510  27.570  29.522  1.00  0.00    -0.014 A 
BRANCH  40  41
ATOM     41  C   UNL A   1      41.275  28.558  30.604  1.00  0.00     0.031 A 
ATOM     42  C   UNL A   1      42.136  28.479  31.837  1.00  0.00     0.074 A 
ATOM     43  C   UNL A   1      40.324  29.505  30.506  1.00  0.00     0.049 A 
ATOM     44  N   UNL A   1      42.059  29.163  32.949  1.00  0.00    -0.248 NA
ATOM     45  C   UNL A   1      43.226  27.490  31.811  1.00  0.00     0.031 C 
ATOM     46  C   UNL A   1      39.465  29.728  29.344  1.00  0.00     0.029 A 
ATOM     47  N   UNL A   1      39.913  30.449  31.415  1.00  0.00    -0.354 N 
ATOM     48  C   UNL A   1      43.078  28.677  33.760  1.00  0.00     0.074 A 
ATOM     49  C   UNL A   1      43.743  27.625  33.023  1.00  0.00     0.031 C 
ATOM     50  C   UNL A   1      38.620  30.738  29.616  1.00  0.00     0.029 A 
ATOM     51  C   UNL A   1      38.846  31.202  30.984  1.00  0.00     0.049 A 
ATOM     52  H   UNL A   1      40.343  30.575  32.292  1.00  0.00     0.167 HD
ATOM     53  C   UNL A   1      43.432  29.072  35.006  1.00  0.00     0.031 A 
ATOM     54  C   UNL A   1      38.119  32.137  31.631  1.00  0.00     0.031 A 
ATOM     55  C   UNL A   1      42.756  30.106  35.745  1.00  0.00     0.049 A 
ATOM     56  C   UNL A   1      38.470  32.494  33.055  1.00  0.00     0.074 A 
ATOM     57  C   UNL A   1      43.043  30.583  37.011  1.00  0.00     0.029 A 
ATOM     58  N   UNL A   1      41.656  30.815  35.289  1.00  0.00    -0.354 N 
ATOM     59  N   UNL A   1      39.444  32.036  33.806  1.00  0.00    -0.248 NA
ATOM     60  C   UNL A   1      37.623  33.499  33.717  1.00  0.00     0.031 C 
ATOM     61  C   UNL A   1      42.076  31.534  37.348  1.00  0.00     0.029 A 
ATOM     62  C   UNL A   1      41.232  31.706  36.261  1.00  0.00     0.049 A 
ATOM     63  H   UNL A   1      41.238  30.703  34.405  1.00  0.00     0.167 HD
ATOM     64  C   UNL A   1      39.348  32.723  35.014  1.00  0.00     0.074 A 
ATOM     65  C   UNL A   1      38.229  33.634  34.888  1.00  0.00     0.031 C 
ATOM     66  C   UNL A   1      40.119  32.611  36.124  1.00  0.00     0.031 A 
BRANCH  53  67
ATOM     67  C   UNL A   1      44.580  28.352  35.665  1.00  0.00    -0.014 A 
ATOM     68  C   UNL A   1      45.878  28.893  35.667  1.00  0.00     0.010 A 
ATOM     69  C   UNL A   1      44.346  27.133  36.327  1.00  0.00     0.010 A 
ATOM     70  C   UNL A   1      46.929  28.210  36.284  1.00  0.00     0.020 A 
ATOM     71  C   UNL A   1      45.388  26.461  36.972  1.00  0.00     0.020 A 
ATOM     72  C   UNL A   1      46.677  26.997  36.934  1.00  0.00     0.054 A 
BRANCH  72  73
ATOM     73  S   UNL A   1      48.054  26.146  37.750  1.00  0.00     0.124 S 
ATOM     74  O   UNL A   1      48.424  27.103  38.791  1.00  0.00    -0.237 OA
ATOM     75  O   UNL A   1      47.430  24.914  38.224  1.00  0.00    -0.237 OA
ATOM     76  O   UNL A   1      49.038  25.974  36.685  1.00  0.00    -0.744 OA
ENDBRANCH  72  73
ENDBRANCH  53  67
BRANCH  54  77
ATOM     77  C   UNL A   1      36.967  32.793  30.949  1.00  0.00    -0.014 A 
ATOM     78  C   UNL A   1      37.181  33.762  29.953  1.00  0.00     0.010 A 
ATOM     79  C   UNL A   1      35.646  32.462  31.304  1.00  0.00     0.010 A 
ATOM     80  C   UNL A   1      36.099  34.397  29.335  1.00  0.00     0.020 A 
ATOM     81  C   UNL A   1      34.561  33.071  30.666  1.00  0.00     0.020 A 
ATOM     82  C   UNL A   1      34.795  34.045  29.694  1.00  0.00     0.054 A 
BRANCH  82  83
ATOM     83  S   UNL A   1      33.409  34.847  28.841  1.00  0.00     0.124 S 
ATOM     84  O   UNL A   1      33.038  33.843  27.850  1.00  0.00    -0.237 OA
ATOM     85  O   UNL A   1      32.450  35.051  29.925  1.00  0.00    -0.237 OA
ATOM     86  O   UNL A   1      33.999  36.071  28.302  1.00  0.00    -0.744 OA
ENDBRANCH  82  83
ENDBRANCH  54  77
BRANCH  66  87
ATOM     87  C   UNL A   1      39.817  33.528  37.283  1.00  0.00    -0.014 A 
ATOM     88  C   UNL A   1      38.814  33.225  38.220  1.00  0.00     0.010 A 
ATOM     89  C   UNL A   1      40.601  34.683  37.472  1.00  0.00     0.010 A 
ATOM     90  C   UNL A   1      38.579  34.076  39.305  1.00  0.00     0.020 A 
ATOM     91  C   UNL A   1      40.391  35.518  38.573  1.00  0.00     0.020 A 
ATOM     92  C   UNL A   1      39.371  35.216  39.476  1.00  0.00     0.054 A 
BRANCH  92  93
ATOM     93  S   UNL A   1      39.076  36.277  40.918  1.00  0.00     0.124 S 
ATOM     94  O   UNL A   1      40.307  36.102  41.682  1.00  0.00    -0.237 OA
ATOM     95  O   UNL A   1      38.893  37.594  40.312  1.00  0.00    -0.237 OA
ATOM     96  O   UNL A   1      37.877  35.707  41.529  1.00  0.00    -0.744 OA
ENDBRANCH  92  93
ENDBRANCH  66  87
ENDBRANCH  40  41
ENDBRANCH  33  35
ENDBRANCH  32  33
ENDBRANCH  31  32
ENDBRANCH  30  31
ENDBRANCH  29  30
ENDBRANCH  28  29
ENDBRANCH   1  28
TORSDOF 23
ENDMDL
