MODEL 1
REMARK VINA RESULT:      -9.0      0.000      0.000
REMARK SMILES CC(C)CCn1nc(C(=O)OCCOCCOCCOC(=O)c2ccc(-c3c4nc(c(-c5ccc(S(=O)(=O)[O-])cc5)c5ccc([nH]5)c(-c5ccc(S(=O)(=O)[O-])cc5)c5nc(c(-c6ccc(S(=O)(=O)[O-])cc6)c6ccc3[nH]6)C=C5)C=C4)cc2)c2c1CCN(C(=O)[C@@H]1CCc3nn(C)c(=O)n3C1)C2
REMARK SMILES IDX 15 1 14 2 13 3 12 4 11 5 9 6 10 7 8 8 6 9 7 10 84 11 83 12
REMARK SMILES IDX 85 13 101 14 86 15 87 16 5 17 4 18 2 19 1 20 3 21 88 22
REMARK SMILES IDX 89 23 90 24 91 25 100 26 92 27 99 28 93 29 97 30 94 31 95 32
REMARK SMILES IDX 98 33 96 34 16 35 17 36 18 37 19 38 20 39 21 40 22 41 23 42
REMARK SMILES IDX 24 43 82 44 25 45 81 46 26 47 27 48 28 49 75 50 29 51 80 52
REMARK SMILES IDX 74 53 76 54 30 55 79 56 73 57 72 58 31 60 61 61 42 62 60 63
REMARK SMILES IDX 43 64 46 65 59 66 77 67 44 68 45 69 58 71 78 72 47 73 32 74
REMARK SMILES IDX 33 75 41 76 34 77 40 78 35 79 36 80 37 81 38 82 39 83 62 84
REMARK SMILES IDX 63 85 71 86 64 87 70 88 65 89 66 90 67 91 68 92 69 93 48 94
REMARK SMILES IDX 49 95 57 96 50 97 56 98 51 99 52 100 53 101 54 102 55 103
REMARK H PARENT 76 59 46 70
REMARK Flexibility Score: inf
ROOT
ATOM      1  C   UNL A   1      44.039  42.349  25.164  1.00  0.00     0.188 C 
ENDROOT
BRANCH   1   2
ATOM      2  O   UNL A   1      43.365  41.939  23.981  1.00  0.00    -0.376 OA
BRANCH   2   3
ATOM      3  C   UNL A   1      41.942  41.926  23.951  1.00  0.00     0.202 C 
BRANCH   3   4
ATOM      4  C   UNL A   1      41.220  42.735  22.862  1.00  0.00     0.261 C 
BRANCH   4   5
ATOM      5  O   UNL A   1      42.099  43.546  22.064  1.00  0.00    -0.458 OA
BRANCH   5   6
ATOM      6  C   UNL A   1      41.866  43.537  20.716  1.00  0.00     0.359 C 
ATOM      7  O   UNL A   1      40.775  43.293  20.213  1.00  0.00    -0.244 OA
BRANCH   6   8
ATOM      8  C   UNL A   1      43.052  43.946  19.937  1.00  0.00     0.175 A 
ATOM      9  N   UNL A   1      44.154  44.857  18.321  1.00  0.00    -0.268 N 
ATOM     10  N   UNL A   1      42.907  44.556  18.739  1.00  0.00    -0.165 NA
ATOM     11  C   UNL A   1      45.089  44.339  19.157  1.00  0.00     0.046 A 
ATOM     12  C   UNL A   1      44.433  43.844  20.273  1.00  0.00     0.028 A 
ATOM     13  C   UNL A   1      46.545  44.204  18.979  1.00  0.00     0.078 C 
ATOM     14  C   UNL A   1      45.150  43.273  21.478  1.00  0.00     0.159 C 
ATOM     15  C   UNL A   1      46.929  42.970  19.794  1.00  0.00     0.126 C 
ATOM     16  N   UNL A   1      46.610  43.162  21.196  1.00  0.00    -0.338 N 
BRANCH   9  17
ATOM     17  C   UNL A   1      44.284  45.763  17.190  1.00  0.00     0.145 C 
BRANCH  17  18
ATOM     18  C   UNL A   1      44.546  47.253  17.448  1.00  0.00     0.027 C 
BRANCH  18  19
ATOM     19  C   UNL A   1      43.459  48.205  16.909  1.00  0.00    -0.016 C 
ATOM     20  C   UNL A   1      42.209  47.453  16.461  1.00  0.00     0.007 C 
ATOM     21  C   UNL A   1      43.085  49.239  17.978  1.00  0.00     0.007 C 
ENDBRANCH  18  19
ENDBRANCH  17  18
ENDBRANCH   9  17
BRANCH  16  22
ATOM     22  C   UNL A   1      47.525  43.283  22.223  1.00  0.00     0.227 C 
ATOM     23  O   UNL A   1      47.737  42.320  22.972  1.00  0.00    -0.274 OA
BRANCH  22  24
ATOM     24  C   UNL A   1      48.344  44.582  22.494  1.00  0.00     0.099 C 
ATOM     25  C   UNL A   1      47.566  45.900  22.644  1.00  0.00     0.023 C 
ATOM     26  C   UNL A   1      49.641  44.726  21.698  1.00  0.00     0.142 C 
ATOM     27  C   UNL A   1      47.597  46.891  21.476  1.00  0.00     0.078 C 
ATOM     28  N   UNL A   1      49.525  45.626  20.573  1.00  0.00    -0.278 N 
ATOM     29  C   UNL A   1      48.606  46.595  20.408  1.00  0.00     0.133 A 
ATOM     30  C   UNL A   1      50.111  45.442  19.346  1.00  0.00     0.345 A 
ATOM     31  N   UNL A   1      48.545  47.096  19.208  1.00  0.00    -0.155 NA
ATOM     32  N   UNL A   1      49.485  46.372  18.507  1.00  0.00    -0.216 N 
ATOM     33  O   UNL A   1      50.910  44.576  19.029  1.00  0.00    -0.246 OA
ATOM     34  C   UNL A   1      49.522  46.345  17.069  1.00  0.00     0.179 C 
ENDBRANCH  22  24
ENDBRANCH  16  22
ENDBRANCH   6   8
ENDBRANCH   5   6
ENDBRANCH   4   5
ENDBRANCH   3   4
ENDBRANCH   2   3
ENDBRANCH   1   2
BRANCH   1  35
ATOM     35  C   UNL A   1      44.125  41.408  26.381  1.00  0.00     0.188 C 
BRANCH  35  36
ATOM     36  O   UNL A   1      44.302  40.029  26.077  1.00  0.00    -0.376 OA
BRANCH  36  37
ATOM     37  C   UNL A   1      45.660  39.593  25.994  1.00  0.00     0.202 C 
BRANCH  37  38
ATOM     38  C   UNL A   1      45.888  38.277  26.740  1.00  0.00     0.261 C 
BRANCH  38  39
ATOM     39  O   UNL A   1      44.855  37.984  27.676  1.00  0.00    -0.460 OA
BRANCH  39  40
ATOM     40  C   UNL A   1      44.021  36.981  27.334  1.00  0.00     0.338 C 
ATOM     41  O   UNL A   1      43.120  37.026  26.515  1.00  0.00    -0.246 OA
BRANCH  40  42
ATOM     42  C   UNL A   1      44.379  35.784  28.110  1.00  0.00     0.060 A 
ATOM     43  C   UNL A   1      43.956  34.556  27.598  1.00  0.00     0.016 A 
ATOM     44  C   UNL A   1      44.886  35.910  29.413  1.00  0.00     0.016 A 
ATOM     45  C   UNL A   1      43.765  33.518  28.478  1.00  0.00     0.010 A 
ATOM     46  C   UNL A   1      44.683  34.877  30.298  1.00  0.00     0.010 A 
ATOM     47  C   UNL A   1      44.007  33.749  29.836  1.00  0.00    -0.014 A 
BRANCH  47  48
ATOM     48  C   UNL A   1      43.292  32.904  30.770  1.00  0.00     0.031 A 
ATOM     49  C   UNL A   1      43.658  31.482  30.803  1.00  0.00     0.074 A 
ATOM     50  C   UNL A   1      42.378  33.437  31.604  1.00  0.00     0.049 A 
ATOM     51  N   UNL A   1      42.921  30.467  30.499  1.00  0.00    -0.248 NA
ATOM     52  C   UNL A   1      45.045  31.156  31.155  1.00  0.00     0.031 C 
ATOM     53  C   UNL A   1      42.161  34.861  31.894  1.00  0.00     0.029 A 
ATOM     54  N   UNL A   1      41.535  32.808  32.466  1.00  0.00    -0.354 N 
ATOM     55  C   UNL A   1      43.692  29.351  30.793  1.00  0.00     0.074 A 
ATOM     56  C   UNL A   1      45.029  29.828  31.054  1.00  0.00     0.031 C 
ATOM     57  C   UNL A   1      41.428  34.969  33.023  1.00  0.00     0.029 A 
ATOM     58  C   UNL A   1      41.026  33.640  33.451  1.00  0.00     0.049 A 
ATOM     59  H   UNL A   1      41.308  31.852  32.397  1.00  0.00     0.167 HD
ATOM     60  C   UNL A   1      43.144  28.128  31.021  1.00  0.00     0.031 A 
ATOM     61  C   UNL A   1      40.417  33.249  34.595  1.00  0.00     0.031 A 
ATOM     62  C   UNL A   1      41.775  28.039  30.593  1.00  0.00     0.049 A 
ATOM     63  C   UNL A   1      39.950  31.853  34.409  1.00  0.00     0.074 A 
ATOM     64  C   UNL A   1      41.124  28.163  29.383  1.00  0.00     0.029 A 
ATOM     65  N   UNL A   1      40.803  28.106  31.564  1.00  0.00    -0.354 N 
ATOM     66  N   UNL A   1      39.002  31.501  33.585  1.00  0.00    -0.248 NA
ATOM     67  C   UNL A   1      40.801  30.766  34.872  1.00  0.00     0.031 C 
ATOM     68  C   UNL A   1      39.847  28.710  29.695  1.00  0.00     0.029 A 
ATOM     69  C   UNL A   1      39.784  28.889  31.079  1.00  0.00     0.049 A 
ATOM     70  H   UNL A   1      40.832  27.672  32.446  1.00  0.00     0.167 HD
ATOM     71  C   UNL A   1      39.372  30.246  33.121  1.00  0.00     0.074 A 
ATOM     72  C   UNL A   1      40.412  29.797  34.039  1.00  0.00     0.031 C 
ATOM     73  C   UNL A   1      39.001  29.809  31.882  1.00  0.00     0.031 A 
BRANCH  60  74
ATOM     74  C   UNL A   1      43.760  27.130  31.960  1.00  0.00    -0.014 A 
ATOM     75  C   UNL A   1      44.258  25.917  31.451  1.00  0.00     0.010 A 
ATOM     76  C   UNL A   1      43.626  27.241  33.362  1.00  0.00     0.010 A 
ATOM     77  C   UNL A   1      44.564  24.850  32.305  1.00  0.00     0.020 A 
ATOM     78  C   UNL A   1      43.976  26.203  34.223  1.00  0.00     0.020 A 
ATOM     79  C   UNL A   1      44.405  24.999  33.685  1.00  0.00     0.054 A 
BRANCH  79  80
ATOM     80  S   UNL A   1      44.682  23.580  34.773  1.00  0.00     0.124 S 
ATOM     81  O   UNL A   1      43.544  22.729  34.444  1.00  0.00    -0.237 OA
ATOM     82  O   UNL A   1      45.987  23.095  34.332  1.00  0.00    -0.237 OA
ATOM     83  O   UNL A   1      44.663  24.167  36.110  1.00  0.00    -0.744 OA
ENDBRANCH  79  80
ENDBRANCH  60  74
BRANCH  61  84
ATOM     84  C   UNL A   1      40.540  33.903  35.922  1.00  0.00    -0.014 A 
ATOM     85  C   UNL A   1      39.591  34.844  36.358  1.00  0.00     0.010 A 
ATOM     86  C   UNL A   1      41.465  33.416  36.871  1.00  0.00     0.010 A 
ATOM     87  C   UNL A   1      39.544  35.247  37.703  1.00  0.00     0.020 A 
ATOM     88  C   UNL A   1      41.436  33.826  38.206  1.00  0.00     0.020 A 
ATOM     89  C   UNL A   1      40.460  34.723  38.622  1.00  0.00     0.054 A 
BRANCH  89  90
ATOM     90  S   UNL A   1      40.294  35.127  40.384  1.00  0.00     0.124 S 
ATOM     91  O   UNL A   1      39.003  34.531  40.718  1.00  0.00    -0.237 OA
ATOM     92  O   UNL A   1      41.462  34.476  40.969  1.00  0.00    -0.237 OA
ATOM     93  O   UNL A   1      40.327  36.588  40.407  1.00  0.00    -0.744 OA
ENDBRANCH  89  90
ENDBRANCH  61  84
BRANCH  73  94
ATOM     94  C   UNL A   1      37.892  30.541  31.160  1.00  0.00    -0.014 A 
ATOM     95  C   UNL A   1      36.537  30.427  31.525  1.00  0.00     0.010 A 
ATOM     96  C   UNL A   1      38.251  31.512  30.206  1.00  0.00     0.010 A 
ATOM     97  C   UNL A   1      35.566  31.257  30.947  1.00  0.00     0.020 A 
ATOM     98  C   UNL A   1      37.289  32.352  29.636  1.00  0.00     0.020 A 
ATOM     99  C   UNL A   1      35.950  32.220  30.008  1.00  0.00     0.054 A 
BRANCH  99 100
ATOM    100  S   UNL A   1      34.702  33.360  29.344  1.00  0.00     0.124 S 
ATOM    101  O   UNL A   1      35.520  34.404  28.734  1.00  0.00    -0.237 OA
ATOM    102  O   UNL A   1      33.955  32.519  28.410  1.00  0.00    -0.237 OA
ATOM    103  O   UNL A   1      33.947  33.776  30.526  1.00  0.00    -0.744 OA
ENDBRANCH  99 100
ENDBRANCH  73  94
ENDBRANCH  47  48
ENDBRANCH  40  42
ENDBRANCH  39  40
ENDBRANCH  38  39
ENDBRANCH  37  38
ENDBRANCH  36  37
ENDBRANCH  35  36
ENDBRANCH   1  35
TORSDOF 25
ENDMDL
MODEL 2
REMARK VINA RESULT:      -8.6      9.441     17.394
REMARK SMILES CC(C)CCn1nc(C(=O)OCCOCCOCCOC(=O)c2ccc(-c3c4nc(c(-c5ccc(S(=O)(=O)[O-])cc5)c5ccc([nH]5)c(-c5ccc(S(=O)(=O)[O-])cc5)c5nc(c(-c6ccc(S(=O)(=O)[O-])cc6)c6ccc3[nH]6)C=C5)C=C4)cc2)c2c1CCN(C(=O)[C@@H]1CCc3nn(C)c(=O)n3C1)C2
REMARK SMILES IDX 15 1 14 2 13 3 12 4 11 5 9 6 10 7 8 8 6 9 7 10 84 11 83 12
REMARK SMILES IDX 85 13 101 14 86 15 87 16 5 17 4 18 2 19 1 20 3 21 88 22
REMARK SMILES IDX 89 23 90 24 91 25 100 26 92 27 99 28 93 29 97 30 94 31 95 32
REMARK SMILES IDX 98 33 96 34 16 35 17 36 18 37 19 38 20 39 21 40 22 41 23 42
REMARK SMILES IDX 24 43 82 44 25 45 81 46 26 47 27 48 28 49 75 50 29 51 80 52
REMARK SMILES IDX 74 53 76 54 30 55 79 56 73 57 72 58 31 60 61 61 42 62 60 63
REMARK SMILES IDX 43 64 46 65 59 66 77 67 44 68 45 69 58 71 78 72 47 73 32 74
REMARK SMILES IDX 33 75 41 76 34 77 40 78 35 79 36 80 37 81 38 82 39 83 62 84
REMARK SMILES IDX 63 85 71 86 64 87 70 88 65 89 66 90 67 91 68 92 69 93 48 94
REMARK SMILES IDX 49 95 57 96 50 97 56 98 51 99 52 100 53 101 54 102 55 103
REMARK H PARENT 76 59 46 70
REMARK Flexibility Score: inf
ROOT
ATOM      1  C   UNL A   1      40.474  25.610  26.975  1.00  0.00     0.188 C 
ENDROOT
BRANCH   1   2
ATOM      2  O   UNL A   1      39.690  24.651  27.671  1.00  0.00    -0.376 OA
BRANCH   2   3
ATOM      3  C   UNL A   1      38.319  24.479  27.328  1.00  0.00     0.202 C 
BRANCH   3   4
ATOM      4  C   UNL A   1      37.972  23.857  25.965  1.00  0.00     0.261 C 
BRANCH   4   5
ATOM      5  O   UNL A   1      36.730  23.132  25.959  1.00  0.00    -0.458 OA
BRANCH   5   6
ATOM      6  C   UNL A   1      36.713  21.977  25.227  1.00  0.00     0.359 C 
ATOM      7  O   UNL A   1      37.676  21.227  25.112  1.00  0.00    -0.244 OA
BRANCH   6   8
ATOM      8  C   UNL A   1      35.378  21.684  24.668  1.00  0.00     0.175 A 
ATOM      9  N   UNL A   1      33.558  20.573  24.342  1.00  0.00    -0.268 N 
ATOM     10  N   UNL A   1      34.769  20.506  24.931  1.00  0.00    -0.165 NA
ATOM     11  C   UNL A   1      33.434  21.706  23.604  1.00  0.00     0.046 A 
ATOM     12  C   UNL A   1      34.531  22.509  23.873  1.00  0.00     0.028 A 
ATOM     13  C   UNL A   1      32.410  22.082  22.613  1.00  0.00     0.078 C 
ATOM     14  C   UNL A   1      34.702  23.905  23.311  1.00  0.00     0.159 C 
ATOM     15  C   UNL A   1      33.132  23.005  21.632  1.00  0.00     0.126 C 
ATOM     16  N   UNL A   1      33.631  24.185  22.311  1.00  0.00    -0.338 N 
BRANCH   9  17
ATOM     17  C   UNL A   1      32.581  19.554  24.692  1.00  0.00     0.145 C 
BRANCH  17  18
ATOM     18  C   UNL A   1      32.279  18.428  23.694  1.00  0.00     0.027 C 
BRANCH  18  19
ATOM     19  C   UNL A   1      32.929  17.071  24.030  1.00  0.00    -0.016 C 
ATOM     20  C   UNL A   1      34.235  16.857  23.269  1.00  0.00     0.007 C 
ATOM     21  C   UNL A   1      33.187  16.968  25.538  1.00  0.00     0.007 C 
ENDBRANCH  18  19
ENDBRANCH  17  18
ENDBRANCH   9  17
BRANCH  16  22
ATOM     22  C   UNL A   1      33.174  25.476  22.129  1.00  0.00     0.227 C 
ATOM     23  O   UNL A   1      33.364  26.047  21.047  1.00  0.00    -0.274 OA
BRANCH  22  24
ATOM     24  C   UNL A   1      32.398  26.272  23.222  1.00  0.00     0.099 C 
ATOM     25  C   UNL A   1      33.207  27.202  24.141  1.00  0.00     0.023 C 
ATOM     26  C   UNL A   1      31.300  25.499  23.951  1.00  0.00     0.142 C 
ATOM     27  C   UNL A   1      33.472  26.741  25.577  1.00  0.00     0.078 C 
ATOM     28  N   UNL A   1      31.694  25.047  25.265  1.00  0.00    -0.278 N 
ATOM     29  C   UNL A   1      32.684  25.549  26.026  1.00  0.00     0.133 A 
ATOM     30  C   UNL A   1      31.358  23.839  25.824  1.00  0.00     0.345 A 
ATOM     31  N   UNL A   1      33.016  24.815  27.049  1.00  0.00    -0.155 NA
ATOM     32  N   UNL A   1      32.196  23.714  26.939  1.00  0.00    -0.216 N 
ATOM     33  O   UNL A   1      30.589  23.004  25.376  1.00  0.00    -0.246 OA
ATOM     34  C   UNL A   1      32.447  22.489  27.650  1.00  0.00     0.179 C 
ENDBRANCH  22  24
ENDBRANCH  16  22
ENDBRANCH   6   8
ENDBRANCH   5   6
ENDBRANCH   4   5
ENDBRANCH   3   4
ENDBRANCH   2   3
ENDBRANCH   1   2
BRANCH   1  35
ATOM     35  C   UNL A   1      41.859  25.232  26.415  1.00  0.00     0.188 C 
BRANCH  35  36
ATOM     36  O   UNL A   1      42.193  25.818  25.163  1.00  0.00    -0.376 OA
BRANCH  36  37
ATOM     37  C   UNL A   1      43.590  26.020  24.937  1.00  0.00     0.202 C 
BRANCH  37  38
ATOM     38  C   UNL A   1      44.441  25.501  26.099  1.00  0.00     0.261 C 
BRANCH  38  39
ATOM     39  O   UNL A   1      45.068  24.254  25.812  1.00  0.00    -0.460 OA
BRANCH  39  40
ATOM     40  C   UNL A   1      46.260  24.329  25.185  1.00  0.00     0.338 C 
ATOM     41  O   UNL A   1      46.513  23.965  24.051  1.00  0.00    -0.246 OA
BRANCH  40  42
ATOM     42  C   UNL A   1      47.235  24.943  26.099  1.00  0.00     0.060 A 
ATOM     43  C   UNL A   1      47.242  24.474  27.414  1.00  0.00     0.016 A 
ATOM     44  C   UNL A   1      47.927  26.104  25.721  1.00  0.00     0.016 A 
ATOM     45  C   UNL A   1      47.690  25.321  28.401  1.00  0.00     0.010 A 
ATOM     46  C   UNL A   1      48.363  26.957  26.707  1.00  0.00     0.010 A 
ATOM     47  C   UNL A   1      48.116  26.601  28.032  1.00  0.00    -0.014 A 
BRANCH  47  48
ATOM     48  C   UNL A   1      48.033  27.626  29.052  1.00  0.00     0.031 A 
ATOM     49  C   UNL A   1      49.235  27.863  29.862  1.00  0.00     0.074 A 
ATOM     50  C   UNL A   1      46.910  28.356  29.188  1.00  0.00     0.049 A 
ATOM     51  N   UNL A   1      49.382  27.685  31.132  1.00  0.00    -0.248 NA
ATOM     52  C   UNL A   1      50.447  28.288  29.153  1.00  0.00     0.031 C 
ATOM     53  C   UNL A   1      45.783  28.442  28.249  1.00  0.00     0.029 A 
ATOM     54  N   UNL A   1      46.597  29.277  30.140  1.00  0.00    -0.354 N 
ATOM     55  C   UNL A   1      50.657  28.148  31.424  1.00  0.00     0.074 A 
ATOM     56  C   UNL A   1      51.316  28.371  30.159  1.00  0.00     0.031 C 
ATOM     57  C   UNL A   1      45.041  29.528  28.556  1.00  0.00     0.029 A 
ATOM     58  C   UNL A   1      45.565  30.126  29.773  1.00  0.00     0.049 A 
ATOM     59  H   UNL A   1      47.062  29.335  31.006  1.00  0.00     0.167 HD
ATOM     60  C   UNL A   1      51.024  28.530  32.675  1.00  0.00     0.031 A 
ATOM     61  C   UNL A   1      45.241  31.298  30.367  1.00  0.00     0.031 A 
ATOM     62  C   UNL A   1      50.106  28.086  33.687  1.00  0.00     0.049 A 
ATOM     63  C   UNL A   1      45.827  31.296  31.729  1.00  0.00     0.074 A 
ATOM     64  C   UNL A   1      49.668  26.856  34.134  1.00  0.00     0.029 A 
ATOM     65  N   UNL A   1      49.229  29.016  34.197  1.00  0.00    -0.354 N 
ATOM     66  N   UNL A   1      45.438  30.507  32.692  1.00  0.00    -0.248 NA
ATOM     67  C   UNL A   1      47.125  31.924  31.932  1.00  0.00     0.031 C 
ATOM     68  C   UNL A   1      48.321  27.060  34.548  1.00  0.00     0.029 A 
ATOM     69  C   UNL A   1      48.007  28.405  34.335  1.00  0.00     0.049 A 
ATOM     70  H   UNL A   1      49.439  29.950  34.422  1.00  0.00     0.167 HD
ATOM     71  C   UNL A   1      46.587  30.230  33.420  1.00  0.00     0.074 A 
ATOM     72  C   UNL A   1      47.559  31.224  32.983  1.00  0.00     0.031 C 
ATOM     73  C   UNL A   1      46.731  29.054  34.101  1.00  0.00     0.031 A 
BRANCH  60  74
ATOM     74  C   UNL A   1      52.036  29.612  32.925  1.00  0.00    -0.014 A 
ATOM     75  C   UNL A   1      51.687  30.953  32.689  1.00  0.00     0.010 A 
ATOM     76  C   UNL A   1      53.402  29.323  33.138  1.00  0.00     0.010 A 
ATOM     77  C   UNL A   1      52.668  31.951  32.623  1.00  0.00     0.020 A 
ATOM     78  C   UNL A   1      54.379  30.316  33.126  1.00  0.00     0.020 A 
ATOM     79  C   UNL A   1      54.009  31.620  32.828  1.00  0.00     0.054 A 
BRANCH  79  80
ATOM     80  S   UNL A   1      55.283  32.887  32.619  1.00  0.00     0.124 S 
ATOM     81  O   UNL A   1      55.878  32.930  33.951  1.00  0.00    -0.237 OA
ATOM     82  O   UNL A   1      56.122  32.321  31.567  1.00  0.00    -0.237 OA
ATOM     83  O   UNL A   1      54.523  34.073  32.231  1.00  0.00    -0.744 OA
ENDBRANCH  79  80
ENDBRANCH  60  74
BRANCH  61  84
ATOM     84  C   UNL A   1      44.760  32.524  29.682  1.00  0.00    -0.014 A 
ATOM     85  C   UNL A   1      45.551  33.177  28.720  1.00  0.00     0.010 A 
ATOM     86  C   UNL A   1      43.409  32.918  29.796  1.00  0.00     0.010 A 
ATOM     87  C   UNL A   1      44.996  34.154  27.877  1.00  0.00     0.020 A 
ATOM     88  C   UNL A   1      42.855  33.901  28.973  1.00  0.00     0.020 A 
ATOM     89  C   UNL A   1      43.647  34.500  28.000  1.00  0.00     0.054 A 
BRANCH  89  90
ATOM     90  S   UNL A   1      42.901  35.646  26.807  1.00  0.00     0.124 S 
ATOM     91  O   UNL A   1      43.809  36.788  26.865  1.00  0.00    -0.237 OA
ATOM     92  O   UNL A   1      42.931  34.876  25.567  1.00  0.00    -0.237 OA
ATOM     93  O   UNL A   1      41.565  35.888  27.350  1.00  0.00    -0.744 OA
ENDBRANCH  89  90
ENDBRANCH  61  84
BRANCH  73  94
ATOM     94  C   UNL A   1      45.501  28.213  34.356  1.00  0.00    -0.014 A 
ATOM     95  C   UNL A   1      45.119  27.145  33.522  1.00  0.00     0.010 A 
ATOM     96  C   UNL A   1      44.817  28.391  35.573  1.00  0.00     0.010 A 
ATOM     97  C   UNL A   1      44.077  26.283  33.891  1.00  0.00     0.020 A 
ATOM     98  C   UNL A   1      43.786  27.526  35.954  1.00  0.00     0.020 A 
ATOM     99  C   UNL A   1      43.420  26.476  35.110  1.00  0.00     0.054 A 
BRANCH  99 100
ATOM    100  S   UNL A   1      42.144  25.293  35.629  1.00  0.00     0.124 S 
ATOM    101  O   UNL A   1      42.485  24.101  34.856  1.00  0.00    -0.237 OA
ATOM    102  O   UNL A   1      42.359  25.190  37.071  1.00  0.00    -0.237 OA
ATOM    103  O   UNL A   1      40.891  25.942  35.245  1.00  0.00    -0.744 OA
ENDBRANCH  99 100
ENDBRANCH  73  94
ENDBRANCH  47  48
ENDBRANCH  40  42
ENDBRANCH  39  40
ENDBRANCH  38  39
ENDBRANCH  37  38
ENDBRANCH  36  37
ENDBRANCH  35  36
ENDBRANCH   1  35
TORSDOF 25
ENDMDL
MODEL 3
REMARK VINA RESULT:      -8.5      2.700      8.472
REMARK SMILES CC(C)CCn1nc(C(=O)OCCOCCOCCOC(=O)c2ccc(-c3c4nc(c(-c5ccc(S(=O)(=O)[O-])cc5)c5ccc([nH]5)c(-c5ccc(S(=O)(=O)[O-])cc5)c5nc(c(-c6ccc(S(=O)(=O)[O-])cc6)c6ccc3[nH]6)C=C5)C=C4)cc2)c2c1CCN(C(=O)[C@@H]1CCc3nn(C)c(=O)n3C1)C2
REMARK SMILES IDX 15 1 14 2 13 3 12 4 11 5 9 6 10 7 8 8 6 9 7 10 84 11 83 12
REMARK SMILES IDX 85 13 101 14 86 15 87 16 5 17 4 18 2 19 1 20 3 21 88 22
REMARK SMILES IDX 89 23 90 24 91 25 100 26 92 27 99 28 93 29 97 30 94 31 95 32
REMARK SMILES IDX 98 33 96 34 16 35 17 36 18 37 19 38 20 39 21 40 22 41 23 42
REMARK SMILES IDX 24 43 82 44 25 45 81 46 26 47 27 48 28 49 75 50 29 51 80 52
REMARK SMILES IDX 74 53 76 54 30 55 79 56 73 57 72 58 31 60 61 61 42 62 60 63
REMARK SMILES IDX 43 64 46 65 59 66 77 67 44 68 45 69 58 71 78 72 47 73 32 74
REMARK SMILES IDX 33 75 41 76 34 77 40 78 35 79 36 80 37 81 38 82 39 83 62 84
REMARK SMILES IDX 63 85 71 86 64 87 70 88 65 89 66 90 67 91 68 92 69 93 48 94
REMARK SMILES IDX 49 95 57 96 50 97 56 98 51 99 52 100 53 101 54 102 55 103
REMARK H PARENT 76 59 46 70
REMARK Flexibility Score: inf
ROOT
ATOM      1  C   UNL A   1      43.396  35.040  26.836  1.00  0.00     0.188 C 
ENDROOT
BRANCH   1   2
ATOM      2  O   UNL A   1      42.878  36.362  26.764  1.00  0.00    -0.376 OA
BRANCH   2   3
ATOM      3  C   UNL A   1      42.368  36.983  27.939  1.00  0.00     0.202 C 
BRANCH   3   4
ATOM      4  C   UNL A   1      42.361  38.519  28.018  1.00  0.00     0.261 C 
BRANCH   4   5
ATOM      5  O   UNL A   1      42.937  39.160  26.868  1.00  0.00    -0.458 OA
BRANCH   5   6
ATOM      6  C   UNL A   1      42.570  40.462  26.659  1.00  0.00     0.359 C 
ATOM      7  O   UNL A   1      41.412  40.825  26.482  1.00  0.00    -0.244 OA
BRANCH   6   8
ATOM      8  C   UNL A   1      43.711  41.393  26.763  1.00  0.00     0.175 A 
ATOM      9  N   UNL A   1      45.488  42.275  27.613  1.00  0.00    -0.268 N 
ATOM     10  N   UNL A   1      44.519  41.366  27.847  1.00  0.00    -0.165 NA
ATOM     11  C   UNL A   1      45.242  42.968  26.471  1.00  0.00     0.046 A 
ATOM     12  C   UNL A   1      44.175  42.362  25.828  1.00  0.00     0.028 A 
ATOM     13  C   UNL A   1      45.876  44.194  25.956  1.00  0.00     0.078 C 
ATOM     14  C   UNL A   1      43.668  42.791  24.467  1.00  0.00     0.159 C 
ATOM     15  C   UNL A   1      44.786  44.887  25.138  1.00  0.00     0.126 C 
ATOM     16  N   UNL A   1      44.356  44.044  24.040  1.00  0.00    -0.338 N 
BRANCH   9  17
ATOM     17  C   UNL A   1      46.649  42.263  28.488  1.00  0.00     0.145 C 
BRANCH  17  18
ATOM     18  C   UNL A   1      46.466  42.567  29.982  1.00  0.00     0.027 C 
BRANCH  18  19
ATOM     19  C   UNL A   1      46.919  41.440  30.933  1.00  0.00    -0.016 C 
ATOM     20  C   UNL A   1      45.742  40.797  31.661  1.00  0.00     0.007 C 
ATOM     21  C   UNL A   1      47.692  40.370  30.153  1.00  0.00     0.007 C 
ENDBRANCH  18  19
ENDBRANCH  17  18
ENDBRANCH   9  17
BRANCH  16  22
ATOM     22  C   UNL A   1      44.567  44.295  22.699  1.00  0.00     0.227 C 
ATOM     23  O   UNL A   1      44.844  45.442  22.325  1.00  0.00    -0.274 OA
BRANCH  22  24
ATOM     24  C   UNL A   1      44.495  43.192  21.599  1.00  0.00     0.099 C 
ATOM     25  C   UNL A   1      45.695  43.050  20.648  1.00  0.00     0.023 C 
ATOM     26  C   UNL A   1      43.143  43.038  20.902  1.00  0.00     0.142 C 
ATOM     27  C   UNL A   1      45.548  43.581  19.219  1.00  0.00     0.078 C 
ATOM     28  N   UNL A   1      43.101  43.648  19.593  1.00  0.00    -0.278 N 
ATOM     29  C   UNL A   1      44.154  43.944  18.808  1.00  0.00     0.133 A 
ATOM     30  C   UNL A   1      42.029  44.326  19.067  1.00  0.00     0.345 A 
ATOM     31  N   UNL A   1      43.884  44.719  17.797  1.00  0.00    -0.155 NA
ATOM     32  N   UNL A   1      42.540  44.988  17.944  1.00  0.00    -0.216 N 
ATOM     33  O   UNL A   1      40.912  44.428  19.544  1.00  0.00    -0.246 OA
ATOM     34  C   UNL A   1      41.891  46.072  17.257  1.00  0.00     0.179 C 
ENDBRANCH  22  24
ENDBRANCH  16  22
ENDBRANCH   6   8
ENDBRANCH   5   6
ENDBRANCH   4   5
ENDBRANCH   3   4
ENDBRANCH   2   3
ENDBRANCH   1   2
BRANCH   1  35
ATOM     35  C   UNL A   1      44.721  34.680  26.137  1.00  0.00     0.188 C 
BRANCH  35  36
ATOM     36  O   UNL A   1      45.901  35.116  26.802  1.00  0.00    -0.376 OA
BRANCH  36  37
ATOM     37  C   UNL A   1      46.313  36.451  26.501  1.00  0.00     0.202 C 
BRANCH  37  38
ATOM     38  C   UNL A   1      46.504  37.292  27.764  1.00  0.00     0.261 C 
BRANCH  38  39
ATOM     39  O   UNL A   1      45.952  36.680  28.927  1.00  0.00    -0.460 OA
BRANCH  39  40
ATOM     40  C   UNL A   1      46.715  36.740  30.038  1.00  0.00     0.338 C 
ATOM     41  O   UNL A   1      47.921  36.897  30.089  1.00  0.00    -0.246 OA
BRANCH  40  42
ATOM     42  C   UNL A   1      45.845  36.594  31.215  1.00  0.00     0.060 A 
ATOM     43  C   UNL A   1      46.228  35.641  32.161  1.00  0.00     0.016 A 
ATOM     44  C   UNL A   1      44.579  37.198  31.240  1.00  0.00     0.016 A 
ATOM     45  C   UNL A   1      45.250  35.080  32.948  1.00  0.00     0.010 A 
ATOM     46  C   UNL A   1      43.597  36.629  32.017  1.00  0.00     0.010 A 
ATOM     47  C   UNL A   1      43.928  35.496  32.758  1.00  0.00    -0.014 A 
BRANCH  47  48
ATOM     48  C   UNL A   1      42.896  34.554  33.136  1.00  0.00     0.031 A 
ATOM     49  C   UNL A   1      42.523  34.503  34.556  1.00  0.00     0.074 A 
ATOM     50  C   UNL A   1      42.278  33.812  32.196  1.00  0.00     0.049 A 
ATOM     51  N   UNL A   1      42.659  33.516  35.376  1.00  0.00    -0.248 NA
ATOM     52  C   UNL A   1      41.993  35.735  35.153  1.00  0.00     0.031 C 
ATOM     53  C   UNL A   1      42.325  34.001  30.740  1.00  0.00     0.029 A 
ATOM     54  N   UNL A   1      41.373  32.809  32.355  1.00  0.00    -0.354 N 
ATOM     55  C   UNL A   1      42.065  33.934  36.558  1.00  0.00     0.074 A 
ATOM     56  C   UNL A   1      41.803  35.346  36.413  1.00  0.00     0.031 C 
ATOM     57  C   UNL A   1      41.313  33.306  30.177  1.00  0.00     0.029 A 
ATOM     58  C   UNL A   1      40.640  32.537  31.211  1.00  0.00     0.049 A 
ATOM     59  H   UNL A   1      41.251  32.323  33.203  1.00  0.00     0.167 HD
ATOM     60  C   UNL A   1      41.622  33.059  37.498  1.00  0.00     0.031 A 
ATOM     61  C   UNL A   1      39.493  31.820  31.145  1.00  0.00     0.031 A 
ATOM     62  C   UNL A   1      42.134  31.729  37.312  1.00  0.00     0.049 A 
ATOM     63  C   UNL A   1      39.408  30.983  32.366  1.00  0.00     0.074 A 
ATOM     64  C   UNL A   1      43.391  31.162  37.301  1.00  0.00     0.029 A 
ATOM     65  N   UNL A   1      41.286  30.797  36.760  1.00  0.00    -0.354 N 
ATOM     66  N   UNL A   1      40.212  29.990  32.630  1.00  0.00    -0.248 NA
ATOM     67  C   UNL A   1      38.650  31.482  33.504  1.00  0.00     0.031 C 
ATOM     68  C   UNL A   1      43.315  30.086  36.372  1.00  0.00     0.029 A 
ATOM     69  C   UNL A   1      42.013  30.050  35.866  1.00  0.00     0.049 A 
ATOM     70  H   UNL A   1      40.330  30.685  36.967  1.00  0.00     0.167 HD
ATOM     71  C   UNL A   1      40.358  29.998  34.011  1.00  0.00     0.074 A 
ATOM     72  C   UNL A   1      39.281  30.851  34.497  1.00  0.00     0.031 C 
ATOM     73  C   UNL A   1      41.499  29.543  34.608  1.00  0.00     0.031 A 
BRANCH  60  74
ATOM     74  C   UNL A   1      40.439  33.349  38.379  1.00  0.00    -0.014 A 
ATOM     75  C   UNL A   1      40.570  33.232  39.774  1.00  0.00     0.010 A 
ATOM     76  C   UNL A   1      39.134  33.481  37.857  1.00  0.00     0.010 A 
ATOM     77  C   UNL A   1      39.441  33.203  40.602  1.00  0.00     0.020 A 
ATOM     78  C   UNL A   1      38.008  33.505  38.677  1.00  0.00     0.020 A 
ATOM     79  C   UNL A   1      38.167  33.324  40.043  1.00  0.00     0.054 A 
BRANCH  79  80
ATOM     80  S   UNL A   1      36.709  33.161  41.102  1.00  0.00     0.124 S 
ATOM     81  O   UNL A   1      35.657  32.925  40.120  1.00  0.00    -0.237 OA
ATOM     82  O   UNL A   1      37.058  32.022  41.946  1.00  0.00    -0.237 OA
ATOM     83  O   UNL A   1      36.647  34.445  41.796  1.00  0.00    -0.744 OA
ENDBRANCH  79  80
ENDBRANCH  60  74
BRANCH  61  84
ATOM     84  C   UNL A   1      38.336  32.098  30.258  1.00  0.00    -0.014 A 
ATOM     85  C   UNL A   1      37.375  31.108  29.988  1.00  0.00     0.010 A 
ATOM     86  C   UNL A   1      38.040  33.422  29.869  1.00  0.00     0.010 A 
ATOM     87  C   UNL A   1      36.147  31.443  29.391  1.00  0.00     0.020 A 
ATOM     88  C   UNL A   1      36.830  33.759  29.259  1.00  0.00     0.020 A 
ATOM     89  C   UNL A   1      35.878  32.770  29.043  1.00  0.00     0.054 A 
BRANCH  89  90
ATOM     90  S   UNL A   1      34.233  33.218  28.419  1.00  0.00     0.124 S 
ATOM     91  O   UNL A   1      33.782  31.970  27.811  1.00  0.00    -0.237 OA
ATOM     92  O   UNL A   1      33.533  33.621  29.634  1.00  0.00    -0.237 OA
ATOM     93  O   UNL A   1      34.507  34.303  27.477  1.00  0.00    -0.744 OA
ENDBRANCH  89  90
ENDBRANCH  61  84
BRANCH  73  94
ATOM     94  C   UNL A   1      42.453  28.701  33.792  1.00  0.00    -0.014 A 
ATOM     95  C   UNL A   1      43.441  29.257  32.958  1.00  0.00     0.010 A 
ATOM     96  C   UNL A   1      42.470  27.312  34.018  1.00  0.00     0.010 A 
ATOM     97  C   UNL A   1      44.416  28.445  32.359  1.00  0.00     0.020 A 
ATOM     98  C   UNL A   1      43.448  26.498  33.436  1.00  0.00     0.020 A 
ATOM     99  C   UNL A   1      44.416  27.069  32.608  1.00  0.00     0.054 A 
BRANCH  99 100
ATOM    100  S   UNL A   1      45.744  26.042  31.916  1.00  0.00     0.124 S 
ATOM    101  O   UNL A   1      46.500  25.657  33.105  1.00  0.00    -0.237 OA
ATOM    102  O   UNL A   1      45.012  24.960  31.258  1.00  0.00    -0.237 OA
ATOM    103  O   UNL A   1      46.444  26.946  31.003  1.00  0.00    -0.744 OA
ENDBRANCH  99 100
ENDBRANCH  73  94
ENDBRANCH  47  48
ENDBRANCH  40  42
ENDBRANCH  39  40
ENDBRANCH  38  39
ENDBRANCH  37  38
ENDBRANCH  36  37
ENDBRANCH  35  36
ENDBRANCH   1  35
TORSDOF 25
ENDMDL
