MODEL 1
REMARK VINA RESULT:      -9.3      0.000      0.000
REMARK SMILES C[C@@H](C(=O)OCCOCCOCCOC(=O)c1ccc(-c2c3nc(c(-c4ccc(S(=O)(=O)[O-])cc4)c4ccc([nH]4)c(-c4ccc(S(=O)(=O)[O-])cc4)c4nc(c(-c5ccc(S(=O)(=O)[O-])cc5)c5ccc2[nH]5)C=C4)C=C3)cc1)c1ccc(Cc2ccsc2)cc1F
REMARK SMILES IDX 9 1 8 2 7 3 6 4 5 5 3 6 4 7 2 8 1 9 77 10 78 11 88 12 79 13
REMARK SMILES IDX 87 14 89 15 80 16 81 17 82 18 83 19 86 20 84 21 85 22 10 23
REMARK SMILES IDX 11 24 12 25 13 26 14 27 15 28 16 29 17 30 18 31 76 32 19 33
REMARK SMILES IDX 75 34 20 35 21 36 22 37 69 38 23 39 74 40 68 41 70 42 24 43
REMARK SMILES IDX 73 44 67 45 66 46 25 48 55 49 36 50 54 51 37 52 40 53 53 54
REMARK SMILES IDX 71 55 38 56 39 57 52 59 72 60 41 61 26 62 27 63 35 64 28 65
REMARK SMILES IDX 34 66 29 67 30 68 31 69 32 70 33 71 56 72 57 73 65 74 58 75
REMARK SMILES IDX 64 76 59 77 60 78 61 79 62 80 63 81 42 82 43 83 51 84 44 85
REMARK SMILES IDX 50 86 45 87 46 88 47 89 48 90 49 91
REMARK H PARENT 70 47 40 58
REMARK Flexibility Score: inf
ROOT
ATOM      1  C   UNL A   1      38.737  22.180  25.843  1.00  0.00     0.188 C 
ENDROOT
BRANCH   1   2
ATOM      2  O   UNL A   1      37.393  21.716  25.777  1.00  0.00    -0.376 OA
BRANCH   2   3
ATOM      3  C   UNL A   1      37.117  20.542  25.017  1.00  0.00     0.202 C 
BRANCH   3   4
ATOM      4  C   UNL A   1      35.653  20.109  24.801  1.00  0.00     0.261 C 
BRANCH   4   5
ATOM      5  O   UNL A   1      34.693  21.189  24.814  1.00  0.00    -0.463 OA
BRANCH   5   6
ATOM      6  C   UNL A   1      33.830  21.221  25.864  1.00  0.00     0.313 C 
ATOM      7  O   UNL A   1      33.034  20.318  26.107  1.00  0.00    -0.252 OA
BRANCH   6   8
ATOM      8  C   UNL A   1      33.962  22.469  26.762  1.00  0.00     0.129 C 
ATOM      9  C   UNL A   1      33.463  22.251  28.197  1.00  0.00     0.025 C 
BRANCH   8  10
ATOM     10  C   UNL A   1      33.580  23.777  26.056  1.00  0.00     0.002 A 
ATOM     11  C   UNL A   1      34.576  24.482  25.353  1.00  0.00     0.008 A 
ATOM     12  C   UNL A   1      32.324  24.396  26.129  1.00  0.00     0.127 A 
ATOM     13  C   UNL A   1      34.325  25.721  24.753  1.00  0.00     0.004 A 
ATOM     14  C   UNL A   1      32.077  25.660  25.563  1.00  0.00     0.043 A 
ATOM     15  F   UNL A   1      31.301  23.795  26.754  1.00  0.00    -0.207 F 
ATOM     16  C   UNL A   1      33.081  26.347  24.871  1.00  0.00    -0.041 A 
BRANCH  16  17
ATOM     17  C   UNL A   1      32.835  27.695  24.226  1.00  0.00     0.072 C 
BRANCH  17  18
ATOM     18  C   UNL A   1      32.782  28.746  25.302  1.00  0.00    -0.033 A 
ATOM     19  C   UNL A   1      33.808  29.000  26.280  1.00  0.00     0.015 A 
ATOM     20  C   UNL A   1      31.785  29.702  25.410  1.00  0.00     0.068 A 
ATOM     21  C   UNL A   1      33.531  30.077  27.092  1.00  0.00     0.065 A 
ATOM     22  S   UNL A   1      32.051  30.817  26.680  1.00  0.00    -0.152 S 
ENDBRANCH  17  18
ENDBRANCH  16  17
ENDBRANCH   8  10
ENDBRANCH   6   8
ENDBRANCH   5   6
ENDBRANCH   4   5
ENDBRANCH   3   4
ENDBRANCH   2   3
ENDBRANCH   1   2
BRANCH   1  23
ATOM     23  C   UNL A   1      39.818  21.217  26.361  1.00  0.00     0.188 C 
BRANCH  23  24
ATOM     24  O   UNL A   1      40.837  21.825  27.118  1.00  0.00    -0.376 OA
BRANCH  24  25
ATOM     25  C   UNL A   1      41.926  22.430  26.443  1.00  0.00     0.202 C 
BRANCH  25  26
ATOM     26  C   UNL A   1      42.091  23.961  26.364  1.00  0.00     0.261 C 
BRANCH  26  27
ATOM     27  O   UNL A   1      41.558  24.748  27.438  1.00  0.00    -0.460 OA
BRANCH  27  28
ATOM     28  C   UNL A   1      40.437  25.462  27.184  1.00  0.00     0.338 C 
ATOM     29  O   UNL A   1      39.586  25.213  26.340  1.00  0.00    -0.246 OA
BRANCH  28  30
ATOM     30  C   UNL A   1      40.291  26.466  28.262  1.00  0.00     0.060 A 
ATOM     31  C   UNL A   1      41.050  27.645  28.203  1.00  0.00     0.016 A 
ATOM     32  C   UNL A   1      39.398  26.256  29.313  1.00  0.00     0.016 A 
ATOM     33  C   UNL A   1      40.923  28.611  29.202  1.00  0.00     0.010 A 
ATOM     34  C   UNL A   1      39.296  27.212  30.329  1.00  0.00     0.010 A 
ATOM     35  C   UNL A   1      40.074  28.383  30.290  1.00  0.00    -0.014 A 
BRANCH  35  36
ATOM     36  C   UNL A   1      40.146  29.272  31.477  1.00  0.00     0.031 A 
ATOM     37  C   UNL A   1      41.289  29.083  32.437  1.00  0.00     0.074 A 
ATOM     38  C   UNL A   1      39.237  30.240  31.693  1.00  0.00     0.049 A 
ATOM     39  N   UNL A   1      41.522  29.682  33.576  1.00  0.00    -0.248 NA
ATOM     40  C   UNL A   1      42.301  28.082  32.062  1.00  0.00     0.031 C 
ATOM     41  C   UNL A   1      38.116  30.560  30.813  1.00  0.00     0.029 A 
ATOM     42  N   UNL A   1      39.116  31.130  32.732  1.00  0.00    -0.354 N 
ATOM     43  C   UNL A   1      42.693  29.113  34.065  1.00  0.00     0.074 A 
ATOM     44  C   UNL A   1      43.112  28.114  33.107  1.00  0.00     0.031 C 
ATOM     45  C   UNL A   1      37.414  31.571  31.356  1.00  0.00     0.029 A 
ATOM     46  C   UNL A   1      38.013  31.944  32.636  1.00  0.00     0.049 A 
ATOM     47  H   UNL A   1      39.758  31.179  33.477  1.00  0.00     0.167 HD
ATOM     48  C   UNL A   1      43.358  29.395  35.211  1.00  0.00     0.031 A 
ATOM     49  C   UNL A   1      37.527  32.865  33.495  1.00  0.00     0.031 A 
ATOM     50  C   UNL A   1      42.928  30.375  36.172  1.00  0.00     0.049 A 
ATOM     51  C   UNL A   1      38.241  33.107  34.803  1.00  0.00     0.074 A 
ATOM     52  C   UNL A   1      43.531  30.729  37.367  1.00  0.00     0.029 A 
ATOM     53  N   UNL A   1      41.787  31.154  36.055  1.00  0.00    -0.354 N 
ATOM     54  N   UNL A   1      39.346  32.561  35.255  1.00  0.00    -0.248 NA
ATOM     55  C   UNL A   1      37.638  34.086  35.720  1.00  0.00     0.031 C 
ATOM     56  C   UNL A   1      42.720  31.673  38.002  1.00  0.00     0.029 A 
ATOM     57  C   UNL A   1      41.653  31.967  37.168  1.00  0.00     0.049 A 
ATOM     58  H   UNL A   1      41.163  31.132  35.293  1.00  0.00     0.167 HD
ATOM     59  C   UNL A   1      39.581  33.148  36.495  1.00  0.00     0.074 A 
ATOM     60  C   UNL A   1      38.515  34.104  36.714  1.00  0.00     0.031 C 
ATOM     61  C   UNL A   1      40.589  32.917  37.375  1.00  0.00     0.031 A 
BRANCH  48  62
ATOM     62  C   UNL A   1      44.594  28.588  35.512  1.00  0.00    -0.014 A 
ATOM     63  C   UNL A   1      45.869  29.020  35.102  1.00  0.00     0.010 A 
ATOM     64  C   UNL A   1      44.478  27.391  36.241  1.00  0.00     0.010 A 
ATOM     65  C   UNL A   1      46.999  28.248  35.384  1.00  0.00     0.020 A 
ATOM     66  C   UNL A   1      45.610  26.633  36.552  1.00  0.00     0.020 A 
ATOM     67  C   UNL A   1      46.861  27.059  36.106  1.00  0.00     0.054 A 
BRANCH  67  68
ATOM     68  S   UNL A   1      48.349  26.089  36.475  1.00  0.00     0.124 S 
ATOM     69  O   UNL A   1      49.309  26.635  35.519  1.00  0.00    -0.237 OA
ATOM     70  O   UNL A   1      48.602  26.415  37.876  1.00  0.00    -0.237 OA
ATOM     71  O   UNL A   1      47.937  24.710  36.224  1.00  0.00    -0.744 OA
ENDBRANCH  67  68
ENDBRANCH  48  62
BRANCH  49  72
ATOM     72  C   UNL A   1      36.276  33.607  33.168  1.00  0.00    -0.014 A 
ATOM     73  C   UNL A   1      35.017  32.994  33.306  1.00  0.00     0.010 A 
ATOM     74  C   UNL A   1      36.339  34.933  32.701  1.00  0.00     0.010 A 
ATOM     75  C   UNL A   1      33.849  33.688  32.970  1.00  0.00     0.020 A 
ATOM     76  C   UNL A   1      35.172  35.641  32.398  1.00  0.00     0.020 A 
ATOM     77  C   UNL A   1      33.935  35.010  32.523  1.00  0.00     0.054 A 
BRANCH  77  78
ATOM     78  S   UNL A   1      32.404  35.908  32.150  1.00  0.00     0.124 S 
ATOM     79  O   UNL A   1      31.386  35.017  32.696  1.00  0.00    -0.237 OA
ATOM     80  O   UNL A   1      32.597  37.167  32.866  1.00  0.00    -0.237 OA
ATOM     81  O   UNL A   1      32.422  36.021  30.693  1.00  0.00    -0.744 OA
ENDBRANCH  77  78
ENDBRANCH  49  72
BRANCH  61  82
ATOM     82  C   UNL A   1      40.620  33.736  38.641  1.00  0.00    -0.014 A 
ATOM     83  C   UNL A   1      41.239  34.998  38.688  1.00  0.00     0.010 A 
ATOM     84  C   UNL A   1      39.959  33.259  39.789  1.00  0.00     0.010 A 
ATOM     85  C   UNL A   1      41.223  35.751  39.866  1.00  0.00     0.020 A 
ATOM     86  C   UNL A   1      39.913  34.022  40.958  1.00  0.00     0.020 A 
ATOM     87  C   UNL A   1      40.558  35.259  40.993  1.00  0.00     0.054 A 
BRANCH  87  88
ATOM     88  S   UNL A   1      40.514  36.276  42.496  1.00  0.00     0.124 S 
ATOM     89  O   UNL A   1      39.311  37.078  42.285  1.00  0.00    -0.237 OA
ATOM     90  O   UNL A   1      40.424  35.275  43.555  1.00  0.00    -0.237 OA
ATOM     91  O   UNL A   1      41.772  37.016  42.451  1.00  0.00    -0.744 OA
ENDBRANCH  87  88
ENDBRANCH  61  82
ENDBRANCH  35  36
ENDBRANCH  28  30
ENDBRANCH  27  28
ENDBRANCH  26  27
ENDBRANCH  25  26
ENDBRANCH  24  25
ENDBRANCH  23  24
ENDBRANCH   1  23
TORSDOF 23
ENDMDL
MODEL 2
REMARK VINA RESULT:      -9.0      6.840      9.074
REMARK SMILES C[C@@H](C(=O)OCCOCCOCCOC(=O)c1ccc(-c2c3nc(c(-c4ccc(S(=O)(=O)[O-])cc4)c4ccc([nH]4)c(-c4ccc(S(=O)(=O)[O-])cc4)c4nc(c(-c5ccc(S(=O)(=O)[O-])cc5)c5ccc2[nH]5)C=C4)C=C3)cc1)c1ccc(Cc2ccsc2)cc1F
REMARK SMILES IDX 9 1 8 2 7 3 6 4 5 5 3 6 4 7 2 8 1 9 77 10 78 11 88 12 79 13
REMARK SMILES IDX 87 14 89 15 80 16 81 17 82 18 83 19 86 20 84 21 85 22 10 23
REMARK SMILES IDX 11 24 12 25 13 26 14 27 15 28 16 29 17 30 18 31 76 32 19 33
REMARK SMILES IDX 75 34 20 35 21 36 22 37 69 38 23 39 74 40 68 41 70 42 24 43
REMARK SMILES IDX 73 44 67 45 66 46 25 48 55 49 36 50 54 51 37 52 40 53 53 54
REMARK SMILES IDX 71 55 38 56 39 57 52 59 72 60 41 61 26 62 27 63 35 64 28 65
REMARK SMILES IDX 34 66 29 67 30 68 31 69 32 70 33 71 56 72 57 73 65 74 58 75
REMARK SMILES IDX 64 76 59 77 60 78 61 79 62 80 63 81 42 82 43 83 51 84 44 85
REMARK SMILES IDX 50 86 45 87 46 88 47 89 48 90 49 91
REMARK H PARENT 70 47 40 58
REMARK Flexibility Score: inf
ROOT
ATOM      1  C   UNL A   1      40.512  21.847  26.544  1.00  0.00     0.188 C 
ENDROOT
BRANCH   1   2
ATOM      2  O   UNL A   1      39.147  21.446  26.580  1.00  0.00    -0.376 OA
BRANCH   2   3
ATOM      3  C   UNL A   1      38.532  21.024  25.365  1.00  0.00     0.202 C 
BRANCH   3   4
ATOM      4  C   UNL A   1      37.425  21.894  24.738  1.00  0.00     0.261 C 
BRANCH   4   5
ATOM      5  O   UNL A   1      36.088  21.607  25.206  1.00  0.00    -0.463 OA
BRANCH   5   6
ATOM      6  C   UNL A   1      35.066  22.004  24.403  1.00  0.00     0.313 C 
ATOM      7  O   UNL A   1      35.237  22.584  23.334  1.00  0.00    -0.252 OA
BRANCH   6   8
ATOM      8  C   UNL A   1      33.662  21.622  24.920  1.00  0.00     0.129 C 
ATOM      9  C   UNL A   1      33.183  20.245  24.441  1.00  0.00     0.025 C 
BRANCH   8  10
ATOM     10  C   UNL A   1      32.661  22.785  24.893  1.00  0.00     0.002 A 
ATOM     11  C   UNL A   1      32.435  23.509  26.079  1.00  0.00     0.008 A 
ATOM     12  C   UNL A   1      31.864  23.138  23.795  1.00  0.00     0.127 A 
ATOM     13  C   UNL A   1      31.478  24.529  26.155  1.00  0.00     0.004 A 
ATOM     14  C   UNL A   1      30.874  24.134  23.876  1.00  0.00     0.043 A 
ATOM     15  F   UNL A   1      32.019  22.526  22.612  1.00  0.00    -0.207 F 
ATOM     16  C   UNL A   1      30.660  24.840  25.065  1.00  0.00    -0.041 A 
BRANCH  16  17
ATOM     17  C   UNL A   1      29.622  25.937  25.173  1.00  0.00     0.072 C 
BRANCH  17  18
ATOM     18  C   UNL A   1      30.089  27.128  24.380  1.00  0.00    -0.033 A 
ATOM     19  C   UNL A   1      29.534  27.574  23.128  1.00  0.00     0.015 A 
ATOM     20  C   UNL A   1      31.038  28.035  24.822  1.00  0.00     0.068 A 
ATOM     21  C   UNL A   1      30.102  28.741  22.667  1.00  0.00     0.065 A 
ATOM     22  S   UNL A   1      31.291  29.334  23.737  1.00  0.00    -0.152 S 
ENDBRANCH  17  18
ENDBRANCH  16  17
ENDBRANCH   8  10
ENDBRANCH   6   8
ENDBRANCH   5   6
ENDBRANCH   4   5
ENDBRANCH   3   4
ENDBRANCH   2   3
ENDBRANCH   1   2
BRANCH   1  23
ATOM     23  C   UNL A   1      41.575  20.792  26.195  1.00  0.00     0.188 C 
BRANCH  23  24
ATOM     24  O   UNL A   1      41.884  19.898  27.239  1.00  0.00    -0.376 OA
BRANCH  24  25
ATOM     25  C   UNL A   1      42.660  18.749  26.951  1.00  0.00     0.202 C 
BRANCH  25  26
ATOM     26  C   UNL A   1      43.206  18.463  25.536  1.00  0.00     0.261 C 
BRANCH  26  27
ATOM     27  O   UNL A   1      44.581  18.778  25.274  1.00  0.00    -0.460 OA
BRANCH  27  28
ATOM     28  C   UNL A   1      44.839  19.595  24.227  1.00  0.00     0.338 C 
ATOM     29  O   UNL A   1      44.886  19.278  23.046  1.00  0.00    -0.246 OA
BRANCH  28  30
ATOM     30  C   UNL A   1      44.820  20.987  24.729  1.00  0.00     0.060 A 
ATOM     31  C   UNL A   1      44.359  22.010  23.885  1.00  0.00     0.016 A 
ATOM     32  C   UNL A   1      45.235  21.280  26.028  1.00  0.00     0.016 A 
ATOM     33  C   UNL A   1      44.322  23.329  24.338  1.00  0.00     0.010 A 
ATOM     34  C   UNL A   1      45.226  22.608  26.469  1.00  0.00     0.010 A 
ATOM     35  C   UNL A   1      44.791  23.641  25.620  1.00  0.00    -0.014 A 
BRANCH  35  36
ATOM     36  C   UNL A   1      45.009  25.060  25.997  1.00  0.00     0.031 A 
ATOM     37  C   UNL A   1      46.398  25.624  25.869  1.00  0.00     0.074 A 
ATOM     38  C   UNL A   1      44.000  25.843  26.420  1.00  0.00     0.049 A 
ATOM     39  N   UNL A   1      46.848  26.804  26.207  1.00  0.00    -0.248 NA
ATOM     40  C   UNL A   1      47.414  24.733  25.285  1.00  0.00     0.031 C 
ATOM     41  C   UNL A   1      42.602  25.434  26.536  1.00  0.00     0.029 A 
ATOM     42  N   UNL A   1      44.005  27.151  26.840  1.00  0.00    -0.354 N 
ATOM     43  C   UNL A   1      48.204  26.790  25.901  1.00  0.00     0.074 A 
ATOM     44  C   UNL A   1      48.504  25.481  25.364  1.00  0.00     0.031 C 
ATOM     45  C   UNL A   1      41.885  26.471  27.006  1.00  0.00     0.029 A 
ATOM     46  C   UNL A   1      42.777  27.602  27.258  1.00  0.00     0.049 A 
ATOM     47  H   UNL A   1      44.814  27.713  26.841  1.00  0.00     0.167 HD
ATOM     48  C   UNL A   1      49.119  27.776  26.055  1.00  0.00     0.031 A 
ATOM     49  C   UNL A   1      42.417  28.782  27.807  1.00  0.00     0.031 A 
ATOM     50  C   UNL A   1      48.822  29.071  26.607  1.00  0.00     0.049 A 
ATOM     51  C   UNL A   1      43.468  29.840  28.043  1.00  0.00     0.074 A 
ATOM     52  C   UNL A   1      49.682  30.136  26.810  1.00  0.00     0.029 A 
ATOM     53  N   UNL A   1      47.572  29.476  27.052  1.00  0.00    -0.354 N 
ATOM     54  N   UNL A   1      44.747  29.813  27.750  1.00  0.00    -0.248 NA
ATOM     55  C   UNL A   1      43.027  31.084  28.688  1.00  0.00     0.031 C 
ATOM     56  C   UNL A   1      48.967  31.161  27.436  1.00  0.00     0.029 A 
ATOM     57  C   UNL A   1      47.644  30.766  27.552  1.00  0.00     0.049 A 
ATOM     58  H   UNL A   1      46.755  28.929  27.017  1.00  0.00     0.167 HD
ATOM     59  C   UNL A   1      45.256  31.045  28.154  1.00  0.00     0.074 A 
ATOM     60  C   UNL A   1      44.144  31.799  28.693  1.00  0.00     0.031 C 
ATOM     61  C   UNL A   1      46.530  31.509  28.086  1.00  0.00     0.031 A 
BRANCH  48  62
ATOM     62  C   UNL A   1      50.542  27.470  25.669  1.00  0.00    -0.014 A 
ATOM     63  C   UNL A   1      51.094  27.944  24.465  1.00  0.00     0.010 A 
ATOM     64  C   UNL A   1      51.347  26.715  26.541  1.00  0.00     0.010 A 
ATOM     65  C   UNL A   1      52.414  27.637  24.125  1.00  0.00     0.020 A 
ATOM     66  C   UNL A   1      52.677  26.432  26.219  1.00  0.00     0.020 A 
ATOM     67  C   UNL A   1      53.196  26.882  25.004  1.00  0.00     0.054 A 
BRANCH  67  68
ATOM     68  S   UNL A   1      54.913  26.516  24.545  1.00  0.00     0.124 S 
ATOM     69  O   UNL A   1      55.059  25.137  25.004  1.00  0.00    -0.237 OA
ATOM     70  O   UNL A   1      54.901  26.699  23.096  1.00  0.00    -0.237 OA
ATOM     71  O   UNL A   1      55.690  27.505  25.289  1.00  0.00    -0.744 OA
ENDBRANCH  67  68
ENDBRANCH  48  62
BRANCH  49  72
ATOM     72  C   UNL A   1      41.002  29.019  28.209  1.00  0.00    -0.014 A 
ATOM     73  C   UNL A   1      40.022  29.330  27.249  1.00  0.00     0.010 A 
ATOM     74  C   UNL A   1      40.627  28.949  29.565  1.00  0.00     0.010 A 
ATOM     75  C   UNL A   1      38.700  29.580  27.638  1.00  0.00     0.020 A 
ATOM     76  C   UNL A   1      39.301  29.163  29.953  1.00  0.00     0.020 A 
ATOM     77  C   UNL A   1      38.348  29.488  28.988  1.00  0.00     0.054 A 
BRANCH  77  78
ATOM     78  S   UNL A   1      36.618  29.758  29.460  1.00  0.00     0.124 S 
ATOM     79  O   UNL A   1      35.900  29.247  28.298  1.00  0.00    -0.237 OA
ATOM     80  O   UNL A   1      36.499  28.964  30.681  1.00  0.00    -0.237 OA
ATOM     81  O   UNL A   1      36.541  31.204  29.659  1.00  0.00    -0.744 OA
ENDBRANCH  77  78
ENDBRANCH  49  72
BRANCH  61  82
ATOM     82  C   UNL A   1      46.793  32.915  28.566  1.00  0.00    -0.014 A 
ATOM     83  C   UNL A   1      46.763  34.011  27.687  1.00  0.00     0.010 A 
ATOM     84  C   UNL A   1      47.011  33.147  29.937  1.00  0.00     0.010 A 
ATOM     85  C   UNL A   1      46.977  35.308  28.165  1.00  0.00     0.020 A 
ATOM     86  C   UNL A   1      47.194  34.443  30.424  1.00  0.00     0.020 A 
ATOM     87  C   UNL A   1      47.189  35.516  29.531  1.00  0.00     0.054 A 
BRANCH  87  88
ATOM     88  S   UNL A   1      47.419  37.212  30.132  1.00  0.00     0.124 S 
ATOM     89  O   UNL A   1      48.860  37.261  30.363  1.00  0.00    -0.237 OA
ATOM     90  O   UNL A   1      46.934  38.015  29.013  1.00  0.00    -0.237 OA
ATOM     91  O   UNL A   1      46.593  37.270  31.336  1.00  0.00    -0.744 OA
ENDBRANCH  87  88
ENDBRANCH  61  82
ENDBRANCH  35  36
ENDBRANCH  28  30
ENDBRANCH  27  28
ENDBRANCH  26  27
ENDBRANCH  25  26
ENDBRANCH  24  25
ENDBRANCH  23  24
ENDBRANCH   1  23
TORSDOF 23
ENDMDL
MODEL 3
REMARK VINA RESULT:      -9.0      6.289     11.412
REMARK SMILES C[C@@H](C(=O)OCCOCCOCCOC(=O)c1ccc(-c2c3nc(c(-c4ccc(S(=O)(=O)[O-])cc4)c4ccc([nH]4)c(-c4ccc(S(=O)(=O)[O-])cc4)c4nc(c(-c5ccc(S(=O)(=O)[O-])cc5)c5ccc2[nH]5)C=C4)C=C3)cc1)c1ccc(Cc2ccsc2)cc1F
REMARK SMILES IDX 9 1 8 2 7 3 6 4 5 5 3 6 4 7 2 8 1 9 77 10 78 11 88 12 79 13
REMARK SMILES IDX 87 14 89 15 80 16 81 17 82 18 83 19 86 20 84 21 85 22 10 23
REMARK SMILES IDX 11 24 12 25 13 26 14 27 15 28 16 29 17 30 18 31 76 32 19 33
REMARK SMILES IDX 75 34 20 35 21 36 22 37 69 38 23 39 74 40 68 41 70 42 24 43
REMARK SMILES IDX 73 44 67 45 66 46 25 48 55 49 36 50 54 51 37 52 40 53 53 54
REMARK SMILES IDX 71 55 38 56 39 57 52 59 72 60 41 61 26 62 27 63 35 64 28 65
REMARK SMILES IDX 34 66 29 67 30 68 31 69 32 70 33 71 56 72 57 73 65 74 58 75
REMARK SMILES IDX 64 76 59 77 60 78 61 79 62 80 63 81 42 82 43 83 51 84 44 85
REMARK SMILES IDX 50 86 45 87 46 88 47 89 48 90 49 91
REMARK H PARENT 70 47 40 58
REMARK Flexibility Score: inf
ROOT
ATOM      1  C   UNL A   1      36.922  23.275  25.731  1.00  0.00     0.188 C 
ENDROOT
BRANCH   1   2
ATOM      2  O   UNL A   1      35.578  23.699  25.933  1.00  0.00    -0.376 OA
BRANCH   2   3
ATOM      3  C   UNL A   1      34.669  22.796  26.558  1.00  0.00     0.202 C 
BRANCH   3   4
ATOM      4  C   UNL A   1      33.335  23.333  27.115  1.00  0.00     0.261 C 
BRANCH   4   5
ATOM      5  O   UNL A   1      32.166  22.582  26.718  1.00  0.00    -0.463 OA
BRANCH   5   6
ATOM      6  C   UNL A   1      31.063  23.305  26.388  1.00  0.00     0.313 C 
ATOM      7  O   UNL A   1      30.299  23.783  27.222  1.00  0.00    -0.252 OA
BRANCH   6   8
ATOM      8  C   UNL A   1      30.870  23.520  24.872  1.00  0.00     0.129 C 
ATOM      9  C   UNL A   1      31.637  22.512  24.005  1.00  0.00     0.025 C 
BRANCH   8  10
ATOM     10  C   UNL A   1      30.891  24.997  24.454  1.00  0.00     0.002 A 
ATOM     11  C   UNL A   1      32.014  25.487  23.762  1.00  0.00     0.008 A 
ATOM     12  C   UNL A   1      29.913  25.943  24.791  1.00  0.00     0.127 A 
ATOM     13  C   UNL A   1      32.142  26.839  23.419  1.00  0.00     0.004 A 
ATOM     14  C   UNL A   1      30.055  27.310  24.485  1.00  0.00     0.043 A 
ATOM     15  F   UNL A   1      28.793  25.573  25.428  1.00  0.00    -0.207 F 
ATOM     16  C   UNL A   1      31.181  27.779  23.800  1.00  0.00    -0.041 A 
BRANCH  16  17
ATOM     17  C   UNL A   1      31.347  29.239  23.431  1.00  0.00     0.072 C 
BRANCH  17  18
ATOM     18  C   UNL A   1      29.989  29.831  23.167  1.00  0.00    -0.033 A 
ATOM     19  C   UNL A   1      29.023  29.329  22.223  1.00  0.00     0.015 A 
ATOM     20  C   UNL A   1      29.433  30.868  23.898  1.00  0.00     0.068 A 
ATOM     21  C   UNL A   1      27.830  30.017  22.248  1.00  0.00     0.065 A 
ATOM     22  S   UNL A   1      27.838  31.257  23.419  1.00  0.00    -0.152 S 
ENDBRANCH  17  18
ENDBRANCH  16  17
ENDBRANCH   8  10
ENDBRANCH   6   8
ENDBRANCH   5   6
ENDBRANCH   4   5
ENDBRANCH   3   4
ENDBRANCH   2   3
ENDBRANCH   1   2
BRANCH   1  23
ATOM     23  C   UNL A   1      37.214  22.294  24.585  1.00  0.00     0.188 C 
BRANCH  23  24
ATOM     24  O   UNL A   1      37.832  21.091  24.979  1.00  0.00    -0.376 OA
BRANCH  24  25
ATOM     25  C   UNL A   1      39.017  21.150  25.752  1.00  0.00     0.202 C 
BRANCH  25  26
ATOM     26  C   UNL A   1      39.837  19.888  26.092  1.00  0.00     0.261 C 
BRANCH  26  27
ATOM     27  O   UNL A   1      41.097  19.711  25.432  1.00  0.00    -0.460 OA
BRANCH  27  28
ATOM     28  C   UNL A   1      42.203  19.666  26.211  1.00  0.00     0.338 C 
ATOM     29  O   UNL A   1      42.882  18.678  26.460  1.00  0.00    -0.246 OA
BRANCH  28  30
ATOM     30  C   UNL A   1      42.592  21.060  26.519  1.00  0.00     0.060 A 
ATOM     31  C   UNL A   1      42.803  21.958  25.461  1.00  0.00     0.016 A 
ATOM     32  C   UNL A   1      42.729  21.484  27.840  1.00  0.00     0.016 A 
ATOM     33  C   UNL A   1      43.161  23.280  25.725  1.00  0.00     0.010 A 
ATOM     34  C   UNL A   1      43.119  22.802  28.101  1.00  0.00     0.010 A 
ATOM     35  C   UNL A   1      43.359  23.701  27.045  1.00  0.00    -0.014 A 
BRANCH  35  36
ATOM     36  C   UNL A   1      44.001  25.012  27.311  1.00  0.00     0.031 A 
ATOM     37  C   UNL A   1      43.149  26.121  27.867  1.00  0.00     0.074 A 
ATOM     38  C   UNL A   1      45.312  25.215  27.089  1.00  0.00     0.049 A 
ATOM     39  N   UNL A   1      43.464  27.367  28.107  1.00  0.00    -0.248 NA
ATOM     40  C   UNL A   1      41.756  25.775  28.190  1.00  0.00     0.031 C 
ATOM     41  C   UNL A   1      46.256  24.210  26.606  1.00  0.00     0.029 A 
ATOM     42  N   UNL A   1      46.074  26.349  27.239  1.00  0.00    -0.354 N 
ATOM     43  C   UNL A   1      42.302  27.961  28.586  1.00  0.00     0.074 A 
ATOM     44  C   UNL A   1      41.275  26.943  28.588  1.00  0.00     0.031 C 
ATOM     45  C   UNL A   1      47.471  24.777  26.489  1.00  0.00     0.029 A 
ATOM     46  C   UNL A   1      47.384  26.189  26.855  1.00  0.00     0.049 A 
ATOM     47  H   UNL A   1      45.715  27.196  27.589  1.00  0.00     0.167 HD
ATOM     48  C   UNL A   1      42.106  29.240  28.985  1.00  0.00     0.031 A 
ATOM     49  C   UNL A   1      48.390  27.086  26.781  1.00  0.00     0.031 A 
ATOM     50  C   UNL A   1      43.125  30.256  28.964  1.00  0.00     0.049 A 
ATOM     51  C   UNL A   1      48.129  28.525  27.156  1.00  0.00     0.074 A 
ATOM     52  C   UNL A   1      43.022  31.583  29.343  1.00  0.00     0.029 A 
ATOM     53  N   UNL A   1      44.429  30.062  28.534  1.00  0.00    -0.354 N 
ATOM     54  N   UNL A   1      47.025  29.074  27.606  1.00  0.00    -0.248 NA
ATOM     55  C   UNL A   1      49.250  29.465  27.008  1.00  0.00     0.031 C 
ATOM     56  C   UNL A   1      44.245  32.207  29.081  1.00  0.00     0.029 A 
ATOM     57  C   UNL A   1      45.134  31.252  28.614  1.00  0.00     0.049 A 
ATOM     58  H   UNL A   1      44.800  29.207  28.219  1.00  0.00     0.167 HD
ATOM     59  C   UNL A   1      47.327  30.417  27.816  1.00  0.00     0.074 A 
ATOM     60  C   UNL A   1      48.720  30.593  27.464  1.00  0.00     0.031 C 
ATOM     61  C   UNL A   1      46.522  31.415  28.261  1.00  0.00     0.031 A 
BRANCH  48  62
ATOM     62  C   UNL A   1      40.719  29.624  29.428  1.00  0.00    -0.014 A 
ATOM     63  C   UNL A   1      40.451  30.001  30.757  1.00  0.00     0.010 A 
ATOM     64  C   UNL A   1      39.671  29.632  28.490  1.00  0.00     0.010 A 
ATOM     65  C   UNL A   1      39.153  30.342  31.145  1.00  0.00     0.020 A 
ATOM     66  C   UNL A   1      38.378  30.004  28.867  1.00  0.00     0.020 A 
ATOM     67  C   UNL A   1      38.125  30.340  30.198  1.00  0.00     0.054 A 
BRANCH  67  68
ATOM     68  S   UNL A   1      36.454  30.808  30.727  1.00  0.00     0.124 S 
ATOM     69  O   UNL A   1      36.706  32.049  31.456  1.00  0.00    -0.237 OA
ATOM     70  O   UNL A   1      35.748  30.958  29.457  1.00  0.00    -0.237 OA
ATOM     71  O   UNL A   1      36.020  29.681  31.548  1.00  0.00    -0.744 OA
ENDBRANCH  67  68
ENDBRANCH  48  62
BRANCH  49  72
ATOM     72  C   UNL A   1      49.735  26.663  26.296  1.00  0.00    -0.014 A 
ATOM     73  C   UNL A   1      50.174  26.998  25.002  1.00  0.00     0.010 A 
ATOM     74  C   UNL A   1      50.583  25.907  27.127  1.00  0.00     0.010 A 
ATOM     75  C   UNL A   1      51.426  26.573  24.544  1.00  0.00     0.020 A 
ATOM     76  C   UNL A   1      51.849  25.510  26.686  1.00  0.00     0.020 A 
ATOM     77  C   UNL A   1      52.258  25.837  25.394  1.00  0.00     0.054 A 
BRANCH  77  78
ATOM     78  S   UNL A   1      53.901  25.348  24.799  1.00  0.00     0.124 S 
ATOM     79  O   UNL A   1      53.900  25.868  23.436  1.00  0.00    -0.237 OA
ATOM     80  O   UNL A   1      54.789  26.028  25.738  1.00  0.00    -0.237 OA
ATOM     81  O   UNL A   1      53.884  23.891  24.913  1.00  0.00    -0.744 OA
ENDBRANCH  77  78
ENDBRANCH  49  72
BRANCH  61  82
ATOM     82  C   UNL A   1      47.131  32.785  28.435  1.00  0.00    -0.014 A 
ATOM     83  C   UNL A   1      47.808  33.146  29.613  1.00  0.00     0.010 A 
ATOM     84  C   UNL A   1      47.077  33.705  27.371  1.00  0.00     0.010 A 
ATOM     85  C   UNL A   1      48.393  34.411  29.735  1.00  0.00     0.020 A 
ATOM     86  C   UNL A   1      47.687  34.957  27.476  1.00  0.00     0.020 A 
ATOM     87  C   UNL A   1      48.330  35.308  28.664  1.00  0.00     0.054 A 
BRANCH  87  88
ATOM     88  S   UNL A   1      49.135  36.925  28.831  1.00  0.00     0.124 S 
ATOM     89  O   UNL A   1      49.652  37.149  27.483  1.00  0.00    -0.237 OA
ATOM     90  O   UNL A   1      48.029  37.792  29.231  1.00  0.00    -0.237 OA
ATOM     91  O   UNL A   1      50.149  36.704  29.859  1.00  0.00    -0.744 OA
ENDBRANCH  87  88
ENDBRANCH  61  82
ENDBRANCH  35  36
ENDBRANCH  28  30
ENDBRANCH  27  28
ENDBRANCH  26  27
ENDBRANCH  25  26
ENDBRANCH  24  25
ENDBRANCH  23  24
ENDBRANCH   1  23
TORSDOF 23
ENDMDL
