MODEL 1
REMARK VINA RESULT:      -8.4      0.000      0.000
REMARK SMILES C[C@@H](C(=O)OCCOCCOCCOC(=O)c1ccc(-c2c3nc(c(-c4ccc(S(=O)(=O)[O-])cc4)c4ccc([nH]4)c(-c4ccc(S(=O)(=O)[O-])cc4)c4nc(c(-c5ccc(S(=O)(=O)[O-])cc5)c5ccc2[nH]5)C=C4)C=C3)cc1)[C@@H](C)C(=O)c1cccc(Cl)c1
REMARK SMILES IDX 9 1 8 2 7 3 6 4 5 5 3 6 4 7 2 8 1 9 77 10 78 11 79 12 80 13
REMARK SMILES IDX 81 14 82 15 87 16 83 17 85 18 84 19 86 20 10 21 11 22 12 23
REMARK SMILES IDX 13 24 14 25 15 26 16 27 17 28 18 29 76 30 19 31 75 32 20 33
REMARK SMILES IDX 21 34 22 35 69 36 23 37 74 38 68 39 70 40 24 41 73 42 67 43
REMARK SMILES IDX 66 44 25 46 55 47 36 48 54 49 37 50 40 51 53 52 71 53 38 54
REMARK SMILES IDX 39 55 52 57 72 58 41 59 26 60 27 61 35 62 28 63 34 64 29 65
REMARK SMILES IDX 30 66 31 67 32 68 33 69 56 70 57 71 65 72 58 73 64 74 59 75
REMARK SMILES IDX 60 76 61 77 62 78 63 79 42 80 43 81 51 82 44 83 50 84 45 85
REMARK SMILES IDX 46 86 47 87 48 88 49 89
REMARK H PARENT 70 45 40 56
REMARK Flexibility Score: inf
ROOT
ATOM      1  C   UNL A   1      43.219  18.683  25.959  1.00  0.00     0.188 C 
ENDROOT
BRANCH   1   2
ATOM      2  O   UNL A   1      44.045  19.223  24.946  1.00  0.00    -0.376 OA
BRANCH   2   3
ATOM      3  C   UNL A   1      45.444  19.334  25.173  1.00  0.00     0.202 C 
BRANCH   3   4
ATOM      4  C   UNL A   1      46.276  20.496  24.600  1.00  0.00     0.261 C 
BRANCH   4   5
ATOM      5  O   UNL A   1      46.355  21.688  25.413  1.00  0.00    -0.463 OA
BRANCH   5   6
ATOM      6  C   UNL A   1      45.357  22.580  25.224  1.00  0.00     0.309 C 
ATOM      7  O   UNL A   1      44.761  22.676  24.156  1.00  0.00    -0.252 OA
BRANCH   6   8
ATOM      8  C   UNL A   1      45.003  23.477  26.429  1.00  0.00     0.106 C 
ATOM      9  C   UNL A   1      43.608  23.321  27.055  1.00  0.00     0.021 C 
BRANCH   8  10
ATOM     10  C   UNL A   1      45.346  24.953  26.095  1.00  0.00     0.072 C 
ATOM     11  C   UNL A   1      46.532  25.135  25.145  1.00  0.00     0.017 C 
BRANCH  10  12
ATOM     12  C   UNL A   1      44.209  25.875  25.617  1.00  0.00     0.166 C 
ATOM     13  O   UNL A   1      43.384  25.423  24.815  1.00  0.00    -0.294 OA
BRANCH  12  14
ATOM     14  C   UNL A   1      43.975  27.252  26.172  1.00  0.00     0.019 A 
ATOM     15  C   UNL A   1      42.774  27.892  25.838  1.00  0.00     0.012 A 
ATOM     16  C   UNL A   1      44.916  27.971  26.917  1.00  0.00     0.032 A 
ATOM     17  C   UNL A   1      42.526  29.208  26.248  1.00  0.00     0.002 A 
ATOM     18  C   UNL A   1      44.678  29.288  27.305  1.00  0.00     0.041 A 
ATOM     19  C   UNL A   1      43.482  29.910  26.980  1.00  0.00     0.020 A 
ATOM     20  Cl  UNL A   1      45.902  30.147  28.160  1.00  0.00    -0.084 Cl
ENDBRANCH  12  14
ENDBRANCH  10  12
ENDBRANCH   8  10
ENDBRANCH   6   8
ENDBRANCH   5   6
ENDBRANCH   4   5
ENDBRANCH   3   4
ENDBRANCH   2   3
ENDBRANCH   1   2
BRANCH   1  21
ATOM     21  C   UNL A   1      41.794  19.224  26.103  1.00  0.00     0.188 C 
BRANCH  21  22
ATOM     22  O   UNL A   1      41.408  19.738  27.352  1.00  0.00    -0.376 OA
BRANCH  22  23
ATOM     23  C   UNL A   1      40.694  20.956  27.456  1.00  0.00     0.202 C 
BRANCH  23  24
ATOM     24  C   UNL A   1      40.023  21.711  26.292  1.00  0.00     0.261 C 
BRANCH  24  25
ATOM     25  O   UNL A   1      38.617  21.965  26.353  1.00  0.00    -0.460 OA
BRANCH  25  26
ATOM     26  C   UNL A   1      38.189  23.145  25.841  1.00  0.00     0.338 C 
ATOM     27  O   UNL A   1      37.275  23.309  25.049  1.00  0.00    -0.246 OA
BRANCH  26  28
ATOM     28  C   UNL A   1      38.845  24.224  26.616  1.00  0.00     0.060 A 
ATOM     29  C   UNL A   1      38.518  24.380  27.972  1.00  0.00     0.016 A 
ATOM     30  C   UNL A   1      39.811  25.041  26.027  1.00  0.00     0.016 A 
ATOM     31  C   UNL A   1      39.140  25.365  28.738  1.00  0.00     0.010 A 
ATOM     32  C   UNL A   1      40.409  26.051  26.786  1.00  0.00     0.010 A 
ATOM     33  C   UNL A   1      40.056  26.237  28.137  1.00  0.00    -0.014 A 
BRANCH  33  34
ATOM     34  C   UNL A   1      40.481  27.470  28.842  1.00  0.00     0.031 A 
ATOM     35  C   UNL A   1      41.843  27.479  29.486  1.00  0.00     0.074 A 
ATOM     36  C   UNL A   1      39.693  28.558  28.915  1.00  0.00     0.049 A 
ATOM     37  N   UNL A   1      42.407  28.398  30.225  1.00  0.00    -0.248 NA
ATOM     38  C   UNL A   1      42.678  26.286  29.267  1.00  0.00     0.031 C 
ATOM     39  C   UNL A   1      38.385  28.705  28.280  1.00  0.00     0.029 A 
ATOM     40  N   UNL A   1      39.885  29.748  29.573  1.00  0.00    -0.354 N 
ATOM     41  C   UNL A   1      43.652  27.887  30.575  1.00  0.00     0.074 A 
ATOM     42  C   UNL A   1      43.752  26.571  29.986  1.00  0.00     0.031 C 
ATOM     43  C   UNL A   1      37.885  29.915  28.593  1.00  0.00     0.029 A 
ATOM     44  C   UNL A   1      38.817  30.608  29.481  1.00  0.00     0.049 A 
ATOM     45  H   UNL A   1      40.710  29.965  30.065  1.00  0.00     0.167 HD
ATOM     46  C   UNL A   1      44.625  28.462  31.320  1.00  0.00     0.031 A 
ATOM     47  C   UNL A   1      38.607  31.806  30.066  1.00  0.00     0.031 A 
ATOM     48  C   UNL A   1      44.518  29.766  31.917  1.00  0.00     0.049 A 
ATOM     49  C   UNL A   1      39.668  32.386  30.969  1.00  0.00     0.074 A 
ATOM     50  C   UNL A   1      45.457  30.442  32.675  1.00  0.00     0.029 A 
ATOM     51  N   UNL A   1      43.403  30.586  31.836  1.00  0.00    -0.354 N 
ATOM     52  N   UNL A   1      40.850  31.904  31.275  1.00  0.00    -0.248 NA
ATOM     53  C   UNL A   1      39.367  33.679  31.603  1.00  0.00     0.031 C 
ATOM     54  C   UNL A   1      44.885  31.642  33.111  1.00  0.00     0.029 A 
ATOM     55  C   UNL A   1      43.617  31.747  32.559  1.00  0.00     0.049 A 
ATOM     56  H   UNL A   1      42.580  30.375  31.338  1.00  0.00     0.167 HD
ATOM     57  C   UNL A   1      41.446  32.852  32.103  1.00  0.00     0.074 A 
ATOM     58  C   UNL A   1      40.500  33.938  32.244  1.00  0.00     0.031 C 
ATOM     59  C   UNL A   1      42.669  32.826  32.691  1.00  0.00     0.031 A 
BRANCH  46  60
ATOM     60  C   UNL A   1      45.874  27.659  31.573  1.00  0.00    -0.014 A 
ATOM     61  C   UNL A   1      46.965  27.698  30.685  1.00  0.00     0.010 A 
ATOM     62  C   UNL A   1      45.968  26.878  32.739  1.00  0.00     0.010 A 
ATOM     63  C   UNL A   1      48.111  26.941  30.943  1.00  0.00     0.020 A 
ATOM     64  C   UNL A   1      47.125  26.146  33.016  1.00  0.00     0.020 A 
ATOM     65  C   UNL A   1      48.183  26.170  32.107  1.00  0.00     0.054 A 
BRANCH  65  66
ATOM     66  S   UNL A   1      49.694  25.218  32.427  1.00  0.00     0.124 S 
ATOM     67  O   UNL A   1      49.203  24.161  33.307  1.00  0.00    -0.237 OA
ATOM     68  O   UNL A   1      50.089  24.789  31.089  1.00  0.00    -0.237 OA
ATOM     69  O   UNL A   1      50.588  26.186  33.058  1.00  0.00    -0.744 OA
ENDBRANCH  65  66
ENDBRANCH  46  60
BRANCH  47  70
ATOM     70  C   UNL A   1      37.329  32.538  29.836  1.00  0.00    -0.014 A 
ATOM     71  C   UNL A   1      37.164  33.356  28.704  1.00  0.00     0.010 A 
ATOM     72  C   UNL A   1      36.272  32.435  30.760  1.00  0.00     0.010 A 
ATOM     73  C   UNL A   1      35.978  34.069  28.509  1.00  0.00     0.020 A 
ATOM     74  C   UNL A   1      35.071  33.123  30.552  1.00  0.00     0.020 A 
ATOM     75  C   UNL A   1      34.935  33.945  29.433  1.00  0.00     0.054 A 
BRANCH  75  76
ATOM     76  S   UNL A   1      33.388  34.843  29.130  1.00  0.00     0.124 S 
ATOM     77  O   UNL A   1      32.717  33.978  28.163  1.00  0.00    -0.237 OA
ATOM     78  O   UNL A   1      32.787  34.891  30.460  1.00  0.00    -0.237 OA
ATOM     79  O   UNL A   1      33.836  36.133  28.609  1.00  0.00    -0.744 OA
ENDBRANCH  75  76
ENDBRANCH  47  70
BRANCH  59  80
ATOM     80  C   UNL A   1      43.086  34.028  33.502  1.00  0.00    -0.014 A 
ATOM     81  C   UNL A   1      42.447  34.359  34.711  1.00  0.00     0.010 A 
ATOM     82  C   UNL A   1      44.183  34.801  33.076  1.00  0.00     0.010 A 
ATOM     83  C   UNL A   1      42.877  35.460  35.460  1.00  0.00     0.020 A 
ATOM     84  C   UNL A   1      44.636  35.881  33.839  1.00  0.00     0.020 A 
ATOM     85  C   UNL A   1      43.970  36.213  35.019  1.00  0.00     0.054 A 
BRANCH  85  86
ATOM     86  S   UNL A   1      44.535  37.608  36.033  1.00  0.00     0.124 S 
ATOM     87  O   UNL A   1      43.906  38.744  35.365  1.00  0.00    -0.237 OA
ATOM     88  O   UNL A   1      44.002  37.281  37.353  1.00  0.00    -0.237 OA
ATOM     89  O   UNL A   1      45.991  37.550  35.924  1.00  0.00    -0.744 OA
ENDBRANCH  85  86
ENDBRANCH  59  80
ENDBRANCH  33  34
ENDBRANCH  26  28
ENDBRANCH  25  26
ENDBRANCH  24  25
ENDBRANCH  23  24
ENDBRANCH  22  23
ENDBRANCH  21  22
ENDBRANCH   1  21
TORSDOF 23
ENDMDL
MODEL 2
REMARK VINA RESULT:      -7.9      3.544     10.289
REMARK SMILES C[C@@H](C(=O)OCCOCCOCCOC(=O)c1ccc(-c2c3nc(c(-c4ccc(S(=O)(=O)[O-])cc4)c4ccc([nH]4)c(-c4ccc(S(=O)(=O)[O-])cc4)c4nc(c(-c5ccc(S(=O)(=O)[O-])cc5)c5ccc2[nH]5)C=C4)C=C3)cc1)[C@@H](C)C(=O)c1cccc(Cl)c1
REMARK SMILES IDX 9 1 8 2 7 3 6 4 5 5 3 6 4 7 2 8 1 9 77 10 78 11 79 12 80 13
REMARK SMILES IDX 81 14 82 15 87 16 83 17 85 18 84 19 86 20 10 21 11 22 12 23
REMARK SMILES IDX 13 24 14 25 15 26 16 27 17 28 18 29 76 30 19 31 75 32 20 33
REMARK SMILES IDX 21 34 22 35 69 36 23 37 74 38 68 39 70 40 24 41 73 42 67 43
REMARK SMILES IDX 66 44 25 46 55 47 36 48 54 49 37 50 40 51 53 52 71 53 38 54
REMARK SMILES IDX 39 55 52 57 72 58 41 59 26 60 27 61 35 62 28 63 34 64 29 65
REMARK SMILES IDX 30 66 31 67 32 68 33 69 56 70 57 71 65 72 58 73 64 74 59 75
REMARK SMILES IDX 60 76 61 77 62 78 63 79 42 80 43 81 51 82 44 83 50 84 45 85
REMARK SMILES IDX 46 86 47 87 48 88 49 89
REMARK H PARENT 70 45 40 56
REMARK Flexibility Score: inf
ROOT
ATOM      1  C   UNL A   1      31.656  26.454  25.720  1.00  0.00     0.188 C 
ENDROOT
BRANCH   1   2
ATOM      2  O   UNL A   1      32.149  25.131  25.647  1.00  0.00    -0.376 OA
BRANCH   2   3
ATOM      3  C   UNL A   1      31.377  24.068  26.191  1.00  0.00     0.202 C 
BRANCH   3   4
ATOM      4  C   UNL A   1      31.266  22.699  25.495  1.00  0.00     0.261 C 
BRANCH   4   5
ATOM      5  O   UNL A   1      32.315  21.748  25.783  1.00  0.00    -0.463 OA
BRANCH   5   6
ATOM      6  C   UNL A   1      33.083  21.402  24.726  1.00  0.00     0.309 C 
ATOM      7  O   UNL A   1      33.241  20.233  24.388  1.00  0.00    -0.252 OA
BRANCH   6   8
ATOM      8  C   UNL A   1      33.757  22.560  23.961  1.00  0.00     0.106 C 
ATOM      9  C   UNL A   1      33.361  22.777  22.492  1.00  0.00     0.021 C 
BRANCH   8  10
ATOM     10  C   UNL A   1      35.294  22.490  24.161  1.00  0.00     0.072 C 
ATOM     11  C   UNL A   1      36.116  23.067  23.008  1.00  0.00     0.017 C 
BRANCH  10  12
ATOM     12  C   UNL A   1      35.882  23.028  25.479  1.00  0.00     0.166 C 
ATOM     13  O   UNL A   1      35.122  23.582  26.279  1.00  0.00    -0.294 OA
BRANCH  12  14
ATOM     14  C   UNL A   1      37.307  22.799  25.900  1.00  0.00     0.019 A 
ATOM     15  C   UNL A   1      38.041  23.910  26.338  1.00  0.00     0.012 A 
ATOM     16  C   UNL A   1      37.974  21.575  25.792  1.00  0.00     0.032 A 
ATOM     17  C   UNL A   1      39.398  23.788  26.664  1.00  0.00     0.002 A 
ATOM     18  C   UNL A   1      39.329  21.459  26.095  1.00  0.00     0.041 A 
ATOM     19  C   UNL A   1      40.045  22.560  26.538  1.00  0.00     0.020 A 
ATOM     20  Cl  UNL A   1      40.113  19.941  25.874  1.00  0.00    -0.084 Cl
ENDBRANCH  12  14
ENDBRANCH  10  12
ENDBRANCH   8  10
ENDBRANCH   6   8
ENDBRANCH   5   6
ENDBRANCH   4   5
ENDBRANCH   3   4
ENDBRANCH   2   3
ENDBRANCH   1   2
BRANCH   1  21
ATOM     21  C   UNL A   1      32.232  27.502  24.764  1.00  0.00     0.188 C 
BRANCH  21  22
ATOM     22  O   UNL A   1      31.785  28.827  24.892  1.00  0.00    -0.376 OA
BRANCH  22  23
ATOM     23  C   UNL A   1      31.615  29.425  26.164  1.00  0.00     0.202 C 
BRANCH  23  24
ATOM     24  C   UNL A   1      32.476  30.561  26.750  1.00  0.00     0.261 C 
BRANCH  24  25
ATOM     25  O   UNL A   1      33.610  30.224  27.554  1.00  0.00    -0.460 OA
BRANCH  25  26
ATOM     26  C   UNL A   1      34.442  31.240  27.888  1.00  0.00     0.338 C 
ATOM     27  O   UNL A   1      34.149  32.420  27.997  1.00  0.00    -0.246 OA
BRANCH  26  28
ATOM     28  C   UNL A   1      35.707  30.632  28.364  1.00  0.00     0.060 A 
ATOM     29  C   UNL A   1      35.691  29.864  29.539  1.00  0.00     0.016 A 
ATOM     30  C   UNL A   1      36.887  30.773  27.632  1.00  0.00     0.016 A 
ATOM     31  C   UNL A   1      36.858  29.253  29.997  1.00  0.00     0.010 A 
ATOM     32  C   UNL A   1      38.063  30.189  28.110  1.00  0.00     0.010 A 
ATOM     33  C   UNL A   1      38.061  29.451  29.309  1.00  0.00    -0.014 A 
BRANCH  33  34
ATOM     34  C   UNL A   1      39.350  29.080  29.943  1.00  0.00     0.031 A 
ATOM     35  C   UNL A   1      39.782  29.850  31.163  1.00  0.00     0.074 A 
ATOM     36  C   UNL A   1      40.121  28.088  29.462  1.00  0.00     0.049 A 
ATOM     37  N   UNL A   1      40.895  29.773  31.843  1.00  0.00    -0.248 NA
ATOM     38  C   UNL A   1      38.827  30.846  31.680  1.00  0.00     0.031 C 
ATOM     39  C   UNL A   1      39.789  27.222  28.334  1.00  0.00     0.029 A 
ATOM     40  N   UNL A   1      41.359  27.654  29.869  1.00  0.00    -0.354 N 
ATOM     41  C   UNL A   1      40.784  30.720  32.856  1.00  0.00     0.074 A 
ATOM     42  C   UNL A   1      39.506  31.374  32.687  1.00  0.00     0.031 C 
ATOM     43  C   UNL A   1      40.808  26.367  28.128  1.00  0.00     0.029 A 
ATOM     44  C   UNL A   1      41.878  26.653  29.082  1.00  0.00     0.049 A 
ATOM     45  H   UNL A   1      41.832  28.025  30.649  1.00  0.00     0.167 HD
ATOM     46  C   UNL A   1      41.666  31.020  33.837  1.00  0.00     0.031 A 
ATOM     47  C   UNL A   1      43.087  26.054  29.116  1.00  0.00     0.031 A 
ATOM     48  C   UNL A   1      42.944  30.378  33.995  1.00  0.00     0.049 A 
ATOM     49  C   UNL A   1      44.092  26.470  30.162  1.00  0.00     0.074 A 
ATOM     50  C   UNL A   1      43.901  30.600  34.969  1.00  0.00     0.029 A 
ATOM     51  N   UNL A   1      43.449  29.400  33.152  1.00  0.00    -0.354 N 
ATOM     52  N   UNL A   1      43.967  27.351  31.128  1.00  0.00    -0.248 NA
ATOM     53  C   UNL A   1      45.403  25.803  30.127  1.00  0.00     0.031 C 
ATOM     54  C   UNL A   1      45.014  29.806  34.676  1.00  0.00     0.029 A 
ATOM     55  C   UNL A   1      44.719  29.033  33.564  1.00  0.00     0.049 A 
ATOM     56  H   UNL A   1      42.976  29.022  32.377  1.00  0.00     0.167 HD
ATOM     57  C   UNL A   1      45.167  27.315  31.834  1.00  0.00     0.074 A 
ATOM     58  C   UNL A   1      46.000  26.321  31.193  1.00  0.00     0.031 C 
ATOM     59  C   UNL A   1      45.541  28.038  32.920  1.00  0.00     0.031 A 
BRANCH  46  60
ATOM     60  C   UNL A   1      41.298  32.127  34.790  1.00  0.00    -0.014 A 
ATOM     61  C   UNL A   1      41.629  33.468  34.522  1.00  0.00     0.010 A 
ATOM     62  C   UNL A   1      40.576  31.821  35.958  1.00  0.00     0.010 A 
ATOM     63  C   UNL A   1      41.277  34.475  35.424  1.00  0.00     0.020 A 
ATOM     64  C   UNL A   1      40.195  32.830  36.846  1.00  0.00     0.020 A 
ATOM     65  C   UNL A   1      40.562  34.149  36.580  1.00  0.00     0.054 A 
BRANCH  65  66
ATOM     66  S   UNL A   1      40.097  35.481  37.720  1.00  0.00     0.124 S 
ATOM     67  O   UNL A   1      41.313  35.635  38.515  1.00  0.00    -0.237 OA
ATOM     68  O   UNL A   1      39.795  36.585  36.813  1.00  0.00    -0.237 OA
ATOM     69  O   UNL A   1      38.948  34.938  38.440  1.00  0.00    -0.744 OA
ENDBRANCH  65  66
ENDBRANCH  46  60
BRANCH  47  70
ATOM     70  C   UNL A   1      43.431  25.005  28.114  1.00  0.00    -0.014 A 
ATOM     71  C   UNL A   1      43.170  23.648  28.377  1.00  0.00     0.010 A 
ATOM     72  C   UNL A   1      44.040  25.355  26.894  1.00  0.00     0.010 A 
ATOM     73  C   UNL A   1      43.525  22.663  27.451  1.00  0.00     0.020 A 
ATOM     74  C   UNL A   1      44.369  24.376  25.951  1.00  0.00     0.020 A 
ATOM     75  C   UNL A   1      44.119  23.033  26.241  1.00  0.00     0.054 A 
BRANCH  75  76
ATOM     76  S   UNL A   1      44.526  21.739  25.036  1.00  0.00     0.124 S 
ATOM     77  O   UNL A   1      45.922  21.453  25.354  1.00  0.00    -0.237 OA
ATOM     78  O   UNL A   1      43.572  20.685  25.373  1.00  0.00    -0.237 OA
ATOM     79  O   UNL A   1      44.298  22.386  23.746  1.00  0.00    -0.744 OA
ENDBRANCH  75  76
ENDBRANCH  47  70
BRANCH  59  80
ATOM     80  C   UNL A   1      46.894  27.752  33.524  1.00  0.00    -0.014 A 
ATOM     81  C   UNL A   1      48.048  28.441  33.108  1.00  0.00     0.010 A 
ATOM     82  C   UNL A   1      46.998  26.820  34.574  1.00  0.00     0.010 A 
ATOM     83  C   UNL A   1      49.283  28.179  33.710  1.00  0.00     0.020 A 
ATOM     84  C   UNL A   1      48.224  26.580  35.200  1.00  0.00     0.020 A 
ATOM     85  C   UNL A   1      49.363  27.251  34.753  1.00  0.00     0.054 A 
BRANCH  85  86
ATOM     86  S   UNL A   1      50.969  26.963  35.545  1.00  0.00     0.124 S 
ATOM     87  O   UNL A   1      50.922  25.530  35.820  1.00  0.00    -0.237 OA
ATOM     88  O   UNL A   1      51.915  27.374  34.511  1.00  0.00    -0.237 OA
ATOM     89  O   UNL A   1      50.934  27.824  36.726  1.00  0.00    -0.744 OA
ENDBRANCH  85  86
ENDBRANCH  59  80
ENDBRANCH  33  34
ENDBRANCH  26  28
ENDBRANCH  25  26
ENDBRANCH  24  25
ENDBRANCH  23  24
ENDBRANCH  22  23
ENDBRANCH  21  22
ENDBRANCH   1  21
TORSDOF 23
ENDMDL
MODEL 3
REMARK VINA RESULT:      -7.8      3.923      9.146
REMARK SMILES C[C@@H](C(=O)OCCOCCOCCOC(=O)c1ccc(-c2c3nc(c(-c4ccc(S(=O)(=O)[O-])cc4)c4ccc([nH]4)c(-c4ccc(S(=O)(=O)[O-])cc4)c4nc(c(-c5ccc(S(=O)(=O)[O-])cc5)c5ccc2[nH]5)C=C4)C=C3)cc1)[C@@H](C)C(=O)c1cccc(Cl)c1
REMARK SMILES IDX 9 1 8 2 7 3 6 4 5 5 3 6 4 7 2 8 1 9 77 10 78 11 79 12 80 13
REMARK SMILES IDX 81 14 82 15 87 16 83 17 85 18 84 19 86 20 10 21 11 22 12 23
REMARK SMILES IDX 13 24 14 25 15 26 16 27 17 28 18 29 76 30 19 31 75 32 20 33
REMARK SMILES IDX 21 34 22 35 69 36 23 37 74 38 68 39 70 40 24 41 73 42 67 43
REMARK SMILES IDX 66 44 25 46 55 47 36 48 54 49 37 50 40 51 53 52 71 53 38 54
REMARK SMILES IDX 39 55 52 57 72 58 41 59 26 60 27 61 35 62 28 63 34 64 29 65
REMARK SMILES IDX 30 66 31 67 32 68 33 69 56 70 57 71 65 72 58 73 64 74 59 75
REMARK SMILES IDX 60 76 61 77 62 78 63 79 42 80 43 81 51 82 44 83 50 84 45 85
REMARK SMILES IDX 46 86 47 87 48 88 49 89
REMARK H PARENT 70 45 40 56
REMARK Flexibility Score: inf
ROOT
ATOM      1  C   UNL A   1      32.242  27.380  23.436  1.00  0.00     0.188 C 
ENDROOT
BRANCH   1   2
ATOM      2  O   UNL A   1      32.105  26.139  24.102  1.00  0.00    -0.376 OA
BRANCH   2   3
ATOM      3  C   UNL A   1      31.645  26.117  25.447  1.00  0.00     0.202 C 
BRANCH   3   4
ATOM      4  C   UNL A   1      31.812  24.880  26.349  1.00  0.00     0.261 C 
BRANCH   4   5
ATOM      5  O   UNL A   1      31.669  23.594  25.704  1.00  0.00    -0.463 OA
BRANCH   5   6
ATOM      6  C   UNL A   1      32.690  22.732  25.908  1.00  0.00     0.309 C 
ATOM      7  O   UNL A   1      33.414  22.800  26.895  1.00  0.00    -0.252 OA
BRANCH   6   8
ATOM      8  C   UNL A   1      32.900  21.653  24.826  1.00  0.00     0.106 C 
ATOM      9  C   UNL A   1      33.390  20.268  25.278  1.00  0.00     0.021 C 
BRANCH   8  10
ATOM     10  C   UNL A   1      33.750  22.237  23.667  1.00  0.00     0.072 C 
ATOM     11  C   UNL A   1      32.939  22.869  22.534  1.00  0.00     0.017 C 
BRANCH  10  12
ATOM     12  C   UNL A   1      34.900  23.198  24.021  1.00  0.00     0.166 C 
ATOM     13  O   UNL A   1      34.748  24.404  23.798  1.00  0.00    -0.294 OA
BRANCH  12  14
ATOM     14  C   UNL A   1      36.147  22.763  24.740  1.00  0.00     0.019 A 
ATOM     15  C   UNL A   1      36.840  23.729  25.481  1.00  0.00     0.012 A 
ATOM     16  C   UNL A   1      36.709  21.486  24.640  1.00  0.00     0.032 A 
ATOM     17  C   UNL A   1      38.054  23.418  26.106  1.00  0.00     0.002 A 
ATOM     18  C   UNL A   1      37.927  21.183  25.244  1.00  0.00     0.041 A 
ATOM     19  C   UNL A   1      38.602  22.142  25.984  1.00  0.00     0.020 A 
ATOM     20  Cl  UNL A   1      38.606  19.614  25.027  1.00  0.00    -0.084 Cl
ENDBRANCH  12  14
ENDBRANCH  10  12
ENDBRANCH   8  10
ENDBRANCH   6   8
ENDBRANCH   5   6
ENDBRANCH   4   5
ENDBRANCH   3   4
ENDBRANCH   2   3
ENDBRANCH   1   2
BRANCH   1  21
ATOM     21  C   UNL A   1      32.620  28.613  24.261  1.00  0.00     0.188 C 
BRANCH  21  22
ATOM     22  O   UNL A   1      31.602  29.524  24.587  1.00  0.00    -0.376 OA
BRANCH  22  23
ATOM     23  C   UNL A   1      31.687  30.338  25.743  1.00  0.00     0.202 C 
BRANCH  23  24
ATOM     24  C   UNL A   1      32.554  30.053  26.985  1.00  0.00     0.261 C 
BRANCH  24  25
ATOM     25  O   UNL A   1      33.954  30.339  26.930  1.00  0.00    -0.460 OA
BRANCH  25  26
ATOM     26  C   UNL A   1      34.389  31.394  27.662  1.00  0.00     0.338 C 
ATOM     27  O   UNL A   1      33.746  32.384  27.972  1.00  0.00    -0.246 OA
BRANCH  26  28
ATOM     28  C   UNL A   1      35.694  31.012  28.251  1.00  0.00     0.060 A 
ATOM     29  C   UNL A   1      35.839  29.731  28.807  1.00  0.00     0.016 A 
ATOM     30  C   UNL A   1      36.781  31.887  28.207  1.00  0.00     0.016 A 
ATOM     31  C   UNL A   1      37.064  29.329  29.340  1.00  0.00     0.010 A 
ATOM     32  C   UNL A   1      37.997  31.496  28.772  1.00  0.00     0.010 A 
ATOM     33  C   UNL A   1      38.137  30.228  29.368  1.00  0.00    -0.014 A 
BRANCH  33  34
ATOM     34  C   UNL A   1      39.329  29.936  30.202  1.00  0.00     0.031 A 
ATOM     35  C   UNL A   1      40.238  28.819  29.764  1.00  0.00     0.074 A 
ATOM     36  C   UNL A   1      39.607  30.637  31.316  1.00  0.00     0.049 A 
ATOM     37  N   UNL A   1      41.288  28.320  30.361  1.00  0.00    -0.248 NA
ATOM     38  C   UNL A   1      39.914  28.177  28.478  1.00  0.00     0.031 C 
ATOM     39  C   UNL A   1      38.849  31.783  31.812  1.00  0.00     0.029 A 
ATOM     40  N   UNL A   1      40.611  30.469  32.238  1.00  0.00    -0.354 N 
ATOM     41  C   UNL A   1      41.739  27.295  29.536  1.00  0.00     0.074 A 
ATOM     42  C   UNL A   1      40.835  27.229  28.409  1.00  0.00     0.031 C 
ATOM     43  C   UNL A   1      39.408  32.208  32.961  1.00  0.00     0.029 A 
ATOM     44  C   UNL A   1      40.536  31.341  33.299  1.00  0.00     0.049 A 
ATOM     45  H   UNL A   1      41.318  29.790  32.149  1.00  0.00     0.167 HD
ATOM     46  C   UNL A   1      42.807  26.481  29.702  1.00  0.00     0.031 A 
ATOM     47  C   UNL A   1      41.277  31.412  34.425  1.00  0.00     0.031 A 
ATOM     48  C   UNL A   1      43.696  26.538  30.831  1.00  0.00     0.049 A 
ATOM     49  C   UNL A   1      42.406  30.432  34.632  1.00  0.00     0.074 A 
ATOM     50  C   UNL A   1      44.817  25.767  31.080  1.00  0.00     0.029 A 
ATOM     51  N   UNL A   1      43.559  27.405  31.904  1.00  0.00    -0.354 N 
ATOM     52  N   UNL A   1      42.836  29.482  33.835  1.00  0.00    -0.248 NA
ATOM     53  C   UNL A   1      43.157  30.541  35.893  1.00  0.00     0.031 C 
ATOM     54  C   UNL A   1      45.319  26.119  32.337  1.00  0.00     0.029 A 
ATOM     55  C   UNL A   1      44.555  27.164  32.835  1.00  0.00     0.049 A 
ATOM     56  H   UNL A   1      42.859  28.090  31.992  1.00  0.00     0.167 HD
ATOM     57  C   UNL A   1      43.928  28.907  34.481  1.00  0.00     0.074 A 
ATOM     58  C   UNL A   1      44.099  29.621  35.729  1.00  0.00     0.031 C 
ATOM     59  C   UNL A   1      44.720  27.883  34.074  1.00  0.00     0.031 A 
BRANCH  46  60
ATOM     60  C   UNL A   1      43.044  25.422  28.656  1.00  0.00    -0.014 A 
ATOM     61  C   UNL A   1      42.328  24.211  28.661  1.00  0.00     0.010 A 
ATOM     62  C   UNL A   1      43.977  25.660  27.631  1.00  0.00     0.010 A 
ATOM     63  C   UNL A   1      42.568  23.245  27.681  1.00  0.00     0.020 A 
ATOM     64  C   UNL A   1      44.197  24.710  26.631  1.00  0.00     0.020 A 
ATOM     65  C   UNL A   1      43.502  23.502  26.672  1.00  0.00     0.054 A 
BRANCH  65  66
ATOM     66  S   UNL A   1      43.774  22.239  25.399  1.00  0.00     0.124 S 
ATOM     67  O   UNL A   1      45.231  22.132  25.388  1.00  0.00    -0.237 OA
ATOM     68  O   UNL A   1      43.063  21.084  25.938  1.00  0.00    -0.237 OA
ATOM     69  O   UNL A   1      43.186  22.824  24.196  1.00  0.00    -0.744 OA
ENDBRANCH  65  66
ENDBRANCH  46  60
BRANCH  47  70
ATOM     70  C   UNL A   1      40.968  32.438  35.461  1.00  0.00    -0.014 A 
ATOM     71  C   UNL A   1      41.594  33.697  35.435  1.00  0.00     0.010 A 
ATOM     72  C   UNL A   1      40.055  32.155  36.495  1.00  0.00     0.010 A 
ATOM     73  C   UNL A   1      41.330  34.644  36.428  1.00  0.00     0.020 A 
ATOM     74  C   UNL A   1      39.763  33.112  37.473  1.00  0.00     0.020 A 
ATOM     75  C   UNL A   1      40.411  34.348  37.439  1.00  0.00     0.054 A 
BRANCH  75  76
ATOM     76  S   UNL A   1      40.049  35.614  38.687  1.00  0.00     0.124 S 
ATOM     77  O   UNL A   1      39.595  36.732  37.865  1.00  0.00    -0.237 OA
ATOM     78  O   UNL A   1      39.021  34.968  39.500  1.00  0.00    -0.237 OA
ATOM     79  O   UNL A   1      41.331  35.812  39.359  1.00  0.00    -0.744 OA
ENDBRANCH  75  76
ENDBRANCH  47  70
BRANCH  59  80
ATOM     80  C   UNL A   1      45.881  27.497  34.958  1.00  0.00    -0.014 A 
ATOM     81  C   UNL A   1      47.141  28.109  34.828  1.00  0.00     0.010 A 
ATOM     82  C   UNL A   1      45.685  26.550  35.980  1.00  0.00     0.010 A 
ATOM     83  C   UNL A   1      48.190  27.755  35.683  1.00  0.00     0.020 A 
ATOM     84  C   UNL A   1      46.721  26.218  36.858  1.00  0.00     0.020 A 
ATOM     85  C   UNL A   1      47.972  26.813  36.693  1.00  0.00     0.054 A 
BRANCH  85  86
ATOM     86  S   UNL A   1      49.338  26.406  37.817  1.00  0.00     0.124 S 
ATOM     87  O   UNL A   1      50.443  27.167  37.242  1.00  0.00    -0.237 OA
ATOM     88  O   UNL A   1      48.847  26.888  39.106  1.00  0.00    -0.237 OA
ATOM     89  O   UNL A   1      49.459  24.954  37.706  1.00  0.00    -0.744 OA
ENDBRANCH  85  86
ENDBRANCH  59  80
ENDBRANCH  33  34
ENDBRANCH  26  28
ENDBRANCH  25  26
ENDBRANCH  24  25
ENDBRANCH  23  24
ENDBRANCH  22  23
ENDBRANCH  21  22
ENDBRANCH   1  21
TORSDOF 23
ENDMDL
