MODEL 1
REMARK VINA RESULT:      -9.8      0.000      0.000
REMARK SMILES O=C(OCCOCCOCCOC(=O)c1ccc(-c2c3nc(c(-c4ccc(S(=O)(=O)[O-])cc4)c4ccc([nH]4)c(-c4ccc(S(=O)(=O)[O-])cc4)c4nc(c(-c5ccc(S(=O)(=O)[O-])cc5)c5ccc2[nH]5)C=C4)C=C3)cc1)c1ccc(N[C@H]2OC[C@@H](O)[C@@H](O)[C@H]2O)cc1
REMARK SMILES IDX 7 1 6 2 5 3 4 4 3 5 2 6 1 7 75 8 76 9 90 10 77 11 89 12
REMARK SMILES IDX 78 13 79 14 80 16 81 17 87 18 82 19 85 20 83 21 88 22 86 24
REMARK SMILES IDX 84 26 8 28 9 29 10 30 11 31 12 32 13 33 14 34 15 35 16 36
REMARK SMILES IDX 74 37 17 38 73 39 18 40 19 41 20 42 67 43 21 44 72 45 66 46
REMARK SMILES IDX 68 47 22 48 71 49 65 50 64 51 23 53 53 54 34 55 52 56 35 57
REMARK SMILES IDX 38 58 51 59 69 60 36 61 37 62 50 64 70 65 39 66 24 67 25 68
REMARK SMILES IDX 33 69 26 70 32 71 27 72 28 73 29 74 30 75 31 76 54 77 55 78
REMARK SMILES IDX 63 79 56 80 62 81 57 82 58 83 59 84 60 85 61 86 40 87 41 88
REMARK SMILES IDX 49 89 42 90 48 91 43 92 44 93 45 94 46 95 47 96
REMARK H PARENT 79 15 88 23 86 25 84 27 68 52 38 63
REMARK Flexibility Score: inf
ROOT
ATOM      1  C   UNL A   1      39.230  21.561  25.815  1.00  0.00     0.188 C 
ENDROOT
BRANCH   1   2
ATOM      2  O   UNL A   1      37.978  22.193  26.115  1.00  0.00    -0.376 OA
BRANCH   2   3
ATOM      3  C   UNL A   1      37.043  22.155  25.035  1.00  0.00     0.202 C 
BRANCH   3   4
ATOM      4  C   UNL A   1      36.323  20.814  24.873  1.00  0.00     0.261 C 
BRANCH   4   5
ATOM      5  O   UNL A   1      35.124  20.763  25.661  1.00  0.00    -0.460 OA
BRANCH   5   6
ATOM      6  C   UNL A   1      33.847  20.797  25.198  1.00  0.00     0.338 C 
ATOM      7  O   UNL A   1      33.077  19.889  25.492  1.00  0.00    -0.246 OA
BRANCH   6   8
ATOM      8  C   UNL A   1      33.326  21.949  24.410  1.00  0.00     0.060 A 
ATOM      9  C   UNL A   1      34.133  22.866  23.743  1.00  0.00     0.018 A 
ATOM     10  C   UNL A   1      31.940  22.056  24.254  1.00  0.00     0.018 A 
ATOM     11  C   UNL A   1      33.572  23.937  23.036  1.00  0.00     0.026 A 
ATOM     12  C   UNL A   1      31.385  23.103  23.505  1.00  0.00     0.026 A 
ATOM     13  C   UNL A   1      32.190  24.086  22.913  1.00  0.00     0.036 A 
BRANCH  13  14
ATOM     14  N   UNL A   1      31.592  25.119  22.208  1.00  0.00    -0.358 N 
ATOM     15  H   UNL A   1      31.539  25.043  21.229  1.00  0.00     0.163 HD
BRANCH  14  16
ATOM     16  C   UNL A   1      31.036  26.307  22.837  1.00  0.00     0.244 C 
ATOM     17  O   UNL A   1      31.697  26.555  24.080  1.00  0.00    -0.353 OA
ATOM     18  C   UNL A   1      31.268  27.527  21.913  1.00  0.00     0.195 C 
ATOM     19  C   UNL A   1      31.146  27.668  24.793  1.00  0.00     0.197 C 
ATOM     20  C   UNL A   1      30.670  28.768  22.588  1.00  0.00     0.178 C 
ATOM     21  C   UNL A   1      31.262  28.968  23.992  1.00  0.00     0.171 C 
BRANCH  18  22
ATOM     22  O   UNL A   1      32.685  27.741  21.718  1.00  0.00    -0.386 OA
ATOM     23  H   UNL A   1      33.099  27.964  22.567  1.00  0.00     0.211 HD
ENDBRANCH  18  22
BRANCH  20  24
ATOM     24  O   UNL A   1      30.900  29.929  21.787  1.00  0.00    -0.387 OA
ATOM     25  H   UNL A   1      31.800  30.256  21.941  1.00  0.00     0.211 HD
ENDBRANCH  20  24
BRANCH  21  26
ATOM     26  O   UNL A   1      32.639  29.360  23.907  1.00  0.00    -0.388 OA
ATOM     27  H   UNL A   1      32.837  29.649  23.002  1.00  0.00     0.211 HD
ENDBRANCH  21  26
ENDBRANCH  14  16
ENDBRANCH  13  14
ENDBRANCH   6   8
ENDBRANCH   5   6
ENDBRANCH   4   5
ENDBRANCH   3   4
ENDBRANCH   2   3
ENDBRANCH   1   2
BRANCH   1  28
ATOM     28  C   UNL A   1      40.303  21.983  26.825  1.00  0.00     0.188 C 
BRANCH  28  29
ATOM     29  O   UNL A   1      41.610  21.468  26.556  1.00  0.00    -0.376 OA
BRANCH  29  30
ATOM     30  C   UNL A   1      42.641  21.829  27.474  1.00  0.00     0.202 C 
BRANCH  30  31
ATOM     31  C   UNL A   1      43.790  22.671  26.908  1.00  0.00     0.261 C 
BRANCH  31  32
ATOM     32  O   UNL A   1      43.751  24.059  27.289  1.00  0.00    -0.460 OA
BRANCH  32  33
ATOM     33  C   UNL A   1      42.969  24.831  26.495  1.00  0.00     0.338 C 
ATOM     34  O   UNL A   1      42.792  24.714  25.294  1.00  0.00    -0.246 OA
BRANCH  33  35
ATOM     35  C   UNL A   1      42.294  25.889  27.265  1.00  0.00     0.060 A 
ATOM     36  C   UNL A   1      42.903  27.144  27.359  1.00  0.00     0.016 A 
ATOM     37  C   UNL A   1      41.212  25.562  28.087  1.00  0.00     0.016 A 
ATOM     38  C   UNL A   1      42.468  28.055  28.326  1.00  0.00     0.010 A 
ATOM     39  C   UNL A   1      40.774  26.480  29.049  1.00  0.00     0.010 A 
ATOM     40  C   UNL A   1      41.433  27.711  29.210  1.00  0.00    -0.014 A 
BRANCH  40  41
ATOM     41  C   UNL A   1      41.145  28.583  30.378  1.00  0.00     0.031 A 
ATOM     42  C   UNL A   1      41.983  28.463  31.628  1.00  0.00     0.074 A 
ATOM     43  C   UNL A   1      40.171  29.509  30.318  1.00  0.00     0.049 A 
ATOM     44  N   UNL A   1      41.917  29.156  32.738  1.00  0.00    -0.248 NA
ATOM     45  C   UNL A   1      43.030  27.430  31.626  1.00  0.00     0.031 C 
ATOM     46  C   UNL A   1      39.291  29.742  29.174  1.00  0.00     0.029 A 
ATOM     47  N   UNL A   1      39.764  30.431  31.252  1.00  0.00    -0.354 N 
ATOM     48  C   UNL A   1      42.916  28.648  33.563  1.00  0.00     0.074 A 
ATOM     49  C   UNL A   1      43.548  27.565  32.840  1.00  0.00     0.031 C 
ATOM     50  C   UNL A   1      38.447  30.745  29.472  1.00  0.00     0.029 A 
ATOM     51  C   UNL A   1      38.715  31.212  30.832  1.00  0.00     0.049 A 
ATOM     52  H   UNL A   1      40.185  30.525  32.136  1.00  0.00     0.167 HD
ATOM     53  C   UNL A   1      43.286  29.050  34.804  1.00  0.00     0.031 A 
ATOM     54  C   UNL A   1      38.041  32.188  31.470  1.00  0.00     0.031 A 
ATOM     55  C   UNL A   1      42.656  30.116  35.541  1.00  0.00     0.049 A 
ATOM     56  C   UNL A   1      38.448  32.599  32.859  1.00  0.00     0.074 A 
ATOM     57  C   UNL A   1      42.969  30.593  36.802  1.00  0.00     0.029 A 
ATOM     58  N   UNL A   1      41.587  30.870  35.084  1.00  0.00    -0.354 N 
ATOM     59  N   UNL A   1      39.408  32.121  33.613  1.00  0.00    -0.248 NA
ATOM     60  C   UNL A   1      37.685  33.695  33.475  1.00  0.00     0.031 C 
ATOM     61  C   UNL A   1      42.065  31.612  37.124  1.00  0.00     0.029 A 
ATOM     62  C   UNL A   1      41.218  31.799  36.043  1.00  0.00     0.049 A 
ATOM     63  H   UNL A   1      41.153  30.761  34.208  1.00  0.00     0.167 HD
ATOM     64  C   UNL A   1      39.374  32.867  34.786  1.00  0.00     0.074 A 
ATOM     65  C   UNL A   1      38.313  33.841  34.634  1.00  0.00     0.031 C 
ATOM     66  C   UNL A   1      40.152  32.755  35.891  1.00  0.00     0.031 A 
BRANCH  53  67
ATOM     67  C   UNL A   1      44.431  28.320  35.453  1.00  0.00    -0.014 A 
ATOM     68  C   UNL A   1      44.203  27.170  36.230  1.00  0.00     0.010 A 
ATOM     69  C   UNL A   1      45.751  28.760  35.250  1.00  0.00     0.010 A 
ATOM     70  C   UNL A   1      45.273  26.491  36.820  1.00  0.00     0.020 A 
ATOM     71  C   UNL A   1      46.826  28.072  35.822  1.00  0.00     0.020 A 
ATOM     72  C   UNL A   1      46.578  26.950  36.616  1.00  0.00     0.054 A 
BRANCH  72  73
ATOM     73  S   UNL A   1      47.953  26.039  37.373  1.00  0.00     0.124 S 
ATOM     74  O   UNL A   1      47.510  25.923  38.760  1.00  0.00    -0.237 OA
ATOM     75  O   UNL A   1      47.971  24.791  36.613  1.00  0.00    -0.237 OA
ATOM     76  O   UNL A   1      49.106  26.909  37.159  1.00  0.00    -0.744 OA
ENDBRANCH  72  73
ENDBRANCH  53  67
BRANCH  54  77
ATOM     77  C   UNL A   1      36.889  32.844  30.797  1.00  0.00    -0.014 A 
ATOM     78  C   UNL A   1      37.090  33.839  29.827  1.00  0.00     0.010 A 
ATOM     79  C   UNL A   1      35.576  32.463  31.130  1.00  0.00     0.010 A 
ATOM     80  C   UNL A   1      35.998  34.452  29.207  1.00  0.00     0.020 A 
ATOM     81  C   UNL A   1      34.483  33.058  30.497  1.00  0.00     0.020 A 
ATOM     82  C   UNL A   1      34.701  34.057  29.546  1.00  0.00     0.054 A 
BRANCH  82  83
ATOM     83  S   UNL A   1      33.290  34.805  28.684  1.00  0.00     0.124 S 
ATOM     84  O   UNL A   1      32.400  35.137  29.791  1.00  0.00    -0.237 OA
ATOM     85  O   UNL A   1      33.900  35.942  27.996  1.00  0.00    -0.237 OA
ATOM     86  O   UNL A   1      32.829  33.735  27.804  1.00  0.00    -0.744 OA
ENDBRANCH  82  83
ENDBRANCH  54  77
BRANCH  66  87
ATOM     87  C   UNL A   1      39.893  33.721  37.017  1.00  0.00    -0.014 A 
ATOM     88  C   UNL A   1      40.569  34.952  37.087  1.00  0.00     0.010 A 
ATOM     89  C   UNL A   1      38.951  33.398  38.011  1.00  0.00     0.010 A 
ATOM     90  C   UNL A   1      40.342  35.824  38.156  1.00  0.00     0.020 A 
ATOM     91  C   UNL A   1      38.705  34.277  39.070  1.00  0.00     0.020 A 
ATOM     92  C   UNL A   1      39.418  35.476  39.147  1.00  0.00     0.054 A 
BRANCH  92  93
ATOM     93  S   UNL A   1      39.131  36.622  40.524  1.00  0.00     0.124 S 
ATOM     94  O   UNL A   1      38.528  37.765  39.846  1.00  0.00    -0.237 OA
ATOM     95  O   UNL A   1      38.237  35.865  41.397  1.00  0.00    -0.237 OA
ATOM     96  O   UNL A   1      40.469  36.853  41.064  1.00  0.00    -0.744 OA
ENDBRANCH  92  93
ENDBRANCH  66  87
ENDBRANCH  40  41
ENDBRANCH  33  35
ENDBRANCH  32  33
ENDBRANCH  31  32
ENDBRANCH  30  31
ENDBRANCH  29  30
ENDBRANCH  28  29
ENDBRANCH   1  28
TORSDOF 25
ENDMDL
MODEL 2
REMARK VINA RESULT:      -9.6      5.682      8.569
REMARK SMILES O=C(OCCOCCOCCOC(=O)c1ccc(-c2c3nc(c(-c4ccc(S(=O)(=O)[O-])cc4)c4ccc([nH]4)c(-c4ccc(S(=O)(=O)[O-])cc4)c4nc(c(-c5ccc(S(=O)(=O)[O-])cc5)c5ccc2[nH]5)C=C4)C=C3)cc1)c1ccc(N[C@H]2OC[C@@H](O)[C@@H](O)[C@H]2O)cc1
REMARK SMILES IDX 7 1 6 2 5 3 4 4 3 5 2 6 1 7 75 8 76 9 90 10 77 11 89 12
REMARK SMILES IDX 78 13 79 14 80 16 81 17 87 18 82 19 85 20 83 21 88 22 86 24
REMARK SMILES IDX 84 26 8 28 9 29 10 30 11 31 12 32 13 33 14 34 15 35 16 36
REMARK SMILES IDX 74 37 17 38 73 39 18 40 19 41 20 42 67 43 21 44 72 45 66 46
REMARK SMILES IDX 68 47 22 48 71 49 65 50 64 51 23 53 53 54 34 55 52 56 35 57
REMARK SMILES IDX 38 58 51 59 69 60 36 61 37 62 50 64 70 65 39 66 24 67 25 68
REMARK SMILES IDX 33 69 26 70 32 71 27 72 28 73 29 74 30 75 31 76 54 77 55 78
REMARK SMILES IDX 63 79 56 80 62 81 57 82 58 83 59 84 60 85 61 86 40 87 41 88
REMARK SMILES IDX 49 89 42 90 48 91 43 92 44 93 45 94 46 95 47 96
REMARK H PARENT 79 15 88 23 86 25 84 27 68 52 38 63
REMARK Flexibility Score: inf
ROOT
ATOM      1  C   UNL A   1      35.990  23.831  24.974  1.00  0.00     0.188 C 
ENDROOT
BRANCH   1   2
ATOM      2  O   UNL A   1      35.054  23.232  25.883  1.00  0.00    -0.376 OA
BRANCH   2   3
ATOM      3  C   UNL A   1      33.719  23.176  25.378  1.00  0.00     0.202 C 
BRANCH   3   4
ATOM      4  C   UNL A   1      32.679  23.856  26.272  1.00  0.00     0.261 C 
BRANCH   4   5
ATOM      5  O   UNL A   1      31.638  24.468  25.495  1.00  0.00    -0.460 OA
BRANCH   5   6
ATOM      6  C   UNL A   1      31.590  25.759  25.076  1.00  0.00     0.338 C 
ATOM      7  O   UNL A   1      30.874  26.056  24.124  1.00  0.00    -0.246 OA
BRANCH   6   8
ATOM      8  C   UNL A   1      32.316  26.846  25.790  1.00  0.00     0.060 A 
ATOM      9  C   UNL A   1      33.551  27.352  25.390  1.00  0.00     0.018 A 
ATOM     10  C   UNL A   1      31.672  27.459  26.869  1.00  0.00     0.018 A 
ATOM     11  C   UNL A   1      34.183  28.363  26.122  1.00  0.00     0.026 A 
ATOM     12  C   UNL A   1      32.290  28.505  27.569  1.00  0.00     0.026 A 
ATOM     13  C   UNL A   1      33.576  28.952  27.232  1.00  0.00     0.036 A 
BRANCH  13  14
ATOM     14  N   UNL A   1      34.157  29.967  27.974  1.00  0.00    -0.358 N 
ATOM     15  H   UNL A   1      34.620  29.727  28.808  1.00  0.00     0.163 HD
BRANCH  14  16
ATOM     16  C   UNL A   1      34.121  31.369  27.588  1.00  0.00     0.244 C 
ATOM     17  O   UNL A   1      32.809  31.898  27.795  1.00  0.00    -0.353 OA
ATOM     18  C   UNL A   1      35.109  32.166  28.473  1.00  0.00     0.195 C 
ATOM     19  C   UNL A   1      32.680  33.257  27.362  1.00  0.00     0.197 C 
ATOM     20  C   UNL A   1      35.063  33.640  28.047  1.00  0.00     0.178 C 
ATOM     21  C   UNL A   1      33.630  34.187  28.121  1.00  0.00     0.171 C 
BRANCH  18  22
ATOM     22  O   UNL A   1      34.722  32.071  29.863  1.00  0.00    -0.386 OA
ATOM     23  H   UNL A   1      34.330  31.199  30.031  1.00  0.00     0.211 HD
ENDBRANCH  18  22
BRANCH  20  24
ATOM     24  O   UNL A   1      35.933  34.421  28.869  1.00  0.00    -0.387 OA
ATOM     25  H   UNL A   1      36.072  33.968  29.715  1.00  0.00     0.211 HD
ENDBRANCH  20  24
BRANCH  21  26
ATOM     26  O   UNL A   1      33.204  34.301  29.486  1.00  0.00    -0.388 OA
ATOM     27  H   UNL A   1      33.946  34.604  30.032  1.00  0.00     0.211 HD
ENDBRANCH  21  26
ENDBRANCH  14  16
ENDBRANCH  13  14
ENDBRANCH   6   8
ENDBRANCH   5   6
ENDBRANCH   4   5
ENDBRANCH   3   4
ENDBRANCH   2   3
ENDBRANCH   1   2
BRANCH   1  28
ATOM     28  C   UNL A   1      37.405  23.800  25.560  1.00  0.00     0.188 C 
BRANCH  28  29
ATOM     29  O   UNL A   1      37.791  22.542  26.119  1.00  0.00    -0.376 OA
BRANCH  29  30
ATOM     30  C   UNL A   1      37.953  21.458  25.206  1.00  0.00     0.202 C 
BRANCH  30  31
ATOM     31  C   UNL A   1      38.978  20.388  25.596  1.00  0.00     0.261 C 
BRANCH  31  32
ATOM     32  O   UNL A   1      39.974  20.835  26.534  1.00  0.00    -0.460 OA
BRANCH  32  33
ATOM     33  C   UNL A   1      41.233  20.415  26.250  1.00  0.00     0.338 C 
ATOM     34  O   UNL A   1      41.574  19.307  25.872  1.00  0.00    -0.246 OA
BRANCH  33  35
ATOM     35  C   UNL A   1      42.217  21.494  26.438  1.00  0.00     0.060 A 
ATOM     36  C   UNL A   1      42.732  21.718  27.718  1.00  0.00     0.016 A 
ATOM     37  C   UNL A   1      42.426  22.424  25.415  1.00  0.00     0.016 A 
ATOM     38  C   UNL A   1      43.406  22.911  27.994  1.00  0.00     0.010 A 
ATOM     39  C   UNL A   1      43.108  23.615  25.695  1.00  0.00     0.010 A 
ATOM     40  C   UNL A   1      43.556  23.889  26.998  1.00  0.00    -0.014 A 
BRANCH  40  41
ATOM     41  C   UNL A   1      44.055  25.240  27.365  1.00  0.00     0.031 A 
ATOM     42  C   UNL A   1      45.471  25.635  27.023  1.00  0.00     0.074 A 
ATOM     43  C   UNL A   1      43.243  26.132  27.961  1.00  0.00     0.049 A 
ATOM     44  N   UNL A   1      46.084  26.776  27.222  1.00  0.00    -0.248 NA
ATOM     45  C   UNL A   1      46.304  24.611  26.372  1.00  0.00     0.031 C 
ATOM     46  C   UNL A   1      41.852  25.890  28.340  1.00  0.00     0.029 A 
ATOM     47  N   UNL A   1      43.480  27.428  28.348  1.00  0.00    -0.354 N 
ATOM     48  C   UNL A   1      47.369  26.611  26.716  1.00  0.00     0.074 A 
ATOM     49  C   UNL A   1      47.460  25.249  26.236  1.00  0.00     0.031 C 
ATOM     50  C   UNL A   1      41.356  27.005  28.906  1.00  0.00     0.029 A 
ATOM     51  C   UNL A   1      42.398  28.030  28.945  1.00  0.00     0.049 A 
ATOM     52  H   UNL A   1      44.342  27.883  28.211  1.00  0.00     0.167 HD
ATOM     53  C   UNL A   1      48.381  27.511  26.645  1.00  0.00     0.031 A 
ATOM     54  C   UNL A   1      42.263  29.264  29.468  1.00  0.00     0.031 A 
ATOM     55  C   UNL A   1      48.309  28.864  27.133  1.00  0.00     0.049 A 
ATOM     56  C   UNL A   1      43.408  30.238  29.406  1.00  0.00     0.074 A 
ATOM     57  C   UNL A   1      49.285  29.846  27.098  1.00  0.00     0.029 A 
ATOM     58  N   UNL A   1      47.200  29.428  27.743  1.00  0.00    -0.354 N 
ATOM     59  N   UNL A   1      44.608  30.069  28.905  1.00  0.00    -0.248 NA
ATOM     60  C   UNL A   1      43.171  31.575  29.969  1.00  0.00     0.031 C 
ATOM     61  C   UNL A   1      48.778  30.993  27.720  1.00  0.00     0.029 A 
ATOM     62  C   UNL A   1      47.471  30.738  28.102  1.00  0.00     0.049 A 
ATOM     63  H   UNL A   1      46.346  28.965  27.899  1.00  0.00     0.167 HD
ATOM     64  C   UNL A   1      45.264  31.283  29.080  1.00  0.00     0.074 A 
ATOM     65  C   UNL A   1      44.322  32.182  29.713  1.00  0.00     0.031 C 
ATOM     66  C   UNL A   1      46.534  31.623  28.745  1.00  0.00     0.031 A 
BRANCH  53  67
ATOM     67  C   UNL A   1      49.670  27.052  26.017  1.00  0.00    -0.014 A 
ATOM     68  C   UNL A   1      49.982  27.388  24.687  1.00  0.00     0.010 A 
ATOM     69  C   UNL A   1      50.599  26.318  26.775  1.00  0.00     0.010 A 
ATOM     70  C   UNL A   1      51.186  26.968  24.115  1.00  0.00     0.020 A 
ATOM     71  C   UNL A   1      51.814  25.913  26.214  1.00  0.00     0.020 A 
ATOM     72  C   UNL A   1      52.093  26.228  24.881  1.00  0.00     0.054 A 
BRANCH  72  73
ATOM     73  S   UNL A   1      53.660  25.715  24.124  1.00  0.00     0.124 S 
ATOM     74  O   UNL A   1      53.375  25.878  22.701  1.00  0.00    -0.237 OA
ATOM     75  O   UNL A   1      54.618  26.665  24.686  1.00  0.00    -0.237 OA
ATOM     76  O   UNL A   1      53.825  24.334  24.572  1.00  0.00    -0.744 OA
ENDBRANCH  72  73
ENDBRANCH  53  67
BRANCH  54  77
ATOM     77  C   UNL A   1      40.982  29.647  30.116  1.00  0.00    -0.014 A 
ATOM     78  C   UNL A   1      39.964  30.281  29.384  1.00  0.00     0.010 A 
ATOM     79  C   UNL A   1      40.778  29.372  31.481  1.00  0.00     0.010 A 
ATOM     80  C   UNL A   1      38.766  30.642  30.008  1.00  0.00     0.020 A 
ATOM     81  C   UNL A   1      39.576  29.712  32.102  1.00  0.00     0.020 A 
ATOM     82  C   UNL A   1      38.580  30.355  31.363  1.00  0.00     0.054 A 
BRANCH  82  83
ATOM     83  S   UNL A   1      36.995  30.762  32.148  1.00  0.00     0.124 S 
ATOM     84  O   UNL A   1      36.102  29.767  31.562  1.00  0.00    -0.237 OA
ATOM     85  O   UNL A   1      37.287  30.594  33.570  1.00  0.00    -0.237 OA
ATOM     86  O   UNL A   1      36.760  32.143  31.732  1.00  0.00    -0.744 OA
ENDBRANCH  82  83
ENDBRANCH  54  77
BRANCH  66  87
ATOM     87  C   UNL A   1      46.972  33.031  29.045  1.00  0.00    -0.014 A 
ATOM     88  C   UNL A   1      46.690  34.084  28.157  1.00  0.00     0.010 A 
ATOM     89  C   UNL A   1      47.664  33.309  30.238  1.00  0.00     0.010 A 
ATOM     90  C   UNL A   1      47.132  35.381  28.433  1.00  0.00     0.020 A 
ATOM     91  C   UNL A   1      48.088  34.608  30.529  1.00  0.00     0.020 A 
ATOM     92  C   UNL A   1      47.838  35.633  29.613  1.00  0.00     0.054 A 
BRANCH  92  93
ATOM     93  S   UNL A   1      48.398  37.324  29.959  1.00  0.00     0.124 S 
ATOM     94  O   UNL A   1      48.884  37.207  31.331  1.00  0.00    -0.237 OA
ATOM     95  O   UNL A   1      49.427  37.541  28.944  1.00  0.00    -0.237 OA
ATOM     96  O   UNL A   1      47.190  38.128  29.792  1.00  0.00    -0.744 OA
ENDBRANCH  92  93
ENDBRANCH  66  87
ENDBRANCH  40  41
ENDBRANCH  33  35
ENDBRANCH  32  33
ENDBRANCH  31  32
ENDBRANCH  30  31
ENDBRANCH  29  30
ENDBRANCH  28  29
ENDBRANCH   1  28
TORSDOF 25
ENDMDL
MODEL 3
REMARK VINA RESULT:      -9.5      5.886      8.101
REMARK SMILES O=C(OCCOCCOCCOC(=O)c1ccc(-c2c3nc(c(-c4ccc(S(=O)(=O)[O-])cc4)c4ccc([nH]4)c(-c4ccc(S(=O)(=O)[O-])cc4)c4nc(c(-c5ccc(S(=O)(=O)[O-])cc5)c5ccc2[nH]5)C=C4)C=C3)cc1)c1ccc(N[C@H]2OC[C@@H](O)[C@@H](O)[C@H]2O)cc1
REMARK SMILES IDX 7 1 6 2 5 3 4 4 3 5 2 6 1 7 75 8 76 9 90 10 77 11 89 12
REMARK SMILES IDX 78 13 79 14 80 16 81 17 87 18 82 19 85 20 83 21 88 22 86 24
REMARK SMILES IDX 84 26 8 28 9 29 10 30 11 31 12 32 13 33 14 34 15 35 16 36
REMARK SMILES IDX 74 37 17 38 73 39 18 40 19 41 20 42 67 43 21 44 72 45 66 46
REMARK SMILES IDX 68 47 22 48 71 49 65 50 64 51 23 53 53 54 34 55 52 56 35 57
REMARK SMILES IDX 38 58 51 59 69 60 36 61 37 62 50 64 70 65 39 66 24 67 25 68
REMARK SMILES IDX 33 69 26 70 32 71 27 72 28 73 29 74 30 75 31 76 54 77 55 78
REMARK SMILES IDX 63 79 56 80 62 81 57 82 58 83 59 84 60 85 61 86 40 87 41 88
REMARK SMILES IDX 49 89 42 90 48 91 43 92 44 93 45 94 46 95 47 96
REMARK H PARENT 79 15 88 23 86 25 84 27 68 52 38 63
REMARK Flexibility Score: inf
ROOT
ATOM      1  C   UNL A   1      39.733  20.468  26.465  1.00  0.00     0.188 C 
ENDROOT
BRANCH   1   2
ATOM      2  O   UNL A   1      39.199  21.690  25.935  1.00  0.00    -0.376 OA
BRANCH   2   3
ATOM      3  C   UNL A   1      37.980  21.517  25.211  1.00  0.00     0.202 C 
BRANCH   3   4
ATOM      4  C   UNL A   1      36.806  22.339  25.751  1.00  0.00     0.261 C 
BRANCH   4   5
ATOM      5  O   UNL A   1      35.667  21.510  26.026  1.00  0.00    -0.460 OA
BRANCH   5   6
ATOM      6  C   UNL A   1      34.715  21.118  25.140  1.00  0.00     0.338 C 
ATOM      7  O   UNL A   1      34.557  19.922  24.918  1.00  0.00    -0.246 OA
BRANCH   6   8
ATOM      8  C   UNL A   1      33.797  22.092  24.487  1.00  0.00     0.060 A 
ATOM      9  C   UNL A   1      32.471  22.287  24.864  1.00  0.00     0.018 A 
ATOM     10  C   UNL A   1      34.330  22.927  23.499  1.00  0.00     0.018 A 
ATOM     11  C   UNL A   1      31.661  23.209  24.190  1.00  0.00     0.026 A 
ATOM     12  C   UNL A   1      33.525  23.882  22.861  1.00  0.00     0.026 A 
ATOM     13  C   UNL A   1      32.164  24.015  23.168  1.00  0.00     0.036 A 
BRANCH  13  14
ATOM     14  N   UNL A   1      31.404  24.953  22.488  1.00  0.00    -0.358 N 
ATOM     15  H   UNL A   1      31.123  24.744  21.568  1.00  0.00     0.163 HD
BRANCH  14  16
ATOM     16  C   UNL A   1      30.997  26.228  23.058  1.00  0.00     0.244 C 
ATOM     17  O   UNL A   1      31.814  26.538  24.190  1.00  0.00    -0.353 OA
ATOM     18  C   UNL A   1      31.191  27.342  22.001  1.00  0.00     0.195 C 
ATOM     19  C   UNL A   1      31.418  27.745  24.849  1.00  0.00     0.197 C 
ATOM     20  C   UNL A   1      30.750  28.677  22.617  1.00  0.00     0.178 C 
ATOM     21  C   UNL A   1      31.515  28.958  23.920  1.00  0.00     0.171 C 
BRANCH  18  22
ATOM     22  O   UNL A   1      32.585  27.439  21.628  1.00  0.00    -0.386 OA
ATOM     23  H   UNL A   1      33.081  26.714  22.041  1.00  0.00     0.211 HD
ENDBRANCH  18  22
BRANCH  20  24
ATOM     24  O   UNL A   1      30.952  29.743  21.687  1.00  0.00    -0.387 OA
ATOM     25  H   UNL A   1      31.431  29.410  20.912  1.00  0.00     0.211 HD
ENDBRANCH  20  24
BRANCH  21  26
ATOM     26  O   UNL A   1      32.893  29.244  23.644  1.00  0.00    -0.388 OA
ATOM     27  H   UNL A   1      33.162  28.784  22.834  1.00  0.00     0.211 HD
ENDBRANCH  21  26
ENDBRANCH  14  16
ENDBRANCH  13  14
ENDBRANCH   6   8
ENDBRANCH   5   6
ENDBRANCH   4   5
ENDBRANCH   3   4
ENDBRANCH   2   3
ENDBRANCH   1   2
BRANCH   1  28
ATOM     28  C   UNL A   1      41.242  20.384  26.211  1.00  0.00     0.188 C 
BRANCH  28  29
ATOM     29  O   UNL A   1      41.693  19.119  25.717  1.00  0.00    -0.376 OA
BRANCH  29  30
ATOM     30  C   UNL A   1      42.787  18.517  26.406  1.00  0.00     0.202 C 
BRANCH  30  31
ATOM     31  C   UNL A   1      43.974  18.078  25.541  1.00  0.00     0.261 C 
BRANCH  31  32
ATOM     32  O   UNL A   1      44.993  19.081  25.379  1.00  0.00    -0.460 OA
BRANCH  32  33
ATOM     33  C   UNL A   1      44.720  20.000  24.419  1.00  0.00     0.338 C 
ATOM     34  O   UNL A   1      44.670  19.818  23.214  1.00  0.00    -0.246 OA
BRANCH  33  35
ATOM     35  C   UNL A   1      44.456  21.327  25.001  1.00  0.00     0.060 A 
ATOM     36  C   UNL A   1      44.200  22.399  24.141  1.00  0.00     0.016 A 
ATOM     37  C   UNL A   1      44.715  21.551  26.356  1.00  0.00     0.016 A 
ATOM     38  C   UNL A   1      44.265  23.707  24.626  1.00  0.00     0.010 A 
ATOM     39  C   UNL A   1      44.772  22.864  26.840  1.00  0.00     0.010 A 
ATOM     40  C   UNL A   1      44.599  23.951  25.968  1.00  0.00    -0.014 A 
BRANCH  40  41
ATOM     41  C   UNL A   1      44.901  25.338  26.409  1.00  0.00     0.031 A 
ATOM     42  C   UNL A   1      46.301  25.882  26.267  1.00  0.00     0.074 A 
ATOM     43  C   UNL A   1      43.927  26.129  26.895  1.00  0.00     0.049 A 
ATOM     44  N   UNL A   1      46.760  27.075  26.557  1.00  0.00    -0.248 NA
ATOM     45  C   UNL A   1      47.317  24.963  25.730  1.00  0.00     0.031 C 
ATOM     46  C   UNL A   1      42.530  25.739  27.079  1.00  0.00     0.029 A 
ATOM     47  N   UNL A   1      43.974  27.435  27.321  1.00  0.00    -0.354 N 
ATOM     48  C   UNL A   1      48.112  27.053  26.231  1.00  0.00     0.074 A 
ATOM     49  C   UNL A   1      48.408  25.718  25.757  1.00  0.00     0.031 C 
ATOM     50  C   UNL A   1      41.849  26.785  27.580  1.00  0.00     0.029 A 
ATOM     51  C   UNL A   1      42.765  27.910  27.768  1.00  0.00     0.049 A 
ATOM     52  H   UNL A   1      44.794  27.978  27.307  1.00  0.00     0.167 HD
ATOM     53  C   UNL A   1      49.025  28.052  26.305  1.00  0.00     0.031 A 
ATOM     54  C   UNL A   1      42.432  29.112  28.278  1.00  0.00     0.031 A 
ATOM     55  C   UNL A   1      48.748  29.381  26.789  1.00  0.00     0.049 A 
ATOM     56  C   UNL A   1      43.468  30.199  28.380  1.00  0.00     0.074 A 
ATOM     57  C   UNL A   1      49.612  30.457  26.896  1.00  0.00     0.029 A 
ATOM     58  N   UNL A   1      47.514  29.815  27.246  1.00  0.00    -0.354 N 
ATOM     59  N   UNL A   1      44.736  30.163  28.047  1.00  0.00    -0.248 NA
ATOM     60  C   UNL A   1      43.019  31.492  28.915  1.00  0.00     0.031 C 
ATOM     61  C   UNL A   1      48.909  31.533  27.451  1.00  0.00     0.029 A 
ATOM     62  C   UNL A   1      47.596  31.138  27.649  1.00  0.00     0.049 A 
ATOM     63  H   UNL A   1      46.699  29.265  27.281  1.00  0.00     0.167 HD
ATOM     64  C   UNL A   1      45.232  31.435  28.319  1.00  0.00     0.074 A 
ATOM     65  C   UNL A   1      44.125  32.219  28.824  1.00  0.00     0.031 C 
ATOM     66  C   UNL A   1      46.494  31.908  28.164  1.00  0.00     0.031 A 
BRANCH  53  67
ATOM     67  C   UNL A   1      50.428  27.741  25.857  1.00  0.00    -0.014 A 
ATOM     68  C   UNL A   1      51.398  27.306  26.778  1.00  0.00     0.010 A 
ATOM     69  C   UNL A   1      50.769  27.839  24.497  1.00  0.00     0.010 A 
ATOM     70  C   UNL A   1      52.695  27.007  26.352  1.00  0.00     0.020 A 
ATOM     71  C   UNL A   1      52.060  27.522  24.062  1.00  0.00     0.020 A 
ATOM     72  C   UNL A   1      53.019  27.122  24.996  1.00  0.00     0.054 A 
BRANCH  72  73
ATOM     73  S   UNL A   1      54.703  26.706  24.463  1.00  0.00     0.124 S 
ATOM     74  O   UNL A   1      54.568  26.709  23.009  1.00  0.00    -0.237 OA
ATOM     75  O   UNL A   1      55.499  27.797  25.021  1.00  0.00    -0.237 OA
ATOM     76  O   UNL A   1      54.943  25.396  25.063  1.00  0.00    -0.744 OA
ENDBRANCH  72  73
ENDBRANCH  53  67
BRANCH  54  77
ATOM     77  C   UNL A   1      41.042  29.349  28.747  1.00  0.00    -0.014 A 
ATOM     78  C   UNL A   1      40.004  29.593  27.833  1.00  0.00     0.010 A 
ATOM     79  C   UNL A   1      40.756  29.328  30.124  1.00  0.00     0.010 A 
ATOM     80  C   UNL A   1      38.702  29.821  28.289  1.00  0.00     0.020 A 
ATOM     81  C   UNL A   1      39.454  29.534  30.581  1.00  0.00     0.020 A 
ATOM     82  C   UNL A   1      38.436  29.790  29.660  1.00  0.00     0.054 A 
BRANCH  82  83
ATOM     83  S   UNL A   1      36.730  30.014  30.239  1.00  0.00     0.124 S 
ATOM     84  O   UNL A   1      36.709  29.194  31.446  1.00  0.00    -0.237 OA
ATOM     85  O   UNL A   1      36.650  31.458  30.451  1.00  0.00    -0.237 OA
ATOM     86  O   UNL A   1      35.930  29.516  29.124  1.00  0.00    -0.744 OA
ENDBRANCH  82  83
ENDBRANCH  54  77
BRANCH  66  87
ATOM     87  C   UNL A   1      46.738  33.348  28.532  1.00  0.00    -0.014 A 
ATOM     88  C   UNL A   1      46.582  34.375  27.585  1.00  0.00     0.010 A 
ATOM     89  C   UNL A   1      47.117  33.678  29.846  1.00  0.00     0.010 A 
ATOM     90  C   UNL A   1      46.845  35.704  27.932  1.00  0.00     0.020 A 
ATOM     91  C   UNL A   1      47.359  35.008  30.204  1.00  0.00     0.020 A 
ATOM     92  C   UNL A   1      47.243  36.011  29.238  1.00  0.00     0.054 A 
BRANCH  92  93
ATOM     93  S   UNL A   1      47.573  37.741  29.673  1.00  0.00     0.124 S 
ATOM     94  O   UNL A   1      49.029  37.801  29.592  1.00  0.00    -0.237 OA
ATOM     95  O   UNL A   1      46.855  38.480  28.638  1.00  0.00    -0.237 OA
ATOM     96  O   UNL A   1      47.018  37.869  31.019  1.00  0.00    -0.744 OA
ENDBRANCH  92  93
ENDBRANCH  66  87
ENDBRANCH  40  41
ENDBRANCH  33  35
ENDBRANCH  32  33
ENDBRANCH  31  32
ENDBRANCH  30  31
ENDBRANCH  29  30
ENDBRANCH  28  29
ENDBRANCH   1  28
TORSDOF 25
ENDMDL
