MODEL 1
REMARK VINA RESULT:      -9.5      0.000      0.000
REMARK SMILES O=C(OCCOCCOCCOC(=O)c1ccc(-c2c3nc(c(-c4ccc(S(=O)(=O)[O-])cc4)c4ccc([nH]4)c(-c4ccc(S(=O)(=O)[O-])cc4)c4nc(c(-c5ccc(S(=O)(=O)[O-])cc5)c5ccc2[nH]5)C=C4)C=C3)cc1)C1=Cc2c(ccc(Cl)c2Oc2ccccc2)O[C@H]1C(F)(F)F
REMARK SMILES IDX 8 1 7 2 6 3 5 4 4 5 3 6 2 7 1 8 75 9 76 10 92 11 77 12 91 13
REMARK SMILES IDX 78 14 83 15 79 16 81 17 80 18 82 19 93 20 94 21 95 22 96 23
REMARK SMILES IDX 84 24 85 25 86 26 90 27 87 28 89 29 88 30 9 31 10 32 11 33
REMARK SMILES IDX 12 34 13 35 14 36 15 37 16 38 74 39 17 40 73 41 18 42 19 43
REMARK SMILES IDX 20 44 67 45 21 46 72 47 66 48 68 49 22 50 71 51 65 52 64 53
REMARK SMILES IDX 23 55 53 56 34 57 52 58 35 59 38 60 51 61 69 62 36 63 37 64
REMARK SMILES IDX 50 66 70 67 39 68 24 69 25 70 33 71 26 72 32 73 27 74 28 75
REMARK SMILES IDX 29 76 30 77 31 78 54 79 55 80 63 81 56 82 62 83 57 84 58 85
REMARK SMILES IDX 59 86 60 87 61 88 40 89 41 90 49 91 42 92 48 93 43 94 44 95
REMARK SMILES IDX 45 96 46 97 47 98
REMARK H PARENT 68 54 38 65
REMARK Flexibility Score: inf
ROOT
ATOM      1  C   UNL A   1      43.234  40.579  26.867  1.00  0.00     0.188 C 
ENDROOT
BRANCH   1   2
ATOM      2  C   UNL A   1      42.335  40.968  25.700  1.00  0.00     0.188 C 
BRANCH   2   3
ATOM      3  O   UNL A   1      42.888  41.894  24.768  1.00  0.00    -0.376 OA
BRANCH   3   4
ATOM      4  C   UNL A   1      41.978  42.078  23.709  1.00  0.00     0.202 C 
BRANCH   4   5
ATOM      5  C   UNL A   1      42.165  43.419  22.958  1.00  0.00     0.261 C 
BRANCH   5   6
ATOM      6  O   UNL A   1      43.531  43.590  22.464  1.00  0.00    -0.460 OA
BRANCH   6   7
ATOM      7  C   UNL A   1      43.931  42.978  21.310  1.00  0.00     0.338 C 
ATOM      8  O   UNL A   1      43.439  41.935  20.890  1.00  0.00    -0.246 OA
BRANCH   7   9
ATOM      9  C   UNL A   1      45.132  43.537  20.652  1.00  0.00     0.088 C 
ATOM     10  C   UNL A   1      45.060  44.859  20.554  1.00  0.00     0.031 C 
ATOM     11  C   UNL A   1      46.502  42.962  20.922  1.00  0.00     0.316 C 
ATOM     12  C   UNL A   1      45.963  45.684  19.826  1.00  0.00     0.062 A 
ATOM     13  O   UNL A   1      47.583  43.943  20.576  1.00  0.00    -0.475 OA
ATOM     14  C   UNL A   1      47.286  45.166  19.973  1.00  0.00     0.131 A 
ATOM     15  C   UNL A   1      45.621  46.993  19.387  1.00  0.00     0.156 A 
ATOM     16  C   UNL A   1      48.348  45.993  19.660  1.00  0.00     0.049 A 
ATOM     17  C   UNL A   1      46.749  47.787  19.108  1.00  0.00     0.084 A 
ATOM     18  C   UNL A   1      48.075  47.300  19.241  1.00  0.00     0.028 A 
ATOM     19  Cl  UNL A   1      46.578  49.455  18.665  1.00  0.00    -0.080 Cl
BRANCH  11  20
ATOM     20  C   UNL A   1      46.626  42.488  22.405  1.00  0.00     0.430 C 
ATOM     21  F   UNL A   1      45.903  41.359  22.620  1.00  0.00    -0.167 F 
ATOM     22  F   UNL A   1      47.904  42.212  22.745  1.00  0.00    -0.167 F 
ATOM     23  F   UNL A   1      46.183  43.416  23.284  1.00  0.00    -0.167 F 
ENDBRANCH  11  20
BRANCH  15  24
ATOM     24  O   UNL A   1      44.406  47.695  19.254  1.00  0.00    -0.455 OA
BRANCH  24  25
ATOM     25  C   UNL A   1      43.455  47.682  18.250  1.00  0.00     0.127 A 
ATOM     26  C   UNL A   1      42.730  46.558  17.880  1.00  0.00     0.047 A 
ATOM     27  C   UNL A   1      43.435  48.710  17.295  1.00  0.00     0.047 A 
ATOM     28  C   UNL A   1      41.806  46.607  16.800  1.00  0.00     0.004 A 
ATOM     29  C   UNL A   1      42.451  48.833  16.293  1.00  0.00     0.004 A 
ATOM     30  C   UNL A   1      41.587  47.781  16.079  1.00  0.00     0.000 A 
ENDBRANCH  24  25
ENDBRANCH  15  24
ENDBRANCH   7   9
ENDBRANCH   6   7
ENDBRANCH   5   6
ENDBRANCH   4   5
ENDBRANCH   3   4
ENDBRANCH   2   3
ENDBRANCH   1   2
BRANCH   1  31
ATOM     31  O   UNL A   1      44.573  41.043  26.825  1.00  0.00    -0.376 OA
BRANCH  31  32
ATOM     32  C   UNL A   1      45.620  40.084  26.809  1.00  0.00     0.202 C 
BRANCH  32  33
ATOM     33  C   UNL A   1      45.237  38.622  27.094  1.00  0.00     0.261 C 
BRANCH  33  34
ATOM     34  O   UNL A   1      46.356  37.724  26.880  1.00  0.00    -0.460 OA
BRANCH  34  35
ATOM     35  C   UNL A   1      46.951  37.174  27.982  1.00  0.00     0.338 C 
ATOM     36  O   UNL A   1      47.335  37.789  28.962  1.00  0.00    -0.246 OA
BRANCH  35  37
ATOM     37  C   UNL A   1      46.795  35.676  27.950  1.00  0.00     0.060 A 
ATOM     38  C   UNL A   1      46.522  35.061  26.711  1.00  0.00     0.016 A 
ATOM     39  C   UNL A   1      47.115  34.874  29.051  1.00  0.00     0.016 A 
ATOM     40  C   UNL A   1      46.507  33.662  26.590  1.00  0.00     0.010 A 
ATOM     41  C   UNL A   1      47.056  33.475  28.941  1.00  0.00     0.010 A 
ATOM     42  C   UNL A   1      46.699  32.861  27.725  1.00  0.00    -0.014 A 
BRANCH  42  43
ATOM     43  C   UNL A   1      46.142  31.477  27.764  1.00  0.00     0.031 A 
ATOM     44  C   UNL A   1      47.059  30.382  27.267  1.00  0.00     0.074 A 
ATOM     45  C   UNL A   1      44.886  31.166  28.140  1.00  0.00     0.049 A 
ATOM     46  N   UNL A   1      46.824  29.108  27.089  1.00  0.00    -0.248 NA
ATOM     47  C   UNL A   1      48.432  30.791  26.916  1.00  0.00     0.031 C 
ATOM     48  C   UNL A   1      43.896  32.093  28.682  1.00  0.00     0.029 A 
ATOM     49  N   UNL A   1      44.226  29.957  28.101  1.00  0.00    -0.354 N 
ATOM     50  C   UNL A   1      48.015  28.572  26.610  1.00  0.00     0.074 A 
ATOM     51  C   UNL A   1      48.964  29.654  26.505  1.00  0.00     0.031 C 
ATOM     52  C   UNL A   1      42.746  31.423  28.902  1.00  0.00     0.029 A 
ATOM     53  C   UNL A   1      42.906  30.028  28.485  1.00  0.00     0.049 A 
ATOM     54  H   UNL A   1      44.659  29.119  27.822  1.00  0.00     0.167 HD
ATOM     55  C   UNL A   1      48.306  27.295  26.273  1.00  0.00     0.031 A 
ATOM     56  C   UNL A   1      41.937  29.084  28.479  1.00  0.00     0.031 A 
ATOM     57  C   UNL A   1      47.360  26.218  26.302  1.00  0.00     0.049 A 
ATOM     58  C   UNL A   1      42.254  27.683  27.997  1.00  0.00     0.074 A 
ATOM     59  C   UNL A   1      47.561  24.892  25.961  1.00  0.00     0.029 A 
ATOM     60  N   UNL A   1      46.031  26.345  26.668  1.00  0.00    -0.354 N 
ATOM     61  N   UNL A   1      43.395  27.184  27.584  1.00  0.00    -0.248 NA
ATOM     62  C   UNL A   1      41.143  26.714  27.982  1.00  0.00     0.031 C 
ATOM     63  C   UNL A   1      46.335  24.229  26.061  1.00  0.00     0.029 A 
ATOM     64  C   UNL A   1      45.390  25.126  26.536  1.00  0.00     0.049 A 
ATOM     65  H   UNL A   1      45.606  27.177  26.978  1.00  0.00     0.167 HD
ATOM     66  C   UNL A   1      43.147  25.842  27.297  1.00  0.00     0.074 A 
ATOM     67  C   UNL A   1      41.751  25.602  27.591  1.00  0.00     0.031 C 
ATOM     68  C   UNL A   1      44.001  24.891  26.838  1.00  0.00     0.031 A 
BRANCH  55  69
ATOM     69  C   UNL A   1      49.702  27.020  25.787  1.00  0.00    -0.014 A 
ATOM     70  C   UNL A   1      50.698  26.557  26.665  1.00  0.00     0.010 A 
ATOM     71  C   UNL A   1      50.021  27.229  24.434  1.00  0.00     0.010 A 
ATOM     72  C   UNL A   1      51.998  26.343  26.207  1.00  0.00     0.020 A 
ATOM     73  C   UNL A   1      51.313  26.986  23.964  1.00  0.00     0.020 A 
ATOM     74  C   UNL A   1      52.298  26.561  24.858  1.00  0.00     0.054 A 
BRANCH  74  75
ATOM     75  S   UNL A   1      53.991  26.256  24.286  1.00  0.00     0.124 S 
ATOM     76  O   UNL A   1      53.818  26.226  22.836  1.00  0.00    -0.237 OA
ATOM     77  O   UNL A   1      54.717  27.411  24.808  1.00  0.00    -0.237 OA
ATOM     78  O   UNL A   1      54.338  24.976  24.898  1.00  0.00    -0.744 OA
ENDBRANCH  74  75
ENDBRANCH  55  69
BRANCH  56  79
ATOM     79  C   UNL A   1      40.547  29.418  28.918  1.00  0.00    -0.014 A 
ATOM     80  C   UNL A   1      39.537  29.679  27.974  1.00  0.00     0.010 A 
ATOM     81  C   UNL A   1      40.237  29.523  30.286  1.00  0.00     0.010 A 
ATOM     82  C   UNL A   1      38.254  30.058  28.387  1.00  0.00     0.020 A 
ATOM     83  C   UNL A   1      38.947  29.873  30.704  1.00  0.00     0.020 A 
ATOM     84  C   UNL A   1      37.967  30.151  29.750  1.00  0.00     0.054 A 
BRANCH  84  85
ATOM     85  S   UNL A   1      36.284  30.606  30.264  1.00  0.00     0.124 S 
ATOM     86  O   UNL A   1      35.483  30.135  29.137  1.00  0.00    -0.237 OA
ATOM     87  O   UNL A   1      36.119  29.861  31.509  1.00  0.00    -0.237 OA
ATOM     88  O   UNL A   1      36.352  32.058  30.417  1.00  0.00    -0.744 OA
ENDBRANCH  84  85
ENDBRANCH  56  79
BRANCH  68  89
ATOM     89  C   UNL A   1      43.482  23.485  26.667  1.00  0.00    -0.014 A 
ATOM     90  C   UNL A   1      43.401  22.876  25.402  1.00  0.00     0.010 A 
ATOM     91  C   UNL A   1      43.154  22.729  27.809  1.00  0.00     0.010 A 
ATOM     92  C   UNL A   1      42.976  21.548  25.282  1.00  0.00     0.020 A 
ATOM     93  C   UNL A   1      42.756  21.394  27.697  1.00  0.00     0.020 A 
ATOM     94  C   UNL A   1      42.658  20.815  26.430  1.00  0.00     0.054 A 
BRANCH  94  95
ATOM     95  S   UNL A   1      42.159  19.079  26.251  1.00  0.00     0.124 S 
ATOM     96  O   UNL A   1      43.144  18.575  25.298  1.00  0.00    -0.237 OA
ATOM     97  O   UNL A   1      42.284  18.567  27.614  1.00  0.00    -0.237 OA
ATOM     98  O   UNL A   1      40.790  19.161  25.747  1.00  0.00    -0.744 OA
ENDBRANCH  94  95
ENDBRANCH  68  89
ENDBRANCH  42  43
ENDBRANCH  35  37
ENDBRANCH  34  35
ENDBRANCH  33  34
ENDBRANCH  32  33
ENDBRANCH  31  32
ENDBRANCH   1  31
TORSDOF 23
ENDMDL
MODEL 2
REMARK VINA RESULT:      -8.9      7.372     14.459
REMARK SMILES O=C(OCCOCCOCCOC(=O)c1ccc(-c2c3nc(c(-c4ccc(S(=O)(=O)[O-])cc4)c4ccc([nH]4)c(-c4ccc(S(=O)(=O)[O-])cc4)c4nc(c(-c5ccc(S(=O)(=O)[O-])cc5)c5ccc2[nH]5)C=C4)C=C3)cc1)C1=Cc2c(ccc(Cl)c2Oc2ccccc2)O[C@H]1C(F)(F)F
REMARK SMILES IDX 8 1 7 2 6 3 5 4 4 5 3 6 2 7 1 8 75 9 76 10 92 11 77 12 91 13
REMARK SMILES IDX 78 14 83 15 79 16 81 17 80 18 82 19 93 20 94 21 95 22 96 23
REMARK SMILES IDX 84 24 85 25 86 26 90 27 87 28 89 29 88 30 9 31 10 32 11 33
REMARK SMILES IDX 12 34 13 35 14 36 15 37 16 38 74 39 17 40 73 41 18 42 19 43
REMARK SMILES IDX 20 44 67 45 21 46 72 47 66 48 68 49 22 50 71 51 65 52 64 53
REMARK SMILES IDX 23 55 53 56 34 57 52 58 35 59 38 60 51 61 69 62 36 63 37 64
REMARK SMILES IDX 50 66 70 67 39 68 24 69 25 70 33 71 26 72 32 73 27 74 28 75
REMARK SMILES IDX 29 76 30 77 31 78 54 79 55 80 63 81 56 82 62 83 57 84 58 85
REMARK SMILES IDX 59 86 60 87 61 88 40 89 41 90 49 91 42 92 48 93 43 94 44 95
REMARK SMILES IDX 45 96 46 97 47 98
REMARK H PARENT 68 54 38 65
REMARK Flexibility Score: inf
ROOT
ATOM      1  C   UNL A   1      37.540  31.970  39.773  1.00  0.00     0.188 C 
ENDROOT
BRANCH   1   2
ATOM      2  C   UNL A   1      36.810  32.962  38.878  1.00  0.00     0.188 C 
BRANCH   2   3
ATOM      3  O   UNL A   1      36.844  32.685  37.481  1.00  0.00    -0.376 OA
BRANCH   3   4
ATOM      4  C   UNL A   1      38.124  32.996  36.982  1.00  0.00     0.202 C 
BRANCH   4   5
ATOM      5  C   UNL A   1      38.735  31.879  36.102  1.00  0.00     0.261 C 
BRANCH   5   6
ATOM      6  O   UNL A   1      37.727  31.208  35.282  1.00  0.00    -0.460 OA
BRANCH   6   7
ATOM      7  C   UNL A   1      37.776  31.293  33.919  1.00  0.00     0.338 C 
ATOM      8  O   UNL A   1      37.145  30.553  33.170  1.00  0.00    -0.246 OA
BRANCH   7   9
ATOM      9  C   UNL A   1      38.780  32.221  33.355  1.00  0.00     0.088 C 
ATOM     10  C   UNL A   1      39.415  31.681  32.321  1.00  0.00     0.031 C 
ATOM     11  C   UNL A   1      38.503  33.703  33.265  1.00  0.00     0.316 C 
ATOM     12  C   UNL A   1      40.548  32.235  31.665  1.00  0.00     0.062 A 
ATOM     13  O   UNL A   1      39.387  34.363  32.250  1.00  0.00    -0.475 OA
ATOM     14  C   UNL A   1      40.398  33.655  31.598  1.00  0.00     0.131 A 
ATOM     15  C   UNL A   1      41.442  31.452  30.883  1.00  0.00     0.156 A 
ATOM     16  C   UNL A   1      41.185  34.352  30.703  1.00  0.00     0.049 A 
ATOM     17  C   UNL A   1      42.195  32.222  29.979  1.00  0.00     0.084 A 
ATOM     18  C   UNL A   1      42.070  33.632  29.891  1.00  0.00     0.028 A 
ATOM     19  Cl  UNL A   1      43.268  31.469  28.843  1.00  0.00    -0.080 Cl
BRANCH  11  20
ATOM     20  C   UNL A   1      36.995  33.970  32.956  1.00  0.00     0.430 C 
ATOM     21  F   UNL A   1      36.598  33.302  31.842  1.00  0.00    -0.167 F 
ATOM     22  F   UNL A   1      36.191  33.572  33.966  1.00  0.00    -0.167 F 
ATOM     23  F   UNL A   1      36.734  35.280  32.745  1.00  0.00    -0.167 F 
ENDBRANCH  11  20
BRANCH  15  24
ATOM     24  O   UNL A   1      41.674  30.068  30.755  1.00  0.00    -0.455 OA
BRANCH  24  25
ATOM     25  C   UNL A   1      40.915  29.069  30.172  1.00  0.00     0.127 A 
ATOM     26  C   UNL A   1      40.875  28.818  28.808  1.00  0.00     0.047 A 
ATOM     27  C   UNL A   1      39.851  28.496  30.885  1.00  0.00     0.047 A 
ATOM     28  C   UNL A   1      40.027  27.809  28.275  1.00  0.00     0.004 A 
ATOM     29  C   UNL A   1      39.081  27.413  30.414  1.00  0.00     0.004 A 
ATOM     30  C   UNL A   1      39.213  27.030  29.096  1.00  0.00     0.000 A 
ENDBRANCH  24  25
ENDBRANCH  15  24
ENDBRANCH   7   9
ENDBRANCH   6   7
ENDBRANCH   5   6
ENDBRANCH   4   5
ENDBRANCH   3   4
ENDBRANCH   2   3
ENDBRANCH   1   2
BRANCH   1  31
ATOM     31  O   UNL A   1      38.803  32.371  40.276  1.00  0.00    -0.376 OA
BRANCH  31  32
ATOM     32  C   UNL A   1      39.040  33.755  40.483  1.00  0.00     0.202 C 
BRANCH  32  33
ATOM     33  C   UNL A   1      40.179  34.400  39.677  1.00  0.00     0.261 C 
BRANCH  33  34
ATOM     34  O   UNL A   1      40.225  35.837  39.871  1.00  0.00    -0.460 OA
BRANCH  34  35
ATOM     35  C   UNL A   1      39.810  36.633  38.839  1.00  0.00     0.338 C 
ATOM     36  O   UNL A   1      39.074  37.600  38.940  1.00  0.00    -0.246 OA
BRANCH  35  37
ATOM     37  C   UNL A   1      40.624  36.334  37.607  1.00  0.00     0.060 A 
ATOM     38  C   UNL A   1      39.945  36.173  36.382  1.00  0.00     0.016 A 
ATOM     39  C   UNL A   1      42.021  36.417  37.603  1.00  0.00     0.016 A 
ATOM     40  C   UNL A   1      40.655  36.035  35.179  1.00  0.00     0.010 A 
ATOM     41  C   UNL A   1      42.731  36.234  36.406  1.00  0.00     0.010 A 
ATOM     42  C   UNL A   1      42.056  35.988  35.196  1.00  0.00    -0.014 A 
BRANCH  42  43
ATOM     43  C   UNL A   1      42.792  35.296  34.097  1.00  0.00     0.031 A 
ATOM     44  C   UNL A   1      42.898  33.793  34.218  1.00  0.00     0.074 A 
ATOM     45  C   UNL A   1      43.405  35.921  33.073  1.00  0.00     0.049 A 
ATOM     46  N   UNL A   1      43.554  32.936  33.480  1.00  0.00    -0.248 NA
ATOM     47  C   UNL A   1      42.164  33.176  35.338  1.00  0.00     0.031 C 
ATOM     48  C   UNL A   1      43.363  37.353  32.789  1.00  0.00     0.029 A 
ATOM     49  N   UNL A   1      44.210  35.407  32.080  1.00  0.00    -0.354 N 
ATOM     50  C   UNL A   1      43.308  31.690  34.045  1.00  0.00     0.074 A 
ATOM     51  C   UNL A   1      42.464  31.898  35.197  1.00  0.00     0.031 C 
ATOM     52  C   UNL A   1      44.129  37.606  31.708  1.00  0.00     0.029 A 
ATOM     53  C   UNL A   1      44.744  36.361  31.242  1.00  0.00     0.049 A 
ATOM     54  H   UNL A   1      44.388  34.444  31.979  1.00  0.00     0.167 HD
ATOM     55  C   UNL A   1      43.749  30.471  33.659  1.00  0.00     0.031 A 
ATOM     56  C   UNL A   1      45.640  36.245  30.236  1.00  0.00     0.031 A 
ATOM     57  C   UNL A   1      44.645  30.248  32.562  1.00  0.00     0.049 A 
ATOM     58  C   UNL A   1      46.206  34.883  29.884  1.00  0.00     0.074 A 
ATOM     59  C   UNL A   1      45.159  29.047  32.107  1.00  0.00     0.029 A 
ATOM     60  N   UNL A   1      45.181  31.246  31.766  1.00  0.00    -0.354 N 
ATOM     61  N   UNL A   1      45.932  33.709  30.406  1.00  0.00    -0.248 NA
ATOM     62  C   UNL A   1      47.204  34.833  28.802  1.00  0.00     0.031 C 
ATOM     63  C   UNL A   1      46.057  29.324  31.073  1.00  0.00     0.029 A 
ATOM     64  C   UNL A   1      46.043  30.691  30.837  1.00  0.00     0.049 A 
ATOM     65  H   UNL A   1      44.978  32.205  31.847  1.00  0.00     0.167 HD
ATOM     66  C   UNL A   1      46.695  32.785  29.692  1.00  0.00     0.074 A 
ATOM     67  C   UNL A   1      47.434  33.531  28.697  1.00  0.00     0.031 C 
ATOM     68  C   UNL A   1      46.770  31.438  29.843  1.00  0.00     0.031 A 
BRANCH  55  69
ATOM     69  C   UNL A   1      43.301  29.293  34.480  1.00  0.00    -0.014 A 
ATOM     70  C   UNL A   1      42.116  28.602  34.170  1.00  0.00     0.010 A 
ATOM     71  C   UNL A   1      44.076  28.874  35.575  1.00  0.00     0.010 A 
ATOM     72  C   UNL A   1      41.694  27.535  34.964  1.00  0.00     0.020 A 
ATOM     73  C   UNL A   1      43.674  27.787  36.353  1.00  0.00     0.020 A 
ATOM     74  C   UNL A   1      42.476  27.135  36.053  1.00  0.00     0.054 A 
BRANCH  74  75
ATOM     75  S   UNL A   1      41.914  25.733  37.055  1.00  0.00     0.124 S 
ATOM     76  O   UNL A   1      40.570  26.157  37.438  1.00  0.00    -0.237 OA
ATOM     77  O   UNL A   1      41.977  24.620  36.111  1.00  0.00    -0.237 OA
ATOM     78  O   UNL A   1      42.883  25.676  38.147  1.00  0.00    -0.744 OA
ENDBRANCH  74  75
ENDBRANCH  55  69
BRANCH  56  79
ATOM     79  C   UNL A   1      46.101  37.452  29.484  1.00  0.00    -0.014 A 
ATOM     80  C   UNL A   1      47.222  38.185  29.915  1.00  0.00     0.010 A 
ATOM     81  C   UNL A   1      45.390  37.905  28.357  1.00  0.00     0.010 A 
ATOM     82  C   UNL A   1      47.610  39.354  29.249  1.00  0.00     0.020 A 
ATOM     83  C   UNL A   1      45.793  39.057  27.671  1.00  0.00     0.020 A 
ATOM     84  C   UNL A   1      46.893  39.781  28.129  1.00  0.00     0.054 A 
BRANCH  84  85
ATOM     85  S   UNL A   1      47.439  41.279  27.257  1.00  0.00     0.124 S 
ATOM     86  O   UNL A   1      46.395  42.237  27.613  1.00  0.00    -0.237 OA
ATOM     87  O   UNL A   1      48.751  41.530  27.847  1.00  0.00    -0.237 OA
ATOM     88  O   UNL A   1      47.460  40.872  25.854  1.00  0.00    -0.744 OA
ENDBRANCH  84  85
ENDBRANCH  56  79
BRANCH  68  89
ATOM     89  C   UNL A   1      47.640  30.658  28.888  1.00  0.00    -0.014 A 
ATOM     90  C   UNL A   1      48.993  30.395  29.166  1.00  0.00     0.010 A 
ATOM     91  C   UNL A   1      47.062  30.101  27.730  1.00  0.00     0.010 A 
ATOM     92  C   UNL A   1      49.757  29.615  28.291  1.00  0.00     0.020 A 
ATOM     93  C   UNL A   1      47.814  29.298  26.869  1.00  0.00     0.020 A 
ATOM     94  C   UNL A   1      49.162  29.070  27.149  1.00  0.00     0.054 A 
BRANCH  94  95
ATOM     95  S   UNL A   1      50.161  28.018  26.058  1.00  0.00     0.124 S 
ATOM     96  O   UNL A   1      49.652  26.685  26.369  1.00  0.00    -0.237 OA
ATOM     97  O   UNL A   1      49.826  28.524  24.730  1.00  0.00    -0.237 OA
ATOM     98  O   UNL A   1      51.534  28.276  26.488  1.00  0.00    -0.744 OA
ENDBRANCH  94  95
ENDBRANCH  68  89
ENDBRANCH  42  43
ENDBRANCH  35  37
ENDBRANCH  34  35
ENDBRANCH  33  34
ENDBRANCH  32  33
ENDBRANCH  31  32
ENDBRANCH   1  31
TORSDOF 23
ENDMDL
MODEL 3
REMARK VINA RESULT:      -8.7      5.071     10.421
REMARK SMILES O=C(OCCOCCOCCOC(=O)c1ccc(-c2c3nc(c(-c4ccc(S(=O)(=O)[O-])cc4)c4ccc([nH]4)c(-c4ccc(S(=O)(=O)[O-])cc4)c4nc(c(-c5ccc(S(=O)(=O)[O-])cc5)c5ccc2[nH]5)C=C4)C=C3)cc1)C1=Cc2c(ccc(Cl)c2Oc2ccccc2)O[C@H]1C(F)(F)F
REMARK SMILES IDX 8 1 7 2 6 3 5 4 4 5 3 6 2 7 1 8 75 9 76 10 92 11 77 12 91 13
REMARK SMILES IDX 78 14 83 15 79 16 81 17 80 18 82 19 93 20 94 21 95 22 96 23
REMARK SMILES IDX 84 24 85 25 86 26 90 27 87 28 89 29 88 30 9 31 10 32 11 33
REMARK SMILES IDX 12 34 13 35 14 36 15 37 16 38 74 39 17 40 73 41 18 42 19 43
REMARK SMILES IDX 20 44 67 45 21 46 72 47 66 48 68 49 22 50 71 51 65 52 64 53
REMARK SMILES IDX 23 55 53 56 34 57 52 58 35 59 38 60 51 61 69 62 36 63 37 64
REMARK SMILES IDX 50 66 70 67 39 68 24 69 25 70 33 71 26 72 32 73 27 74 28 75
REMARK SMILES IDX 29 76 30 77 31 78 54 79 55 80 63 81 56 82 62 83 57 84 58 85
REMARK SMILES IDX 59 86 60 87 61 88 40 89 41 90 49 91 42 92 48 93 43 94 44 95
REMARK SMILES IDX 45 96 46 97 47 98
REMARK H PARENT 68 54 38 65
REMARK Flexibility Score: inf
ROOT
ATOM      1  C   UNL A   1      52.890  33.108  25.024  1.00  0.00     0.188 C 
ENDROOT
BRANCH   1   2
ATOM      2  C   UNL A   1      51.664  33.643  25.751  1.00  0.00     0.188 C 
BRANCH   2   3
ATOM      3  O   UNL A   1      50.410  33.402  25.119  1.00  0.00    -0.376 OA
BRANCH   3   4
ATOM      4  C   UNL A   1      49.514  34.432  25.469  1.00  0.00     0.202 C 
BRANCH   4   5
ATOM      5  C   UNL A   1      49.791  35.048  26.862  1.00  0.00     0.261 C 
BRANCH   5   6
ATOM      6  O   UNL A   1      48.587  35.620  27.463  1.00  0.00    -0.460 OA
BRANCH   6   7
ATOM      7  C   UNL A   1      47.736  36.382  26.713  1.00  0.00     0.338 C 
ATOM      8  O   UNL A   1      48.105  37.103  25.791  1.00  0.00    -0.246 OA
BRANCH   7   9
ATOM      9  C   UNL A   1      46.333  36.448  27.176  1.00  0.00     0.088 C 
ATOM     10  C   UNL A   1      45.691  37.478  26.638  1.00  0.00     0.031 C 
ATOM     11  C   UNL A   1      45.522  35.189  27.376  1.00  0.00     0.316 C 
ATOM     12  C   UNL A   1      44.390  37.924  27.003  1.00  0.00     0.062 A 
ATOM     13  O   UNL A   1      44.051  35.478  27.355  1.00  0.00    -0.475 OA
ATOM     14  C   UNL A   1      43.570  36.786  27.278  1.00  0.00     0.131 A 
ATOM     15  C   UNL A   1      43.929  39.242  26.736  1.00  0.00     0.156 A 
ATOM     16  C   UNL A   1      42.200  36.960  27.297  1.00  0.00     0.049 A 
ATOM     17  C   UNL A   1      42.525  39.342  26.750  1.00  0.00     0.084 A 
ATOM     18  C   UNL A   1      41.685  38.233  27.023  1.00  0.00     0.028 A 
ATOM     19  Cl  UNL A   1      41.733  40.830  26.340  1.00  0.00    -0.080 Cl
BRANCH  11  20
ATOM     20  C   UNL A   1      45.899  34.109  26.312  1.00  0.00     0.430 C 
ATOM     21  F   UNL A   1      46.881  33.291  26.771  1.00  0.00    -0.167 F 
ATOM     22  F   UNL A   1      44.847  33.325  25.990  1.00  0.00    -0.167 F 
ATOM     23  F   UNL A   1      46.345  34.653  25.157  1.00  0.00    -0.167 F 
ENDBRANCH  11  20
BRANCH  15  24
ATOM     24  O   UNL A   1      44.564  40.448  26.377  1.00  0.00    -0.455 OA
BRANCH  24  25
ATOM     25  C   UNL A   1      44.878  41.568  27.126  1.00  0.00     0.127 A 
ATOM     26  C   UNL A   1      44.860  41.606  28.513  1.00  0.00     0.047 A 
ATOM     27  C   UNL A   1      44.866  42.835  26.524  1.00  0.00     0.047 A 
ATOM     28  C   UNL A   1      45.141  42.810  29.215  1.00  0.00     0.004 A 
ATOM     29  C   UNL A   1      45.259  44.020  27.178  1.00  0.00     0.004 A 
ATOM     30  C   UNL A   1      45.452  43.992  28.542  1.00  0.00     0.000 A 
ENDBRANCH  24  25
ENDBRANCH  15  24
ENDBRANCH   7   9
ENDBRANCH   6   7
ENDBRANCH   5   6
ENDBRANCH   4   5
ENDBRANCH   3   4
ENDBRANCH   2   3
ENDBRANCH   1   2
BRANCH   1  31
ATOM     31  O   UNL A   1      53.477  31.926  25.541  1.00  0.00    -0.376 OA
BRANCH  31  32
ATOM     32  C   UNL A   1      53.711  30.842  24.654  1.00  0.00     0.202 C 
BRANCH  32  33
ATOM     33  C   UNL A   1      53.559  29.423  25.225  1.00  0.00     0.261 C 
BRANCH  33  34
ATOM     34  O   UNL A   1      52.167  29.087  25.460  1.00  0.00    -0.460 OA
BRANCH  34  35
ATOM     35  C   UNL A   1      51.857  28.434  26.621  1.00  0.00     0.338 C 
ATOM     36  O   UNL A   1      52.559  27.608  27.180  1.00  0.00    -0.246 OA
BRANCH  35  37
ATOM     37  C   UNL A   1      50.669  29.092  27.273  1.00  0.00     0.060 A 
ATOM     38  C   UNL A   1      50.295  28.664  28.564  1.00  0.00     0.016 A 
ATOM     39  C   UNL A   1      50.068  30.236  26.736  1.00  0.00     0.016 A 
ATOM     40  C   UNL A   1      49.290  29.333  29.280  1.00  0.00     0.010 A 
ATOM     41  C   UNL A   1      49.031  30.877  27.434  1.00  0.00     0.010 A 
ATOM     42  C   UNL A   1      48.599  30.398  28.685  1.00  0.00    -0.014 A 
BRANCH  42  43
ATOM     43  C   UNL A   1      47.218  30.737  29.139  1.00  0.00     0.031 A 
ATOM     44  C   UNL A   1      46.149  29.717  28.821  1.00  0.00     0.074 A 
ATOM     45  C   UNL A   1      46.871  31.895  29.736  1.00  0.00     0.049 A 
ATOM     46  N   UNL A   1      44.855  29.775  28.998  1.00  0.00    -0.248 NA
ATOM     47  C   UNL A   1      46.612  28.458  28.209  1.00  0.00     0.031 C 
ATOM     48  C   UNL A   1      47.782  32.958  30.149  1.00  0.00     0.029 A 
ATOM     49  N   UNL A   1      45.624  32.368  30.084  1.00  0.00    -0.354 N 
ATOM     50  C   UNL A   1      44.358  28.566  28.523  1.00  0.00     0.074 A 
ATOM     51  C   UNL A   1      45.479  27.803  28.031  1.00  0.00     0.031 C 
ATOM     52  C   UNL A   1      47.061  33.971  30.673  1.00  0.00     0.029 A 
ATOM     53  C   UNL A   1      45.635  33.644  30.602  1.00  0.00     0.049 A 
ATOM     54  H   UNL A   1      44.800  31.842  29.971  1.00  0.00     0.167 HD
ATOM     55  C   UNL A   1      43.082  28.121  28.482  1.00  0.00     0.031 A 
ATOM     56  C   UNL A   1      44.615  34.459  30.954  1.00  0.00     0.031 A 
ATOM     57  C   UNL A   1      41.945  28.890  28.898  1.00  0.00     0.049 A 
ATOM     58  C   UNL A   1      43.183  33.982  30.802  1.00  0.00     0.074 A 
ATOM     59  C   UNL A   1      40.611  28.525  28.877  1.00  0.00     0.029 A 
ATOM     60  N   UNL A   1      42.005  30.184  29.386  1.00  0.00    -0.354 N 
ATOM     61  N   UNL A   1      42.734  32.821  30.386  1.00  0.00    -0.248 NA
ATOM     62  C   UNL A   1      42.120  34.933  31.170  1.00  0.00     0.031 C 
ATOM     63  C   UNL A   1      39.856  29.625  29.294  1.00  0.00     0.029 A 
ATOM     64  C   UNL A   1      40.726  30.646  29.644  1.00  0.00     0.049 A 
ATOM     65  H   UNL A   1      42.832  30.698  29.528  1.00  0.00     0.167 HD
ATOM     66  C   UNL A   1      41.344  32.892  30.479  1.00  0.00     0.074 A 
ATOM     67  C   UNL A   1      41.025  34.204  30.996  1.00  0.00     0.031 C 
ATOM     68  C   UNL A   1      40.416  31.951  30.168  1.00  0.00     0.031 A 
BRANCH  55  69
ATOM     69  C   UNL A   1      42.858  26.749  27.908  1.00  0.00    -0.014 A 
ATOM     70  C   UNL A   1      42.943  25.602  28.717  1.00  0.00     0.010 A 
ATOM     71  C   UNL A   1      42.558  26.607  26.542  1.00  0.00     0.010 A 
ATOM     72  C   UNL A   1      42.770  24.333  28.161  1.00  0.00     0.020 A 
ATOM     73  C   UNL A   1      42.353  25.342  25.988  1.00  0.00     0.020 A 
ATOM     74  C   UNL A   1      42.478  24.212  26.798  1.00  0.00     0.054 A 
BRANCH  74  75
ATOM     75  S   UNL A   1      42.238  22.553  26.108  1.00  0.00     0.124 S 
ATOM     76  O   UNL A   1      42.998  21.726  27.042  1.00  0.00    -0.237 OA
ATOM     77  O   UNL A   1      40.787  22.391  26.164  1.00  0.00    -0.237 OA
ATOM     78  O   UNL A   1      42.800  22.652  24.764  1.00  0.00    -0.744 OA
ENDBRANCH  74  75
ENDBRANCH  55  69
BRANCH  56  79
ATOM     79  C   UNL A   1      44.883  35.837  31.467  1.00  0.00    -0.014 A 
ATOM     80  C   UNL A   1      44.986  36.927  30.583  1.00  0.00     0.010 A 
ATOM     81  C   UNL A   1      45.085  36.061  32.842  1.00  0.00     0.010 A 
ATOM     82  C   UNL A   1      45.306  38.205  31.058  1.00  0.00     0.020 A 
ATOM     83  C   UNL A   1      45.376  37.342  33.324  1.00  0.00     0.020 A 
ATOM     84  C   UNL A   1      45.497  38.404  32.428  1.00  0.00     0.054 A 
BRANCH  84  85
ATOM     85  S   UNL A   1      45.871  40.078  33.027  1.00  0.00     0.124 S 
ATOM     86  O   UNL A   1      47.297  40.196  32.732  1.00  0.00    -0.237 OA
ATOM     87  O   UNL A   1      44.990  40.912  32.214  1.00  0.00    -0.237 OA
ATOM     88  O   UNL A   1      45.530  40.020  34.446  1.00  0.00    -0.744 OA
ENDBRANCH  84  85
ENDBRANCH  56  79
BRANCH  68  89
ATOM     89  C   UNL A   1      38.962  32.269  30.421  1.00  0.00    -0.014 A 
ATOM     90  C   UNL A   1      38.315  31.874  31.605  1.00  0.00     0.010 A 
ATOM     91  C   UNL A   1      38.259  33.058  29.491  1.00  0.00     0.010 A 
ATOM     92  C   UNL A   1      36.984  32.238  31.839  1.00  0.00     0.020 A 
ATOM     93  C   UNL A   1      36.939  33.448  29.733  1.00  0.00     0.020 A 
ATOM     94  C   UNL A   1      36.305  33.025  30.903  1.00  0.00     0.054 A 
BRANCH  94  95
ATOM     95  S   UNL A   1      34.597  33.527  31.255  1.00  0.00     0.124 S 
ATOM     96  O   UNL A   1      33.978  33.447  29.935  1.00  0.00    -0.237 OA
ATOM     97  O   UNL A   1      34.158  32.519  32.217  1.00  0.00    -0.237 OA
ATOM     98  O   UNL A   1      34.736  34.877  31.796  1.00  0.00    -0.744 OA
ENDBRANCH  94  95
ENDBRANCH  68  89
ENDBRANCH  42  43
ENDBRANCH  35  37
ENDBRANCH  34  35
ENDBRANCH  33  34
ENDBRANCH  32  33
ENDBRANCH  31  32
ENDBRANCH   1  31
TORSDOF 23
ENDMDL
