MODEL 1
REMARK VINA RESULT:     -10.5      0.000      0.000
REMARK SMILES C[C@H](C(=O)OCCOCCOCCOC(=O)c1ccc(-c2c3nc(c(-c4ccc(S(=O)(=O)[O-])cc4)c4ccc([nH]4)c(-c4ccc(S(=O)(=O)[O-])cc4)c4nc(c(-c5ccc(S(=O)(=O)[O-])cc5)c5ccc2[nH]5)C=C4)C=C3)cc1)c1ccc2c3cc(Cl)ccc3n(C(=O)c3ccc(Cl)cc3)c2c1
REMARK SMILES IDX 9 1 8 2 7 3 6 4 5 5 3 6 4 7 2 8 1 9 77 10 78 11 99 12 79 13
REMARK SMILES IDX 98 14 80 15 88 16 81 17 87 18 82 19 86 20 83 21 85 22 84 23
REMARK SMILES IDX 89 24 90 25 91 26 92 27 97 28 93 29 96 30 94 31 95 32 10 33
REMARK SMILES IDX 11 34 12 35 13 36 14 37 15 38 16 39 17 40 18 41 76 42 19 43
REMARK SMILES IDX 75 44 20 45 21 46 22 47 69 48 23 49 74 50 68 51 70 52 24 53
REMARK SMILES IDX 73 54 67 55 66 56 25 58 55 59 36 60 54 61 37 62 40 63 53 64
REMARK SMILES IDX 71 65 38 66 39 67 52 69 72 70 41 71 26 72 27 73 35 74 28 75
REMARK SMILES IDX 34 76 29 77 30 78 31 79 32 80 33 81 56 82 57 83 65 84 58 85
REMARK SMILES IDX 64 86 59 87 60 88 61 89 62 90 63 91 42 92 43 93 51 94 44 95
REMARK SMILES IDX 50 96 45 97 46 98 47 99 48 100 49 101
REMARK H PARENT 70 57 40 68
REMARK Flexibility Score: inf
ROOT
ATOM      1  C   UNL A   1      35.190  32.052  27.926  1.00  0.00     0.188 C 
ENDROOT
BRANCH   1   2
ATOM      2  O   UNL A   1      34.402  30.954  27.477  1.00  0.00    -0.376 OA
BRANCH   2   3
ATOM      3  C   UNL A   1      35.009  29.683  27.338  1.00  0.00     0.202 C 
BRANCH   3   4
ATOM      4  C   UNL A   1      34.127  28.529  26.844  1.00  0.00     0.261 C 
BRANCH   4   5
ATOM      5  O   UNL A   1      32.778  28.886  26.457  1.00  0.00    -0.463 OA
BRANCH   5   6
ATOM      6  C   UNL A   1      31.820  27.966  26.742  1.00  0.00     0.313 C 
ATOM      7  O   UNL A   1      31.484  27.704  27.896  1.00  0.00    -0.252 OA
BRANCH   6   8
ATOM      8  C   UNL A   1      31.237  27.192  25.550  1.00  0.00     0.126 C 
ATOM      9  C   UNL A   1      31.579  28.016  24.290  1.00  0.00     0.025 C 
BRANCH   8  10
ATOM     10  C   UNL A   1      31.530  25.694  25.347  1.00  0.00    -0.032 A 
ATOM     11  C   UNL A   1      30.544  24.837  24.852  1.00  0.00     0.005 A 
ATOM     12  C   UNL A   1      32.821  25.154  25.528  1.00  0.00     0.032 A 
ATOM     13  C   UNL A   1      30.839  23.504  24.501  1.00  0.00     0.011 A 
ATOM     14  C   UNL A   1      33.131  23.803  25.193  1.00  0.00     0.057 A 
ATOM     15  C   UNL A   1      32.146  22.982  24.656  1.00  0.00     0.008 A 
ATOM     16  N   UNL A   1      34.351  23.070  25.231  1.00  0.00    -0.276 N 
ATOM     17  C   UNL A   1      32.744  21.714  24.404  1.00  0.00     0.009 A 
ATOM     18  C   UNL A   1      34.034  21.730  24.958  1.00  0.00     0.057 A 
ATOM     19  C   UNL A   1      32.253  20.527  23.814  1.00  0.00     0.031 A 
ATOM     20  C   UNL A   1      34.733  20.520  25.141  1.00  0.00     0.029 A 
ATOM     21  C   UNL A   1      33.014  19.362  23.879  1.00  0.00     0.041 A 
ATOM     22  C   UNL A   1      34.213  19.344  24.578  1.00  0.00     0.023 A 
ATOM     23  Cl  UNL A   1      32.434  17.927  23.123  1.00  0.00    -0.084 Cl
BRANCH  16  24
ATOM     24  C   UNL A   1      35.615  23.688  25.492  1.00  0.00     0.262 C 
ATOM     25  O   UNL A   1      35.640  24.904  25.273  1.00  0.00    -0.268 OA
BRANCH  24  26
ATOM     26  C   UNL A   1      36.957  23.167  25.909  1.00  0.00     0.040 A 
ATOM     27  C   UNL A   1      37.817  24.118  26.514  1.00  0.00     0.015 A 
ATOM     28  C   UNL A   1      37.506  21.926  25.591  1.00  0.00     0.015 A 
ATOM     29  C   UNL A   1      39.169  23.875  26.744  1.00  0.00     0.021 A 
ATOM     30  C   UNL A   1      38.868  21.666  25.848  1.00  0.00     0.021 A 
ATOM     31  C   UNL A   1      39.699  22.656  26.374  1.00  0.00     0.041 A 
ATOM     32  Cl  UNL A   1      41.400  22.425  26.429  1.00  0.00    -0.084 Cl
ENDBRANCH  24  26
ENDBRANCH  16  24
ENDBRANCH   8  10
ENDBRANCH   6   8
ENDBRANCH   5   6
ENDBRANCH   4   5
ENDBRANCH   3   4
ENDBRANCH   2   3
ENDBRANCH   1   2
BRANCH   1  33
ATOM     33  C   UNL A   1      35.182  32.448  29.414  1.00  0.00     0.188 C 
BRANCH  33  34
ATOM     34  O   UNL A   1      36.470  32.749  29.920  1.00  0.00    -0.376 OA
BRANCH  34  35
ATOM     35  C   UNL A   1      36.679  32.368  31.265  1.00  0.00     0.202 C 
BRANCH  35  36
ATOM     36  C   UNL A   1      38.008  31.631  31.452  1.00  0.00     0.261 C 
BRANCH  36  37
ATOM     37  O   UNL A   1      37.900  30.211  31.681  1.00  0.00    -0.460 OA
BRANCH  37  38
ATOM     38  C   UNL A   1      37.636  29.433  30.615  1.00  0.00     0.338 C 
ATOM     39  O   UNL A   1      36.529  29.156  30.160  1.00  0.00    -0.246 OA
BRANCH  38  40
ATOM     40  C   UNL A   1      38.909  29.052  29.978  1.00  0.00     0.060 A 
ATOM     41  C   UNL A   1      39.900  28.449  30.748  1.00  0.00     0.016 A 
ATOM     42  C   UNL A   1      39.154  29.328  28.633  1.00  0.00     0.016 A 
ATOM     43  C   UNL A   1      41.148  28.168  30.192  1.00  0.00     0.010 A 
ATOM     44  C   UNL A   1      40.421  29.062  28.085  1.00  0.00     0.010 A 
ATOM     45  C   UNL A   1      41.458  28.538  28.878  1.00  0.00    -0.014 A 
BRANCH  45  46
ATOM     46  C   UNL A   1      42.890  28.548  28.431  1.00  0.00     0.031 A 
ATOM     47  C   UNL A   1      43.475  27.305  27.785  1.00  0.00     0.074 A 
ATOM     48  C   UNL A   1      43.634  29.675  28.437  1.00  0.00     0.049 A 
ATOM     49  N   UNL A   1      44.687  27.094  27.332  1.00  0.00    -0.248 NA
ATOM     50  C   UNL A   1      42.563  26.166  27.583  1.00  0.00     0.031 C 
ATOM     51  C   UNL A   1      43.181  30.990  28.895  1.00  0.00     0.029 A 
ATOM     52  N   UNL A   1      44.930  29.900  28.023  1.00  0.00    -0.354 N 
ATOM     53  C   UNL A   1      44.678  25.809  26.791  1.00  0.00     0.074 A 
ATOM     54  C   UNL A   1      43.355  25.271  27.012  1.00  0.00     0.031 C 
ATOM     55  C   UNL A   1      44.173  31.880  28.729  1.00  0.00     0.029 A 
ATOM     56  C   UNL A   1      45.361  31.191  28.234  1.00  0.00     0.049 A 
ATOM     57  H   UNL A   1      45.492  29.204  27.615  1.00  0.00     0.167 HD
ATOM     58  C   UNL A   1      45.663  25.143  26.139  1.00  0.00     0.031 A 
ATOM     59  C   UNL A   1      46.583  31.754  28.102  1.00  0.00     0.031 A 
ATOM     60  C   UNL A   1      46.983  25.669  25.905  1.00  0.00     0.049 A 
ATOM     61  C   UNL A   1      47.732  30.921  27.595  1.00  0.00     0.074 A 
ATOM     62  C   UNL A   1      48.049  25.061  25.262  1.00  0.00     0.029 A 
ATOM     63  N   UNL A   1      47.423  26.924  26.299  1.00  0.00    -0.354 N 
ATOM     64  N   UNL A   1      47.717  29.693  27.135  1.00  0.00    -0.248 NA
ATOM     65  C   UNL A   1      49.064  31.545  27.600  1.00  0.00     0.031 C 
ATOM     66  C   UNL A   1      49.154  25.916  25.337  1.00  0.00     0.029 A 
ATOM     67  C   UNL A   1      48.758  27.086  25.962  1.00  0.00     0.049 A 
ATOM     68  H   UNL A   1      46.868  27.599  26.752  1.00  0.00     0.167 HD
ATOM     69  C   UNL A   1      49.031  29.407  26.775  1.00  0.00     0.074 A 
ATOM     70  C   UNL A   1      49.811  30.593  27.056  1.00  0.00     0.031 C 
ATOM     71  C   UNL A   1      49.540  28.262  26.255  1.00  0.00     0.031 A 
BRANCH  58  72
ATOM     72  C   UNL A   1      45.358  23.751  25.639  1.00  0.00    -0.014 A 
ATOM     73  C   UNL A   1      44.823  23.540  24.357  1.00  0.00     0.010 A 
ATOM     74  C   UNL A   1      45.665  22.631  26.432  1.00  0.00     0.010 A 
ATOM     75  C   UNL A   1      44.591  22.250  23.874  1.00  0.00     0.020 A 
ATOM     76  C   UNL A   1      45.449  21.334  25.952  1.00  0.00     0.020 A 
ATOM     77  C   UNL A   1      44.906  21.153  24.678  1.00  0.00     0.054 A 
BRANCH  77  78
ATOM     78  S   UNL A   1      44.594  19.492  24.021  1.00  0.00     0.124 S 
ATOM     79  O   UNL A   1      45.809  18.782  24.410  1.00  0.00    -0.237 OA
ATOM     80  O   UNL A   1      43.381  19.093  24.729  1.00  0.00    -0.237 OA
ATOM     81  O   UNL A   1      44.435  19.710  22.585  1.00  0.00    -0.744 OA
ENDBRANCH  77  78
ENDBRANCH  58  72
BRANCH  59  82
ATOM     82  C   UNL A   1      46.808  33.155  28.568  1.00  0.00    -0.014 A 
ATOM     83  C   UNL A   1      46.760  34.250  27.688  1.00  0.00     0.010 A 
ATOM     84  C   UNL A   1      47.093  33.393  29.928  1.00  0.00     0.010 A 
ATOM     85  C   UNL A   1      46.993  35.550  28.158  1.00  0.00     0.020 A 
ATOM     86  C   UNL A   1      47.290  34.689  30.407  1.00  0.00     0.020 A 
ATOM     87  C   UNL A   1      47.249  35.760  29.517  1.00  0.00     0.054 A 
BRANCH  87  88
ATOM     88  S   UNL A   1      47.488  37.455  30.120  1.00  0.00     0.124 S 
ATOM     89  O   UNL A   1      47.268  38.243  28.911  1.00  0.00    -0.237 OA
ATOM     90  O   UNL A   1      46.457  37.572  31.148  1.00  0.00    -0.237 OA
ATOM     91  O   UNL A   1      48.860  37.450  30.622  1.00  0.00    -0.744 OA
ENDBRANCH  87  88
ENDBRANCH  59  82
BRANCH  71  92
ATOM     92  C   UNL A   1      51.013  28.236  25.930  1.00  0.00    -0.014 A 
ATOM     93  C   UNL A   1      51.532  28.958  24.841  1.00  0.00     0.010 A 
ATOM     94  C   UNL A   1      51.899  27.512  26.752  1.00  0.00     0.010 A 
ATOM     95  C   UNL A   1      52.903  28.933  24.562  1.00  0.00     0.020 A 
ATOM     96  C   UNL A   1      53.273  27.511  26.495  1.00  0.00     0.020 A 
ATOM     97  C   UNL A   1      53.765  28.210  25.393  1.00  0.00     0.054 A 
BRANCH  97  98
ATOM     98  S   UNL A   1      55.543  28.228  25.031  1.00  0.00     0.124 S 
ATOM     99  O   UNL A   1      55.670  29.408  24.181  1.00  0.00    -0.237 OA
ATOM    100  O   UNL A   1      56.139  28.343  26.360  1.00  0.00    -0.237 OA
ATOM    101  O   UNL A   1      55.775  26.951  24.361  1.00  0.00    -0.744 OA
ENDBRANCH  97  98
ENDBRANCH  71  92
ENDBRANCH  45  46
ENDBRANCH  38  40
ENDBRANCH  37  38
ENDBRANCH  36  37
ENDBRANCH  35  36
ENDBRANCH  34  35
ENDBRANCH  33  34
ENDBRANCH   1  33
TORSDOF 23
ENDMDL
MODEL 2
REMARK VINA RESULT:     -10.5      2.733      9.073
REMARK SMILES C[C@H](C(=O)OCCOCCOCCOC(=O)c1ccc(-c2c3nc(c(-c4ccc(S(=O)(=O)[O-])cc4)c4ccc([nH]4)c(-c4ccc(S(=O)(=O)[O-])cc4)c4nc(c(-c5ccc(S(=O)(=O)[O-])cc5)c5ccc2[nH]5)C=C4)C=C3)cc1)c1ccc2c3cc(Cl)ccc3n(C(=O)c3ccc(Cl)cc3)c2c1
REMARK SMILES IDX 9 1 8 2 7 3 6 4 5 5 3 6 4 7 2 8 1 9 77 10 78 11 99 12 79 13
REMARK SMILES IDX 98 14 80 15 88 16 81 17 87 18 82 19 86 20 83 21 85 22 84 23
REMARK SMILES IDX 89 24 90 25 91 26 92 27 97 28 93 29 96 30 94 31 95 32 10 33
REMARK SMILES IDX 11 34 12 35 13 36 14 37 15 38 16 39 17 40 18 41 76 42 19 43
REMARK SMILES IDX 75 44 20 45 21 46 22 47 69 48 23 49 74 50 68 51 70 52 24 53
REMARK SMILES IDX 73 54 67 55 66 56 25 58 55 59 36 60 54 61 37 62 40 63 53 64
REMARK SMILES IDX 71 65 38 66 39 67 52 69 72 70 41 71 26 72 27 73 35 74 28 75
REMARK SMILES IDX 34 76 29 77 30 78 31 79 32 80 33 81 56 82 57 83 65 84 58 85
REMARK SMILES IDX 64 86 59 87 60 88 61 89 62 90 63 91 42 92 43 93 51 94 44 95
REMARK SMILES IDX 50 96 45 97 46 98 47 99 48 100 49 101
REMARK H PARENT 70 57 40 68
REMARK Flexibility Score: inf
ROOT
ATOM      1  C   UNL A   1      41.079  21.474  26.227  1.00  0.00     0.188 C 
ENDROOT
BRANCH   1   2
ATOM      2  O   UNL A   1      40.223  22.588  26.458  1.00  0.00    -0.376 OA
BRANCH   2   3
ATOM      3  C   UNL A   1      38.839  22.461  26.187  1.00  0.00     0.202 C 
BRANCH   3   4
ATOM      4  C   UNL A   1      38.026  23.753  26.037  1.00  0.00     0.261 C 
BRANCH   4   5
ATOM      5  O   UNL A   1      36.591  23.616  26.167  1.00  0.00    -0.463 OA
BRANCH   5   6
ATOM      6  C   UNL A   1      35.902  23.501  25.002  1.00  0.00     0.313 C 
ATOM      7  O   UNL A   1      36.458  23.522  23.905  1.00  0.00    -0.252 OA
BRANCH   6   8
ATOM      8  C   UNL A   1      34.371  23.436  25.115  1.00  0.00     0.126 C 
ATOM      9  C   UNL A   1      34.060  23.074  26.583  1.00  0.00     0.025 C 
BRANCH   8  10
ATOM     10  C   UNL A   1      33.482  24.590  24.613  1.00  0.00    -0.032 A 
ATOM     11  C   UNL A   1      32.696  24.435  23.468  1.00  0.00     0.005 A 
ATOM     12  C   UNL A   1      33.327  25.787  25.345  1.00  0.00     0.032 A 
ATOM     13  C   UNL A   1      31.753  25.412  23.089  1.00  0.00     0.011 A 
ATOM     14  C   UNL A   1      32.389  26.790  24.964  1.00  0.00     0.057 A 
ATOM     15  C   UNL A   1      31.582  26.594  23.849  1.00  0.00     0.008 A 
ATOM     16  N   UNL A   1      32.022  28.026  25.569  1.00  0.00    -0.276 N 
ATOM     17  C   UNL A   1      30.742  27.737  23.729  1.00  0.00     0.009 A 
ATOM     18  C   UNL A   1      31.174  28.689  24.667  1.00  0.00     0.057 A 
ATOM     19  C   UNL A   1      29.693  28.063  22.838  1.00  0.00     0.031 A 
ATOM     20  C   UNL A   1      30.739  30.025  24.560  1.00  0.00     0.029 A 
ATOM     21  C   UNL A   1      29.172  29.355  22.833  1.00  0.00     0.041 A 
ATOM     22  C   UNL A   1      29.721  30.337  23.645  1.00  0.00     0.023 A 
ATOM     23  Cl  UNL A   1      27.867  29.738  21.777  1.00  0.00    -0.084 Cl
BRANCH  16  24
ATOM     24  C   UNL A   1      32.475  28.414  26.869  1.00  0.00     0.262 C 
ATOM     25  O   UNL A   1      31.843  27.904  27.800  1.00  0.00    -0.268 OA
BRANCH  24  26
ATOM     26  C   UNL A   1      33.518  29.373  27.359  1.00  0.00     0.040 A 
ATOM     27  C   UNL A   1      33.067  30.698  27.585  1.00  0.00     0.015 A 
ATOM     28  C   UNL A   1      34.892  29.150  27.422  1.00  0.00     0.015 A 
ATOM     29  C   UNL A   1      33.936  31.764  27.808  1.00  0.00     0.021 A 
ATOM     30  C   UNL A   1      35.773  30.222  27.676  1.00  0.00     0.021 A 
ATOM     31  C   UNL A   1      35.295  31.525  27.816  1.00  0.00     0.041 A 
ATOM     32  Cl  UNL A   1      36.383  32.853  27.851  1.00  0.00    -0.084 Cl
ENDBRANCH  24  26
ENDBRANCH  16  24
ENDBRANCH   8  10
ENDBRANCH   6   8
ENDBRANCH   5   6
ENDBRANCH   4   5
ENDBRANCH   3   4
ENDBRANCH   2   3
ENDBRANCH   1   2
BRANCH   1  33
ATOM     33  C   UNL A   1      40.565  20.043  26.474  1.00  0.00     0.188 C 
BRANCH  33  34
ATOM     34  O   UNL A   1      41.290  19.058  25.760  1.00  0.00    -0.376 OA
BRANCH  34  35
ATOM     35  C   UNL A   1      42.551  18.738  26.313  1.00  0.00     0.202 C 
BRANCH  35  36
ATOM     36  C   UNL A   1      43.611  18.518  25.230  1.00  0.00     0.261 C 
BRANCH  36  37
ATOM     37  O   UNL A   1      43.773  19.603  24.294  1.00  0.00    -0.460 OA
BRANCH  37  38
ATOM     38  C   UNL A   1      44.966  20.226  24.272  1.00  0.00     0.338 C 
ATOM     39  O   UNL A   1      45.977  19.862  23.678  1.00  0.00    -0.246 OA
BRANCH  38  40
ATOM     40  C   UNL A   1      44.844  21.511  24.983  1.00  0.00     0.060 A 
ATOM     41  C   UNL A   1      44.561  22.664  24.258  1.00  0.00     0.016 A 
ATOM     42  C   UNL A   1      45.056  21.597  26.360  1.00  0.00     0.016 A 
ATOM     43  C   UNL A   1      44.536  23.906  24.893  1.00  0.00     0.010 A 
ATOM     44  C   UNL A   1      45.052  22.855  26.989  1.00  0.00     0.010 A 
ATOM     45  C   UNL A   1      44.856  24.035  26.249  1.00  0.00    -0.014 A 
BRANCH  45  46
ATOM     46  C   UNL A   1      45.166  25.391  26.810  1.00  0.00     0.031 A 
ATOM     47  C   UNL A   1      46.517  26.021  26.523  1.00  0.00     0.074 A 
ATOM     48  C   UNL A   1      44.230  26.141  27.430  1.00  0.00     0.049 A 
ATOM     49  N   UNL A   1      46.995  27.178  26.912  1.00  0.00    -0.248 NA
ATOM     50  C   UNL A   1      47.431  25.270  25.645  1.00  0.00     0.031 C 
ATOM     51  C   UNL A   1      42.841  25.743  27.666  1.00  0.00     0.029 A 
ATOM     52  N   UNL A   1      44.300  27.413  27.958  1.00  0.00    -0.354 N 
ATOM     53  C   UNL A   1      48.254  27.292  26.325  1.00  0.00     0.074 A 
ATOM     54  C   UNL A   1      48.486  26.068  25.591  1.00  0.00     0.031 C 
ATOM     55  C   UNL A   1      42.193  26.746  28.279  1.00  0.00     0.029 A 
ATOM     56  C   UNL A   1      43.132  27.828  28.558  1.00  0.00     0.049 A 
ATOM     57  H   UNL A   1      45.109  27.971  27.909  1.00  0.00     0.167 HD
ATOM     58  C   UNL A   1      49.130  28.327  26.359  1.00  0.00     0.031 A 
ATOM     59  C   UNL A   1      42.853  28.923  29.300  1.00  0.00     0.031 A 
ATOM     60  C   UNL A   1      48.910  29.555  27.079  1.00  0.00     0.049 A 
ATOM     61  C   UNL A   1      43.925  29.957  29.527  1.00  0.00     0.074 A 
ATOM     62  C   UNL A   1      49.746  30.654  27.179  1.00  0.00     0.029 A 
ATOM     63  N   UNL A   1      47.776  29.852  27.821  1.00  0.00    -0.354 N 
ATOM     64  N   UNL A   1      45.126  30.024  29.005  1.00  0.00    -0.248 NA
ATOM     65  C   UNL A   1      43.608  31.057  30.451  1.00  0.00     0.031 C 
ATOM     66  C   UNL A   1      49.153  31.582  28.043  1.00  0.00     0.029 A 
ATOM     67  C   UNL A   1      47.915  31.092  28.425  1.00  0.00     0.049 A 
ATOM     68  H   UNL A   1      46.989  29.267  27.906  1.00  0.00     0.167 HD
ATOM     69  C   UNL A   1      45.699  31.184  29.521  1.00  0.00     0.074 A 
ATOM     70  C   UNL A   1      44.708  31.795  30.381  1.00  0.00     0.031 C 
ATOM     71  C   UNL A   1      46.935  31.695  29.294  1.00  0.00     0.031 A 
BRANCH  58  72
ATOM     72  C   UNL A   1      50.428  28.175  25.603  1.00  0.00    -0.014 A 
ATOM     73  C   UNL A   1      50.479  28.322  24.207  1.00  0.00     0.010 A 
ATOM     74  C   UNL A   1      51.629  27.942  26.298  1.00  0.00     0.010 A 
ATOM     75  C   UNL A   1      51.688  28.235  23.515  1.00  0.00     0.020 A 
ATOM     76  C   UNL A   1      52.848  27.866  25.615  1.00  0.00     0.020 A 
ATOM     77  C   UNL A   1      52.868  28.005  24.225  1.00  0.00     0.054 A 
BRANCH  77  78
ATOM     78  S   UNL A   1      54.421  27.898  23.296  1.00  0.00     0.124 S 
ATOM     79  O   UNL A   1      54.407  26.509  22.844  1.00  0.00    -0.237 OA
ATOM     80  O   UNL A   1      54.235  28.899  22.249  1.00  0.00    -0.237 OA
ATOM     81  O   UNL A   1      55.443  28.217  24.289  1.00  0.00    -0.744 OA
ENDBRANCH  77  78
ENDBRANCH  58  72
BRANCH  59  82
ATOM     82  C   UNL A   1      41.529  29.039  29.980  1.00  0.00    -0.014 A 
ATOM     83  C   UNL A   1      41.228  28.324  31.153  1.00  0.00     0.010 A 
ATOM     84  C   UNL A   1      40.540  29.878  29.427  1.00  0.00     0.010 A 
ATOM     85  C   UNL A   1      39.968  28.446  31.755  1.00  0.00     0.020 A 
ATOM     86  C   UNL A   1      39.297  30.030  30.043  1.00  0.00     0.020 A 
ATOM     87  C   UNL A   1      39.013  29.305  31.199  1.00  0.00     0.054 A 
BRANCH  87  88
ATOM     88  S   UNL A   1      37.410  29.498  32.026  1.00  0.00     0.124 S 
ATOM     89  O   UNL A   1      37.477  30.875  32.504  1.00  0.00    -0.237 OA
ATOM     90  O   UNL A   1      36.463  29.249  30.941  1.00  0.00    -0.237 OA
ATOM     91  O   UNL A   1      37.435  28.472  33.067  1.00  0.00    -0.744 OA
ENDBRANCH  87  88
ENDBRANCH  59  82
BRANCH  71  92
ATOM     92  C   UNL A   1      47.289  32.997  29.970  1.00  0.00    -0.014 A 
ATOM     93  C   UNL A   1      46.782  34.222  29.502  1.00  0.00     0.010 A 
ATOM     94  C   UNL A   1      48.106  32.992  31.117  1.00  0.00     0.010 A 
ATOM     95  C   UNL A   1      47.109  35.419  30.148  1.00  0.00     0.020 A 
ATOM     96  C   UNL A   1      48.409  34.182  31.784  1.00  0.00     0.020 A 
ATOM     97  C   UNL A   1      47.920  35.391  31.287  1.00  0.00     0.054 A 
BRANCH  97  98
ATOM     98  S   UNL A   1      48.295  36.953  32.129  1.00  0.00     0.124 S 
ATOM     99  O   UNL A   1      47.610  37.927  31.285  1.00  0.00    -0.237 OA
ATOM    100  O   UNL A   1      47.715  36.750  33.454  1.00  0.00    -0.237 OA
ATOM    101  O   UNL A   1      49.754  37.022  32.100  1.00  0.00    -0.744 OA
ENDBRANCH  97  98
ENDBRANCH  71  92
ENDBRANCH  45  46
ENDBRANCH  38  40
ENDBRANCH  37  38
ENDBRANCH  36  37
ENDBRANCH  35  36
ENDBRANCH  34  35
ENDBRANCH  33  34
ENDBRANCH   1  33
TORSDOF 23
ENDMDL
MODEL 3
REMARK VINA RESULT:      -9.9      3.969     10.601
REMARK SMILES C[C@H](C(=O)OCCOCCOCCOC(=O)c1ccc(-c2c3nc(c(-c4ccc(S(=O)(=O)[O-])cc4)c4ccc([nH]4)c(-c4ccc(S(=O)(=O)[O-])cc4)c4nc(c(-c5ccc(S(=O)(=O)[O-])cc5)c5ccc2[nH]5)C=C4)C=C3)cc1)c1ccc2c3cc(Cl)ccc3n(C(=O)c3ccc(Cl)cc3)c2c1
REMARK SMILES IDX 9 1 8 2 7 3 6 4 5 5 3 6 4 7 2 8 1 9 77 10 78 11 99 12 79 13
REMARK SMILES IDX 98 14 80 15 88 16 81 17 87 18 82 19 86 20 83 21 85 22 84 23
REMARK SMILES IDX 89 24 90 25 91 26 92 27 97 28 93 29 96 30 94 31 95 32 10 33
REMARK SMILES IDX 11 34 12 35 13 36 14 37 15 38 16 39 17 40 18 41 76 42 19 43
REMARK SMILES IDX 75 44 20 45 21 46 22 47 69 48 23 49 74 50 68 51 70 52 24 53
REMARK SMILES IDX 73 54 67 55 66 56 25 58 55 59 36 60 54 61 37 62 40 63 53 64
REMARK SMILES IDX 71 65 38 66 39 67 52 69 72 70 41 71 26 72 27 73 35 74 28 75
REMARK SMILES IDX 34 76 29 77 30 78 31 79 32 80 33 81 56 82 57 83 65 84 58 85
REMARK SMILES IDX 64 86 59 87 60 88 61 89 62 90 63 91 42 92 43 93 51 94 44 95
REMARK SMILES IDX 50 96 45 97 46 98 47 99 48 100 49 101
REMARK H PARENT 70 57 40 68
REMARK Flexibility Score: inf
ROOT
ATOM      1  C   UNL A   1      40.276  24.274  26.571  1.00  0.00     0.188 C 
ENDROOT
BRANCH   1   2
ATOM      2  O   UNL A   1      39.053  23.558  26.706  1.00  0.00    -0.376 OA
BRANCH   2   3
ATOM      3  C   UNL A   1      38.932  22.283  26.101  1.00  0.00     0.202 C 
BRANCH   3   4
ATOM      4  C   UNL A   1      37.665  22.008  25.280  1.00  0.00     0.261 C 
BRANCH   4   5
ATOM      5  O   UNL A   1      36.452  22.635  25.760  1.00  0.00    -0.463 OA
BRANCH   5   6
ATOM      6  C   UNL A   1      35.409  22.645  24.890  1.00  0.00     0.313 C 
ATOM      7  O   UNL A   1      35.571  22.655  23.671  1.00  0.00    -0.252 OA
BRANCH   6   8
ATOM      8  C   UNL A   1      34.005  22.739  25.506  1.00  0.00     0.126 C 
ATOM      9  C   UNL A   1      34.207  22.858  27.031  1.00  0.00     0.025 C 
BRANCH   8  10
ATOM     10  C   UNL A   1      32.970  23.755  24.987  1.00  0.00    -0.032 A 
ATOM     11  C   UNL A   1      31.655  23.362  24.726  1.00  0.00     0.005 A 
ATOM     12  C   UNL A   1      33.265  25.131  24.878  1.00  0.00     0.032 A 
ATOM     13  C   UNL A   1      30.655  24.305  24.415  1.00  0.00     0.011 A 
ATOM     14  C   UNL A   1      32.267  26.095  24.548  1.00  0.00     0.057 A 
ATOM     15  C   UNL A   1      30.955  25.687  24.340  1.00  0.00     0.008 A 
ATOM     16  N   UNL A   1      32.315  27.514  24.441  1.00  0.00    -0.276 N 
ATOM     17  C   UNL A   1      30.190  26.854  24.053  1.00  0.00     0.009 A 
ATOM     18  C   UNL A   1      31.082  27.929  23.915  1.00  0.00     0.057 A 
ATOM     19  C   UNL A   1      28.810  27.058  23.824  1.00  0.00     0.031 A 
ATOM     20  C   UNL A   1      30.644  29.130  23.321  1.00  0.00     0.029 A 
ATOM     21  C   UNL A   1      28.367  28.297  23.365  1.00  0.00     0.041 A 
ATOM     22  C   UNL A   1      29.274  29.303  23.068  1.00  0.00     0.023 A 
ATOM     23  Cl  UNL A   1      26.680  28.558  23.127  1.00  0.00    -0.084 Cl
BRANCH  16  24
ATOM     24  C   UNL A   1      33.455  28.280  24.844  1.00  0.00     0.262 C 
ATOM     25  O   UNL A   1      34.399  28.242  24.048  1.00  0.00    -0.268 OA
BRANCH  24  26
ATOM     26  C   UNL A   1      33.788  29.074  26.071  1.00  0.00     0.040 A 
ATOM     27  C   UNL A   1      32.933  30.173  26.336  1.00  0.00     0.015 A 
ATOM     28  C   UNL A   1      34.941  28.966  26.847  1.00  0.00     0.015 A 
ATOM     29  C   UNL A   1      33.229  31.150  27.284  1.00  0.00     0.021 A 
ATOM     30  C   UNL A   1      35.231  29.938  27.827  1.00  0.00     0.021 A 
ATOM     31  C   UNL A   1      34.401  31.046  28.003  1.00  0.00     0.041 A 
ATOM     32  Cl  UNL A   1      34.897  32.355  28.998  1.00  0.00    -0.084 Cl
ENDBRANCH  24  26
ENDBRANCH  16  24
ENDBRANCH   8  10
ENDBRANCH   6   8
ENDBRANCH   5   6
ENDBRANCH   4   5
ENDBRANCH   3   4
ENDBRANCH   2   3
ENDBRANCH   1   2
BRANCH   1  33
ATOM     33  C   UNL A   1      41.572  23.708  27.181  1.00  0.00     0.188 C 
BRANCH  33  34
ATOM     34  O   UNL A   1      42.547  23.372  26.210  1.00  0.00    -0.376 OA
BRANCH  34  35
ATOM     35  C   UNL A   1      43.713  22.766  26.731  1.00  0.00     0.202 C 
BRANCH  35  36
ATOM     36  C   UNL A   1      44.428  23.672  27.737  1.00  0.00     0.261 C 
BRANCH  36  37
ATOM     37  O   UNL A   1      45.863  23.537  27.779  1.00  0.00    -0.460 OA
BRANCH  37  38
ATOM     38  C   UNL A   1      46.565  24.102  26.780  1.00  0.00     0.338 C 
ATOM     39  O   UNL A   1      47.039  23.536  25.799  1.00  0.00    -0.246 OA
BRANCH  38  40
ATOM     40  C   UNL A   1      46.576  25.563  26.974  1.00  0.00     0.060 A 
ATOM     41  C   UNL A   1      46.995  26.083  28.196  1.00  0.00     0.016 A 
ATOM     42  C   UNL A   1      46.128  26.428  25.975  1.00  0.00     0.016 A 
ATOM     43  C   UNL A   1      46.923  27.455  28.438  1.00  0.00     0.010 A 
ATOM     44  C   UNL A   1      46.037  27.807  26.234  1.00  0.00     0.010 A 
ATOM     45  C   UNL A   1      46.373  28.331  27.495  1.00  0.00    -0.014 A 
BRANCH  45  46
ATOM     46  C   UNL A   1      45.985  29.718  27.914  1.00  0.00     0.031 A 
ATOM     47  C   UNL A   1      46.925  30.872  27.619  1.00  0.00     0.074 A 
ATOM     48  C   UNL A   1      44.758  30.002  28.403  1.00  0.00     0.049 A 
ATOM     49  N   UNL A   1      46.792  32.147  27.897  1.00  0.00    -0.248 NA
ATOM     50  C   UNL A   1      48.156  30.557  26.874  1.00  0.00     0.031 C 
ATOM     51  C   UNL A   1      43.684  29.032  28.619  1.00  0.00     0.029 A 
ATOM     52  N   UNL A   1      44.198  31.202  28.787  1.00  0.00    -0.354 N 
ATOM     53  C   UNL A   1      47.912  32.778  27.358  1.00  0.00     0.074 A 
ATOM     54  C   UNL A   1      48.737  31.743  26.778  1.00  0.00     0.031 C 
ATOM     55  C   UNL A   1      42.599  29.671  29.085  1.00  0.00     0.029 A 
ATOM     56  C   UNL A   1      42.919  31.082  29.284  1.00  0.00     0.049 A 
ATOM     57  H   UNL A   1      44.669  32.063  28.713  1.00  0.00     0.167 HD
ATOM     58  C   UNL A   1      48.219  34.099  27.316  1.00  0.00     0.031 A 
ATOM     59  C   UNL A   1      42.110  31.981  29.885  1.00  0.00     0.031 A 
ATOM     60  C   UNL A   1      47.403  35.141  27.883  1.00  0.00     0.049 A 
ATOM     61  C   UNL A   1      42.574  33.407  30.043  1.00  0.00     0.074 A 
ATOM     62  C   UNL A   1      47.640  36.506  27.897  1.00  0.00     0.029 A 
ATOM     63  N   UNL A   1      46.195  34.943  28.535  1.00  0.00    -0.354 N 
ATOM     64  N   UNL A   1      43.657  33.975  29.572  1.00  0.00    -0.248 NA
ATOM     65  C   UNL A   1      41.711  34.309  30.822  1.00  0.00     0.031 C 
ATOM     66  C   UNL A   1      46.616  37.123  28.624  1.00  0.00     0.029 A 
ATOM     67  C   UNL A   1      45.704  36.153  29.001  1.00  0.00     0.049 A 
ATOM     68  H   UNL A   1      45.753  34.071  28.650  1.00  0.00     0.167 HD
ATOM     69  C   UNL A   1      43.595  35.306  29.979  1.00  0.00     0.074 A 
ATOM     70  C   UNL A   1      42.361  35.460  30.719  1.00  0.00     0.031 C 
ATOM     71  C   UNL A   1      44.482  36.306  29.753  1.00  0.00     0.031 A 
BRANCH  58  72
ATOM     72  C   UNL A   1      49.509  34.499  26.642  1.00  0.00    -0.014 A 
ATOM     73  C   UNL A   1      49.541  34.847  25.281  1.00  0.00     0.010 A 
ATOM     74  C   UNL A   1      50.699  34.589  27.387  1.00  0.00     0.010 A 
ATOM     75  C   UNL A   1      50.725  35.270  24.671  1.00  0.00     0.020 A 
ATOM     76  C   UNL A   1      51.887  35.023  26.787  1.00  0.00     0.020 A 
ATOM     77  C   UNL A   1      51.893  35.353  25.430  1.00  0.00     0.054 A 
BRANCH  77  78
ATOM     78  S   UNL A   1      53.411  35.906  24.608  1.00  0.00     0.124 S 
ATOM     79  O   UNL A   1      53.549  34.922  23.537  1.00  0.00    -0.237 OA
ATOM     80  O   UNL A   1      53.066  37.258  24.177  1.00  0.00    -0.237 OA
ATOM     81  O   UNL A   1      54.424  35.826  25.658  1.00  0.00    -0.744 OA
ENDBRANCH  77  78
ENDBRANCH  58  72
BRANCH  59  82
ATOM     82  C   UNL A   1      40.819  31.532  30.487  1.00  0.00    -0.014 A 
ATOM     83  C   UNL A   1      39.594  31.666  29.811  1.00  0.00     0.010 A 
ATOM     84  C   UNL A   1      40.820  30.968  31.779  1.00  0.00     0.010 A 
ATOM     85  C   UNL A   1      38.400  31.248  30.415  1.00  0.00     0.020 A 
ATOM     86  C   UNL A   1      39.638  30.518  32.370  1.00  0.00     0.020 A 
ATOM     87  C   UNL A   1      38.432  30.669  31.688  1.00  0.00     0.054 A 
BRANCH  87  88
ATOM     88  S   UNL A   1      36.885  30.077  32.429  1.00  0.00     0.124 S 
ATOM     89  O   UNL A   1      36.105  29.706  31.253  1.00  0.00    -0.237 OA
ATOM     90  O   UNL A   1      37.340  28.967  33.263  1.00  0.00    -0.237 OA
ATOM     91  O   UNL A   1      36.392  31.238  33.166  1.00  0.00    -0.744 OA
ENDBRANCH  87  88
ENDBRANCH  59  82
BRANCH  71  92
ATOM     92  C   UNL A   1      44.146  37.675  30.293  1.00  0.00    -0.014 A 
ATOM     93  C   UNL A   1      43.451  38.615  29.513  1.00  0.00     0.010 A 
ATOM     94  C   UNL A   1      44.493  38.009  31.616  1.00  0.00     0.010 A 
ATOM     95  C   UNL A   1      43.136  39.875  30.035  1.00  0.00     0.020 A 
ATOM     96  C   UNL A   1      44.152  39.255  32.151  1.00  0.00     0.020 A 
ATOM     97  C   UNL A   1      43.488  40.186  31.352  1.00  0.00     0.054 A 
BRANCH  97  98
ATOM     98  S   UNL A   1      43.031  41.812  32.016  1.00  0.00     0.124 S 
ATOM     99  O   UNL A   1      42.020  41.463  33.009  1.00  0.00    -0.237 OA
ATOM    100  O   UNL A   1      44.297  42.305  32.553  1.00  0.00    -0.237 OA
ATOM    101  O   UNL A   1      42.534  42.536  30.849  1.00  0.00    -0.744 OA
ENDBRANCH  97  98
ENDBRANCH  71  92
ENDBRANCH  45  46
ENDBRANCH  38  40
ENDBRANCH  37  38
ENDBRANCH  36  37
ENDBRANCH  35  36
ENDBRANCH  34  35
ENDBRANCH  33  34
ENDBRANCH   1  33
TORSDOF 23
ENDMDL
