MODEL 1
REMARK VINA RESULT:      -9.3      0.000      0.000
REMARK SMILES C#CCNC(=O)[C@H](C)S(=O)(=O)c1ccc(C(=O)OCCOCCOCCOC(=O)c2ccc(-c3c4nc(c(-c5ccc(S(=O)(=O)[O-])cc5)c5ccc([nH]5)c(-c5ccc(S(=O)(=O)[O-])cc5)c5nc(c(-c6ccc(S(=O)(=O)[O-])cc6)c6ccc3[nH]6)C=C5)C=C4)cc2)cc1F
REMARK SMILES IDX 22 1 21 2 20 3 19 4 18 5 16 6 17 7 15 8 12 9 13 10 91 11
REMARK SMILES IDX 14 12 90 13 92 14 9 15 10 16 11 17 7 18 8 19 5 20 4 21 6 23
REMARK SMILES IDX 3 24 2 25 1 26 23 27 24 28 25 29 26 30 27 31 28 32 29 33
REMARK SMILES IDX 30 34 31 35 89 36 32 37 88 38 33 39 34 40 35 41 82 42 36 43
REMARK SMILES IDX 87 44 81 45 83 46 37 47 86 48 80 49 79 50 38 52 68 53 49 54
REMARK SMILES IDX 67 55 50 56 53 57 66 58 84 59 51 60 52 61 65 63 85 64 54 65
REMARK SMILES IDX 39 66 40 67 48 68 41 69 47 70 42 71 43 72 44 73 45 74 46 75
REMARK SMILES IDX 69 76 70 77 78 78 71 79 77 80 72 81 73 82 74 83 75 84 76 85
REMARK SMILES IDX 55 86 56 87 64 88 57 89 63 90 58 91 59 92 60 93 61 94 62 95
REMARK H PARENT 4 22 83 51 53 62
REMARK Flexibility Score: inf
ROOT
ATOM      1  C   UNL A   1      42.368  22.026  28.103  1.00  0.00     0.188 C 
ENDROOT
BRANCH   1   2
ATOM      2  O   UNL A   1      41.036  22.410  28.411  1.00  0.00    -0.376 OA
BRANCH   2   3
ATOM      3  C   UNL A   1      40.315  23.211  27.478  1.00  0.00     0.202 C 
BRANCH   3   4
ATOM      4  C   UNL A   1      39.659  22.541  26.262  1.00  0.00     0.261 C 
BRANCH   4   5
ATOM      5  O   UNL A   1      38.353  23.063  25.962  1.00  0.00    -0.460 OA
BRANCH   5   6
ATOM      6  C   UNL A   1      37.497  22.196  25.378  1.00  0.00     0.338 C 
ATOM      7  O   UNL A   1      37.553  20.980  25.348  1.00  0.00    -0.246 OA
BRANCH   6   8
ATOM      8  C   UNL A   1      36.325  22.939  24.898  1.00  0.00     0.063 A 
ATOM      9  C   UNL A   1      34.341  24.538  23.836  1.00  0.00     0.103 A 
ATOM     10  C   UNL A   1      34.842  23.484  23.073  1.00  0.00     0.024 A 
ATOM     11  C   UNL A   1      34.640  24.608  25.191  1.00  0.00     0.142 A 
ATOM     12  C   UNL A   1      35.938  22.784  23.561  1.00  0.00     0.017 A 
ATOM     13  C   UNL A   1      35.618  23.787  25.742  1.00  0.00     0.056 A 
ATOM     14  F   UNL A   1      34.037  25.495  25.988  1.00  0.00    -0.206 F 
BRANCH   9  15
ATOM     15  S   UNL A   1      33.496  25.886  23.043  1.00  0.00     0.192 S 
ATOM     16  O   UNL A   1      33.821  25.780  21.631  1.00  0.00    -0.223 OA
ATOM     17  O   UNL A   1      33.874  27.108  23.733  1.00  0.00    -0.223 OA
BRANCH  15  18
ATOM     18  C   UNL A   1      31.749  25.654  23.242  1.00  0.00     0.199 C 
ATOM     19  C   UNL A   1      31.381  24.176  23.422  1.00  0.00     0.036 C 
BRANCH  18  20
ATOM     20  C   UNL A   1      30.859  26.463  24.178  1.00  0.00     0.239 C 
ATOM     21  N   UNL A   1      30.086  27.544  23.977  1.00  0.00    -0.344 N 
ATOM     22  H   UNL A   1      29.661  27.871  24.803  1.00  0.00     0.164 HD
ATOM     23  O   UNL A   1      30.848  26.105  25.373  1.00  0.00    -0.274 OA
BRANCH  21  24
ATOM     24  C   UNL A   1      29.747  28.325  22.831  1.00  0.00     0.206 C 
BRANCH  24  25
ATOM     25  C   UNL A   1      29.273  29.725  23.186  1.00  0.00    -0.085 C 
ATOM     26  C   UNL A   1      28.868  30.926  23.489  1.00  0.00     0.006 C 
ENDBRANCH  24  25
ENDBRANCH  21  24
ENDBRANCH  18  20
ENDBRANCH  15  18
ENDBRANCH   9  15
ENDBRANCH   6   8
ENDBRANCH   5   6
ENDBRANCH   4   5
ENDBRANCH   3   4
ENDBRANCH   2   3
ENDBRANCH   1   2
BRANCH   1  27
ATOM     27  C   UNL A   1      43.534  22.873  28.655  1.00  0.00     0.188 C 
BRANCH  27  28
ATOM     28  O   UNL A   1      43.434  24.252  28.425  1.00  0.00    -0.376 OA
BRANCH  28  29
ATOM     29  C   UNL A   1      44.140  24.836  27.352  1.00  0.00     0.202 C 
BRANCH  29  30
ATOM     30  C   UNL A   1      43.660  24.894  25.886  1.00  0.00     0.261 C 
BRANCH  30  31
ATOM     31  O   UNL A   1      42.429  25.553  25.578  1.00  0.00    -0.460 OA
BRANCH  31  32
ATOM     32  C   UNL A   1      42.506  26.890  25.357  1.00  0.00     0.338 C 
ATOM     33  O   UNL A   1      42.781  27.443  24.306  1.00  0.00    -0.246 OA
BRANCH  32  34
ATOM     34  C   UNL A   1      42.017  27.602  26.555  1.00  0.00     0.060 A 
ATOM     35  C   UNL A   1      42.518  28.880  26.839  1.00  0.00     0.016 A 
ATOM     36  C   UNL A   1      41.105  26.993  27.418  1.00  0.00     0.016 A 
ATOM     37  C   UNL A   1      42.126  29.542  28.006  1.00  0.00     0.010 A 
ATOM     38  C   UNL A   1      40.728  27.651  28.593  1.00  0.00     0.010 A 
ATOM     39  C   UNL A   1      41.258  28.915  28.910  1.00  0.00    -0.014 A 
BRANCH  39  40
ATOM     40  C   UNL A   1      41.031  29.497  30.257  1.00  0.00     0.031 A 
ATOM     41  C   UNL A   1      39.887  30.458  30.447  1.00  0.00     0.074 A 
ATOM     42  C   UNL A   1      41.824  29.183  31.299  1.00  0.00     0.049 A 
ATOM     43  N   UNL A   1      39.537  31.131  31.512  1.00  0.00    -0.248 NA
ATOM     44  C   UNL A   1      39.027  30.693  29.275  1.00  0.00     0.031 C 
ATOM     45  C   UNL A   1      42.938  28.238  31.262  1.00  0.00     0.029 A 
ATOM     46  N   UNL A   1      41.814  29.640  32.595  1.00  0.00    -0.354 N 
ATOM     47  C   UNL A   1      38.425  31.878  31.139  1.00  0.00     0.074 A 
ATOM     48  C   UNL A   1      38.176  31.595  29.741  1.00  0.00     0.031 C 
ATOM     49  C   UNL A   1      43.513  28.193  32.477  1.00  0.00     0.029 A 
ATOM     50  C   UNL A   1      42.832  29.133  33.367  1.00  0.00     0.049 A 
ATOM     51  H   UNL A   1      41.140  30.271  32.938  1.00  0.00     0.167 HD
ATOM     52  C   UNL A   1      37.676  32.720  31.889  1.00  0.00     0.031 A 
ATOM     53  C   UNL A   1      43.191  29.414  34.637  1.00  0.00     0.031 A 
ATOM     54  C   UNL A   1      37.934  33.017  33.274  1.00  0.00     0.049 A 
ATOM     55  C   UNL A   1      42.387  30.414  35.432  1.00  0.00     0.074 A 
ATOM     56  C   UNL A   1      37.222  33.845  34.123  1.00  0.00     0.029 A 
ATOM     57  N   UNL A   1      38.993  32.505  34.010  1.00  0.00    -0.354 N 
ATOM     58  N   UNL A   1      41.322  31.090  35.072  1.00  0.00    -0.248 NA
ATOM     59  C   UNL A   1      42.833  30.682  36.807  1.00  0.00     0.031 C 
ATOM     60  C   UNL A   1      37.885  33.884  35.354  1.00  0.00     0.029 A 
ATOM     61  C   UNL A   1      38.968  33.022  35.294  1.00  0.00     0.049 A 
ATOM     62  H   UNL A   1      39.662  31.868  33.669  1.00  0.00     0.167 HD
ATOM     63  C   UNL A   1      40.950  31.834  36.189  1.00  0.00     0.074 A 
ATOM     64  C   UNL A   1      41.897  31.517  37.237  1.00  0.00     0.031 C 
ATOM     65  C   UNL A   1      39.913  32.698  36.334  1.00  0.00     0.031 A 
BRANCH  52  66
ATOM     66  C   UNL A   1      36.521  33.415  31.214  1.00  0.00    -0.014 A 
ATOM     67  C   UNL A   1      35.221  33.358  31.747  1.00  0.00     0.010 A 
ATOM     68  C   UNL A   1      36.750  34.167  30.047  1.00  0.00     0.010 A 
ATOM     69  C   UNL A   1      34.164  34.010  31.105  1.00  0.00     0.020 A 
ATOM     70  C   UNL A   1      35.701  34.844  29.418  1.00  0.00     0.020 A 
ATOM     71  C   UNL A   1      34.411  34.747  29.943  1.00  0.00     0.054 A 
BRANCH  71  72
ATOM     72  S   UNL A   1      33.025  35.599  29.143  1.00  0.00     0.124 S 
ATOM     73  O   UNL A   1      33.711  36.637  28.377  1.00  0.00    -0.237 OA
ATOM     74  O   UNL A   1      32.410  34.536  28.351  1.00  0.00    -0.237 OA
ATOM     75  O   UNL A   1      32.220  36.083  30.262  1.00  0.00    -0.744 OA
ENDBRANCH  71  72
ENDBRANCH  52  66
BRANCH  53  76
ATOM     76  C   UNL A   1      44.380  28.749  35.240  1.00  0.00    -0.014 A 
ATOM     77  C   UNL A   1      45.662  29.314  35.113  1.00  0.00     0.010 A 
ATOM     78  C   UNL A   1      44.237  27.538  35.941  1.00  0.00     0.010 A 
ATOM     79  C   UNL A   1      46.777  28.673  35.660  1.00  0.00     0.020 A 
ATOM     80  C   UNL A   1      45.345  26.908  36.514  1.00  0.00     0.020 A 
ATOM     81  C   UNL A   1      46.611  27.476  36.361  1.00  0.00     0.054 A 
BRANCH  81  82
ATOM     82  S   UNL A   1      48.066  26.690  37.107  1.00  0.00     0.124 S 
ATOM     83  O   UNL A   1      47.685  26.613  38.514  1.00  0.00    -0.237 OA
ATOM     84  O   UNL A   1      48.132  25.414  36.398  1.00  0.00    -0.237 OA
ATOM     85  O   UNL A   1      49.151  27.620  36.801  1.00  0.00    -0.744 OA
ENDBRANCH  81  82
ENDBRANCH  53  76
BRANCH  65  86
ATOM     86  C   UNL A   1      39.709  33.329  37.688  1.00  0.00    -0.014 A 
ATOM     87  C   UNL A   1      40.571  34.327  38.175  1.00  0.00     0.010 A 
ATOM     88  C   UNL A   1      38.593  32.955  38.462  1.00  0.00     0.010 A 
ATOM     89  C   UNL A   1      40.340  34.914  39.423  1.00  0.00     0.020 A 
ATOM     90  C   UNL A   1      38.342  33.561  39.695  1.00  0.00     0.020 A 
ATOM     91  C   UNL A   1      39.227  34.528  40.175  1.00  0.00     0.054 A 
BRANCH  91  92
ATOM     92  S   UNL A   1      38.927  35.334  41.772  1.00  0.00     0.124 S 
ATOM     93  O   UNL A   1      39.569  34.411  42.704  1.00  0.00    -0.237 OA
ATOM     94  O   UNL A   1      39.591  36.626  41.608  1.00  0.00    -0.237 OA
ATOM     95  O   UNL A   1      37.469  35.397  41.862  1.00  0.00    -0.744 OA
ENDBRANCH  91  92
ENDBRANCH  65  86
ENDBRANCH  39  40
ENDBRANCH  32  34
ENDBRANCH  31  32
ENDBRANCH  30  31
ENDBRANCH  29  30
ENDBRANCH  28  29
ENDBRANCH  27  28
ENDBRANCH   1  27
TORSDOF 25
ENDMDL
MODEL 2
REMARK VINA RESULT:      -8.5      4.128      8.461
REMARK SMILES C#CCNC(=O)[C@H](C)S(=O)(=O)c1ccc(C(=O)OCCOCCOCCOC(=O)c2ccc(-c3c4nc(c(-c5ccc(S(=O)(=O)[O-])cc5)c5ccc([nH]5)c(-c5ccc(S(=O)(=O)[O-])cc5)c5nc(c(-c6ccc(S(=O)(=O)[O-])cc6)c6ccc3[nH]6)C=C5)C=C4)cc2)cc1F
REMARK SMILES IDX 22 1 21 2 20 3 19 4 18 5 16 6 17 7 15 8 12 9 13 10 91 11
REMARK SMILES IDX 14 12 90 13 92 14 9 15 10 16 11 17 7 18 8 19 5 20 4 21 6 23
REMARK SMILES IDX 3 24 2 25 1 26 23 27 24 28 25 29 26 30 27 31 28 32 29 33
REMARK SMILES IDX 30 34 31 35 89 36 32 37 88 38 33 39 34 40 35 41 82 42 36 43
REMARK SMILES IDX 87 44 81 45 83 46 37 47 86 48 80 49 79 50 38 52 68 53 49 54
REMARK SMILES IDX 67 55 50 56 53 57 66 58 84 59 51 60 52 61 65 63 85 64 54 65
REMARK SMILES IDX 39 66 40 67 48 68 41 69 47 70 42 71 43 72 44 73 45 74 46 75
REMARK SMILES IDX 69 76 70 77 78 78 71 79 77 80 72 81 73 82 74 83 75 84 76 85
REMARK SMILES IDX 55 86 56 87 64 88 57 89 63 90 58 91 59 92 60 93 61 94 62 95
REMARK H PARENT 4 22 83 51 53 62
REMARK Flexibility Score: inf
ROOT
ATOM      1  C   UNL A   1      40.938  20.812  26.304  1.00  0.00     0.188 C 
ENDROOT
BRANCH   1   2
ATOM      2  O   UNL A   1      39.859  21.550  26.858  1.00  0.00    -0.376 OA
BRANCH   2   3
ATOM      3  C   UNL A   1      39.005  22.285  25.987  1.00  0.00     0.202 C 
BRANCH   3   4
ATOM      4  C   UNL A   1      37.743  21.611  25.428  1.00  0.00     0.261 C 
BRANCH   4   5
ATOM      5  O   UNL A   1      36.546  22.378  25.645  1.00  0.00    -0.460 OA
BRANCH   5   6
ATOM      6  C   UNL A   1      35.411  21.848  25.138  1.00  0.00     0.338 C 
ATOM      7  O   UNL A   1      35.017  20.697  25.202  1.00  0.00    -0.246 OA
BRANCH   6   8
ATOM      8  C   UNL A   1      34.575  22.934  24.612  1.00  0.00     0.063 A 
ATOM      9  C   UNL A   1      33.187  24.953  23.340  1.00  0.00     0.103 A 
ATOM     10  C   UNL A   1      32.799  23.630  23.132  1.00  0.00     0.024 A 
ATOM     11  C   UNL A   1      34.069  25.257  24.370  1.00  0.00     0.142 A 
ATOM     12  C   UNL A   1      33.597  22.622  23.659  1.00  0.00     0.017 A 
ATOM     13  C   UNL A   1      34.752  24.246  25.037  1.00  0.00     0.056 A 
ATOM     14  F   UNL A   1      34.322  26.523  24.714  1.00  0.00    -0.206 F 
BRANCH   9  15
ATOM     15  S   UNL A   1      32.716  26.211  22.175  1.00  0.00     0.192 S 
ATOM     16  O   UNL A   1      31.598  25.660  21.430  1.00  0.00    -0.223 OA
ATOM     17  O   UNL A   1      33.905  26.585  21.429  1.00  0.00    -0.223 OA
BRANCH  15  18
ATOM     18  C   UNL A   1      32.154  27.633  23.074  1.00  0.00     0.199 C 
ATOM     19  C   UNL A   1      33.091  28.835  22.895  1.00  0.00     0.036 C 
BRANCH  18  20
ATOM     20  C   UNL A   1      30.725  28.163  23.070  1.00  0.00     0.239 C 
ATOM     21  N   UNL A   1      29.556  27.607  23.428  1.00  0.00    -0.344 N 
ATOM     22  H   UNL A   1      28.784  28.195  23.264  1.00  0.00     0.164 HD
ATOM     23  O   UNL A   1      30.569  29.317  22.622  1.00  0.00    -0.274 OA
BRANCH  21  24
ATOM     24  C   UNL A   1      29.185  26.349  23.993  1.00  0.00     0.206 C 
BRANCH  24  25
ATOM     25  C   UNL A   1      30.045  25.956  25.183  1.00  0.00    -0.085 C 
ATOM     26  C   UNL A   1      30.781  25.619  26.205  1.00  0.00     0.006 C 
ENDBRANCH  24  25
ENDBRANCH  21  24
ENDBRANCH  18  20
ENDBRANCH  15  18
ENDBRANCH   9  15
ENDBRANCH   6   8
ENDBRANCH   5   6
ENDBRANCH   4   5
ENDBRANCH   3   4
ENDBRANCH   2   3
ENDBRANCH   1   2
BRANCH   1  27
ATOM     27  C   UNL A   1      42.345  20.973  26.918  1.00  0.00     0.188 C 
BRANCH  27  28
ATOM     28  O   UNL A   1      43.132  21.987  26.354  1.00  0.00    -0.376 OA
BRANCH  28  29
ATOM     29  C   UNL A   1      44.279  21.647  25.606  1.00  0.00     0.202 C 
BRANCH  29  30
ATOM     30  C   UNL A   1      44.614  22.164  24.191  1.00  0.00     0.261 C 
BRANCH  30  31
ATOM     31  O   UNL A   1      44.748  23.571  23.972  1.00  0.00    -0.460 OA
BRANCH  31  32
ATOM     32  C   UNL A   1      45.939  24.120  24.322  1.00  0.00     0.338 C 
ATOM     33  O   UNL A   1      47.002  23.991  23.741  1.00  0.00    -0.246 OA
BRANCH  32  34
ATOM     34  C   UNL A   1      45.721  25.069  25.433  1.00  0.00     0.060 A 
ATOM     35  C   UNL A   1      46.833  25.616  26.088  1.00  0.00     0.016 A 
ATOM     36  C   UNL A   1      44.428  25.381  25.853  1.00  0.00     0.016 A 
ATOM     37  C   UNL A   1      46.651  26.459  27.189  1.00  0.00     0.010 A 
ATOM     38  C   UNL A   1      44.250  26.210  26.966  1.00  0.00     0.010 A 
ATOM     39  C   UNL A   1      45.359  26.730  27.658  1.00  0.00    -0.014 A 
BRANCH  39  40
ATOM     40  C   UNL A   1      45.163  27.415  28.962  1.00  0.00     0.031 A 
ATOM     41  C   UNL A   1      45.214  26.594  30.224  1.00  0.00     0.074 A 
ATOM     42  C   UNL A   1      44.942  28.741  29.031  1.00  0.00     0.049 A 
ATOM     43  N   UNL A   1      45.013  26.964  31.462  1.00  0.00    -0.248 NA
ATOM     44  C   UNL A   1      45.531  25.165  30.065  1.00  0.00     0.031 C 
ATOM     45  C   UNL A   1      44.908  29.655  27.892  1.00  0.00     0.029 A 
ATOM     46  N   UNL A   1      44.691  29.546  30.116  1.00  0.00    -0.354 N 
ATOM     47  C   UNL A   1      45.165  25.815  32.230  1.00  0.00     0.074 A 
ATOM     48  C   UNL A   1      45.450  24.731  31.314  1.00  0.00     0.031 C 
ATOM     49  C   UNL A   1      44.640  30.896  28.336  1.00  0.00     0.029 A 
ATOM     50  C   UNL A   1      44.447  30.857  29.785  1.00  0.00     0.049 A 
ATOM     51  H   UNL A   1      44.688  29.214  31.043  1.00  0.00     0.167 HD
ATOM     52  C   UNL A   1      45.081  25.673  33.573  1.00  0.00     0.031 A 
ATOM     53  C   UNL A   1      44.083  31.902  30.558  1.00  0.00     0.031 A 
ATOM     54  C   UNL A   1      44.779  26.747  34.483  1.00  0.00     0.049 A 
ATOM     55  C   UNL A   1      43.919  31.704  32.045  1.00  0.00     0.074 A 
ATOM     56  C   UNL A   1      44.687  26.704  35.863  1.00  0.00     0.029 A 
ATOM     57  N   UNL A   1      44.510  28.053  34.105  1.00  0.00    -0.354 N 
ATOM     58  N   UNL A   1      44.095  30.617  32.758  1.00  0.00    -0.248 NA
ATOM     59  C   UNL A   1      43.515  32.879  32.831  1.00  0.00     0.031 C 
ATOM     60  C   UNL A   1      44.300  27.970  36.314  1.00  0.00     0.029 A 
ATOM     61  C   UNL A   1      44.224  28.819  35.222  1.00  0.00     0.049 A 
ATOM     62  H   UNL A   1      44.520  28.387  33.178  1.00  0.00     0.167 HD
ATOM     63  C   UNL A   1      43.859  30.986  34.079  1.00  0.00     0.074 A 
ATOM     64  C   UNL A   1      43.537  32.399  34.067  1.00  0.00     0.031 C 
ATOM     65  C   UNL A   1      43.909  30.227  35.202  1.00  0.00     0.031 A 
BRANCH  52  66
ATOM     66  C   UNL A   1      45.282  24.291  34.142  1.00  0.00    -0.014 A 
ATOM     67  C   UNL A   1      46.504  23.911  34.725  1.00  0.00     0.010 A 
ATOM     68  C   UNL A   1      44.217  23.372  34.125  1.00  0.00     0.010 A 
ATOM     69  C   UNL A   1      46.669  22.625  35.246  1.00  0.00     0.020 A 
ATOM     70  C   UNL A   1      44.368  22.095  34.672  1.00  0.00     0.020 A 
ATOM     71  C   UNL A   1      45.600  21.724  35.214  1.00  0.00     0.054 A 
BRANCH  71  72
ATOM     72  S   UNL A   1      45.837  20.069  35.916  1.00  0.00     0.124 S 
ATOM     73  O   UNL A   1      45.593  20.307  37.337  1.00  0.00    -0.237 OA
ATOM     74  O   UNL A   1      44.818  19.280  35.228  1.00  0.00    -0.237 OA
ATOM     75  O   UNL A   1      47.217  19.737  35.570  1.00  0.00    -0.744 OA
ENDBRANCH  71  72
ENDBRANCH  52  66
BRANCH  53  76
ATOM     76  C   UNL A   1      43.832  33.235  29.940  1.00  0.00    -0.014 A 
ATOM     77  C   UNL A   1      44.897  34.105  29.650  1.00  0.00     0.010 A 
ATOM     78  C   UNL A   1      42.519  33.644  29.647  1.00  0.00     0.010 A 
ATOM     79  C   UNL A   1      44.653  35.364  29.094  1.00  0.00     0.020 A 
ATOM     80  C   UNL A   1      42.272  34.891  29.063  1.00  0.00     0.020 A 
ATOM     81  C   UNL A   1      43.342  35.747  28.800  1.00  0.00     0.054 A 
BRANCH  81  82
ATOM     82  S   UNL A   1      43.055  37.365  28.029  1.00  0.00     0.124 S 
ATOM     83  O   UNL A   1      42.965  38.244  29.190  1.00  0.00    -0.237 OA
ATOM     84  O   UNL A   1      44.246  37.532  27.199  1.00  0.00    -0.237 OA
ATOM     85  O   UNL A   1      41.810  37.175  27.289  1.00  0.00    -0.744 OA
ENDBRANCH  81  82
ENDBRANCH  53  76
BRANCH  65  86
ATOM     86  C   UNL A   1      43.661  30.908  36.524  1.00  0.00    -0.014 A 
ATOM     87  C   UNL A   1      44.695  31.115  37.453  1.00  0.00     0.010 A 
ATOM     88  C   UNL A   1      42.374  31.405  36.813  1.00  0.00     0.010 A 
ATOM     89  C   UNL A   1      44.441  31.775  38.660  1.00  0.00     0.020 A 
ATOM     90  C   UNL A   1      42.124  32.091  38.004  1.00  0.00     0.020 A 
ATOM     91  C   UNL A   1      43.157  32.259  38.927  1.00  0.00     0.054 A 
BRANCH  91  92
ATOM     92  S   UNL A   1      42.863  33.148  40.480  1.00  0.00     0.124 S 
ATOM     93  O   UNL A   1      43.994  34.071  40.521  1.00  0.00    -0.237 OA
ATOM     94  O   UNL A   1      41.557  33.763  40.256  1.00  0.00    -0.237 OA
ATOM     95  O   UNL A   1      42.883  32.094  41.494  1.00  0.00    -0.744 OA
ENDBRANCH  91  92
ENDBRANCH  65  86
ENDBRANCH  39  40
ENDBRANCH  32  34
ENDBRANCH  31  32
ENDBRANCH  30  31
ENDBRANCH  29  30
ENDBRANCH  28  29
ENDBRANCH  27  28
ENDBRANCH   1  27
TORSDOF 25
ENDMDL
MODEL 3
REMARK VINA RESULT:      -7.9      6.628     12.262
REMARK SMILES C#CCNC(=O)[C@H](C)S(=O)(=O)c1ccc(C(=O)OCCOCCOCCOC(=O)c2ccc(-c3c4nc(c(-c5ccc(S(=O)(=O)[O-])cc5)c5ccc([nH]5)c(-c5ccc(S(=O)(=O)[O-])cc5)c5nc(c(-c6ccc(S(=O)(=O)[O-])cc6)c6ccc3[nH]6)C=C5)C=C4)cc2)cc1F
REMARK SMILES IDX 22 1 21 2 20 3 19 4 18 5 16 6 17 7 15 8 12 9 13 10 91 11
REMARK SMILES IDX 14 12 90 13 92 14 9 15 10 16 11 17 7 18 8 19 5 20 4 21 6 23
REMARK SMILES IDX 3 24 2 25 1 26 23 27 24 28 25 29 26 30 27 31 28 32 29 33
REMARK SMILES IDX 30 34 31 35 89 36 32 37 88 38 33 39 34 40 35 41 82 42 36 43
REMARK SMILES IDX 87 44 81 45 83 46 37 47 86 48 80 49 79 50 38 52 68 53 49 54
REMARK SMILES IDX 67 55 50 56 53 57 66 58 84 59 51 60 52 61 65 63 85 64 54 65
REMARK SMILES IDX 39 66 40 67 48 68 41 69 47 70 42 71 43 72 44 73 45 74 46 75
REMARK SMILES IDX 69 76 70 77 78 78 71 79 77 80 72 81 73 82 74 83 75 84 76 85
REMARK SMILES IDX 55 86 56 87 64 88 57 89 63 90 58 91 59 92 60 93 61 94 62 95
REMARK H PARENT 4 22 83 51 53 62
REMARK Flexibility Score: inf
ROOT
ATOM      1  C   UNL A   1      41.897  26.756  27.128  1.00  0.00     0.188 C 
ENDROOT
BRANCH   1   2
ATOM      2  O   UNL A   1      42.082  25.818  28.178  1.00  0.00    -0.376 OA
BRANCH   2   3
ATOM      3  C   UNL A   1      41.623  24.481  27.998  1.00  0.00     0.202 C 
BRANCH   3   4
ATOM      4  C   UNL A   1      42.647  23.338  27.932  1.00  0.00     0.261 C 
BRANCH   4   5
ATOM      5  O   UNL A   1      43.051  22.862  29.227  1.00  0.00    -0.460 OA
BRANCH   5   6
ATOM      6  C   UNL A   1      44.262  23.282  29.654  1.00  0.00     0.338 C 
ATOM      7  O   UNL A   1      45.293  23.398  29.015  1.00  0.00    -0.246 OA
BRANCH   6   8
ATOM      8  C   UNL A   1      44.135  23.776  31.030  1.00  0.00     0.063 A 
ATOM      9  C   UNL A   1      44.233  24.690  33.633  1.00  0.00     0.103 A 
ATOM     10  C   UNL A   1      44.355  25.606  32.588  1.00  0.00     0.024 A 
ATOM     11  C   UNL A   1      43.801  23.397  33.367  1.00  0.00     0.142 A 
ATOM     12  C   UNL A   1      44.453  25.114  31.293  1.00  0.00     0.017 A 
ATOM     13  C   UNL A   1      43.720  22.935  32.058  1.00  0.00     0.056 A 
ATOM     14  F   UNL A   1      43.500  22.550  34.355  1.00  0.00    -0.206 F 
BRANCH   9  15
ATOM     15  S   UNL A   1      44.817  25.114  35.258  1.00  0.00     0.192 S 
ATOM     16  O   UNL A   1      45.263  26.493  35.171  1.00  0.00    -0.223 OA
ATOM     17  O   UNL A   1      45.794  24.112  35.649  1.00  0.00    -0.223 OA
BRANCH  15  18
ATOM     18  C   UNL A   1      43.453  25.029  36.389  1.00  0.00     0.199 C 
ATOM     19  C   UNL A   1      43.795  25.643  37.752  1.00  0.00     0.036 C 
BRANCH  18  20
ATOM     20  C   UNL A   1      42.016  25.419  36.060  1.00  0.00     0.239 C 
ATOM     21  N   UNL A   1      41.455  26.593  35.729  1.00  0.00    -0.344 N 
ATOM     22  H   UNL A   1      40.478  26.534  35.620  1.00  0.00     0.164 HD
ATOM     23  O   UNL A   1      41.168  24.507  36.140  1.00  0.00    -0.274 OA
BRANCH  21  24
ATOM     24  C   UNL A   1      41.961  27.909  35.500  1.00  0.00     0.206 C 
BRANCH  24  25
ATOM     25  C   UNL A   1      42.123  28.234  34.024  1.00  0.00    -0.085 C 
ATOM     26  C   UNL A   1      42.261  28.513  32.759  1.00  0.00     0.006 C 
ENDBRANCH  24  25
ENDBRANCH  21  24
ENDBRANCH  18  20
ENDBRANCH  15  18
ENDBRANCH   9  15
ENDBRANCH   6   8
ENDBRANCH   5   6
ENDBRANCH   4   5
ENDBRANCH   3   4
ENDBRANCH   2   3
ENDBRANCH   1   2
BRANCH   1  27
ATOM     27  C   UNL A   1      42.816  26.681  25.891  1.00  0.00     0.188 C 
BRANCH  27  28
ATOM     28  O   UNL A   1      44.185  26.556  26.168  1.00  0.00    -0.376 OA
BRANCH  28  29
ATOM     29  C   UNL A   1      45.132  27.112  25.281  1.00  0.00     0.202 C 
BRANCH  29  30
ATOM     30  C   UNL A   1      46.404  26.405  24.767  1.00  0.00     0.261 C 
BRANCH  30  31
ATOM     31  O   UNL A   1      47.307  25.816  25.707  1.00  0.00    -0.460 OA
BRANCH  31  32
ATOM     32  C   UNL A   1      48.279  26.628  26.192  1.00  0.00     0.338 C 
ATOM     33  O   UNL A   1      49.197  27.126  25.563  1.00  0.00    -0.246 OA
BRANCH  32  34
ATOM     34  C   UNL A   1      47.955  26.982  27.589  1.00  0.00     0.060 A 
ATOM     35  C   UNL A   1      48.752  27.923  28.255  1.00  0.00     0.016 A 
ATOM     36  C   UNL A   1      46.899  26.355  28.251  1.00  0.00     0.016 A 
ATOM     37  C   UNL A   1      48.510  28.220  29.599  1.00  0.00     0.010 A 
ATOM     38  C   UNL A   1      46.671  26.640  29.601  1.00  0.00     0.010 A 
ATOM     39  C   UNL A   1      47.492  27.551  30.292  1.00  0.00    -0.014 A 
BRANCH  39  40
ATOM     40  C   UNL A   1      47.385  27.671  31.768  1.00  0.00     0.031 A 
ATOM     41  C   UNL A   1      48.054  26.632  32.629  1.00  0.00     0.074 A 
ATOM     42  C   UNL A   1      46.705  28.682  32.341  1.00  0.00     0.049 A 
ATOM     43  N   UNL A   1      48.044  26.501  33.930  1.00  0.00    -0.248 NA
ATOM     44  C   UNL A   1      48.835  25.601  31.925  1.00  0.00     0.031 C 
ATOM     45  C   UNL A   1      46.047  29.774  31.627  1.00  0.00     0.029 A 
ATOM     46  N   UNL A   1      46.450  28.944  33.666  1.00  0.00    -0.354 N 
ATOM     47  C   UNL A   1      48.804  25.369  34.202  1.00  0.00     0.074 A 
ATOM     48  C   UNL A   1      49.238  24.836  32.929  1.00  0.00     0.031 C 
ATOM     49  C   UNL A   1      45.452  30.584  32.521  1.00  0.00     0.029 A 
ATOM     50  C   UNL A   1      45.655  30.048  33.867  1.00  0.00     0.049 A 
ATOM     51  H   UNL A   1      46.803  28.393  34.401  1.00  0.00     0.167 HD
ATOM     52  C   UNL A   1      49.117  24.824  35.401  1.00  0.00     0.031 A 
ATOM     53  C   UNL A   1      45.130  30.554  35.002  1.00  0.00     0.031 A 
ATOM     54  C   UNL A   1      48.671  25.343  36.668  1.00  0.00     0.049 A 
ATOM     55  C   UNL A   1      45.430  29.886  36.321  1.00  0.00     0.074 A 
ATOM     56  C   UNL A   1      48.949  24.868  37.937  1.00  0.00     0.029 A 
ATOM     57  N   UNL A   1      47.844  26.445  36.825  1.00  0.00    -0.354 N 
ATOM     58  N   UNL A   1      46.174  28.832  36.563  1.00  0.00    -0.248 NA
ATOM     59  C   UNL A   1      44.823  30.480  37.521  1.00  0.00     0.031 C 
ATOM     60  C   UNL A   1      48.240  25.645  38.859  1.00  0.00     0.029 A 
ATOM     61  C   UNL A   1      47.580  26.649  38.169  1.00  0.00     0.049 A 
ATOM     62  H   UNL A   1      47.497  27.001  36.090  1.00  0.00     0.167 HD
ATOM     63  C   UNL A   1      46.153  28.662  37.945  1.00  0.00     0.074 A 
ATOM     64  C   UNL A   1      45.332  29.726  38.485  1.00  0.00     0.031 C 
ATOM     65  C   UNL A   1      46.764  27.714  38.699  1.00  0.00     0.031 A 
BRANCH  52  66
ATOM     66  C   UNL A   1      49.958  23.573  35.399  1.00  0.00    -0.014 A 
ATOM     67  C   UNL A   1      49.370  22.297  35.332  1.00  0.00     0.010 A 
ATOM     68  C   UNL A   1      51.361  23.679  35.426  1.00  0.00     0.010 A 
ATOM     69  C   UNL A   1      50.169  21.150  35.332  1.00  0.00     0.020 A 
ATOM     70  C   UNL A   1      52.164  22.536  35.396  1.00  0.00     0.020 A 
ATOM     71  C   UNL A   1      51.560  21.277  35.366  1.00  0.00     0.054 A 
BRANCH  71  72
ATOM     72  S   UNL A   1      52.572  19.772  35.343  1.00  0.00     0.124 S 
ATOM     73  O   UNL A   1      52.023  19.023  36.471  1.00  0.00    -0.237 OA
ATOM     74  O   UNL A   1      52.289  19.215  34.022  1.00  0.00    -0.237 OA
ATOM     75  O   UNL A   1      53.935  20.264  35.530  1.00  0.00    -0.744 OA
ENDBRANCH  71  72
ENDBRANCH  52  66
BRANCH  53  76
ATOM     76  C   UNL A   1      44.251  31.756  34.946  1.00  0.00    -0.014 A 
ATOM     77  C   UNL A   1      42.866  31.625  34.744  1.00  0.00     0.010 A 
ATOM     78  C   UNL A   1      44.800  33.044  35.086  1.00  0.00     0.010 A 
ATOM     79  C   UNL A   1      42.049  32.758  34.668  1.00  0.00     0.020 A 
ATOM     80  C   UNL A   1      43.983  34.178  35.039  1.00  0.00     0.020 A 
ATOM     81  C   UNL A   1      42.613  34.027  34.820  1.00  0.00     0.054 A 
BRANCH  81  82
ATOM     82  S   UNL A   1      41.526  35.478  34.770  1.00  0.00     0.124 S 
ATOM     83  O   UNL A   1      40.331  34.943  34.125  1.00  0.00    -0.237 OA
ATOM     84  O   UNL A   1      41.385  35.814  36.185  1.00  0.00    -0.237 OA
ATOM     85  O   UNL A   1      42.284  36.446  33.980  1.00  0.00    -0.744 OA
ENDBRANCH  81  82
ENDBRANCH  53  76
BRANCH  65  86
ATOM     86  C   UNL A   1      46.616  27.804  40.197  1.00  0.00    -0.014 A 
ATOM     87  C   UNL A   1      47.628  28.348  41.007  1.00  0.00     0.010 A 
ATOM     88  C   UNL A   1      45.411  27.388  40.797  1.00  0.00     0.010 A 
ATOM     89  C   UNL A   1      47.451  28.444  42.391  1.00  0.00     0.020 A 
ATOM     90  C   UNL A   1      45.219  27.511  42.175  1.00  0.00     0.020 A 
ATOM     91  C   UNL A   1      46.248  28.025  42.966  1.00  0.00     0.054 A 
BRANCH  91  92
ATOM     92  S   UNL A   1      46.028  28.198  44.758  1.00  0.00     0.124 S 
ATOM     93  O   UNL A   1      44.583  28.040  44.904  1.00  0.00    -0.237 OA
ATOM     94  O   UNL A   1      46.837  27.103  45.288  1.00  0.00    -0.237 OA
ATOM     95  O   UNL A   1      46.540  29.538  45.044  1.00  0.00    -0.744 OA
ENDBRANCH  91  92
ENDBRANCH  65  86
ENDBRANCH  39  40
ENDBRANCH  32  34
ENDBRANCH  31  32
ENDBRANCH  30  31
ENDBRANCH  29  30
ENDBRANCH  28  29
ENDBRANCH  27  28
ENDBRANCH   1  27
TORSDOF 25
ENDMDL
