MODEL 1
REMARK VINA RESULT:      -9.7      0.000      0.000
REMARK SMILES O=C(OCCOCCOCCOC(=O)c1ccc(-c2c3nc(c(-c4ccc(S(=O)(=O)[O-])cc4)c4ccc([nH]4)c(-c4ccc(S(=O)(=O)[O-])cc4)c4nc(c(-c5ccc(S(=O)(=O)[O-])cc5)c5ccc2[nH]5)C=C4)C=C3)cc1)c1ccc(Nc2ccnc(Cl)n2)cc1
REMARK SMILES IDX 8 1 7 2 6 3 5 4 4 5 3 6 2 7 1 8 75 9 76 10 88 11 77 12 87 13
REMARK SMILES IDX 78 14 79 15 80 17 81 18 86 19 82 20 84 21 83 22 85 23 9 24
REMARK SMILES IDX 10 25 11 26 12 27 13 28 14 29 15 30 16 31 74 32 17 33 73 34
REMARK SMILES IDX 18 35 19 36 20 37 67 38 21 39 72 40 66 41 68 42 22 43 71 44
REMARK SMILES IDX 65 45 64 46 23 48 53 49 34 50 52 51 35 52 38 53 51 54 69 55
REMARK SMILES IDX 36 56 37 57 50 59 70 60 39 61 24 62 25 63 33 64 26 65 32 66
REMARK SMILES IDX 27 67 28 68 29 69 30 70 31 71 54 72 55 73 63 74 56 75 62 76
REMARK SMILES IDX 57 77 58 78 59 79 60 80 61 81 40 82 41 83 49 84 42 85 48 86
REMARK SMILES IDX 43 87 44 88 45 89 46 90 47 91
REMARK H PARENT 79 16 68 47 38 58
REMARK Flexibility Score: inf
ROOT
ATOM      1  C   UNL A   1      37.045  23.212  24.994  1.00  0.00     0.188 C 
ENDROOT
BRANCH   1   2
ATOM      2  C   UNL A   1      36.300  22.133  24.203  1.00  0.00     0.188 C 
BRANCH   2   3
ATOM      3  O   UNL A   1      34.897  22.430  24.166  1.00  0.00    -0.376 OA
BRANCH   3   4
ATOM      4  C   UNL A   1      34.113  21.628  25.048  1.00  0.00     0.202 C 
BRANCH   4   5
ATOM      5  C   UNL A   1      33.697  22.335  26.342  1.00  0.00     0.261 C 
BRANCH   5   6
ATOM      6  O   UNL A   1      32.309  22.112  26.650  1.00  0.00    -0.460 OA
BRANCH   6   7
ATOM      7  C   UNL A   1      31.337  23.060  26.719  1.00  0.00     0.338 C 
ATOM      8  O   UNL A   1      30.513  23.025  27.627  1.00  0.00    -0.246 OA
BRANCH   7   9
ATOM      9  C   UNL A   1      31.278  24.180  25.742  1.00  0.00     0.060 A 
ATOM     10  C   UNL A   1      31.040  23.980  24.385  1.00  0.00     0.018 A 
ATOM     11  C   UNL A   1      31.390  25.493  26.213  1.00  0.00     0.018 A 
ATOM     12  C   UNL A   1      31.053  25.053  23.495  1.00  0.00     0.027 A 
ATOM     13  C   UNL A   1      31.356  26.576  25.320  1.00  0.00     0.027 A 
ATOM     14  C   UNL A   1      31.238  26.366  23.940  1.00  0.00     0.040 A 
BRANCH  14  15
ATOM     15  N   UNL A   1      31.281  27.465  23.058  1.00  0.00    -0.340 N 
ATOM     16  H   UNL A   1      32.160  27.662  22.660  1.00  0.00     0.168 HD
BRANCH  15  17
ATOM     17  C   UNL A   1      30.233  28.313  22.675  1.00  0.00     0.135 A 
ATOM     18  C   UNL A   1      30.475  29.490  21.987  1.00  0.00     0.067 A 
ATOM     19  N   UNL A   1      29.002  27.969  23.082  1.00  0.00    -0.200 NA
ATOM     20  C   UNL A   1      29.404  30.332  21.798  1.00  0.00     0.118 A 
ATOM     21  C   UNL A   1      28.041  28.870  22.844  1.00  0.00     0.224 A 
ATOM     22  N   UNL A   1      28.169  30.060  22.242  1.00  0.00    -0.226 NA
ATOM     23  Cl  UNL A   1      26.495  28.510  23.476  1.00  0.00    -0.041 Cl
ENDBRANCH  15  17
ENDBRANCH  14  15
ENDBRANCH   7   9
ENDBRANCH   6   7
ENDBRANCH   5   6
ENDBRANCH   4   5
ENDBRANCH   3   4
ENDBRANCH   2   3
ENDBRANCH   1   2
BRANCH   1  24
ATOM     24  O   UNL A   1      38.131  22.717  25.784  1.00  0.00    -0.376 OA
BRANCH  24  25
ATOM     25  C   UNL A   1      38.739  23.638  26.688  1.00  0.00     0.202 C 
BRANCH  25  26
ATOM     26  C   UNL A   1      40.270  23.615  26.736  1.00  0.00     0.261 C 
BRANCH  26  27
ATOM     27  O   UNL A   1      40.858  24.726  27.439  1.00  0.00    -0.460 OA
BRANCH  27  28
ATOM     28  C   UNL A   1      40.660  25.929  26.848  1.00  0.00     0.338 C 
ATOM     29  O   UNL A   1      40.765  26.201  25.664  1.00  0.00    -0.246 OA
BRANCH  28  30
ATOM     30  C   UNL A   1      40.305  26.953  27.843  1.00  0.00     0.060 A 
ATOM     31  C   UNL A   1      40.917  28.209  27.781  1.00  0.00     0.016 A 
ATOM     32  C   UNL A   1      39.557  26.580  28.963  1.00  0.00     0.016 A 
ATOM     33  C   UNL A   1      40.825  29.078  28.872  1.00  0.00     0.010 A 
ATOM     34  C   UNL A   1      39.462  27.455  30.050  1.00  0.00     0.010 A 
ATOM     35  C   UNL A   1      40.133  28.691  30.030  1.00  0.00    -0.014 A 
BRANCH  35  36
ATOM     36  C   UNL A   1      40.211  29.506  31.270  1.00  0.00     0.031 A 
ATOM     37  C   UNL A   1      41.327  29.262  32.256  1.00  0.00     0.074 A 
ATOM     38  C   UNL A   1      39.287  30.449  31.534  1.00  0.00     0.049 A 
ATOM     39  N   UNL A   1      41.524  29.799  33.434  1.00  0.00    -0.248 NA
ATOM     40  C   UNL A   1      42.350  28.280  31.864  1.00  0.00     0.031 C 
ATOM     41  C   UNL A   1      38.174  30.813  30.658  1.00  0.00     0.029 A 
ATOM     42  N   UNL A   1      39.140  31.265  32.628  1.00  0.00    -0.354 N 
ATOM     43  C   UNL A   1      42.681  29.211  33.932  1.00  0.00     0.074 A 
ATOM     44  C   UNL A   1      43.132  28.262  32.935  1.00  0.00     0.031 C 
ATOM     45  C   UNL A   1      37.452  31.776  31.255  1.00  0.00     0.029 A 
ATOM     46  C   UNL A   1      38.030  32.071  32.565  1.00  0.00     0.049 A 
ATOM     47  H   UNL A   1      39.769  31.271  33.385  1.00  0.00     0.167 HD
ATOM     48  C   UNL A   1      43.317  29.440  35.107  1.00  0.00     0.031 A 
ATOM     49  C   UNL A   1      37.523  32.934  33.468  1.00  0.00     0.031 A 
ATOM     50  C   UNL A   1      42.880  30.382  36.102  1.00  0.00     0.049 A 
ATOM     51  C   UNL A   1      38.213  33.134  34.790  1.00  0.00     0.074 A 
ATOM     52  C   UNL A   1      43.476  30.695  37.313  1.00  0.00     0.029 A 
ATOM     53  N   UNL A   1      41.740  31.165  36.006  1.00  0.00    -0.354 N 
ATOM     54  N   UNL A   1      39.311  32.576  35.239  1.00  0.00    -0.248 NA
ATOM     55  C   UNL A   1      37.593  34.082  35.728  1.00  0.00     0.031 C 
ATOM     56  C   UNL A   1      42.672  31.635  37.969  1.00  0.00     0.029 A 
ATOM     57  C   UNL A   1      41.601  31.941  37.146  1.00  0.00     0.049 A 
ATOM     58  H   UNL A   1      41.119  31.167  35.242  1.00  0.00     0.167 HD
ATOM     59  C   UNL A   1      39.524  33.121  36.501  1.00  0.00     0.074 A 
ATOM     60  C   UNL A   1      38.447  34.058  36.742  1.00  0.00     0.031 C 
ATOM     61  C   UNL A   1      40.525  32.868  37.380  1.00  0.00     0.031 A 
BRANCH  48  62
ATOM     62  C   UNL A   1      44.550  28.628  35.397  1.00  0.00    -0.014 A 
ATOM     63  C   UNL A   1      45.828  29.097  35.044  1.00  0.00     0.010 A 
ATOM     64  C   UNL A   1      44.431  27.397  36.065  1.00  0.00     0.010 A 
ATOM     65  C   UNL A   1      46.963  28.330  35.322  1.00  0.00     0.020 A 
ATOM     66  C   UNL A   1      45.566  26.636  36.364  1.00  0.00     0.020 A 
ATOM     67  C   UNL A   1      46.823  27.100  35.974  1.00  0.00     0.054 A 
BRANCH  67  68
ATOM     68  S   UNL A   1      48.311  26.127  36.336  1.00  0.00     0.124 S 
ATOM     69  O   UNL A   1      47.979  24.837  35.737  1.00  0.00    -0.237 OA
ATOM     70  O   UNL A   1      49.364  26.880  35.660  1.00  0.00    -0.237 OA
ATOM     71  O   UNL A   1      48.383  26.137  37.795  1.00  0.00    -0.744 OA
ENDBRANCH  67  68
ENDBRANCH  48  62
BRANCH  49  72
ATOM     72  C   UNL A   1      36.266  33.665  33.157  1.00  0.00    -0.014 A 
ATOM     73  C   UNL A   1      36.310  34.953  32.598  1.00  0.00     0.010 A 
ATOM     74  C   UNL A   1      35.020  33.064  33.409  1.00  0.00     0.010 A 
ATOM     75  C   UNL A   1      35.125  35.633  32.301  1.00  0.00     0.020 A 
ATOM     76  C   UNL A   1      33.834  33.732  33.093  1.00  0.00     0.020 A 
ATOM     77  C   UNL A   1      33.895  35.016  32.547  1.00  0.00     0.054 A 
BRANCH  77  78
ATOM     78  S   UNL A   1      32.367  35.878  32.086  1.00  0.00     0.124 S 
ATOM     79  O   UNL A   1      31.345  35.024  32.681  1.00  0.00    -0.237 OA
ATOM     80  O   UNL A   1      32.540  37.189  32.709  1.00  0.00    -0.237 OA
ATOM     81  O   UNL A   1      32.412  35.884  30.626  1.00  0.00    -0.744 OA
ENDBRANCH  77  78
ENDBRANCH  49  72
BRANCH  61  82
ATOM     82  C   UNL A   1      40.524  33.632  38.676  1.00  0.00    -0.014 A 
ATOM     83  C   UNL A   1      40.092  33.032  39.872  1.00  0.00     0.010 A 
ATOM     84  C   UNL A   1      41.011  34.951  38.708  1.00  0.00     0.010 A 
ATOM     85  C   UNL A   1      40.125  33.748  41.074  1.00  0.00     0.020 A 
ATOM     86  C   UNL A   1      41.064  35.663  39.910  1.00  0.00     0.020 A 
ATOM     87  C   UNL A   1      40.607  35.060  41.084  1.00  0.00     0.054 A 
BRANCH  87  88
ATOM     88  S   UNL A   1      40.683  35.956  42.660  1.00  0.00     0.124 S 
ATOM     89  O   UNL A   1      42.110  36.243  42.779  1.00  0.00    -0.237 OA
ATOM     90  O   UNL A   1      39.828  37.115  42.417  1.00  0.00    -0.237 OA
ATOM     91  O   UNL A   1      40.158  34.995  43.629  1.00  0.00    -0.744 OA
ENDBRANCH  87  88
ENDBRANCH  61  82
ENDBRANCH  35  36
ENDBRANCH  28  30
ENDBRANCH  27  28
ENDBRANCH  26  27
ENDBRANCH  25  26
ENDBRANCH  24  25
ENDBRANCH   1  24
TORSDOF 22
ENDMDL
MODEL 2
REMARK VINA RESULT:      -9.4      3.692      4.990
REMARK SMILES O=C(OCCOCCOCCOC(=O)c1ccc(-c2c3nc(c(-c4ccc(S(=O)(=O)[O-])cc4)c4ccc([nH]4)c(-c4ccc(S(=O)(=O)[O-])cc4)c4nc(c(-c5ccc(S(=O)(=O)[O-])cc5)c5ccc2[nH]5)C=C4)C=C3)cc1)c1ccc(Nc2ccnc(Cl)n2)cc1
REMARK SMILES IDX 8 1 7 2 6 3 5 4 4 5 3 6 2 7 1 8 75 9 76 10 88 11 77 12 87 13
REMARK SMILES IDX 78 14 79 15 80 17 81 18 86 19 82 20 84 21 83 22 85 23 9 24
REMARK SMILES IDX 10 25 11 26 12 27 13 28 14 29 15 30 16 31 74 32 17 33 73 34
REMARK SMILES IDX 18 35 19 36 20 37 67 38 21 39 72 40 66 41 68 42 22 43 71 44
REMARK SMILES IDX 65 45 64 46 23 48 53 49 34 50 52 51 35 52 38 53 51 54 69 55
REMARK SMILES IDX 36 56 37 57 50 59 70 60 39 61 24 62 25 63 33 64 26 65 32 66
REMARK SMILES IDX 27 67 28 68 29 69 30 70 31 71 54 72 55 73 63 74 56 75 62 76
REMARK SMILES IDX 57 77 58 78 59 79 60 80 61 81 40 82 41 83 49 84 42 85 48 86
REMARK SMILES IDX 43 87 44 88 45 89 46 90 47 91
REMARK H PARENT 79 16 68 47 38 58
REMARK Flexibility Score: inf
ROOT
ATOM      1  C   UNL A   1      40.885  21.498  27.017  1.00  0.00     0.188 C 
ENDROOT
BRANCH   1   2
ATOM      2  C   UNL A   1      39.615  22.301  26.719  1.00  0.00     0.188 C 
BRANCH   2   3
ATOM      3  O   UNL A   1      38.818  21.618  25.742  1.00  0.00    -0.376 OA
BRANCH   3   4
ATOM      4  C   UNL A   1      37.776  22.419  25.185  1.00  0.00     0.202 C 
BRANCH   4   5
ATOM      5  C   UNL A   1      37.775  23.875  25.662  1.00  0.00     0.261 C 
BRANCH   5   6
ATOM      6  O   UNL A   1      36.515  24.242  26.253  1.00  0.00    -0.460 OA
BRANCH   6   7
ATOM      7  C   UNL A   1      35.303  24.234  25.638  1.00  0.00     0.338 C 
ATOM      8  O   UNL A   1      34.863  25.266  25.141  1.00  0.00    -0.246 OA
BRANCH   7   9
ATOM      9  C   UNL A   1      34.512  22.982  25.505  1.00  0.00     0.060 A 
ATOM     10  C   UNL A   1      34.145  22.206  26.600  1.00  0.00     0.018 A 
ATOM     11  C   UNL A   1      34.050  22.607  24.237  1.00  0.00     0.018 A 
ATOM     12  C   UNL A   1      33.454  21.008  26.423  1.00  0.00     0.027 A 
ATOM     13  C   UNL A   1      33.314  21.424  24.067  1.00  0.00     0.027 A 
ATOM     14  C   UNL A   1      33.050  20.580  25.154  1.00  0.00     0.040 A 
BRANCH  14  15
ATOM     15  N   UNL A   1      32.374  19.361  24.946  1.00  0.00    -0.340 N 
ATOM     16  H   UNL A   1      31.399  19.426  24.820  1.00  0.00     0.168 HD
BRANCH  15  17
ATOM     17  C   UNL A   1      32.912  18.067  24.894  1.00  0.00     0.135 A 
ATOM     18  C   UNL A   1      33.950  17.754  24.032  1.00  0.00     0.067 A 
ATOM     19  N   UNL A   1      32.317  17.137  25.656  1.00  0.00    -0.200 NA
ATOM     20  C   UNL A   1      34.300  16.428  23.935  1.00  0.00     0.118 A 
ATOM     21  C   UNL A   1      32.741  15.881  25.472  1.00  0.00     0.224 A 
ATOM     22  N   UNL A   1      33.692  15.456  24.629  1.00  0.00    -0.226 NA
ATOM     23  Cl  UNL A   1      31.902  14.668  26.333  1.00  0.00    -0.041 Cl
ENDBRANCH  15  17
ENDBRANCH  14  15
ENDBRANCH   7   9
ENDBRANCH   6   7
ENDBRANCH   5   6
ENDBRANCH   4   5
ENDBRANCH   3   4
ENDBRANCH   2   3
ENDBRANCH   1   2
BRANCH   1  24
ATOM     24  O   UNL A   1      41.615  21.100  25.851  1.00  0.00    -0.376 OA
BRANCH  24  25
ATOM     25  C   UNL A   1      43.029  21.291  25.883  1.00  0.00     0.202 C 
BRANCH  25  26
ATOM     26  C   UNL A   1      43.527  22.664  25.422  1.00  0.00     0.261 C 
BRANCH  26  27
ATOM     27  O   UNL A   1      42.534  23.705  25.483  1.00  0.00    -0.460 OA
BRANCH  27  28
ATOM     28  C   UNL A   1      43.033  24.961  25.375  1.00  0.00     0.338 C 
ATOM     29  O   UNL A   1      43.932  25.342  24.645  1.00  0.00    -0.246 OA
BRANCH  28  30
ATOM     30  C   UNL A   1      42.356  25.879  26.305  1.00  0.00     0.060 A 
ATOM     31  C   UNL A   1      42.665  27.241  26.269  1.00  0.00     0.016 A 
ATOM     32  C   UNL A   1      41.606  25.346  27.357  1.00  0.00     0.016 A 
ATOM     33  C   UNL A   1      42.268  28.070  27.322  1.00  0.00     0.010 A 
ATOM     34  C   UNL A   1      41.204  26.180  28.406  1.00  0.00     0.010 A 
ATOM     35  C   UNL A   1      41.572  27.537  28.418  1.00  0.00    -0.014 A 
BRANCH  35  36
ATOM     36  C   UNL A   1      41.337  28.353  29.638  1.00  0.00     0.031 A 
ATOM     37  C   UNL A   1      42.187  28.126  30.864  1.00  0.00     0.074 A 
ATOM     38  C   UNL A   1      40.363  29.280  29.669  1.00  0.00     0.049 A 
ATOM     39  N   UNL A   1      42.086  28.665  32.053  1.00  0.00    -0.248 NA
ATOM     40  C   UNL A   1      43.290  27.161  30.733  1.00  0.00     0.031 C 
ATOM     41  C   UNL A   1      39.487  29.628  28.550  1.00  0.00     0.029 A 
ATOM     42  N   UNL A   1      39.944  30.094  30.693  1.00  0.00    -0.354 N 
ATOM     43  C   UNL A   1      43.099  28.095  32.816  1.00  0.00     0.074 A 
ATOM     44  C   UNL A   1      43.791  27.154  31.960  1.00  0.00     0.031 C 
ATOM     45  C   UNL A   1      38.627  30.579  28.953  1.00  0.00     0.029 A 
ATOM     46  C   UNL A   1      38.869  30.882  30.363  1.00  0.00     0.049 A 
ATOM     47  H   UNL A   1      40.372  30.109  31.579  1.00  0.00     0.167 HD
ATOM     48  C   UNL A   1      43.431  28.333  34.109  1.00  0.00     0.031 A 
ATOM     49  C   UNL A   1      38.146  31.736  31.115  1.00  0.00     0.031 A 
ATOM     50  C   UNL A   1      42.752  29.268  34.967  1.00  0.00     0.049 A 
ATOM     51  C   UNL A   1      38.495  31.946  32.564  1.00  0.00     0.074 A 
ATOM     52  C   UNL A   1      43.034  29.589  36.285  1.00  0.00     0.029 A 
ATOM     53  N   UNL A   1      41.657  30.032  34.598  1.00  0.00    -0.354 N 
ATOM     54  N   UNL A   1      39.462  31.405  33.265  1.00  0.00    -0.248 NA
ATOM     55  C   UNL A   1      37.653  32.883  33.321  1.00  0.00     0.031 C 
ATOM     56  C   UNL A   1      42.082  30.516  36.725  1.00  0.00     0.029 A 
ATOM     57  C   UNL A   1      41.236  30.805  35.668  1.00  0.00     0.049 A 
ATOM     58  H   UNL A   1      41.238  30.025  33.707  1.00  0.00     0.167 HD
ATOM     59  C   UNL A   1      39.356  31.953  34.539  1.00  0.00     0.074 A 
ATOM     60  C   UNL A   1      38.238  32.872  34.511  1.00  0.00     0.031 C 
ATOM     61  C   UNL A   1      40.121  31.715  35.634  1.00  0.00     0.031 A 
BRANCH  48  62
ATOM     62  C   UNL A   1      44.570  27.541  34.690  1.00  0.00    -0.014 A 
ATOM     63  C   UNL A   1      44.351  26.293  35.300  1.00  0.00     0.010 A 
ATOM     64  C   UNL A   1      45.883  28.034  34.588  1.00  0.00     0.010 A 
ATOM     65  C   UNL A   1      45.421  25.570  35.833  1.00  0.00     0.020 A 
ATOM     66  C   UNL A   1      46.959  27.305  35.102  1.00  0.00     0.020 A 
ATOM     67  C   UNL A   1      46.719  26.085  35.737  1.00  0.00     0.054 A 
BRANCH  67  68
ATOM     68  S   UNL A   1      48.095  25.124  36.425  1.00  0.00     0.124 S 
ATOM     69  O   UNL A   1      47.427  23.887  36.823  1.00  0.00    -0.237 OA
ATOM     70  O   UNL A   1      49.008  25.006  35.290  1.00  0.00    -0.237 OA
ATOM     71  O   UNL A   1      48.580  25.953  37.525  1.00  0.00    -0.744 OA
ENDBRANCH  67  68
ENDBRANCH  48  62
BRANCH  49  72
ATOM     72  C   UNL A   1      36.990  32.447  30.508  1.00  0.00    -0.014 A 
ATOM     73  C   UNL A   1      35.680  32.167  30.927  1.00  0.00     0.010 A 
ATOM     74  C   UNL A   1      37.203  33.420  29.514  1.00  0.00     0.010 A 
ATOM     75  C   UNL A   1      34.597  32.843  30.359  1.00  0.00     0.020 A 
ATOM     76  C   UNL A   1      36.125  34.114  28.959  1.00  0.00     0.020 A 
ATOM     77  C   UNL A   1      34.827  33.815  29.380  1.00  0.00     0.054 A 
BRANCH  77  78
ATOM     78  S   UNL A   1      33.421  34.740  28.706  1.00  0.00     0.124 S 
ATOM     79  O   UNL A   1      32.956  33.854  27.644  1.00  0.00    -0.237 OA
ATOM     80  O   UNL A   1      32.536  34.864  29.863  1.00  0.00    -0.237 OA
ATOM     81  O   UNL A   1      34.024  35.994  28.261  1.00  0.00    -0.744 OA
ENDBRANCH  77  78
ENDBRANCH  49  72
BRANCH  61  82
ATOM     82  C   UNL A   1      39.796  32.478  36.889  1.00  0.00    -0.014 A 
ATOM     83  C   UNL A   1      38.700  32.119  37.694  1.00  0.00     0.010 A 
ATOM     84  C   UNL A   1      40.629  33.535  37.298  1.00  0.00     0.010 A 
ATOM     85  C   UNL A   1      38.429  32.821  38.873  1.00  0.00     0.020 A 
ATOM     86  C   UNL A   1      40.374  34.226  38.486  1.00  0.00     0.020 A 
ATOM     87  C   UNL A   1      39.266  33.873  39.259  1.00  0.00     0.054 A 
BRANCH  87  88
ATOM     88  S   UNL A   1      38.924  34.742  40.815  1.00  0.00     0.124 S 
ATOM     89  O   UNL A   1      39.207  36.129  40.458  1.00  0.00    -0.237 OA
ATOM     90  O   UNL A   1      37.518  34.431  41.058  1.00  0.00    -0.237 OA
ATOM     91  O   UNL A   1      39.861  34.138  41.761  1.00  0.00    -0.744 OA
ENDBRANCH  87  88
ENDBRANCH  61  82
ENDBRANCH  35  36
ENDBRANCH  28  30
ENDBRANCH  27  28
ENDBRANCH  26  27
ENDBRANCH  25  26
ENDBRANCH  24  25
ENDBRANCH   1  24
TORSDOF 22
ENDMDL
MODEL 3
REMARK VINA RESULT:      -9.3      3.765      8.433
REMARK SMILES O=C(OCCOCCOCCOC(=O)c1ccc(-c2c3nc(c(-c4ccc(S(=O)(=O)[O-])cc4)c4ccc([nH]4)c(-c4ccc(S(=O)(=O)[O-])cc4)c4nc(c(-c5ccc(S(=O)(=O)[O-])cc5)c5ccc2[nH]5)C=C4)C=C3)cc1)c1ccc(Nc2ccnc(Cl)n2)cc1
REMARK SMILES IDX 8 1 7 2 6 3 5 4 4 5 3 6 2 7 1 8 75 9 76 10 88 11 77 12 87 13
REMARK SMILES IDX 78 14 79 15 80 17 81 18 86 19 82 20 84 21 83 22 85 23 9 24
REMARK SMILES IDX 10 25 11 26 12 27 13 28 14 29 15 30 16 31 74 32 17 33 73 34
REMARK SMILES IDX 18 35 19 36 20 37 67 38 21 39 72 40 66 41 68 42 22 43 71 44
REMARK SMILES IDX 65 45 64 46 23 48 53 49 34 50 52 51 35 52 38 53 51 54 69 55
REMARK SMILES IDX 36 56 37 57 50 59 70 60 39 61 24 62 25 63 33 64 26 65 32 66
REMARK SMILES IDX 27 67 28 68 29 69 30 70 31 71 54 72 55 73 63 74 56 75 62 76
REMARK SMILES IDX 57 77 58 78 59 79 60 80 61 81 40 82 41 83 49 84 42 85 48 86
REMARK SMILES IDX 43 87 44 88 45 89 46 90 47 91
REMARK H PARENT 79 16 68 47 38 58
REMARK Flexibility Score: inf
ROOT
ATOM      1  C   UNL A   1      31.611  29.600  25.101  1.00  0.00     0.188 C 
ENDROOT
BRANCH   1   2
ATOM      2  C   UNL A   1      31.765  28.121  24.732  1.00  0.00     0.188 C 
BRANCH   2   3
ATOM      3  O   UNL A   1      31.002  27.306  25.632  1.00  0.00    -0.376 OA
BRANCH   3   4
ATOM      4  C   UNL A   1      30.733  25.995  25.137  1.00  0.00     0.202 C 
BRANCH   4   5
ATOM      5  C   UNL A   1      30.309  24.989  26.212  1.00  0.00     0.261 C 
BRANCH   5   6
ATOM      6  O   UNL A   1      31.445  24.391  26.861  1.00  0.00    -0.460 OA
BRANCH   6   7
ATOM      7  C   UNL A   1      32.636  24.085  26.282  1.00  0.00     0.338 C 
ATOM      8  O   UNL A   1      33.559  24.892  26.318  1.00  0.00    -0.246 OA
BRANCH   7   9
ATOM      9  C   UNL A   1      32.867  22.762  25.643  1.00  0.00     0.060 A 
ATOM     10  C   UNL A   1      34.137  22.299  25.312  1.00  0.00     0.018 A 
ATOM     11  C   UNL A   1      31.773  21.913  25.435  1.00  0.00     0.018 A 
ATOM     12  C   UNL A   1      34.301  21.078  24.659  1.00  0.00     0.027 A 
ATOM     13  C   UNL A   1      31.947  20.663  24.820  1.00  0.00     0.027 A 
ATOM     14  C   UNL A   1      33.210  20.250  24.377  1.00  0.00     0.040 A 
BRANCH  14  15
ATOM     15  N   UNL A   1      33.347  19.024  23.695  1.00  0.00    -0.340 N 
ATOM     16  H   UNL A   1      33.313  19.073  22.712  1.00  0.00     0.168 HD
BRANCH  15  17
ATOM     17  C   UNL A   1      33.525  17.744  24.239  1.00  0.00     0.135 A 
ATOM     18  C   UNL A   1      32.449  16.904  24.468  1.00  0.00     0.067 A 
ATOM     19  N   UNL A   1      34.774  17.411  24.599  1.00  0.00    -0.200 NA
ATOM     20  C   UNL A   1      32.703  15.737  25.151  1.00  0.00     0.118 A 
ATOM     21  C   UNL A   1      34.897  16.254  25.259  1.00  0.00     0.224 A 
ATOM     22  N   UNL A   1      33.923  15.394  25.586  1.00  0.00    -0.226 NA
ATOM     23  Cl  UNL A   1      36.458  15.881  25.844  1.00  0.00    -0.041 Cl
ENDBRANCH  15  17
ENDBRANCH  14  15
ENDBRANCH   7   9
ENDBRANCH   6   7
ENDBRANCH   5   6
ENDBRANCH   4   5
ENDBRANCH   3   4
ENDBRANCH   2   3
ENDBRANCH   1   2
BRANCH   1  24
ATOM     24  O   UNL A   1      32.755  30.166  25.749  1.00  0.00    -0.376 OA
BRANCH  24  25
ATOM     25  C   UNL A   1      32.514  30.912  26.941  1.00  0.00     0.202 C 
BRANCH  25  26
ATOM     26  C   UNL A   1      33.744  31.561  27.583  1.00  0.00     0.261 C 
BRANCH  26  27
ATOM     27  O   UNL A   1      33.871  32.972  27.326  1.00  0.00    -0.460 OA
BRANCH  27  28
ATOM     28  C   UNL A   1      33.582  33.762  28.388  1.00  0.00     0.338 C 
ATOM     29  O   UNL A   1      32.597  34.462  28.547  1.00  0.00    -0.246 OA
BRANCH  28  30
ATOM     30  C   UNL A   1      34.658  33.709  29.392  1.00  0.00     0.060 A 
ATOM     31  C   UNL A   1      35.934  34.167  29.051  1.00  0.00     0.016 A 
ATOM     32  C   UNL A   1      34.450  32.988  30.571  1.00  0.00     0.016 A 
ATOM     33  C   UNL A   1      37.023  33.854  29.871  1.00  0.00     0.010 A 
ATOM     34  C   UNL A   1      35.541  32.683  31.391  1.00  0.00     0.010 A 
ATOM     35  C   UNL A   1      36.841  33.074  31.023  1.00  0.00    -0.014 A 
BRANCH  35  36
ATOM     36  C   UNL A   1      38.009  32.552  31.779  1.00  0.00     0.031 A 
ATOM     37  C   UNL A   1      38.784  31.376  31.238  1.00  0.00     0.074 A 
ATOM     38  C   UNL A   1      38.374  33.105  32.951  1.00  0.00     0.049 A 
ATOM     39  N   UNL A   1      39.773  30.714  31.784  1.00  0.00    -0.248 NA
ATOM     40  C   UNL A   1      38.387  30.878  29.912  1.00  0.00     0.031 C 
ATOM     41  C   UNL A   1      37.737  34.263  33.576  1.00  0.00     0.029 A 
ATOM     42  N   UNL A   1      39.370  32.750  33.827  1.00  0.00    -0.354 N 
ATOM     43  C   UNL A   1      40.107  29.713  30.878  1.00  0.00     0.074 A 
ATOM     44  C   UNL A   1      39.201  29.843  29.756  1.00  0.00     0.031 C 
ATOM     45  C   UNL A   1      38.355  34.518  34.743  1.00  0.00     0.029 A 
ATOM     46  C   UNL A   1      39.404  33.524  34.961  1.00  0.00     0.049 A 
ATOM     47  H   UNL A   1      39.998  32.012  33.658  1.00  0.00     0.167 HD
ATOM     48  C   UNL A   1      41.080  28.773  30.965  1.00  0.00     0.031 A 
ATOM     49  C   UNL A   1      40.178  33.431  36.061  1.00  0.00     0.031 A 
ATOM     50  C   UNL A   1      41.988  28.637  32.074  1.00  0.00     0.049 A 
ATOM     51  C   UNL A   1      41.216  32.347  36.163  1.00  0.00     0.074 A 
ATOM     52  C   UNL A   1      43.019  27.727  32.236  1.00  0.00     0.029 A 
ATOM     53  N   UNL A   1      41.975  29.431  33.210  1.00  0.00    -0.354 N 
ATOM     54  N   UNL A   1      41.523  31.416  35.292  1.00  0.00    -0.248 NA
ATOM     55  C   UNL A   1      42.012  32.303  37.398  1.00  0.00     0.031 C 
ATOM     56  C   UNL A   1      43.602  27.942  33.490  1.00  0.00     0.029 A 
ATOM     57  C   UNL A   1      42.963  29.016  34.088  1.00  0.00     0.049 A 
ATOM     58  H   UNL A   1      41.354  30.178  33.371  1.00  0.00     0.167 HD
ATOM     59  C   UNL A   1      42.561  30.689  35.867  1.00  0.00     0.074 A 
ATOM     60  C   UNL A   1      42.836  31.293  37.154  1.00  0.00     0.031 C 
ATOM     61  C   UNL A   1      43.228  29.619  35.368  1.00  0.00     0.031 A 
BRANCH  48  62
ATOM     62  C   UNL A   1      41.196  27.789  29.833  1.00  0.00    -0.014 A 
ATOM     63  C   UNL A   1      40.148  26.901  29.533  1.00  0.00     0.010 A 
ATOM     64  C   UNL A   1      42.355  27.779  29.037  1.00  0.00     0.010 A 
ATOM     65  C   UNL A   1      40.272  25.994  28.477  1.00  0.00     0.020 A 
ATOM     66  C   UNL A   1      42.475  26.887  27.966  1.00  0.00     0.020 A 
ATOM     67  C   UNL A   1      41.440  25.988  27.705  1.00  0.00     0.054 A 
BRANCH  67  68
ATOM     68  S   UNL A   1      41.574  24.811  26.331  1.00  0.00     0.124 S 
ATOM     69  O   UNL A   1      41.699  25.705  25.182  1.00  0.00    -0.237 OA
ATOM     70  O   UNL A   1      42.776  24.053  26.669  1.00  0.00    -0.237 OA
ATOM     71  O   UNL A   1      40.326  24.055  26.400  1.00  0.00    -0.744 OA
ENDBRANCH  67  68
ENDBRANCH  48  62
BRANCH  49  72
ATOM     72  C   UNL A   1      39.980  34.392  37.178  1.00  0.00    -0.014 A 
ATOM     73  C   UNL A   1      38.959  34.189  38.121  1.00  0.00     0.010 A 
ATOM     74  C   UNL A   1      40.826  35.508  37.306  1.00  0.00     0.010 A 
ATOM     75  C   UNL A   1      38.781  35.091  39.173  1.00  0.00     0.020 A 
ATOM     76  C   UNL A   1      40.665  36.400  38.370  1.00  0.00     0.020 A 
ATOM     77  C   UNL A   1      39.638  36.189  39.293  1.00  0.00     0.054 A 
BRANCH  77  78
ATOM     78  S   UNL A   1      39.446  37.310  40.706  1.00  0.00     0.124 S 
ATOM     79  O   UNL A   1      38.429  38.237  40.222  1.00  0.00    -0.237 OA
ATOM     80  O   UNL A   1      39.025  36.406  41.775  1.00  0.00    -0.237 OA
ATOM     81  O   UNL A   1      40.784  37.872  40.873  1.00  0.00    -0.744 OA
ENDBRANCH  77  78
ENDBRANCH  49  72
BRANCH  61  82
ATOM     82  C   UNL A   1      44.341  29.042  36.202  1.00  0.00    -0.014 A 
ATOM     83  C   UNL A   1      44.102  27.985  37.098  1.00  0.00     0.010 A 
ATOM     84  C   UNL A   1      45.651  29.527  36.047  1.00  0.00     0.010 A 
ATOM     85  C   UNL A   1      45.154  27.440  37.844  1.00  0.00     0.020 A 
ATOM     86  C   UNL A   1      46.708  28.973  36.776  1.00  0.00     0.020 A 
ATOM     87  C   UNL A   1      46.449  27.941  37.680  1.00  0.00     0.054 A 
BRANCH  87  88
ATOM     88  S   UNL A   1      47.806  27.192  38.624  1.00  0.00     0.124 S 
ATOM     89  O   UNL A   1      48.699  26.736  37.562  1.00  0.00    -0.237 OA
ATOM     90  O   UNL A   1      48.300  28.309  39.425  1.00  0.00    -0.237 OA
ATOM     91  O   UNL A   1      47.151  26.130  39.386  1.00  0.00    -0.744 OA
ENDBRANCH  87  88
ENDBRANCH  61  82
ENDBRANCH  35  36
ENDBRANCH  28  30
ENDBRANCH  27  28
ENDBRANCH  26  27
ENDBRANCH  25  26
ENDBRANCH  24  25
ENDBRANCH   1  24
TORSDOF 22
ENDMDL
