MODEL 1
REMARK VINA RESULT:      -9.0      0.000      0.000
REMARK SMILES CCOc1ccc(-c2cnc(N)cc2C(=O)OCCOCCOCCOC(=O)c2ccc(-c3c4nc(c(-c5ccc(S(=O)(=O)[O-])cc5)c5ccc([nH]5)c(-c5ccc(S(=O)(=O)[O-])cc5)c5nc(c(-c6ccc(S(=O)(=O)[O-])cc6)c6ccc3[nH]6)C=C5)C=C4)cc2)c(Cl)c1
REMARK SMILES IDX 21 1 20 2 19 3 18 4 17 5 15 6 16 7 14 8 8 9 9 10 10 11 13 12
REMARK SMILES IDX 11 13 7 14 4 15 5 16 91 17 6 18 89 19 90 20 3 21 2 22 1 23
REMARK SMILES IDX 12 24 22 27 23 28 24 29 25 30 26 31 27 32 28 33 29 34 30 35
REMARK SMILES IDX 88 36 31 37 87 38 32 39 33 40 34 41 81 42 35 43 86 44 80 45
REMARK SMILES IDX 82 46 36 47 85 48 79 49 78 50 37 52 67 53 48 54 66 55 49 56
REMARK SMILES IDX 52 57 65 58 83 59 50 60 51 61 64 63 84 64 53 65 38 66 39 67
REMARK SMILES IDX 47 68 40 69 46 70 41 71 42 72 43 73 44 74 45 75 68 76 69 77
REMARK SMILES IDX 77 78 70 79 76 80 71 81 72 82 73 83 74 84 75 85 54 86 55 87
REMARK SMILES IDX 63 88 56 89 62 90 57 91 58 92 59 93 60 94 61 95
REMARK H PARENT 12 25 12 26 82 51 52 62
REMARK Flexibility Score: inf
ROOT
ATOM      1  C   UNL A   1      32.766  26.851  26.176  1.00  0.00     0.188 C 
ENDROOT
BRANCH   1   2
ATOM      2  O   UNL A   1      32.092  25.636  26.375  1.00  0.00    -0.376 OA
BRANCH   2   3
ATOM      3  C   UNL A   1      32.504  24.458  25.717  1.00  0.00     0.202 C 
BRANCH   3   4
ATOM      4  C   UNL A   1      31.598  23.464  24.962  1.00  0.00     0.261 C 
BRANCH   4   5
ATOM      5  O   UNL A   1      31.927  22.070  24.964  1.00  0.00    -0.460 OA
BRANCH   5   6
ATOM      6  C   UNL A   1      32.832  21.656  24.035  1.00  0.00     0.339 C 
ATOM      7  O   UNL A   1      33.232  22.307  23.092  1.00  0.00    -0.246 OA
BRANCH   6   8
ATOM      8  C   UNL A   1      33.281  20.263  24.335  1.00  0.00     0.073 A 
ATOM      9  C   UNL A   1      34.624  19.990  24.663  1.00  0.00     0.016 A 
ATOM     10  C   UNL A   1      34.948  18.657  24.875  1.00  0.00     0.123 A 
ATOM     11  N   UNL A   1      34.058  17.639  24.822  1.00  0.00    -0.239 NA
ATOM     12  C   UNL A   1      32.346  19.226  24.301  1.00  0.00     0.062 A 
ATOM     13  C   UNL A   1      32.777  17.938  24.561  1.00  0.00     0.124 A 
BRANCH   9  14
ATOM     14  C   UNL A   1      35.555  21.052  25.056  1.00  0.00     0.003 A 
ATOM     15  C   UNL A   1      36.988  23.412  25.614  1.00  0.00     0.120 A 
ATOM     16  C   UNL A   1      37.461  22.497  24.679  1.00  0.00     0.047 A 
ATOM     17  C   UNL A   1      35.861  23.078  26.360  1.00  0.00     0.067 A 
ATOM     18  C   UNL A   1      36.723  21.348  24.360  1.00  0.00     0.014 A 
ATOM     19  C   UNL A   1      35.237  21.857  26.156  1.00  0.00     0.052 A 
ATOM     20  Cl  UNL A   1      34.141  21.276  27.348  1.00  0.00    -0.084 Cl
BRANCH  15  21
ATOM     21  O   UNL A   1      37.625  24.534  26.041  1.00  0.00    -0.494 OA
BRANCH  21  22
ATOM     22  C   UNL A   1      38.515  24.518  27.153  1.00  0.00     0.226 C 
ATOM     23  C   UNL A   1      39.714  23.599  27.033  1.00  0.00     0.049 C 
ENDBRANCH  21  22
ENDBRANCH  15  21
ENDBRANCH   9  14
BRANCH  13  24
ATOM     24  N   UNL A   1      31.881  16.895  24.653  1.00  0.00    -0.384 N 
ATOM     25  H   UNL A   1      30.916  17.066  24.560  1.00  0.00     0.158 HD
ATOM     26  H   UNL A   1      32.206  15.979  24.811  1.00  0.00     0.158 HD
ENDBRANCH  13  24
ENDBRANCH   6   8
ENDBRANCH   5   6
ENDBRANCH   4   5
ENDBRANCH   3   4
ENDBRANCH   2   3
ENDBRANCH   1   2
BRANCH   1  27
ATOM     27  C   UNL A   1      32.585  27.505  24.789  1.00  0.00     0.188 C 
BRANCH  27  28
ATOM     28  O   UNL A   1      32.722  28.912  24.656  1.00  0.00    -0.376 OA
BRANCH  28  29
ATOM     29  C   UNL A   1      31.870  29.747  25.423  1.00  0.00     0.202 C 
BRANCH  29  30
ATOM     30  C   UNL A   1      32.405  30.406  26.703  1.00  0.00     0.261 C 
BRANCH  30  31
ATOM     31  O   UNL A   1      33.812  30.241  26.970  1.00  0.00    -0.460 OA
BRANCH  31  32
ATOM     32  C   UNL A   1      34.376  31.204  27.747  1.00  0.00     0.338 C 
ATOM     33  O   UNL A   1      33.871  32.277  28.040  1.00  0.00    -0.246 OA
BRANCH  32  34
ATOM     34  C   UNL A   1      35.677  30.759  28.313  1.00  0.00     0.060 A 
ATOM     35  C   UNL A   1      35.648  29.939  29.448  1.00  0.00     0.016 A 
ATOM     36  C   UNL A   1      36.911  31.164  27.797  1.00  0.00     0.016 A 
ATOM     37  C   UNL A   1      36.836  29.489  30.038  1.00  0.00     0.010 A 
ATOM     38  C   UNL A   1      38.104  30.755  28.423  1.00  0.00     0.010 A 
ATOM     39  C   UNL A   1      38.077  29.915  29.550  1.00  0.00    -0.014 A 
BRANCH  39  40
ATOM     40  C   UNL A   1      39.315  29.616  30.333  1.00  0.00     0.031 A 
ATOM     41  C   UNL A   1      40.195  28.497  29.878  1.00  0.00     0.074 A 
ATOM     42  C   UNL A   1      39.708  30.347  31.394  1.00  0.00     0.049 A 
ATOM     43  N   UNL A   1      41.332  28.097  30.382  1.00  0.00    -0.248 NA
ATOM     44  C   UNL A   1      39.755  27.752  28.689  1.00  0.00     0.031 C 
ATOM     45  C   UNL A   1      39.012  31.523  31.868  1.00  0.00     0.029 A 
ATOM     46  N   UNL A   1      40.775  30.239  32.256  1.00  0.00    -0.354 N 
ATOM     47  C   UNL A   1      41.762  27.074  29.555  1.00  0.00     0.074 A 
ATOM     48  C   UNL A   1      40.749  26.893  28.536  1.00  0.00     0.031 C 
ATOM     49  C   UNL A   1      39.639  32.028  32.941  1.00  0.00     0.029 A 
ATOM     50  C   UNL A   1      40.771  31.180  33.264  1.00  0.00     0.049 A 
ATOM     51  H   UNL A   1      41.476  29.553  32.161  1.00  0.00     0.167 HD
ATOM     52  C   UNL A   1      42.903  26.353  29.639  1.00  0.00     0.031 A 
ATOM     53  C   UNL A   1      41.562  31.343  34.343  1.00  0.00     0.031 A 
ATOM     54  C   UNL A   1      43.870  26.484  30.697  1.00  0.00     0.049 A 
ATOM     55  C   UNL A   1      42.729  30.419  34.509  1.00  0.00     0.074 A 
ATOM     56  C   UNL A   1      45.033  25.760  30.886  1.00  0.00     0.029 A 
ATOM     57  N   UNL A   1      43.776  27.375  31.756  1.00  0.00    -0.354 N 
ATOM     58  N   UNL A   1      43.124  29.457  33.711  1.00  0.00    -0.248 NA
ATOM     59  C   UNL A   1      43.570  30.608  35.698  1.00  0.00     0.031 C 
ATOM     60  C   UNL A   1      45.604  26.162  32.097  1.00  0.00     0.029 A 
ATOM     61  C   UNL A   1      44.841  27.191  32.624  1.00  0.00     0.049 A 
ATOM     62  H   UNL A   1      43.059  28.039  31.874  1.00  0.00     0.167 HD
ATOM     63  C   UNL A   1      44.281  28.949  34.280  1.00  0.00     0.074 A 
ATOM     64  C   UNL A   1      44.528  29.715  35.487  1.00  0.00     0.031 C 
ATOM     65  C   UNL A   1      45.071  27.945  33.831  1.00  0.00     0.031 A 
BRANCH  52  66
ATOM     66  C   UNL A   1      43.116  25.310  28.581  1.00  0.00    -0.014 A 
ATOM     67  C   UNL A   1      43.440  25.669  27.260  1.00  0.00     0.010 A 
ATOM     68  C   UNL A   1      42.979  23.952  28.914  1.00  0.00     0.010 A 
ATOM     69  C   UNL A   1      43.590  24.685  26.281  1.00  0.00     0.020 A 
ATOM     70  C   UNL A   1      43.157  22.964  27.944  1.00  0.00     0.020 A 
ATOM     71  C   UNL A   1      43.446  23.338  26.631  1.00  0.00     0.054 A 
BRANCH  71  72
ATOM     72  S   UNL A   1      43.665  22.081  25.344  1.00  0.00     0.124 S 
ATOM     73  O   UNL A   1      44.941  21.480  25.723  1.00  0.00    -0.237 OA
ATOM     74  O   UNL A   1      42.491  21.231  25.527  1.00  0.00    -0.237 OA
ATOM     75  O   UNL A   1      43.685  22.853  24.105  1.00  0.00    -0.744 OA
ENDBRANCH  71  72
ENDBRANCH  52  66
BRANCH  53  76
ATOM     76  C   UNL A   1      41.263  32.382  35.375  1.00  0.00    -0.014 A 
ATOM     77  C   UNL A   1      40.331  32.148  36.402  1.00  0.00     0.010 A 
ATOM     78  C   UNL A   1      41.887  33.641  35.300  1.00  0.00     0.010 A 
ATOM     79  C   UNL A   1      40.025  33.154  37.329  1.00  0.00     0.020 A 
ATOM     80  C   UNL A   1      41.593  34.644  36.231  1.00  0.00     0.020 A 
ATOM     81  C   UNL A   1      40.662  34.395  37.239  1.00  0.00     0.054 A 
BRANCH  81  82
ATOM     82  S   UNL A   1      40.321  35.656  38.501  1.00  0.00     0.124 S 
ATOM     83  O   UNL A   1      41.644  35.890  39.069  1.00  0.00    -0.237 OA
ATOM     84  O   UNL A   1      39.766  36.752  37.711  1.00  0.00    -0.237 OA
ATOM     85  O   UNL A   1      39.362  34.997  39.389  1.00  0.00    -0.744 OA
ENDBRANCH  81  82
ENDBRANCH  53  76
BRANCH  65  86
ATOM     86  C   UNL A   1      46.304  27.636  34.633  1.00  0.00    -0.014 A 
ATOM     87  C   UNL A   1      47.516  28.311  34.404  1.00  0.00     0.010 A 
ATOM     88  C   UNL A   1      46.231  26.682  35.665  1.00  0.00     0.010 A 
ATOM     89  C   UNL A   1      48.642  28.014  35.174  1.00  0.00     0.020 A 
ATOM     90  C   UNL A   1      47.345  26.408  36.459  1.00  0.00     0.020 A 
ATOM     91  C   UNL A   1      48.548  27.068  36.200  1.00  0.00     0.054 A 
BRANCH  91  92
ATOM     92  S   UNL A   1      50.010  26.741  37.219  1.00  0.00     0.124 S 
ATOM     93  O   UNL A   1      49.494  25.785  38.195  1.00  0.00    -0.237 OA
ATOM     94  O   UNL A   1      50.960  26.199  36.249  1.00  0.00    -0.237 OA
ATOM     95  O   UNL A   1      50.359  28.054  37.756  1.00  0.00    -0.744 OA
ENDBRANCH  91  92
ENDBRANCH  65  86
ENDBRANCH  39  40
ENDBRANCH  32  34
ENDBRANCH  31  32
ENDBRANCH  30  31
ENDBRANCH  29  30
ENDBRANCH  28  29
ENDBRANCH  27  28
ENDBRANCH   1  27
TORSDOF 24
ENDMDL
MODEL 2
REMARK VINA RESULT:      -8.7      2.471      3.998
REMARK SMILES CCOc1ccc(-c2cnc(N)cc2C(=O)OCCOCCOCCOC(=O)c2ccc(-c3c4nc(c(-c5ccc(S(=O)(=O)[O-])cc5)c5ccc([nH]5)c(-c5ccc(S(=O)(=O)[O-])cc5)c5nc(c(-c6ccc(S(=O)(=O)[O-])cc6)c6ccc3[nH]6)C=C5)C=C4)cc2)c(Cl)c1
REMARK SMILES IDX 21 1 20 2 19 3 18 4 17 5 15 6 16 7 14 8 8 9 9 10 10 11 13 12
REMARK SMILES IDX 11 13 7 14 4 15 5 16 91 17 6 18 89 19 90 20 3 21 2 22 1 23
REMARK SMILES IDX 12 24 22 27 23 28 24 29 25 30 26 31 27 32 28 33 29 34 30 35
REMARK SMILES IDX 88 36 31 37 87 38 32 39 33 40 34 41 81 42 35 43 86 44 80 45
REMARK SMILES IDX 82 46 36 47 85 48 79 49 78 50 37 52 67 53 48 54 66 55 49 56
REMARK SMILES IDX 52 57 65 58 83 59 50 60 51 61 64 63 84 64 53 65 38 66 39 67
REMARK SMILES IDX 47 68 40 69 46 70 41 71 42 72 43 73 44 74 45 75 68 76 69 77
REMARK SMILES IDX 77 78 70 79 76 80 71 81 72 82 73 83 74 84 75 85 54 86 55 87
REMARK SMILES IDX 63 88 56 89 62 90 57 91 58 92 59 93 60 94 61 95
REMARK H PARENT 12 25 12 26 82 51 52 62
REMARK Flexibility Score: inf
ROOT
ATOM      1  C   UNL A   1      32.223  28.288  27.315  1.00  0.00     0.188 C 
ENDROOT
BRANCH   1   2
ATOM      2  O   UNL A   1      31.816  27.359  26.343  1.00  0.00    -0.376 OA
BRANCH   2   3
ATOM      3  C   UNL A   1      32.160  25.995  26.449  1.00  0.00     0.202 C 
BRANCH   3   4
ATOM      4  C   UNL A   1      33.549  25.376  26.196  1.00  0.00     0.261 C 
BRANCH   4   5
ATOM      5  O   UNL A   1      33.711  23.955  26.272  1.00  0.00    -0.460 OA
BRANCH   5   6
ATOM      6  C   UNL A   1      32.577  23.220  26.438  1.00  0.00     0.339 C 
ATOM      7  O   UNL A   1      31.673  23.471  27.209  1.00  0.00    -0.246 OA
BRANCH   6   8
ATOM      8  C   UNL A   1      32.589  22.037  25.526  1.00  0.00     0.073 A 
ATOM      9  C   UNL A   1      32.056  22.121  24.224  1.00  0.00     0.016 A 
ATOM     10  C   UNL A   1      32.071  20.952  23.475  1.00  0.00     0.123 A 
ATOM     11  N   UNL A   1      32.590  19.778  23.905  1.00  0.00    -0.239 NA
ATOM     12  C   UNL A   1      33.151  20.839  25.975  1.00  0.00     0.062 A 
ATOM     13  C   UNL A   1      33.139  19.746  25.129  1.00  0.00     0.124 A 
BRANCH   9  14
ATOM     14  C   UNL A   1      31.784  23.411  23.582  1.00  0.00     0.003 A 
ATOM     15  C   UNL A   1      31.539  26.086  22.737  1.00  0.00     0.120 A 
ATOM     16  C   UNL A   1      30.429  25.380  23.189  1.00  0.00     0.047 A 
ATOM     17  C   UNL A   1      32.745  25.407  22.590  1.00  0.00     0.067 A 
ATOM     18  C   UNL A   1      30.558  24.065  23.661  1.00  0.00     0.014 A 
ATOM     19  C   UNL A   1      32.818  24.058  22.898  1.00  0.00     0.052 A 
ATOM     20  Cl  UNL A   1      34.156  23.145  22.317  1.00  0.00    -0.084 Cl
BRANCH  15  21
ATOM     21  O   UNL A   1      31.541  27.342  22.216  1.00  0.00    -0.494 OA
BRANCH  21  22
ATOM     22  C   UNL A   1      31.551  28.500  23.045  1.00  0.00     0.226 C 
ATOM     23  C   UNL A   1      32.907  28.939  23.561  1.00  0.00     0.049 C 
ENDBRANCH  21  22
ENDBRANCH  15  21
ENDBRANCH   9  14
BRANCH  13  24
ATOM     24  N   UNL A   1      33.778  18.574  25.474  1.00  0.00    -0.384 N 
ATOM     25  H   UNL A   1      33.334  17.709  25.321  1.00  0.00     0.158 HD
ATOM     26  H   UNL A   1      34.677  18.604  25.873  1.00  0.00     0.158 HD
ENDBRANCH  13  24
ENDBRANCH   6   8
ENDBRANCH   5   6
ENDBRANCH   4   5
ENDBRANCH   3   4
ENDBRANCH   2   3
ENDBRANCH   1   2
BRANCH   1  27
ATOM     27  C   UNL A   1      33.711  28.695  27.279  1.00  0.00     0.188 C 
BRANCH  27  28
ATOM     28  O   UNL A   1      34.062  30.039  26.981  1.00  0.00    -0.376 OA
BRANCH  28  29
ATOM     29  C   UNL A   1      33.271  31.078  27.534  1.00  0.00     0.202 C 
BRANCH  29  30
ATOM     30  C   UNL A   1      33.892  32.466  27.759  1.00  0.00     0.261 C 
BRANCH  30  31
ATOM     31  O   UNL A   1      32.983  33.584  27.755  1.00  0.00    -0.460 OA
BRANCH  31  32
ATOM     32  C   UNL A   1      33.270  34.574  28.643  1.00  0.00     0.338 C 
ATOM     33  O   UNL A   1      32.660  35.624  28.771  1.00  0.00    -0.246 OA
BRANCH  32  34
ATOM     34  C   UNL A   1      34.383  34.188  29.551  1.00  0.00     0.060 A 
ATOM     35  C   UNL A   1      35.688  34.260  29.050  1.00  0.00     0.016 A 
ATOM     36  C   UNL A   1      34.176  33.712  30.849  1.00  0.00     0.016 A 
ATOM     37  C   UNL A   1      36.783  33.903  29.847  1.00  0.00     0.010 A 
ATOM     38  C   UNL A   1      35.274  33.303  31.631  1.00  0.00     0.010 A 
ATOM     39  C   UNL A   1      36.587  33.394  31.137  1.00  0.00    -0.014 A 
BRANCH  39  40
ATOM     40  C   UNL A   1      37.744  32.803  31.876  1.00  0.00     0.031 A 
ATOM     41  C   UNL A   1      38.384  31.567  31.330  1.00  0.00     0.074 A 
ATOM     42  C   UNL A   1      38.279  33.365  32.976  1.00  0.00     0.049 A 
ATOM     43  N   UNL A   1      39.421  30.916  31.784  1.00  0.00    -0.248 NA
ATOM     44  C   UNL A   1      37.799  31.009  30.101  1.00  0.00     0.031 C 
ATOM     45  C   UNL A   1      37.832  34.619  33.542  1.00  0.00     0.029 A 
ATOM     46  N   UNL A   1      39.307  32.988  33.809  1.00  0.00    -0.354 N 
ATOM     47  C   UNL A   1      39.637  29.889  30.881  1.00  0.00     0.074 A 
ATOM     48  C   UNL A   1      38.603  29.983  29.871  1.00  0.00     0.031 C 
ATOM     49  C   UNL A   1      38.551  34.913  34.635  1.00  0.00     0.029 A 
ATOM     50  C   UNL A   1      39.494  33.838  34.879  1.00  0.00     0.049 A 
ATOM     51  H   UNL A   1      39.859  32.187  33.655  1.00  0.00     0.167 HD
ATOM     52  C   UNL A   1      40.613  28.954  30.895  1.00  0.00     0.031 A 
ATOM     53  C   UNL A   1      40.306  33.766  35.953  1.00  0.00     0.031 A 
ATOM     54  C   UNL A   1      41.590  28.816  31.942  1.00  0.00     0.049 A 
ATOM     55  C   UNL A   1      41.268  32.621  36.033  1.00  0.00     0.074 A 
ATOM     56  C   UNL A   1      42.588  27.866  32.060  1.00  0.00     0.029 A 
ATOM     57  N   UNL A   1      41.680  29.631  33.061  1.00  0.00    -0.354 N 
ATOM     58  N   UNL A   1      41.461  31.659  35.165  1.00  0.00    -0.248 NA
ATOM     59  C   UNL A   1      42.135  32.556  37.217  1.00  0.00     0.031 C 
ATOM     60  C   UNL A   1      43.233  28.061  33.286  1.00  0.00     0.029 A 
ATOM     61  C   UNL A   1      42.691  29.181  33.895  1.00  0.00     0.049 A 
ATOM     62  H   UNL A   1      41.109  30.413  33.237  1.00  0.00     0.167 HD
ATOM     63  C   UNL A   1      42.497  30.894  35.677  1.00  0.00     0.074 A 
ATOM     64  C   UNL A   1      42.896  31.509  36.928  1.00  0.00     0.031 C 
ATOM     65  C   UNL A   1      43.071  29.788  35.146  1.00  0.00     0.031 A 
BRANCH  52  66
ATOM     66  C   UNL A   1      40.610  27.966  29.765  1.00  0.00    -0.014 A 
ATOM     67  C   UNL A   1      41.459  28.128  28.656  1.00  0.00     0.010 A 
ATOM     68  C   UNL A   1      39.737  26.866  29.812  1.00  0.00     0.010 A 
ATOM     69  C   UNL A   1      41.410  27.222  27.594  1.00  0.00     0.020 A 
ATOM     70  C   UNL A   1      39.705  25.943  28.766  1.00  0.00     0.020 A 
ATOM     71  C   UNL A   1      40.531  26.135  27.657  1.00  0.00     0.054 A 
BRANCH  71  72
ATOM     72  S   UNL A   1      40.500  24.965  26.274  1.00  0.00     0.124 S 
ATOM     73  O   UNL A   1      41.128  25.741  25.207  1.00  0.00    -0.237 OA
ATOM     74  O   UNL A   1      41.289  23.847  26.786  1.00  0.00    -0.237 OA
ATOM     75  O   UNL A   1      39.079  24.687  26.087  1.00  0.00    -0.744 OA
ENDBRANCH  71  72
ENDBRANCH  52  66
BRANCH  53  76
ATOM     76  C   UNL A   1      40.223  34.768  37.058  1.00  0.00    -0.014 A 
ATOM     77  C   UNL A   1      41.130  35.839  37.147  1.00  0.00     0.010 A 
ATOM     78  C   UNL A   1      39.246  34.622  38.061  1.00  0.00     0.010 A 
ATOM     79  C   UNL A   1      41.068  36.738  38.220  1.00  0.00     0.020 A 
ATOM     80  C   UNL A   1      39.174  35.525  39.128  1.00  0.00     0.020 A 
ATOM     81  C   UNL A   1      40.086  36.577  39.202  1.00  0.00     0.054 A 
BRANCH  81  82
ATOM     82  S   UNL A   1      39.964  37.803  40.537  1.00  0.00     0.124 S 
ATOM     83  O   UNL A   1      40.551  37.089  41.665  1.00  0.00    -0.237 OA
ATOM     84  O   UNL A   1      40.748  38.919  40.014  1.00  0.00    -0.237 OA
ATOM     85  O   UNL A   1      38.527  38.059  40.633  1.00  0.00    -0.744 OA
ENDBRANCH  81  82
ENDBRANCH  53  76
BRANCH  65  86
ATOM     86  C   UNL A   1      44.222  29.186  35.903  1.00  0.00    -0.014 A 
ATOM     87  C   UNL A   1      45.538  29.650  35.726  1.00  0.00     0.010 A 
ATOM     88  C   UNL A   1      43.971  28.167  36.840  1.00  0.00     0.010 A 
ATOM     89  C   UNL A   1      46.586  29.082  36.454  1.00  0.00     0.020 A 
ATOM     90  C   UNL A   1      45.011  27.622  37.593  1.00  0.00     0.020 A 
ATOM     91  C   UNL A   1      46.315  28.075  37.385  1.00  0.00     0.054 A 
BRANCH  91  92
ATOM     92  S   UNL A   1      47.687  27.394  38.354  1.00  0.00     0.124 S 
ATOM     93  O   UNL A   1      47.245  26.021  38.585  1.00  0.00    -0.237 OA
ATOM     94  O   UNL A   1      48.823  27.546  37.448  1.00  0.00    -0.237 OA
ATOM     95  O   UNL A   1      47.727  28.243  39.542  1.00  0.00    -0.744 OA
ENDBRANCH  91  92
ENDBRANCH  65  86
ENDBRANCH  39  40
ENDBRANCH  32  34
ENDBRANCH  31  32
ENDBRANCH  30  31
ENDBRANCH  29  30
ENDBRANCH  28  29
ENDBRANCH  27  28
ENDBRANCH   1  27
TORSDOF 24
ENDMDL
MODEL 3
REMARK VINA RESULT:      -8.6      6.269     10.691
REMARK SMILES CCOc1ccc(-c2cnc(N)cc2C(=O)OCCOCCOCCOC(=O)c2ccc(-c3c4nc(c(-c5ccc(S(=O)(=O)[O-])cc5)c5ccc([nH]5)c(-c5ccc(S(=O)(=O)[O-])cc5)c5nc(c(-c6ccc(S(=O)(=O)[O-])cc6)c6ccc3[nH]6)C=C5)C=C4)cc2)c(Cl)c1
REMARK SMILES IDX 21 1 20 2 19 3 18 4 17 5 15 6 16 7 14 8 8 9 9 10 10 11 13 12
REMARK SMILES IDX 11 13 7 14 4 15 5 16 91 17 6 18 89 19 90 20 3 21 2 22 1 23
REMARK SMILES IDX 12 24 22 27 23 28 24 29 25 30 26 31 27 32 28 33 29 34 30 35
REMARK SMILES IDX 88 36 31 37 87 38 32 39 33 40 34 41 81 42 35 43 86 44 80 45
REMARK SMILES IDX 82 46 36 47 85 48 79 49 78 50 37 52 67 53 48 54 66 55 49 56
REMARK SMILES IDX 52 57 65 58 83 59 50 60 51 61 64 63 84 64 53 65 38 66 39 67
REMARK SMILES IDX 47 68 40 69 46 70 41 71 42 72 43 73 44 74 45 75 68 76 69 77
REMARK SMILES IDX 77 78 70 79 76 80 71 81 72 82 73 83 74 84 75 85 54 86 55 87
REMARK SMILES IDX 63 88 56 89 62 90 57 91 58 92 59 93 60 94 61 95
REMARK H PARENT 12 25 12 26 82 51 52 62
REMARK Flexibility Score: inf
ROOT
ATOM      1  C   UNL A   1      33.447  35.578  30.945  1.00  0.00     0.188 C 
ENDROOT
BRANCH   1   2
ATOM      2  O   UNL A   1      33.289  34.744  32.063  1.00  0.00    -0.376 OA
BRANCH   2   3
ATOM      3  C   UNL A   1      34.170  34.822  33.161  1.00  0.00     0.202 C 
BRANCH   3   4
ATOM      4  C   UNL A   1      34.757  33.637  33.954  1.00  0.00     0.261 C 
BRANCH   4   5
ATOM      5  O   UNL A   1      35.926  33.837  34.758  1.00  0.00    -0.460 OA
BRANCH   5   6
ATOM      6  C   UNL A   1      37.116  33.892  34.100  1.00  0.00     0.339 C 
ATOM      7  O   UNL A   1      37.531  34.834  33.456  1.00  0.00    -0.246 OA
BRANCH   6   8
ATOM      8  C   UNL A   1      37.866  32.612  34.277  1.00  0.00     0.073 A 
ATOM      9  C   UNL A   1      39.078  32.576  34.996  1.00  0.00     0.016 A 
ATOM     10  C   UNL A   1      39.719  31.346  35.061  1.00  0.00     0.123 A 
ATOM     11  N   UNL A   1      39.236  30.205  34.517  1.00  0.00    -0.239 NA
ATOM     12  C   UNL A   1      37.341  31.437  33.733  1.00  0.00     0.062 A 
ATOM     13  C   UNL A   1      38.053  30.261  33.888  1.00  0.00     0.124 A 
BRANCH   9  14
ATOM     14  C   UNL A   1      39.488  33.676  35.874  1.00  0.00     0.003 A 
ATOM     15  C   UNL A   1      39.826  36.001  37.427  1.00  0.00     0.120 A 
ATOM     16  C   UNL A   1      40.645  35.754  36.329  1.00  0.00     0.047 A 
ATOM     17  C   UNL A   1      38.923  35.017  37.818  1.00  0.00     0.067 A 
ATOM     18  C   UNL A   1      40.444  34.624  35.523  1.00  0.00     0.014 A 
ATOM     19  C   UNL A   1      38.855  33.826  37.112  1.00  0.00     0.052 A 
ATOM     20  Cl  UNL A   1      38.074  32.475  37.838  1.00  0.00    -0.084 Cl
BRANCH  15  21
ATOM     21  O   UNL A   1      39.944  37.029  38.308  1.00  0.00    -0.494 OA
BRANCH  21  22
ATOM     22  C   UNL A   1      39.085  37.156  39.437  1.00  0.00     0.226 C 
ATOM     23  C   UNL A   1      38.908  38.556  39.987  1.00  0.00     0.049 C 
ENDBRANCH  21  22
ENDBRANCH  15  21
ENDBRANCH   9  14
BRANCH  13  24
ATOM     24  N   UNL A   1      37.531  29.056  33.471  1.00  0.00    -0.384 N 
ATOM     25  H   UNL A   1      38.135  28.318  33.223  1.00  0.00     0.158 HD
ATOM     26  H   UNL A   1      36.556  28.932  33.421  1.00  0.00     0.158 HD
ENDBRANCH  13  24
ENDBRANCH   6   8
ENDBRANCH   5   6
ENDBRANCH   4   5
ENDBRANCH   3   4
ENDBRANCH   2   3
ENDBRANCH   1   2
BRANCH   1  27
ATOM     27  C   UNL A   1      33.460  34.873  29.572  1.00  0.00     0.188 C 
BRANCH  27  28
ATOM     28  O   UNL A   1      33.853  33.510  29.489  1.00  0.00    -0.376 OA
BRANCH  28  29
ATOM     29  C   UNL A   1      35.205  33.183  29.767  1.00  0.00     0.202 C 
BRANCH  29  30
ATOM     30  C   UNL A   1      36.005  32.344  28.757  1.00  0.00     0.261 C 
BRANCH  30  31
ATOM     31  O   UNL A   1      35.824  30.916  28.824  1.00  0.00    -0.460 OA
BRANCH  31  32
ATOM     32  C   UNL A   1      36.517  30.285  29.810  1.00  0.00     0.338 C 
ATOM     33  O   UNL A   1      36.042  29.806  30.828  1.00  0.00    -0.246 OA
BRANCH  32  34
ATOM     34  C   UNL A   1      37.955  30.139  29.460  1.00  0.00     0.060 A 
ATOM     35  C   UNL A   1      38.272  29.720  28.162  1.00  0.00     0.016 A 
ATOM     36  C   UNL A   1      38.987  30.348  30.380  1.00  0.00     0.016 A 
ATOM     37  C   UNL A   1      39.605  29.552  27.768  1.00  0.00     0.010 A 
ATOM     38  C   UNL A   1      40.325  30.129  29.998  1.00  0.00     0.010 A 
ATOM     39  C   UNL A   1      40.646  29.727  28.689  1.00  0.00    -0.014 A 
BRANCH  39  40
ATOM     40  C   UNL A   1      42.033  29.317  28.314  1.00  0.00     0.031 A 
ATOM     41  C   UNL A   1      42.300  27.873  28.033  1.00  0.00     0.074 A 
ATOM     42  C   UNL A   1      43.042  30.195  28.156  1.00  0.00     0.049 A 
ATOM     43  N   UNL A   1      43.414  27.308  27.651  1.00  0.00    -0.248 NA
ATOM     44  C   UNL A   1      41.161  26.953  28.172  1.00  0.00     0.031 C 
ATOM     45  C   UNL A   1      42.894  31.628  28.283  1.00  0.00     0.029 A 
ATOM     46  N   UNL A   1      44.373  30.038  27.844  1.00  0.00    -0.354 N 
ATOM     47  C   UNL A   1      43.107  25.971  27.472  1.00  0.00     0.074 A 
ATOM     48  C   UNL A   1      41.711  25.801  27.818  1.00  0.00     0.031 C 
ATOM     49  C   UNL A   1      44.074  32.232  28.077  1.00  0.00     0.029 A 
ATOM     50  C   UNL A   1      45.085  31.219  27.841  1.00  0.00     0.049 A 
ATOM     51  H   UNL A   1      44.779  29.164  27.641  1.00  0.00     0.167 HD
ATOM     52  C   UNL A   1      43.919  24.974  27.053  1.00  0.00     0.031 A 
ATOM     53  C   UNL A   1      46.400  31.475  27.693  1.00  0.00     0.031 A 
ATOM     54  C   UNL A   1      45.324  25.131  26.785  1.00  0.00     0.049 A 
ATOM     55  C   UNL A   1      47.313  30.325  27.396  1.00  0.00     0.074 A 
ATOM     56  C   UNL A   1      46.234  24.163  26.401  1.00  0.00     0.029 A 
ATOM     57  N   UNL A   1      46.029  26.320  26.896  1.00  0.00    -0.354 N 
ATOM     58  N   UNL A   1      47.003  29.064  27.225  1.00  0.00    -0.248 NA
ATOM     59  C   UNL A   1      48.743  30.626  27.250  1.00  0.00     0.031 C 
ATOM     60  C   UNL A   1      47.501  24.751  26.351  1.00  0.00     0.029 A 
ATOM     61  C   UNL A   1      47.370  26.102  26.627  1.00  0.00     0.049 A 
ATOM     62  H   UNL A   1      45.634  27.191  27.132  1.00  0.00     0.167 HD
ATOM     63  C   UNL A   1      48.192  28.424  26.915  1.00  0.00     0.074 A 
ATOM     64  C   UNL A   1      49.228  29.438  26.913  1.00  0.00     0.031 C 
ATOM     65  C   UNL A   1      48.398  27.113  26.643  1.00  0.00     0.031 A 
BRANCH  52  66
ATOM     66  C   UNL A   1      43.301  23.612  26.933  1.00  0.00    -0.014 A 
ATOM     67  C   UNL A   1      43.282  22.723  28.023  1.00  0.00     0.010 A 
ATOM     68  C   UNL A   1      42.739  23.214  25.707  1.00  0.00     0.010 A 
ATOM     69  C   UNL A   1      42.742  21.444  27.877  1.00  0.00     0.020 A 
ATOM     70  C   UNL A   1      42.172  21.947  25.567  1.00  0.00     0.020 A 
ATOM     71  C   UNL A   1      42.191  21.065  26.649  1.00  0.00     0.054 A 
BRANCH  71  72
ATOM     72  S   UNL A   1      41.479  19.405  26.493  1.00  0.00     0.124 S 
ATOM     73  O   UNL A   1      41.505  18.935  27.876  1.00  0.00    -0.237 OA
ATOM     74  O   UNL A   1      40.153  19.678  25.946  1.00  0.00    -0.237 OA
ATOM     75  O   UNL A   1      42.396  18.719  25.586  1.00  0.00    -0.744 OA
ENDBRANCH  71  72
ENDBRANCH  52  66
BRANCH  53  76
ATOM     76  C   UNL A   1      46.946  32.855  27.865  1.00  0.00    -0.014 A 
ATOM     77  C   UNL A   1      47.297  33.353  29.133  1.00  0.00     0.010 A 
ATOM     78  C   UNL A   1      47.075  33.700  26.746  1.00  0.00     0.010 A 
ATOM     79  C   UNL A   1      47.758  34.668  29.280  1.00  0.00     0.020 A 
ATOM     80  C   UNL A   1      47.546  35.010  26.888  1.00  0.00     0.020 A 
ATOM     81  C   UNL A   1      47.884  35.487  28.154  1.00  0.00     0.054 A 
BRANCH  81  82
ATOM     82  S   UNL A   1      48.567  37.158  28.352  1.00  0.00     0.124 S 
ATOM     83  O   UNL A   1      49.394  37.296  27.157  1.00  0.00    -0.237 OA
ATOM     84  O   UNL A   1      47.366  37.988  28.392  1.00  0.00    -0.237 OA
ATOM     85  O   UNL A   1      49.298  37.080  29.616  1.00  0.00    -0.744 OA
ENDBRANCH  81  82
ENDBRANCH  53  76
BRANCH  65  86
ATOM     86  C   UNL A   1      49.799  26.702  26.285  1.00  0.00    -0.014 A 
ATOM     87  C   UNL A   1      50.418  25.598  26.897  1.00  0.00     0.010 A 
ATOM     88  C   UNL A   1      50.489  27.411  25.285  1.00  0.00     0.010 A 
ATOM     89  C   UNL A   1      51.715  25.229  26.535  1.00  0.00     0.020 A 
ATOM     90  C   UNL A   1      51.772  27.025  24.896  1.00  0.00     0.020 A 
ATOM     91  C   UNL A   1      52.381  25.942  25.533  1.00  0.00     0.054 A 
BRANCH  91  92
ATOM     92  S   UNL A   1      54.043  25.409  25.045  1.00  0.00     0.124 S 
ATOM     93  O   UNL A   1      53.838  23.991  24.764  1.00  0.00    -0.237 OA
ATOM     94  O   UNL A   1      54.318  26.248  23.880  1.00  0.00    -0.237 OA
ATOM     95  O   UNL A   1      54.860  25.700  26.221  1.00  0.00    -0.744 OA
ENDBRANCH  91  92
ENDBRANCH  65  86
ENDBRANCH  39  40
ENDBRANCH  32  34
ENDBRANCH  31  32
ENDBRANCH  30  31
ENDBRANCH  29  30
ENDBRANCH  28  29
ENDBRANCH  27  28
ENDBRANCH   1  27
TORSDOF 24
ENDMDL
