MODEL 1
REMARK VINA RESULT:      -8.8      0.000      0.000
REMARK SMILES CC[N@@H+]1CC[C@H](C[NH2+]Cc2cc(C(=O)OCCOCCOCCOC(=O)c3ccc(-c4c5nc(c(-c6ccc(S(=O)(=O)[O-])cc6)c6ccc([nH]6)c(-c6ccc(S(=O)(=O)[O-])cc6)c6nc(c(-c7ccc(S(=O)(=O)[O-])cc7)c7ccc4[nH]7)C=C6)C=C5)cc3)cs2)C1
REMARK SMILES IDX 19 1 18 2 17 3 16 4 15 5 13 6 14 7 12 8 10 9 11 10 88 11
REMARK SMILES IDX 87 12 9 13 8 14 7 17 6 18 3 19 4 20 89 21 5 23 2 24 1 25
REMARK SMILES IDX 20 26 21 27 22 28 23 29 24 30 25 31 26 32 27 33 28 34 86 35
REMARK SMILES IDX 29 36 85 37 30 38 31 39 32 40 79 41 33 42 84 43 78 44 80 45
REMARK SMILES IDX 34 46 83 47 77 48 76 49 35 51 65 52 46 53 64 54 47 55 50 56
REMARK SMILES IDX 63 57 81 58 48 59 49 60 62 62 82 63 51 64 36 65 37 66 45 67
REMARK SMILES IDX 38 68 44 69 39 70 40 71 41 72 42 73 43 74 66 75 67 76 75 77
REMARK SMILES IDX 68 78 74 79 69 80 70 81 71 82 72 83 73 84 52 85 53 86 61 87
REMARK SMILES IDX 54 88 60 89 55 90 56 91 57 92 58 93 59 94
REMARK H PARENT 8 15 8 16 3 22 80 50 50 61
REMARK Flexibility Score: inf
ROOT
ATOM      1  C   UNL A   1      35.139  24.449  25.433  1.00  0.00     0.188 C 
ENDROOT
BRANCH   1   2
ATOM      2  O   UNL A   1      35.593  23.248  26.051  1.00  0.00    -0.376 OA
BRANCH   2   3
ATOM      3  C   UNL A   1      36.123  22.189  25.270  1.00  0.00     0.202 C 
BRANCH   3   4
ATOM      4  C   UNL A   1      35.159  21.077  24.856  1.00  0.00     0.261 C 
BRANCH   4   5
ATOM      5  O   UNL A   1      33.790  21.381  25.163  1.00  0.00    -0.460 OA
BRANCH   5   6
ATOM      6  C   UNL A   1      32.911  21.213  24.132  1.00  0.00     0.339 C 
ATOM      7  O   UNL A   1      32.446  20.136  23.783  1.00  0.00    -0.246 OA
BRANCH   6   8
ATOM      8  C   UNL A   1      32.512  22.479  23.523  1.00  0.00     0.071 A 
ATOM      9  C   UNL A   1      31.345  24.483  23.150  1.00  0.00     0.059 A 
ATOM     10  C   UNL A   1      31.336  23.256  23.795  1.00  0.00     0.037 A 
ATOM     11  S   UNL A   1      32.627  24.572  22.017  1.00  0.00    -0.142 S 
ATOM     12  C   UNL A   1      33.279  23.089  22.547  1.00  0.00     0.081 A 
BRANCH   9  13
ATOM     13  C   UNL A   1      30.468  25.689  23.369  1.00  0.00     0.308 C 
BRANCH  13  14
ATOM     14  N   UNL A   1      31.217  26.956  23.307  1.00  0.00    -0.341 N 
ATOM     15  H   UNL A   1      31.303  27.331  24.251  1.00  0.00     0.346 HD
ATOM     16  H   UNL A   1      32.131  26.756  22.898  1.00  0.00     0.346 HD
BRANCH  14  17
ATOM     17  C   UNL A   1      30.558  27.960  22.459  1.00  0.00     0.270 C 
BRANCH  17  18
ATOM     18  C   UNL A   1      29.482  28.746  23.219  1.00  0.00     0.105 C 
ATOM     19  N   UNL A   1      27.789  30.310  22.423  1.00  0.00    -0.335 N 
ATOM     20  C   UNL A   1      28.519  30.889  23.558  1.00  0.00     0.262 C 
ATOM     21  C   UNL A   1      28.175  28.878  22.414  1.00  0.00     0.271 C 
ATOM     22  H   UNL A   1      26.788  30.465  22.539  1.00  0.00     0.348 HD
ATOM     23  C   UNL A   1      29.861  30.191  23.539  1.00  0.00     0.076 C 
BRANCH  19  24
ATOM     24  C   UNL A   1      28.112  30.933  21.125  1.00  0.00     0.258 C 
ATOM     25  C   UNL A   1      27.992  32.456  21.119  1.00  0.00     0.071 C 
ENDBRANCH  19  24
ENDBRANCH  17  18
ENDBRANCH  14  17
ENDBRANCH  13  14
ENDBRANCH   9  13
ENDBRANCH   6   8
ENDBRANCH   5   6
ENDBRANCH   4   5
ENDBRANCH   3   4
ENDBRANCH   2   3
ENDBRANCH   1   2
BRANCH   1  26
ATOM     26  C   UNL A   1      33.795  25.083  25.842  1.00  0.00     0.188 C 
BRANCH  26  27
ATOM     27  O   UNL A   1      33.809  26.500  25.932  1.00  0.00    -0.376 OA
BRANCH  27  28
ATOM     28  C   UNL A   1      32.661  27.095  26.521  1.00  0.00     0.202 C 
BRANCH  28  29
ATOM     29  C   UNL A   1      32.944  28.476  27.119  1.00  0.00     0.261 C 
BRANCH  29  30
ATOM     30  O   UNL A   1      34.259  28.985  26.844  1.00  0.00    -0.460 OA
BRANCH  30  31
ATOM     31  C   UNL A   1      34.574  30.175  27.405  1.00  0.00     0.338 C 
ATOM     32  O   UNL A   1      33.883  31.178  27.429  1.00  0.00    -0.246 OA
BRANCH  31  33
ATOM     33  C   UNL A   1      35.838  30.016  28.152  1.00  0.00     0.060 A 
ATOM     34  C   UNL A   1      37.034  30.376  27.524  1.00  0.00     0.016 A 
ATOM     35  C   UNL A   1      35.844  29.502  29.452  1.00  0.00     0.016 A 
ATOM     36  C   UNL A   1      38.248  30.185  28.184  1.00  0.00     0.010 A 
ATOM     37  C   UNL A   1      37.063  29.302  30.109  1.00  0.00     0.010 A 
ATOM     38  C   UNL A   1      38.273  29.614  29.466  1.00  0.00    -0.014 A 
BRANCH  38  39
ATOM     39  C   UNL A   1      39.574  29.223  30.063  1.00  0.00     0.031 A 
ATOM     40  C   UNL A   1      40.057  29.938  31.296  1.00  0.00     0.074 A 
ATOM     41  C   UNL A   1      40.299  28.216  29.544  1.00  0.00     0.049 A 
ATOM     42  N   UNL A   1      41.109  29.693  32.036  1.00  0.00    -0.248 NA
ATOM     43  C   UNL A   1      39.249  31.079  31.755  1.00  0.00     0.031 C 
ATOM     44  C   UNL A   1      39.947  27.441  28.356  1.00  0.00     0.029 A 
ATOM     45  N   UNL A   1      41.487  27.670  29.964  1.00  0.00    -0.354 N 
ATOM     46  C   UNL A   1      41.080  30.636  33.055  1.00  0.00     0.074 A 
ATOM     47  C   UNL A   1      39.932  31.485  32.815  1.00  0.00     0.031 C 
ATOM     48  C   UNL A   1      40.897  26.513  28.144  1.00  0.00     0.029 A 
ATOM     49  C   UNL A   1      41.927  26.633  29.176  1.00  0.00     0.049 A 
ATOM     50  H   UNL A   1      41.978  27.991  30.755  1.00  0.00     0.167 HD
ATOM     51  C   UNL A   1      41.924  30.780  34.105  1.00  0.00     0.031 A 
ATOM     52  C   UNL A   1      43.030  25.867  29.278  1.00  0.00     0.031 A 
ATOM     53  C   UNL A   1      43.084  29.960  34.336  1.00  0.00     0.049 A 
ATOM     54  C   UNL A   1      43.979  26.073  30.429  1.00  0.00     0.074 A 
ATOM     55  C   UNL A   1      43.985  30.018  35.385  1.00  0.00     0.029 A 
ATOM     56  N   UNL A   1      43.513  28.943  33.498  1.00  0.00    -0.354 N 
ATOM     57  N   UNL A   1      43.903  26.931  31.419  1.00  0.00    -0.248 NA
ATOM     58  C   UNL A   1      45.154  25.190  30.485  1.00  0.00     0.031 C 
ATOM     59  C   UNL A   1      44.985  29.065  35.156  1.00  0.00     0.029 A 
ATOM     60  C   UNL A   1      44.679  28.382  33.991  1.00  0.00     0.049 A 
ATOM     61  H   UNL A   1      43.055  28.661  32.673  1.00  0.00     0.167 HD
ATOM     62  C   UNL A   1      45.009  26.676  32.226  1.00  0.00     0.074 A 
ATOM     63  C   UNL A   1      45.726  25.574  31.619  1.00  0.00     0.031 C 
ATOM     64  C   UNL A   1      45.394  27.296  33.369  1.00  0.00     0.031 A 
BRANCH  51  65
ATOM     65  C   UNL A   1      41.625  31.888  35.078  1.00  0.00    -0.014 A 
ATOM     66  C   UNL A   1      42.164  33.175  34.894  1.00  0.00     0.010 A 
ATOM     67  C   UNL A   1      40.780  31.648  36.175  1.00  0.00     0.010 A 
ATOM     68  C   UNL A   1      41.897  34.190  35.815  1.00  0.00     0.020 A 
ATOM     69  C   UNL A   1      40.491  32.668  37.086  1.00  0.00     0.020 A 
ATOM     70  C   UNL A   1      41.067  33.929  36.909  1.00  0.00     0.054 A 
BRANCH  70  71
ATOM     71  S   UNL A   1      40.726  35.267  38.086  1.00  0.00     0.124 S 
ATOM     72  O   UNL A   1      41.343  36.413  37.421  1.00  0.00    -0.237 OA
ATOM     73  O   UNL A   1      39.267  35.285  38.140  1.00  0.00    -0.237 OA
ATOM     74  O   UNL A   1      41.388  34.827  39.311  1.00  0.00    -0.744 OA
ENDBRANCH  70  71
ENDBRANCH  51  65
BRANCH  52  75
ATOM     75  C   UNL A   1      43.298  24.815  28.261  1.00  0.00    -0.014 A 
ATOM     76  C   UNL A   1      42.891  23.487  28.476  1.00  0.00     0.010 A 
ATOM     77  C   UNL A   1      43.971  25.140  27.069  1.00  0.00     0.010 A 
ATOM     78  C   UNL A   1      43.167  22.499  27.526  1.00  0.00     0.020 A 
ATOM     79  C   UNL A   1      44.228  24.160  26.107  1.00  0.00     0.020 A 
ATOM     80  C   UNL A   1      43.833  22.842  26.347  1.00  0.00     0.054 A 
BRANCH  80  81
ATOM     81  S   UNL A   1      44.134  21.557  25.102  1.00  0.00     0.124 S 
ATOM     82  O   UNL A   1      43.032  20.634  25.346  1.00  0.00    -0.237 OA
ATOM     83  O   UNL A   1      44.068  22.307  23.850  1.00  0.00    -0.237 OA
ATOM     84  O   UNL A   1      45.462  21.054  25.446  1.00  0.00    -0.744 OA
ENDBRANCH  80  81
ENDBRANCH  52  75
BRANCH  64  85
ATOM     85  C   UNL A   1      46.638  26.783  34.046  1.00  0.00    -0.014 A 
ATOM     86  C   UNL A   1      47.888  27.388  33.828  1.00  0.00     0.010 A 
ATOM     87  C   UNL A   1      46.551  25.688  34.925  1.00  0.00     0.010 A 
ATOM     88  C   UNL A   1      49.039  26.876  34.437  1.00  0.00     0.020 A 
ATOM     89  C   UNL A   1      47.695  25.189  35.555  1.00  0.00     0.020 A 
ATOM     90  C   UNL A   1      48.935  25.774  35.290  1.00  0.00     0.054 A 
BRANCH  90  91
ATOM     91  S   UNL A   1      50.437  25.126  36.075  1.00  0.00     0.124 S 
ATOM     92  O   UNL A   1      50.446  23.740  35.614  1.00  0.00    -0.237 OA
ATOM     93  O   UNL A   1      51.487  25.978  35.521  1.00  0.00    -0.237 OA
ATOM     94  O   UNL A   1      50.186  25.307  37.503  1.00  0.00    -0.744 OA
ENDBRANCH  90  91
ENDBRANCH  64  85
ENDBRANCH  38  39
ENDBRANCH  31  33
ENDBRANCH  30  31
ENDBRANCH  29  30
ENDBRANCH  28  29
ENDBRANCH  27  28
ENDBRANCH  26  27
ENDBRANCH   1  26
TORSDOF 25
ENDMDL
MODEL 2
REMARK VINA RESULT:      -8.6      5.027      7.344
REMARK SMILES CC[N@@H+]1CC[C@H](C[NH2+]Cc2cc(C(=O)OCCOCCOCCOC(=O)c3ccc(-c4c5nc(c(-c6ccc(S(=O)(=O)[O-])cc6)c6ccc([nH]6)c(-c6ccc(S(=O)(=O)[O-])cc6)c6nc(c(-c7ccc(S(=O)(=O)[O-])cc7)c7ccc4[nH]7)C=C6)C=C5)cc3)cs2)C1
REMARK SMILES IDX 19 1 18 2 17 3 16 4 15 5 13 6 14 7 12 8 10 9 11 10 88 11
REMARK SMILES IDX 87 12 9 13 8 14 7 17 6 18 3 19 4 20 89 21 5 23 2 24 1 25
REMARK SMILES IDX 20 26 21 27 22 28 23 29 24 30 25 31 26 32 27 33 28 34 86 35
REMARK SMILES IDX 29 36 85 37 30 38 31 39 32 40 79 41 33 42 84 43 78 44 80 45
REMARK SMILES IDX 34 46 83 47 77 48 76 49 35 51 65 52 46 53 64 54 47 55 50 56
REMARK SMILES IDX 63 57 81 58 48 59 49 60 62 62 82 63 51 64 36 65 37 66 45 67
REMARK SMILES IDX 38 68 44 69 39 70 40 71 41 72 42 73 43 74 66 75 67 76 75 77
REMARK SMILES IDX 68 78 74 79 69 80 70 81 71 82 72 83 73 84 52 85 53 86 61 87
REMARK SMILES IDX 54 88 60 89 55 90 56 91 57 92 58 93 59 94
REMARK H PARENT 8 15 8 16 3 22 80 50 50 61
REMARK Flexibility Score: inf
ROOT
ATOM      1  C   UNL A   1      35.626  31.557  27.768  1.00  0.00     0.188 C 
ENDROOT
BRANCH   1   2
ATOM      2  O   UNL A   1      34.539  30.695  27.444  1.00  0.00    -0.376 OA
BRANCH   2   3
ATOM      3  C   UNL A   1      33.228  31.213  27.286  1.00  0.00     0.202 C 
BRANCH   3   4
ATOM      4  C   UNL A   1      32.396  30.663  26.127  1.00  0.00     0.261 C 
BRANCH   4   5
ATOM      5  O   UNL A   1      31.590  29.537  26.502  1.00  0.00    -0.460 OA
BRANCH   5   6
ATOM      6  C   UNL A   1      32.212  28.325  26.426  1.00  0.00     0.339 C 
ATOM      7  O   UNL A   1      32.819  27.795  27.347  1.00  0.00    -0.246 OA
BRANCH   6   8
ATOM      8  C   UNL A   1      32.013  27.672  25.135  1.00  0.00     0.071 A 
ATOM      9  C   UNL A   1      32.211  26.106  23.394  1.00  0.00     0.059 A 
ATOM     10  C   UNL A   1      32.765  26.587  24.570  1.00  0.00     0.037 A 
ATOM     11  S   UNL A   1      30.959  27.135  22.841  1.00  0.00    -0.142 S 
ATOM     12  C   UNL A   1      31.016  28.071  24.264  1.00  0.00     0.081 A 
BRANCH   9  13
ATOM     13  C   UNL A   1      32.511  24.836  22.641  1.00  0.00     0.308 C 
BRANCH  13  14
ATOM     14  N   UNL A   1      32.139  23.626  23.396  1.00  0.00    -0.341 N 
ATOM     15  H   UNL A   1      32.407  23.755  24.371  1.00  0.00     0.346 HD
ATOM     16  H   UNL A   1      31.132  23.497  23.297  1.00  0.00     0.346 HD
BRANCH  14  17
ATOM     17  C   UNL A   1      32.798  22.416  22.881  1.00  0.00     0.270 C 
BRANCH  17  18
ATOM     18  C   UNL A   1      33.268  21.487  24.008  1.00  0.00     0.105 C 
ATOM     19  N   UNL A   1      32.647  21.400  26.365  1.00  0.00    -0.335 N 
ATOM     20  C   UNL A   1      34.109  21.398  26.226  1.00  0.00     0.262 C 
ATOM     21  C   UNL A   1      32.135  21.146  24.995  1.00  0.00     0.271 C 
ATOM     22  H   UNL A   1      32.362  20.697  27.047  1.00  0.00     0.348 HD
ATOM     23  C   UNL A   1      34.362  22.074  24.897  1.00  0.00     0.076 C 
BRANCH  19  24
ATOM     24  C   UNL A   1      32.098  22.666  26.887  1.00  0.00     0.258 C 
ATOM     25  C   UNL A   1      30.645  22.923  26.492  1.00  0.00     0.071 C 
ENDBRANCH  19  24
ENDBRANCH  17  18
ENDBRANCH  14  17
ENDBRANCH  13  14
ENDBRANCH   9  13
ENDBRANCH   6   8
ENDBRANCH   5   6
ENDBRANCH   4   5
ENDBRANCH   3   4
ENDBRANCH   2   3
ENDBRANCH   1   2
BRANCH   1  26
ATOM     26  C   UNL A   1      35.392  33.061  28.005  1.00  0.00     0.188 C 
BRANCH  26  27
ATOM     27  O   UNL A   1      35.650  33.502  29.330  1.00  0.00    -0.376 OA
BRANCH  27  28
ATOM     28  C   UNL A   1      34.625  33.245  30.280  1.00  0.00     0.202 C 
BRANCH  28  29
ATOM     29  C   UNL A   1      35.053  32.260  31.371  1.00  0.00     0.261 C 
BRANCH  29  30
ATOM     30  O   UNL A   1      36.470  32.027  31.439  1.00  0.00    -0.460 OA
BRANCH  30  31
ATOM     31  C   UNL A   1      36.859  30.760  31.703  1.00  0.00     0.338 C 
ATOM     32  O   UNL A   1      36.188  29.878  32.208  1.00  0.00    -0.246 OA
BRANCH  31  33
ATOM     33  C   UNL A   1      38.198  30.553  31.114  1.00  0.00     0.060 A 
ATOM     34  C   UNL A   1      38.333  30.616  29.724  1.00  0.00     0.016 A 
ATOM     35  C   UNL A   1      39.306  30.284  31.924  1.00  0.00     0.016 A 
ATOM     36  C   UNL A   1      39.574  30.371  29.136  1.00  0.00     0.010 A 
ATOM     37  C   UNL A   1      40.546  30.028  31.332  1.00  0.00     0.010 A 
ATOM     38  C   UNL A   1      40.680  30.040  29.934  1.00  0.00    -0.014 A 
BRANCH  38  39
ATOM     39  C   UNL A   1      41.932  29.575  29.286  1.00  0.00     0.031 A 
ATOM     40  C   UNL A   1      43.075  30.541  29.126  1.00  0.00     0.074 A 
ATOM     41  C   UNL A   1      42.070  28.300  28.882  1.00  0.00     0.049 A 
ATOM     42  N   UNL A   1      44.287  30.322  28.682  1.00  0.00    -0.248 NA
ATOM     43  C   UNL A   1      42.818  31.936  29.519  1.00  0.00     0.031 C 
ATOM     44  C   UNL A   1      41.044  27.263  28.978  1.00  0.00     0.029 A 
ATOM     45  N   UNL A   1      43.144  27.660  28.313  1.00  0.00    -0.354 N 
ATOM     46  C   UNL A   1      44.941  31.545  28.757  1.00  0.00     0.074 A 
ATOM     47  C   UNL A   1      43.981  32.511  29.247  1.00  0.00     0.031 C 
ATOM     48  C   UNL A   1      41.540  26.112  28.489  1.00  0.00     0.029 A 
ATOM     49  C   UNL A   1      42.915  26.333  28.040  1.00  0.00     0.049 A 
ATOM     50  H   UNL A   1      43.997  28.110  28.119  1.00  0.00     0.167 HD
ATOM     51  C   UNL A   1      46.229  31.841  28.457  1.00  0.00     0.031 A 
ATOM     52  C   UNL A   1      43.721  25.403  27.493  1.00  0.00     0.031 A 
ATOM     53  C   UNL A   1      47.182  30.895  27.940  1.00  0.00     0.049 A 
ATOM     54  C   UNL A   1      45.136  25.764  27.125  1.00  0.00     0.074 A 
ATOM     55  C   UNL A   1      48.516  31.098  27.628  1.00  0.00     0.029 A 
ATOM     56  N   UNL A   1      46.902  29.570  27.647  1.00  0.00    -0.354 N 
ATOM     57  N   UNL A   1      45.758  26.912  27.260  1.00  0.00    -0.248 NA
ATOM     58  C   UNL A   1      45.964  24.694  26.548  1.00  0.00     0.031 C 
ATOM     59  C   UNL A   1      49.028  29.907  27.101  1.00  0.00     0.029 A 
ATOM     60  C   UNL A   1      48.028  28.949  27.132  1.00  0.00     0.049 A 
ATOM     61  H   UNL A   1      46.030  29.133  27.784  1.00  0.00     0.167 HD
ATOM     62  C   UNL A   1      47.055  26.695  26.805  1.00  0.00     0.074 A 
ATOM     63  C   UNL A   1      47.134  25.304  26.408  1.00  0.00     0.031 C 
ATOM     64  C   UNL A   1      48.090  27.568  26.725  1.00  0.00     0.031 A 
BRANCH  51  65
ATOM     65  C   UNL A   1      46.672  33.263  28.665  1.00  0.00    -0.014 A 
ATOM     66  C   UNL A   1      47.202  33.682  29.899  1.00  0.00     0.010 A 
ATOM     67  C   UNL A   1      46.577  34.188  27.610  1.00  0.00     0.010 A 
ATOM     68  C   UNL A   1      47.590  35.009  30.087  1.00  0.00     0.020 A 
ATOM     69  C   UNL A   1      46.987  35.512  27.787  1.00  0.00     0.020 A 
ATOM     70  C   UNL A   1      47.474  35.918  29.032  1.00  0.00     0.054 A 
BRANCH  70  71
ATOM     71  S   UNL A   1      47.994  37.636  29.298  1.00  0.00     0.124 S 
ATOM     72  O   UNL A   1      48.005  37.722  30.756  1.00  0.00    -0.237 OA
ATOM     73  O   UNL A   1      49.306  37.678  28.657  1.00  0.00    -0.237 OA
ATOM     74  O   UNL A   1      46.955  38.420  28.635  1.00  0.00    -0.744 OA
ENDBRANCH  70  71
ENDBRANCH  51  65
BRANCH  52  75
ATOM     75  C   UNL A   1      43.214  24.022  27.269  1.00  0.00    -0.014 A 
ATOM     76  C   UNL A   1      42.769  23.618  25.998  1.00  0.00     0.010 A 
ATOM     77  C   UNL A   1      43.169  23.104  28.334  1.00  0.00     0.010 A 
ATOM     78  C   UNL A   1      42.273  22.326  25.800  1.00  0.00     0.020 A 
ATOM     79  C   UNL A   1      42.695  21.806  28.135  1.00  0.00     0.020 A 
ATOM     80  C   UNL A   1      42.240  21.427  26.870  1.00  0.00     0.054 A 
BRANCH  80  81
ATOM     81  S   UNL A   1      41.642  19.739  26.581  1.00  0.00     0.124 S 
ATOM     82  O   UNL A   1      40.911  19.461  27.813  1.00  0.00    -0.237 OA
ATOM     83  O   UNL A   1      40.824  19.893  25.380  1.00  0.00    -0.237 OA
ATOM     84  O   UNL A   1      42.870  18.971  26.392  1.00  0.00    -0.744 OA
ENDBRANCH  80  81
ENDBRANCH  52  75
BRANCH  64  85
ATOM     85  C   UNL A   1      49.401  27.037  26.206  1.00  0.00    -0.014 A 
ATOM     86  C   UNL A   1      50.250  26.268  27.022  1.00  0.00     0.010 A 
ATOM     87  C   UNL A   1      49.781  27.299  24.877  1.00  0.00     0.010 A 
ATOM     88  C   UNL A   1      51.479  25.813  26.534  1.00  0.00     0.020 A 
ATOM     89  C   UNL A   1      50.998  26.824  24.378  1.00  0.00     0.020 A 
ATOM     90  C   UNL A   1      51.849  26.102  25.218  1.00  0.00     0.054 A 
BRANCH  90  91
ATOM     91  S   UNL A   1      53.445  25.499  24.600  1.00  0.00     0.124 S 
ATOM     92  O   UNL A   1      53.420  24.098  25.012  1.00  0.00    -0.237 OA
ATOM     93  O   UNL A   1      53.346  25.732  23.161  1.00  0.00    -0.237 OA
ATOM     94  O   UNL A   1      54.422  26.336  25.294  1.00  0.00    -0.744 OA
ENDBRANCH  90  91
ENDBRANCH  64  85
ENDBRANCH  38  39
ENDBRANCH  31  33
ENDBRANCH  30  31
ENDBRANCH  29  30
ENDBRANCH  28  29
ENDBRANCH  27  28
ENDBRANCH  26  27
ENDBRANCH   1  26
TORSDOF 25
ENDMDL
MODEL 3
REMARK VINA RESULT:      -8.4      5.169      7.561
REMARK SMILES CC[N@@H+]1CC[C@H](C[NH2+]Cc2cc(C(=O)OCCOCCOCCOC(=O)c3ccc(-c4c5nc(c(-c6ccc(S(=O)(=O)[O-])cc6)c6ccc([nH]6)c(-c6ccc(S(=O)(=O)[O-])cc6)c6nc(c(-c7ccc(S(=O)(=O)[O-])cc7)c7ccc4[nH]7)C=C6)C=C5)cc3)cs2)C1
REMARK SMILES IDX 19 1 18 2 17 3 16 4 15 5 13 6 14 7 12 8 10 9 11 10 88 11
REMARK SMILES IDX 87 12 9 13 8 14 7 17 6 18 3 19 4 20 89 21 5 23 2 24 1 25
REMARK SMILES IDX 20 26 21 27 22 28 23 29 24 30 25 31 26 32 27 33 28 34 86 35
REMARK SMILES IDX 29 36 85 37 30 38 31 39 32 40 79 41 33 42 84 43 78 44 80 45
REMARK SMILES IDX 34 46 83 47 77 48 76 49 35 51 65 52 46 53 64 54 47 55 50 56
REMARK SMILES IDX 63 57 81 58 48 59 49 60 62 62 82 63 51 64 36 65 37 66 45 67
REMARK SMILES IDX 38 68 44 69 39 70 40 71 41 72 42 73 43 74 66 75 67 76 75 77
REMARK SMILES IDX 68 78 74 79 69 80 70 81 71 82 72 83 73 84 52 85 53 86 61 87
REMARK SMILES IDX 54 88 60 89 55 90 56 91 57 92 58 93 59 94
REMARK H PARENT 8 15 8 16 3 22 80 50 50 61
REMARK Flexibility Score: inf
ROOT
ATOM      1  C   UNL A   1      35.895  22.258  25.537  1.00  0.00     0.188 C 
ENDROOT
BRANCH   1   2
ATOM      2  O   UNL A   1      35.131  22.687  26.660  1.00  0.00    -0.376 OA
BRANCH   2   3
ATOM      3  C   UNL A   1      34.098  21.868  27.186  1.00  0.00     0.202 C 
BRANCH   3   4
ATOM      4  C   UNL A   1      32.732  22.520  27.400  1.00  0.00     0.261 C 
BRANCH   4   5
ATOM      5  O   UNL A   1      32.532  23.681  26.581  1.00  0.00    -0.460 OA
BRANCH   5   6
ATOM      6  C   UNL A   1      31.630  23.531  25.568  1.00  0.00     0.339 C 
ATOM      7  O   UNL A   1      30.695  22.741  25.580  1.00  0.00    -0.246 OA
BRANCH   6   8
ATOM      8  C   UNL A   1      31.846  24.479  24.478  1.00  0.00     0.071 A 
ATOM      9  C   UNL A   1      31.452  26.216  22.947  1.00  0.00     0.059 A 
ATOM     10  C   UNL A   1      30.878  25.327  23.841  1.00  0.00     0.037 A 
ATOM     11  S   UNL A   1      33.102  25.839  22.679  1.00  0.00    -0.142 S 
ATOM     12  C   UNL A   1      33.093  24.655  23.905  1.00  0.00     0.081 A 
BRANCH   9  13
ATOM     13  C   UNL A   1      30.857  27.433  22.288  1.00  0.00     0.308 C 
BRANCH  13  14
ATOM     14  N   UNL A   1      30.594  28.526  23.242  1.00  0.00    -0.341 N 
ATOM     15  H   UNL A   1      30.260  29.337  22.724  1.00  0.00     0.346 HD
ATOM     16  H   UNL A   1      29.898  28.192  23.909  1.00  0.00     0.346 HD
BRANCH  14  17
ATOM     17  C   UNL A   1      31.793  28.911  24.001  1.00  0.00     0.270 C 
BRANCH  17  18
ATOM     18  C   UNL A   1      31.505  29.064  25.500  1.00  0.00     0.105 C 
ATOM     19  N   UNL A   1      33.015  29.383  27.389  1.00  0.00    -0.335 N 
ATOM     20  C   UNL A   1      32.070  28.296  27.673  1.00  0.00     0.262 C 
ATOM     21  C   UNL A   1      32.469  30.054  26.183  1.00  0.00     0.271 C 
ATOM     22  H   UNL A   1      33.094  29.996  28.200  1.00  0.00     0.348 HD
ATOM     23  C   UNL A   1      31.666  27.780  26.311  1.00  0.00     0.076 C 
BRANCH  19  24
ATOM     24  C   UNL A   1      34.395  28.925  27.136  1.00  0.00     0.258 C 
ATOM     25  C   UNL A   1      35.448  29.627  27.991  1.00  0.00     0.071 C 
ENDBRANCH  19  24
ENDBRANCH  17  18
ENDBRANCH  14  17
ENDBRANCH  13  14
ENDBRANCH   9  13
ENDBRANCH   6   8
ENDBRANCH   5   6
ENDBRANCH   4   5
ENDBRANCH   3   4
ENDBRANCH   2   3
ENDBRANCH   1   2
BRANCH   1  26
ATOM     26  C   UNL A   1      37.278  22.876  25.246  1.00  0.00     0.188 C 
BRANCH  26  27
ATOM     27  O   UNL A   1      38.328  21.933  25.088  1.00  0.00    -0.376 OA
BRANCH  27  28
ATOM     28  C   UNL A   1      37.990  20.578  25.349  1.00  0.00     0.202 C 
BRANCH  28  29
ATOM     29  C   UNL A   1      39.209  19.706  25.659  1.00  0.00     0.261 C 
BRANCH  29  30
ATOM     30  O   UNL A   1      40.443  20.433  25.788  1.00  0.00    -0.460 OA
BRANCH  30  31
ATOM     31  C   UNL A   1      40.956  20.531  27.035  1.00  0.00     0.338 C 
ATOM     32  O   UNL A   1      40.868  19.709  27.929  1.00  0.00    -0.246 OA
BRANCH  31  33
ATOM     33  C   UNL A   1      41.807  21.737  27.093  1.00  0.00     0.060 A 
ATOM     34  C   UNL A   1      42.469  22.030  28.289  1.00  0.00     0.016 A 
ATOM     35  C   UNL A   1      41.937  22.579  25.984  1.00  0.00     0.016 A 
ATOM     36  C   UNL A   1      43.234  23.192  28.391  1.00  0.00     0.010 A 
ATOM     37  C   UNL A   1      42.697  23.748  26.092  1.00  0.00     0.010 A 
ATOM     38  C   UNL A   1      43.325  24.075  27.305  1.00  0.00    -0.014 A 
BRANCH  38  39
ATOM     39  C   UNL A   1      43.962  25.402  27.497  1.00  0.00     0.031 A 
ATOM     40  C   UNL A   1      43.185  26.494  28.183  1.00  0.00     0.074 A 
ATOM     41  C   UNL A   1      45.230  25.624  27.107  1.00  0.00     0.049 A 
ATOM     42  N   UNL A   1      43.579  27.689  28.541  1.00  0.00    -0.248 NA
ATOM     43  C   UNL A   1      41.781  26.198  28.507  1.00  0.00     0.031 C 
ATOM     44  C   UNL A   1      46.093  24.656  26.433  1.00  0.00     0.029 A 
ATOM     45  N   UNL A   1      46.013  26.745  27.232  1.00  0.00    -0.354 N 
ATOM     46  C   UNL A   1      42.479  28.283  29.147  1.00  0.00     0.074 A 
ATOM     47  C   UNL A   1      41.389  27.333  29.069  1.00  0.00     0.031 C 
ATOM     48  C   UNL A   1      47.292  25.224  26.209  1.00  0.00     0.029 A 
ATOM     49  C   UNL A   1      47.278  26.596  26.715  1.00  0.00     0.049 A 
ATOM     50  H   UNL A   1      45.698  27.578  27.652  1.00  0.00     0.167 HD
ATOM     51  C   UNL A   1      42.382  29.503  29.727  1.00  0.00     0.031 A 
ATOM     52  C   UNL A   1      48.307  27.463  26.660  1.00  0.00     0.031 A 
ATOM     53  C   UNL A   1      43.451  30.465  29.783  1.00  0.00     0.049 A 
ATOM     54  C   UNL A   1      48.163  28.832  27.273  1.00  0.00     0.074 A 
ATOM     55  C   UNL A   1      43.451  31.718  30.371  1.00  0.00     0.029 A 
ATOM     56  N   UNL A   1      44.704  30.288  29.220  1.00  0.00    -0.354 N 
ATOM     57  N   UNL A   1      47.133  29.354  27.897  1.00  0.00    -0.248 NA
ATOM     58  C   UNL A   1      49.332  29.720  27.190  1.00  0.00     0.031 C 
ATOM     59  C   UNL A   1      44.692  32.318  30.121  1.00  0.00     0.029 A 
ATOM     60  C   UNL A   1      45.479  31.418  29.422  1.00  0.00     0.049 A 
ATOM     61  H   UNL A   1      45.001  29.477  28.746  1.00  0.00     0.167 HD
ATOM     62  C   UNL A   1      47.538  30.624  28.299  1.00  0.00     0.074 A 
ATOM     63  C   UNL A   1      48.911  30.783  27.864  1.00  0.00     0.031 C 
ATOM     64  C   UNL A   1      46.838  31.572  28.970  1.00  0.00     0.031 A 
BRANCH  51  65
ATOM     65  C   UNL A   1      41.055  29.870  30.334  1.00  0.00    -0.014 A 
ATOM     66  C   UNL A   1      40.063  30.509  29.568  1.00  0.00     0.010 A 
ATOM     67  C   UNL A   1      40.788  29.554  31.678  1.00  0.00     0.010 A 
ATOM     68  C   UNL A   1      38.843  30.864  30.147  1.00  0.00     0.020 A 
ATOM     69  C   UNL A   1      39.559  29.886  32.255  1.00  0.00     0.020 A 
ATOM     70  C   UNL A   1      38.601  30.556  31.490  1.00  0.00     0.054 A 
BRANCH  70  71
ATOM     71  S   UNL A   1      37.004  31.018  32.217  1.00  0.00     0.124 S 
ATOM     72  O   UNL A   1      36.096  30.076  31.567  1.00  0.00    -0.237 OA
ATOM     73  O   UNL A   1      37.223  30.794  33.644  1.00  0.00    -0.237 OA
ATOM     74  O   UNL A   1      36.837  32.415  31.827  1.00  0.00    -0.744 OA
ENDBRANCH  70  71
ENDBRANCH  51  65
BRANCH  52  75
ATOM     75  C   UNL A   1      49.581  27.061  26.007  1.00  0.00    -0.014 A 
ATOM     76  C   UNL A   1      49.824  27.365  24.656  1.00  0.00     0.010 A 
ATOM     77  C   UNL A   1      50.560  26.363  26.739  1.00  0.00     0.010 A 
ATOM     78  C   UNL A   1      51.014  26.964  24.044  1.00  0.00     0.020 A 
ATOM     79  C   UNL A   1      51.760  25.981  26.136  1.00  0.00     0.020 A 
ATOM     80  C   UNL A   1      51.976  26.275  24.787  1.00  0.00     0.054 A 
BRANCH  80  81
ATOM     81  S   UNL A   1      53.537  25.809  23.988  1.00  0.00     0.124 S 
ATOM     82  O   UNL A   1      54.466  26.787  24.544  1.00  0.00    -0.237 OA
ATOM     83  O   UNL A   1      53.724  24.431  24.437  1.00  0.00    -0.237 OA
ATOM     84  O   UNL A   1      53.248  25.956  22.564  1.00  0.00    -0.744 OA
ENDBRANCH  80  81
ENDBRANCH  52  75
BRANCH  64  85
ATOM     85  C   UNL A   1      47.554  32.858  29.291  1.00  0.00    -0.014 A 
ATOM     86  C   UNL A   1      47.502  33.959  28.417  1.00  0.00     0.010 A 
ATOM     87  C   UNL A   1      48.277  32.972  30.493  1.00  0.00     0.010 A 
ATOM     88  C   UNL A   1      48.201  35.133  28.714  1.00  0.00     0.020 A 
ATOM     89  C   UNL A   1      48.957  34.153  30.805  1.00  0.00     0.020 A 
ATOM     90  C   UNL A   1      48.932  35.218  29.903  1.00  0.00     0.054 A 
BRANCH  90  91
ATOM     91  S   UNL A   1      49.830  36.751  30.274  1.00  0.00     0.124 S 
ATOM     92  O   UNL A   1      50.643  36.355  31.421  1.00  0.00    -0.237 OA
ATOM     93  O   UNL A   1      50.567  37.004  29.038  1.00  0.00    -0.237 OA
ATOM     94  O   UNL A   1      48.767  37.711  30.565  1.00  0.00    -0.744 OA
ENDBRANCH  90  91
ENDBRANCH  64  85
ENDBRANCH  38  39
ENDBRANCH  31  33
ENDBRANCH  30  31
ENDBRANCH  29  30
ENDBRANCH  28  29
ENDBRANCH  27  28
ENDBRANCH  26  27
ENDBRANCH   1  26
TORSDOF 25
ENDMDL
