MODEL 1
REMARK VINA RESULT:     -10.5      0.000      0.000
REMARK SMILES Cc1cccc(CC(=O)N2CCC3(CCC(=O)N([C@H](C)C(=O)OCCOCCOCCOC(=O)c4ccc(-c5c6nc(c(-c7ccc(S(=O)(=O)[O-])cc7)c7ccc([nH]7)c(-c7ccc(S(=O)(=O)[O-])cc7)c7nc(c(-c8ccc(S(=O)(=O)[O-])cc8)c8ccc5[nH]8)C=C7)C=C6)cc4)C3)CC2)c1
REMARK SMILES IDX 27 1 26 2 25 3 24 4 23 5 21 6 22 7 19 8 20 9 18 10 8 11 9 12
REMARK SMILES IDX 10 13 11 14 97 15 12 16 96 17 13 18 14 19 95 20 15 21 16 22
REMARK SMILES IDX 17 23 7 24 6 25 1 26 2 27 3 28 98 29 4 30 5 31 28 32 29 33
REMARK SMILES IDX 30 34 31 35 32 36 33 37 34 38 35 39 36 40 94 41 37 42 93 43
REMARK SMILES IDX 38 44 39 45 40 46 87 47 41 48 92 49 86 50 88 51 42 52 91 53
REMARK SMILES IDX 85 54 84 55 43 57 73 58 54 59 72 60 55 61 58 62 71 63 89 64
REMARK SMILES IDX 56 65 57 66 70 68 90 69 59 70 44 71 45 72 53 73 46 74 52 75
REMARK SMILES IDX 47 76 48 77 49 78 50 79 51 80 74 81 75 82 83 83 76 84 82 85
REMARK SMILES IDX 77 86 78 87 79 88 80 89 81 90 60 91 61 92 69 93 62 94 68 95
REMARK SMILES IDX 63 96 64 97 65 98 66 99 67 100
REMARK H PARENT 88 56 58 67
REMARK Flexibility Score: inf
ROOT
ATOM      1  C   UNL A   1      46.309  40.217  29.742  1.00  0.00     0.188 C 
ENDROOT
BRANCH   1   2
ATOM      2  O   UNL A   1      46.325  40.900  28.512  1.00  0.00    -0.376 OA
BRANCH   2   3
ATOM      3  C   UNL A   1      45.590  42.001  27.985  1.00  0.00     0.202 C 
BRANCH   3   4
ATOM      4  C   UNL A   1      45.694  43.006  26.573  1.00  0.00     0.261 C 
BRANCH   4   5
ATOM      5  O   UNL A   1      44.413  43.542  25.391  1.00  0.00    -0.462 OA
BRANCH   5   6
ATOM      6  C   UNL A   1      43.923  43.869  24.028  1.00  0.00     0.328 C 
ATOM      7  O   UNL A   1      43.779  45.052  23.677  1.00  0.00    -0.250 OA
BRANCH   6   8
ATOM      8  C   UNL A   1      43.393  42.948  22.724  1.00  0.00     0.192 C 
ATOM      9  C   UNL A   1      42.155  42.452  21.943  1.00  0.00     0.044 C 
BRANCH   8  10
ATOM     10  N   UNL A   1      44.504  42.802  21.776  1.00  0.00    -0.329 N 
ATOM     11  C   UNL A   1      46.539  48.081  18.526  1.00  0.00     0.226 C 
ATOM     12  O   UNL A   1      46.589  49.230  18.983  1.00  0.00    -0.275 OA
ATOM     13  N   UNL A   1      46.774  46.990  19.339  1.00  0.00    -0.342 N 
ATOM     14  C   UNL A   1      46.401  47.080  20.739  1.00  0.00     0.120 C 
ATOM     15  C   UNL A   1      47.215  45.668  18.915  1.00  0.00     0.120 C 
ATOM     16  C   UNL A   1      45.329  46.025  21.042  1.00  0.00     0.030 C 
ATOM     17  C   UNL A   1      46.072  44.695  19.053  1.00  0.00     0.030 C 
ATOM     18  C   UNL A   1      45.708  44.595  20.535  1.00  0.00    -0.008 C 
ATOM     19  C   UNL A   1      46.979  44.097  21.307  1.00  0.00     0.019 C 
ATOM     20  C   UNL A   1      44.522  43.578  20.570  1.00  0.00     0.127 C 
ATOM     21  C   UNL A   1      46.638  43.467  22.626  1.00  0.00     0.101 C 
ATOM     22  C   UNL A   1      45.743  42.357  22.165  1.00  0.00     0.223 C 
ATOM     23  O   UNL A   1      46.213  41.308  21.736  1.00  0.00    -0.275 OA
BRANCH  11  24
ATOM     24  C   UNL A   1      45.954  47.863  17.132  1.00  0.00     0.135 C 
BRANCH  24  25
ATOM     25  C   UNL A   1      44.457  47.763  17.002  1.00  0.00    -0.038 A 
ATOM     26  C   UNL A   1      41.887  44.969  16.578  1.00  0.00     0.044 C 
ATOM     27  C   UNL A   1      42.511  46.335  16.645  1.00  0.00    -0.051 A 
ATOM     28  C   UNL A   1      41.785  47.458  16.233  1.00  0.00     0.003 A 
ATOM     29  C   UNL A   1      43.839  46.498  17.055  1.00  0.00     0.007 A 
ATOM     30  C   UNL A   1      42.370  48.728  16.245  1.00  0.00     0.001 A 
ATOM     31  C   UNL A   1      43.696  48.888  16.649  1.00  0.00     0.004 A 
ENDBRANCH  24  25
ENDBRANCH  11  24
ENDBRANCH   8  10
ENDBRANCH   6   8
ENDBRANCH   5   6
ENDBRANCH   4   5
ENDBRANCH   3   4
ENDBRANCH   2   3
ENDBRANCH   1   2
BRANCH   1  32
ATOM     32  C   UNL A   1      46.853  38.795  29.952  1.00  0.00     0.188 C 
BRANCH  32  33
ATOM     33  O   UNL A   1      46.928  38.414  31.300  1.00  0.00    -0.376 OA
BRANCH  33  34
ATOM     34  C   UNL A   1      46.920  36.997  31.339  1.00  0.00     0.202 C 
BRANCH  34  35
ATOM     35  C   UNL A   1      46.552  36.240  32.717  1.00  0.00     0.261 C 
BRANCH  35  36
ATOM     36  O   UNL A   1      45.316  36.455  33.749  1.00  0.00    -0.460 OA
BRANCH  36  37
ATOM     37  C   UNL A   1      44.236  36.631  34.558  1.00  0.00     0.338 C 
ATOM     38  O   UNL A   1      44.261  37.059  35.709  1.00  0.00    -0.246 OA
BRANCH  37  39
ATOM     39  C   UNL A   1      42.841  36.346  34.207  1.00  0.00     0.060 A 
ATOM     40  C   UNL A   1      41.848  36.368  35.184  1.00  0.00     0.016 A 
ATOM     41  C   UNL A   1      42.543  35.813  32.993  1.00  0.00     0.016 A 
ATOM     42  C   UNL A   1      41.122  35.212  35.321  1.00  0.00     0.010 A 
ATOM     43  C   UNL A   1      41.810  34.671  33.096  1.00  0.00     0.010 A 
ATOM     44  C   UNL A   1      41.339  34.245  34.344  1.00  0.00    -0.014 A 
BRANCH  44  45
ATOM     45  C   UNL A   1      41.208  32.788  34.550  1.00  0.00     0.031 A 
ATOM     46  C   UNL A   1      42.840  32.046  34.713  1.00  0.00     0.074 A 
ATOM     47  C   UNL A   1      39.810  32.284  34.511  1.00  0.00     0.049 A 
ATOM     48  N   UNL A   1      43.162  30.993  34.002  1.00  0.00    -0.248 NA
ATOM     49  C   UNL A   1      44.111  32.372  35.403  1.00  0.00     0.031 C 
ATOM     50  C   UNL A   1      39.077  30.877  34.670  1.00  0.00     0.029 A 
ATOM     51  N   UNL A   1      38.622  33.012  34.385  1.00  0.00    -0.354 N 
ATOM     52  C   UNL A   1      44.216  30.274  34.410  1.00  0.00     0.074 A 
ATOM     53  C   UNL A   1      44.905  31.287  35.176  1.00  0.00     0.031 C 
ATOM     54  C   UNL A   1      37.755  30.892  34.568  1.00  0.00     0.029 A 
ATOM     55  C   UNL A   1      37.534  32.171  34.039  1.00  0.00     0.049 A 
ATOM     56  H   UNL A   1      38.550  33.985  34.520  1.00  0.00     0.167 HD
ATOM     57  C   UNL A   1      44.280  28.951  34.022  1.00  0.00     0.031 A 
ATOM     58  C   UNL A   1      36.921  32.351  32.858  1.00  0.00     0.031 A 
ATOM     59  C   UNL A   1      42.972  28.342  33.465  1.00  0.00     0.049 A 
ATOM     60  C   UNL A   1      37.555  31.238  31.833  1.00  0.00     0.074 A 
ATOM     61  C   UNL A   1      41.999  27.526  34.043  1.00  0.00     0.029 A 
ATOM     62  N   UNL A   1      42.389  28.670  32.207  1.00  0.00    -0.354 N 
ATOM     63  N   UNL A   1      38.476  30.312  32.158  1.00  0.00    -0.248 NA
ATOM     64  C   UNL A   1      37.073  30.932  30.482  1.00  0.00     0.031 C 
ATOM     65  C   UNL A   1      40.785  27.584  33.259  1.00  0.00     0.029 A 
ATOM     66  C   UNL A   1      40.985  28.364  32.128  1.00  0.00     0.049 A 
ATOM     67  H   UNL A   1      42.897  29.069  31.463  1.00  0.00     0.167 HD
ATOM     68  C   UNL A   1      38.896  29.529  31.078  1.00  0.00     0.074 A 
ATOM     69  C   UNL A   1      37.853  29.889  30.106  1.00  0.00     0.031 C 
ATOM     70  C   UNL A   1      40.089  28.764  30.946  1.00  0.00     0.031 A 
BRANCH  57  71
ATOM     71  C   UNL A   1      45.509  28.125  34.367  1.00  0.00    -0.014 A 
ATOM     72  C   UNL A   1      46.169  27.361  33.386  1.00  0.00     0.010 A 
ATOM     73  C   UNL A   1      46.081  28.103  35.660  1.00  0.00     0.010 A 
ATOM     74  C   UNL A   1      47.268  26.540  33.699  1.00  0.00     0.020 A 
ATOM     75  C   UNL A   1      47.171  27.279  35.991  1.00  0.00     0.020 A 
ATOM     76  C   UNL A   1      47.744  26.478  35.010  1.00  0.00     0.054 A 
BRANCH  76  77
ATOM     77  S   UNL A   1      49.073  25.308  35.414  1.00  0.00     0.124 S 
ATOM     78  O   UNL A   1      50.245  26.179  35.475  1.00  0.00    -0.237 OA
ATOM     79  O   UNL A   1      48.636  24.751  36.691  1.00  0.00    -0.237 OA
ATOM     80  O   UNL A   1      49.065  24.370  34.292  1.00  0.00    -0.744 OA
ENDBRANCH  76  77
ENDBRANCH  57  71
BRANCH  58  81
ATOM     81  C   UNL A   1      36.406  33.811  33.127  1.00  0.00    -0.014 A 
ATOM     82  C   UNL A   1      36.071  34.494  31.891  1.00  0.00     0.010 A 
ATOM     83  C   UNL A   1      35.620  34.266  34.219  1.00  0.00     0.010 A 
ATOM     84  C   UNL A   1      34.961  35.360  31.723  1.00  0.00     0.020 A 
ATOM     85  C   UNL A   1      34.538  35.248  34.063  1.00  0.00     0.020 A 
ATOM     86  C   UNL A   1      34.202  35.772  32.805  1.00  0.00     0.054 A 
BRANCH  86  87
ATOM     87  S   UNL A   1      32.908  37.052  32.399  1.00  0.00     0.124 S 
ATOM     88  O   UNL A   1      33.631  38.291  32.663  1.00  0.00    -0.237 OA
ATOM     89  O   UNL A   1      32.620  36.789  30.987  1.00  0.00    -0.237 OA
ATOM     90  O   UNL A   1      31.786  36.821  33.284  1.00  0.00    -0.744 OA
ENDBRANCH  86  87
ENDBRANCH  58  81
BRANCH  70  91
ATOM     91  C   UNL A   1      40.596  28.333  29.548  1.00  0.00    -0.014 A 
ATOM     92  C   UNL A   1      40.749  26.989  29.158  1.00  0.00     0.010 A 
ATOM     93  C   UNL A   1      40.856  29.288  28.534  1.00  0.00     0.010 A 
ATOM     94  C   UNL A   1      41.340  26.623  27.941  1.00  0.00     0.020 A 
ATOM     95  C   UNL A   1      41.370  28.932  27.272  1.00  0.00     0.020 A 
ATOM     96  C   UNL A   1      41.679  27.602  27.015  1.00  0.00     0.054 A 
BRANCH  96  97
ATOM     97  S   UNL A   1      42.514  27.094  25.491  1.00  0.00     0.124 S 
ATOM     98  O   UNL A   1      41.698  25.958  25.064  1.00  0.00    -0.237 OA
ATOM     99  O   UNL A   1      42.406  28.286  24.650  1.00  0.00    -0.237 OA
ATOM    100  O   UNL A   1      43.869  26.762  25.919  1.00  0.00    -0.744 OA
ENDBRANCH  96  97
ENDBRANCH  70  91
ENDBRANCH  44  45
ENDBRANCH  37  39
ENDBRANCH  36  37
ENDBRANCH  35  36
ENDBRANCH  34  35
ENDBRANCH  33  34
ENDBRANCH  32  33
ENDBRANCH   1  32
TORSDOF 23
ENDMDL
MODEL 2
REMARK VINA RESULT:     -10.5     11.171     15.457
REMARK SMILES Cc1cccc(CC(=O)N2CCC3(CCC(=O)N([C@H](C)C(=O)OCCOCCOCCOC(=O)c4ccc(-c5c6nc(c(-c7ccc(S(=O)(=O)[O-])cc7)c7ccc([nH]7)c(-c7ccc(S(=O)(=O)[O-])cc7)c7nc(c(-c8ccc(S(=O)(=O)[O-])cc8)c8ccc5[nH]8)C=C7)C=C6)cc4)C3)CC2)c1
REMARK SMILES IDX 27 1 26 2 25 3 24 4 23 5 21 6 22 7 19 8 20 9 18 10 8 11 9 12
REMARK SMILES IDX 10 13 11 14 97 15 12 16 96 17 13 18 14 19 95 20 15 21 16 22
REMARK SMILES IDX 17 23 7 24 6 25 1 26 2 27 3 28 98 29 4 30 5 31 28 32 29 33
REMARK SMILES IDX 30 34 31 35 32 36 33 37 34 38 35 39 36 40 94 41 37 42 93 43
REMARK SMILES IDX 38 44 39 45 40 46 87 47 41 48 92 49 86 50 88 51 42 52 91 53
REMARK SMILES IDX 85 54 84 55 43 57 73 58 54 59 72 60 55 61 58 62 71 63 89 64
REMARK SMILES IDX 56 65 57 66 70 68 90 69 59 70 44 71 45 72 53 73 46 74 52 75
REMARK SMILES IDX 47 76 48 77 49 78 50 79 51 80 74 81 75 82 83 83 76 84 82 85
REMARK SMILES IDX 77 86 78 87 79 88 80 89 81 90 60 91 61 92 69 93 62 94 68 95
REMARK SMILES IDX 63 96 64 97 65 98 66 99 67 100
REMARK H PARENT 88 56 58 67
REMARK Flexibility Score: inf
ROOT
ATOM      1  C   UNL A   1      41.017  26.314  26.127  1.00  0.00     0.188 C 
ENDROOT
BRANCH   1   2
ATOM      2  O   UNL A   1      41.628  25.212  26.753  1.00  0.00    -0.376 OA
BRANCH   2   3
ATOM      3  C   UNL A   1      41.396  23.806  26.722  1.00  0.00     0.202 C 
BRANCH   3   4
ATOM      4  C   UNL A   1      40.065  22.756  27.097  1.00  0.00     0.261 C 
BRANCH   4   5
ATOM      5  O   UNL A   1      39.052  21.683  26.027  1.00  0.00    -0.462 OA
BRANCH   5   6
ATOM      6  C   UNL A   1      37.857  21.391  25.194  1.00  0.00     0.328 C 
ATOM      7  O   UNL A   1      37.565  20.220  24.900  1.00  0.00    -0.250 OA
BRANCH   6   8
ATOM      8  C   UNL A   1      36.718  22.348  24.408  1.00  0.00     0.192 C 
ATOM      9  C   UNL A   1      36.342  23.031  23.074  1.00  0.00     0.044 C 
BRANCH   8  10
ATOM     10  N   UNL A   1      35.451  22.258  25.143  1.00  0.00    -0.329 N 
ATOM     11  C   UNL A   1      31.581  27.509  25.326  1.00  0.00     0.226 C 
ATOM     12  O   UNL A   1      31.417  28.312  24.399  1.00  0.00    -0.275 OA
ATOM     13  N   UNL A   1      31.801  26.170  25.066  1.00  0.00    -0.342 N 
ATOM     14  C   UNL A   1      32.504  25.810  23.848  1.00  0.00     0.120 C 
ATOM     15  C   UNL A   1      31.546  25.056  25.969  1.00  0.00     0.120 C 
ATOM     16  C   UNL A   1      33.812  25.099  24.216  1.00  0.00     0.030 C 
ATOM     17  C   UNL A   1      32.861  24.501  26.455  1.00  0.00     0.030 C 
ATOM     18  C   UNL A   1      33.617  23.941  25.249  1.00  0.00    -0.008 C 
ATOM     19  C   UNL A   1      32.727  22.822  24.604  1.00  0.00     0.019 C 
ATOM     20  C   UNL A   1      34.954  23.402  25.853  1.00  0.00     0.127 C 
ATOM     21  C   UNL A   1      33.529  21.859  23.778  1.00  0.00     0.101 C 
ATOM     22  C   UNL A   1      34.479  21.346  24.816  1.00  0.00     0.223 C 
ATOM     23  O   UNL A   1      34.139  20.461  25.596  1.00  0.00    -0.275 OA
BRANCH  11  24
ATOM     24  C   UNL A   1      31.807  28.043  26.739  1.00  0.00     0.135 C 
BRANCH  24  25
ATOM     25  C   UNL A   1      32.813  29.149  26.922  1.00  0.00    -0.038 A 
ATOM     26  C   UNL A   1      36.442  29.436  28.081  1.00  0.00     0.044 C 
ATOM     27  C   UNL A   1      35.044  29.801  27.664  1.00  0.00    -0.051 A 
ATOM     28  C   UNL A   1      34.593  31.118  27.802  1.00  0.00     0.003 A 
ATOM     29  C   UNL A   1      34.156  28.825  27.197  1.00  0.00     0.007 A 
ATOM     30  C   UNL A   1      33.281  31.461  27.464  1.00  0.00     0.001 A 
ATOM     31  C   UNL A   1      32.395  30.486  27.004  1.00  0.00     0.004 A 
ENDBRANCH  24  25
ENDBRANCH  11  24
ENDBRANCH   8  10
ENDBRANCH   6   8
ENDBRANCH   5   6
ENDBRANCH   4   5
ENDBRANCH   3   4
ENDBRANCH   2   3
ENDBRANCH   1   2
BRANCH   1  32
ATOM     32  C   UNL A   1      40.671  27.633  26.837  1.00  0.00     0.188 C 
BRANCH  32  33
ATOM     33  O   UNL A   1      39.371  27.664  27.363  1.00  0.00    -0.376 OA
BRANCH  33  34
ATOM     34  C   UNL A   1      39.406  26.996  28.613  1.00  0.00     0.202 C 
BRANCH  34  35
ATOM     35  C   UNL A   1      40.103  27.713  29.880  1.00  0.00     0.261 C 
BRANCH  35  36
ATOM     36  O   UNL A   1      41.575  28.379  30.046  1.00  0.00    -0.460 OA
BRANCH  36  37
ATOM     37  C   UNL A   1      42.822  28.918  30.118  1.00  0.00     0.338 C 
ATOM     38  O   UNL A   1      43.093  30.060  30.480  1.00  0.00    -0.246 OA
BRANCH  37  39
ATOM     39  C   UNL A   1      44.077  28.237  29.781  1.00  0.00     0.060 A 
ATOM     40  C   UNL A   1      44.240  26.881  30.053  1.00  0.00     0.016 A 
ATOM     41  C   UNL A   1      45.174  28.965  29.442  1.00  0.00     0.016 A 
ATOM     42  C   UNL A   1      45.309  26.558  30.850  1.00  0.00     0.010 A 
ATOM     43  C   UNL A   1      46.256  28.656  30.207  1.00  0.00     0.010 A 
ATOM     44  C   UNL A   1      46.196  27.596  31.118  1.00  0.00    -0.014 A 
BRANCH  44  45
ATOM     45  C   UNL A   1      47.010  27.719  32.346  1.00  0.00     0.031 A 
ATOM     46  C   UNL A   1      48.582  26.872  32.123  1.00  0.00     0.074 A 
ATOM     47  C   UNL A   1      46.335  28.435  33.462  1.00  0.00     0.049 A 
ATOM     48  N   UNL A   1      49.007  26.019  33.023  1.00  0.00    -0.248 NA
ATOM     49  C   UNL A   1      49.600  26.748  31.053  1.00  0.00     0.031 C 
ATOM     50  C   UNL A   1      46.698  28.864  34.954  1.00  0.00     0.029 A 
ATOM     51  N   UNL A   1      45.085  29.062  33.468  1.00  0.00    -0.354 N 
ATOM     52  C   UNL A   1      50.308  25.700  33.003  1.00  0.00     0.074 A 
ATOM     53  C   UNL A   1      50.604  26.024  31.627  1.00  0.00     0.031 C 
ATOM     54  C   UNL A   1      45.759  29.527  35.616  1.00  0.00     0.029 A 
ATOM     55  C   UNL A   1      44.645  29.322  34.791  1.00  0.00     0.049 A 
ATOM     56  H   UNL A   1      44.576  29.293  32.658  1.00  0.00     0.167 HD
ATOM     57  C   UNL A   1      50.874  25.237  34.173  1.00  0.00     0.031 A 
ATOM     58  C   UNL A   1      43.535  28.713  35.240  1.00  0.00     0.031 A 
ATOM     59  C   UNL A   1      50.053  25.468  35.464  1.00  0.00     0.049 A 
ATOM     60  C   UNL A   1      44.040  27.421  36.117  1.00  0.00     0.074 A 
ATOM     61  C   UNL A   1      50.147  26.424  36.474  1.00  0.00     0.029 A 
ATOM     62  N   UNL A   1      48.844  24.790  35.795  1.00  0.00    -0.354 N 
ATOM     63  N   UNL A   1      45.323  27.093  36.356  1.00  0.00    -0.248 NA
ATOM     64  C   UNL A   1      43.197  26.559  36.951  1.00  0.00     0.031 C 
ATOM     65  C   UNL A   1      48.908  26.470  37.220  1.00  0.00     0.029 A 
ATOM     66  C   UNL A   1      48.038  25.492  36.758  1.00  0.00     0.049 A 
ATOM     67  H   UNL A   1      48.584  23.925  35.402  1.00  0.00     0.167 HD
ATOM     68  C   UNL A   1      45.478  25.904  37.076  1.00  0.00     0.074 A 
ATOM     69  C   UNL A   1      44.092  25.724  37.534  1.00  0.00     0.031 C 
ATOM     70  C   UNL A   1      46.621  25.060  37.163  1.00  0.00     0.031 A 
BRANCH  57  71
ATOM     71  C   UNL A   1      52.317  24.759  34.173  1.00  0.00    -0.014 A 
ATOM     72  C   UNL A   1      53.162  24.999  35.272  1.00  0.00     0.010 A 
ATOM     73  C   UNL A   1      52.880  24.021  33.106  1.00  0.00     0.010 A 
ATOM     74  C   UNL A   1      54.518  24.622  35.263  1.00  0.00     0.020 A 
ATOM     75  C   UNL A   1      54.236  23.647  33.077  1.00  0.00     0.020 A 
ATOM     76  C   UNL A   1      55.056  23.975  34.150  1.00  0.00     0.054 A 
BRANCH  76  77
ATOM     77  S   UNL A   1      56.838  23.622  34.108  1.00  0.00     0.124 S 
ATOM     78  O   UNL A   1      57.017  23.093  32.758  1.00  0.00    -0.237 OA
ATOM     79  O   UNL A   1      57.433  24.932  34.355  1.00  0.00    -0.237 OA
ATOM     80  O   UNL A   1      57.025  22.643  35.179  1.00  0.00    -0.744 OA
ENDBRANCH  76  77
ENDBRANCH  57  71
BRANCH  58  81
ATOM     81  C   UNL A   1      42.534  29.344  34.207  1.00  0.00    -0.014 A 
ATOM     82  C   UNL A   1      41.681  28.336  33.607  1.00  0.00     0.010 A 
ATOM     83  C   UNL A   1      41.894  30.610  34.282  1.00  0.00     0.010 A 
ATOM     84  C   UNL A   1      40.305  28.512  33.316  1.00  0.00     0.020 A 
ATOM     85  C   UNL A   1      40.497  30.818  33.877  1.00  0.00     0.020 A 
ATOM     86  C   UNL A   1      39.704  29.755  33.415  1.00  0.00     0.054 A 
BRANCH  86  87
ATOM     87  S   UNL A   1      37.940  29.813  32.811  1.00  0.00     0.124 S 
ATOM     88  O   UNL A   1      37.395  30.904  33.611  1.00  0.00    -0.237 OA
ATOM     89  O   UNL A   1      38.094  30.106  31.384  1.00  0.00    -0.237 OA
ATOM     90  O   UNL A   1      37.351  28.521  33.089  1.00  0.00    -0.744 OA
ENDBRANCH  86  87
ENDBRANCH  58  81
BRANCH  70  91
ATOM     91  C   UNL A   1      46.478  23.590  37.628  1.00  0.00    -0.014 A 
ATOM     92  C   UNL A   1      46.706  23.169  38.952  1.00  0.00     0.010 A 
ATOM     93  C   UNL A   1      46.016  22.581  36.746  1.00  0.00     0.010 A 
ATOM     94  C   UNL A   1      46.708  21.817  39.320  1.00  0.00     0.020 A 
ATOM     95  C   UNL A   1      45.929  21.228  37.123  1.00  0.00     0.020 A 
ATOM     96  C   UNL A   1      46.350  20.847  38.392  1.00  0.00     0.054 A 
BRANCH  96  97
ATOM     97  S   UNL A   1      46.443  19.107  38.883  1.00  0.00     0.124 S 
ATOM     98  O   UNL A   1      45.845  19.137  40.217  1.00  0.00    -0.237 OA
ATOM     99  O   UNL A   1      45.642  18.438  37.858  1.00  0.00    -0.237 OA
ATOM    100  O   UNL A   1      47.870  18.802  38.847  1.00  0.00    -0.744 OA
ENDBRANCH  96  97
ENDBRANCH  70  91
ENDBRANCH  44  45
ENDBRANCH  37  39
ENDBRANCH  36  37
ENDBRANCH  35  36
ENDBRANCH  34  35
ENDBRANCH  33  34
ENDBRANCH  32  33
ENDBRANCH   1  32
TORSDOF 23
ENDMDL
MODEL 3
REMARK VINA RESULT:     -10.5      8.227     13.976
REMARK SMILES Cc1cccc(CC(=O)N2CCC3(CCC(=O)N([C@H](C)C(=O)OCCOCCOCCOC(=O)c4ccc(-c5c6nc(c(-c7ccc(S(=O)(=O)[O-])cc7)c7ccc([nH]7)c(-c7ccc(S(=O)(=O)[O-])cc7)c7nc(c(-c8ccc(S(=O)(=O)[O-])cc8)c8ccc5[nH]8)C=C7)C=C6)cc4)C3)CC2)c1
REMARK SMILES IDX 27 1 26 2 25 3 24 4 23 5 21 6 22 7 19 8 20 9 18 10 8 11 9 12
REMARK SMILES IDX 10 13 11 14 97 15 12 16 96 17 13 18 14 19 95 20 15 21 16 22
REMARK SMILES IDX 17 23 7 24 6 25 1 26 2 27 3 28 98 29 4 30 5 31 28 32 29 33
REMARK SMILES IDX 30 34 31 35 32 36 33 37 34 38 35 39 36 40 94 41 37 42 93 43
REMARK SMILES IDX 38 44 39 45 40 46 87 47 41 48 92 49 86 50 88 51 42 52 91 53
REMARK SMILES IDX 85 54 84 55 43 57 73 58 54 59 72 60 55 61 58 62 71 63 89 64
REMARK SMILES IDX 56 65 57 66 70 68 90 69 59 70 44 71 45 72 53 73 46 74 52 75
REMARK SMILES IDX 47 76 48 77 49 78 50 79 51 80 74 81 75 82 83 83 76 84 82 85
REMARK SMILES IDX 77 86 78 87 79 88 80 89 81 90 60 91 61 92 69 93 62 94 68 95
REMARK SMILES IDX 63 96 64 97 65 98 66 99 67 100
REMARK H PARENT 88 56 58 67
REMARK Flexibility Score: inf
ROOT
ATOM      1  C   UNL A   1      45.721  26.058  30.297  1.00  0.00     0.188 C 
ENDROOT
BRANCH   1   2
ATOM      2  O   UNL A   1      44.678  27.001  30.359  1.00  0.00    -0.376 OA
BRANCH   2   3
ATOM      3  C   UNL A   1      44.597  28.401  30.103  1.00  0.00     0.202 C 
BRANCH   3   4
ATOM      4  C   UNL A   1      44.430  29.401  28.694  1.00  0.00     0.261 C 
BRANCH   4   5
ATOM      5  O   UNL A   1      43.660  29.067  27.076  1.00  0.00    -0.462 OA
BRANCH   5   6
ATOM      6  C   UNL A   1      42.972  28.192  26.092  1.00  0.00     0.328 C 
ATOM      7  O   UNL A   1      42.425  28.681  25.089  1.00  0.00    -0.250 OA
BRANCH   6   8
ATOM      8  C   UNL A   1      42.652  26.542  26.018  1.00  0.00     0.192 C 
ATOM      9  C   UNL A   1      43.037  25.206  25.344  1.00  0.00     0.044 C 
BRANCH   8  10
ATOM     10  N   UNL A   1      41.980  26.144  27.261  1.00  0.00    -0.329 N 
ATOM     11  C   UNL A   1      38.027  30.436  30.179  1.00  0.00     0.226 C 
ATOM     12  O   UNL A   1      37.287  31.241  29.599  1.00  0.00    -0.275 OA
ATOM     13  N   UNL A   1      38.279  29.193  29.635  1.00  0.00    -0.342 N 
ATOM     14  C   UNL A   1      38.293  29.063  28.189  1.00  0.00     0.120 C 
ATOM     15  C   UNL A   1      38.701  27.998  30.353  1.00  0.00     0.120 C 
ATOM     16  C   UNL A   1      39.692  28.623  27.739  1.00  0.00     0.030 C 
ATOM     17  C   UNL A   1      40.143  27.706  30.026  1.00  0.00     0.030 C 
ATOM     18  C   UNL A   1      40.238  27.391  28.532  1.00  0.00    -0.008 C 
ATOM     19  C   UNL A   1      39.324  26.150  28.246  1.00  0.00     0.019 C 
ATOM     20  C   UNL A   1      41.758  27.112  28.296  1.00  0.00     0.127 C 
ATOM     21  C   UNL A   1      39.715  25.428  26.989  1.00  0.00     0.101 C 
ATOM     22  C   UNL A   1      41.130  25.067  27.319  1.00  0.00     0.223 C 
ATOM     23  O   UNL A   1      41.383  24.086  28.012  1.00  0.00    -0.275 OA
BRANCH  11  24
ATOM     24  C   UNL A   1      38.870  30.922  31.357  1.00  0.00     0.135 C 
BRANCH  24  25
ATOM     25  C   UNL A   1      39.756  32.120  31.143  1.00  0.00    -0.038 A 
ATOM     26  C   UNL A   1      43.110  32.825  29.455  1.00  0.00     0.044 C 
ATOM     27  C   UNL A   1      41.866  32.994  30.282  1.00  0.00    -0.051 A 
ATOM     28  C   UNL A   1      41.728  34.104  31.122  1.00  0.00     0.003 A 
ATOM     29  C   UNL A   1      40.863  32.018  30.277  1.00  0.00     0.007 A 
ATOM     30  C   UNL A   1      40.599  34.248  31.933  1.00  0.00     0.001 A 
ATOM     31  C   UNL A   1      39.602  33.271  31.931  1.00  0.00     0.004 A 
ENDBRANCH  24  25
ENDBRANCH  11  24
ENDBRANCH   8  10
ENDBRANCH   6   8
ENDBRANCH   5   6
ENDBRANCH   4   5
ENDBRANCH   3   4
ENDBRANCH   2   3
ENDBRANCH   1   2
BRANCH   1  32
ATOM     32  C   UNL A   1      45.982  25.131  29.099  1.00  0.00     0.188 C 
BRANCH  32  33
ATOM     33  O   UNL A   1      45.274  23.921  29.159  1.00  0.00    -0.376 OA
BRANCH  33  34
ATOM     34  C   UNL A   1      44.872  23.601  27.837  1.00  0.00     0.202 C 
BRANCH  34  35
ATOM     35  C   UNL A   1      45.991  23.415  26.688  1.00  0.00     0.261 C 
BRANCH  35  36
ATOM     36  O   UNL A   1      46.831  24.514  25.837  1.00  0.00    -0.460 OA
BRANCH  36  37
ATOM     37  C   UNL A   1      47.474  25.453  25.092  1.00  0.00     0.338 C 
ATOM     38  O   UNL A   1      48.105  25.246  24.058  1.00  0.00    -0.246 OA
BRANCH  37  39
ATOM     39  C   UNL A   1      47.532  26.890  25.380  1.00  0.00     0.060 A 
ATOM     40  C   UNL A   1      48.673  27.628  25.073  1.00  0.00     0.016 A 
ATOM     41  C   UNL A   1      46.587  27.460  26.175  1.00  0.00     0.016 A 
ATOM     42  C   UNL A   1      49.252  28.294  26.123  1.00  0.00     0.010 A 
ATOM     43  C   UNL A   1      47.133  28.141  27.219  1.00  0.00     0.010 A 
ATOM     44  C   UNL A   1      48.520  28.305  27.307  1.00  0.00    -0.014 A 
BRANCH  44  45
ATOM     45  C   UNL A   1      49.104  28.374  28.663  1.00  0.00     0.031 A 
ATOM     46  C   UNL A   1      49.602  26.729  29.198  1.00  0.00     0.074 A 
ATOM     47  C   UNL A   1      49.083  29.730  29.273  1.00  0.00     0.049 A 
ATOM     48  N   UNL A   1      49.233  26.275  30.371  1.00  0.00    -0.248 NA
ATOM     49  C   UNL A   1      50.282  25.557  28.596  1.00  0.00     0.031 C 
ATOM     50  C   UNL A   1      49.556  30.395  30.643  1.00  0.00     0.029 A 
ATOM     51  N   UNL A   1      48.663  30.937  28.704  1.00  0.00    -0.354 N 
ATOM     52  C   UNL A   1      49.910  25.231  30.867  1.00  0.00     0.074 A 
ATOM     53  C   UNL A   1      50.428  24.684  29.634  1.00  0.00     0.031 C 
ATOM     54  C   UNL A   1      49.341  31.698  30.765  1.00  0.00     0.029 A 
ATOM     55  C   UNL A   1      48.467  31.933  29.694  1.00  0.00     0.049 A 
ATOM     56  H   UNL A   1      48.522  31.077  27.740  1.00  0.00     0.167 HD
ATOM     57  C   UNL A   1      49.904  25.052  32.235  1.00  0.00     0.031 A 
ATOM     58  C   UNL A   1      47.233  32.429  29.885  1.00  0.00     0.031 A 
ATOM     59  C   UNL A   1      49.424  26.258  33.076  1.00  0.00     0.049 A 
ATOM     60  C   UNL A   1      46.608  31.630  31.173  1.00  0.00     0.074 A 
ATOM     61  C   UNL A   1      50.117  27.239  33.786  1.00  0.00     0.029 A 
ATOM     62  N   UNL A   1      48.079  26.725  33.143  1.00  0.00    -0.354 N 
ATOM     63  N   UNL A   1      47.251  30.697  31.902  1.00  0.00    -0.248 NA
ATOM     64  C   UNL A   1      45.356  31.950  31.866  1.00  0.00     0.031 C 
ATOM     65  C   UNL A   1      49.246  28.366  34.039  1.00  0.00     0.029 A 
ATOM     66  C   UNL A   1      47.966  28.092  33.574  1.00  0.00     0.049 A 
ATOM     67  H   UNL A   1      47.301  26.165  32.915  1.00  0.00     0.167 HD
ATOM     68  C   UNL A   1      46.464  30.122  32.905  1.00  0.00     0.074 A 
ATOM     69  C   UNL A   1      45.346  31.077  32.904  1.00  0.00     0.031 C 
ATOM     70  C   UNL A   1      46.648  28.882  33.577  1.00  0.00     0.031 A 
BRANCH  57  71
ATOM     71  C   UNL A   1      50.564  23.822  32.836  1.00  0.00    -0.014 A 
ATOM     72  C   UNL A   1      51.742  23.286  32.282  1.00  0.00     0.010 A 
ATOM     73  C   UNL A   1      50.070  23.174  33.993  1.00  0.00     0.010 A 
ATOM     74  C   UNL A   1      52.330  22.110  32.785  1.00  0.00     0.020 A 
ATOM     75  C   UNL A   1      50.641  21.992  34.499  1.00  0.00     0.020 A 
ATOM     76  C   UNL A   1      51.757  21.451  33.873  1.00  0.00     0.054 A 
BRANCH  76  77
ATOM     77  S   UNL A   1      52.457  19.864  34.414  1.00  0.00     0.124 S 
ATOM     78  O   UNL A   1      53.155  20.237  35.642  1.00  0.00    -0.237 OA
ATOM     79  O   UNL A   1      51.270  19.032  34.593  1.00  0.00    -0.237 OA
ATOM     80  O   UNL A   1      53.329  19.472  33.308  1.00  0.00    -0.744 OA
ENDBRANCH  76  77
ENDBRANCH  57  71
BRANCH  58  81
ATOM     81  C   UNL A   1      47.050  33.051  28.454  1.00  0.00    -0.014 A 
ATOM     82  C   UNL A   1      46.484  32.091  27.524  1.00  0.00     0.010 A 
ATOM     83  C   UNL A   1      46.692  34.386  28.127  1.00  0.00     0.010 A 
ATOM     84  C   UNL A   1      45.521  32.401  26.532  1.00  0.00     0.020 A 
ATOM     85  C   UNL A   1      45.777  34.716  27.026  1.00  0.00     0.020 A 
ATOM     86  C   UNL A   1      45.179  33.712  26.247  1.00  0.00     0.054 A 
BRANCH  86  87
ATOM     87  S   UNL A   1      44.037  33.915  24.787  1.00  0.00     0.124 S 
ATOM     88  O   UNL A   1      43.111  34.928  25.280  1.00  0.00    -0.237 OA
ATOM     89  O   UNL A   1      44.942  34.364  23.726  1.00  0.00    -0.237 OA
ATOM     90  O   UNL A   1      43.428  32.626  24.538  1.00  0.00    -0.744 OA
ENDBRANCH  86  87
ENDBRANCH  58  81
BRANCH  70  91
ATOM     91  C   UNL A   1      45.469  28.207  34.320  1.00  0.00    -0.014 A 
ATOM     92  C   UNL A   1      44.196  28.025  33.749  1.00  0.00     0.010 A 
ATOM     93  C   UNL A   1      45.637  27.647  35.611  1.00  0.00     0.010 A 
ATOM     94  C   UNL A   1      43.106  27.540  34.486  1.00  0.00     0.020 A 
ATOM     95  C   UNL A   1      44.572  27.077  36.334  1.00  0.00     0.020 A 
ATOM     96  C   UNL A   1      43.293  27.098  35.789  1.00  0.00     0.054 A 
BRANCH  96  97
ATOM     97  S   UNL A   1      41.846  26.555  36.733  1.00  0.00     0.124 S 
ATOM     98  O   UNL A   1      41.012  27.756  36.723  1.00  0.00    -0.237 OA
ATOM     99  O   UNL A   1      41.338  25.440  35.934  1.00  0.00    -0.237 OA
ATOM    100  O   UNL A   1      42.388  26.184  38.036  1.00  0.00    -0.744 OA
ENDBRANCH  96  97
ENDBRANCH  70  91
ENDBRANCH  44  45
ENDBRANCH  37  39
ENDBRANCH  36  37
ENDBRANCH  35  36
ENDBRANCH  34  35
ENDBRANCH  33  34
ENDBRANCH  32  33
ENDBRANCH   1  32
TORSDOF 23
ENDMDL
