MODEL 1
REMARK VINA RESULT:      -8.3      0.000      0.000
REMARK SMILES CC(C)(C)c1cc2c(cc1Cl)C=C(C(=O)OCCOCCOCCOC(=O)c1ccc(-c3c4nc(c(-c5ccc(S(=O)(=O)[O-])cc5)c5ccc([nH]5)c(-c5ccc(S(=O)(=O)[O-])cc5)c5nc(c(-c6ccc(S(=O)(=O)[O-])cc6)c6ccc3[nH]6)C=C5)C=C4)cc1)[C@@H](C(F)(F)F)O2
REMARK SMILES IDX 21 1 20 2 19 3 18 4 17 5 16 6 14 7 15 8 13 9 5 10 6 11 10 12
REMARK SMILES IDX 7 13 9 14 11 15 8 16 93 17 12 18 88 19 2 20 1 21 3 22 4 23
REMARK SMILES IDX 89 24 90 25 91 26 92 27 22 28 23 29 24 30 25 31 26 32 27 33
REMARK SMILES IDX 28 34 29 35 87 36 30 37 86 38 31 39 32 40 33 41 80 42 34 43
REMARK SMILES IDX 85 44 79 45 81 46 35 47 84 48 78 49 77 50 36 52 66 53 47 54
REMARK SMILES IDX 65 55 48 56 51 57 64 58 82 59 49 60 50 61 63 63 83 64 52 65
REMARK SMILES IDX 37 66 38 67 46 68 39 69 45 70 40 71 41 72 42 73 43 74 44 75
REMARK SMILES IDX 67 76 68 77 76 78 69 79 75 80 70 81 71 82 72 83 73 84 74 85
REMARK SMILES IDX 53 86 54 87 62 88 55 89 61 90 56 91 57 92 58 93 59 94 60 95
REMARK H PARENT 81 51 51 62
REMARK Flexibility Score: inf
ROOT
ATOM      1  C   UNL A   1      33.559  33.839  29.120  1.00  0.00     0.188 C 
ENDROOT
BRANCH   1   2
ATOM      2  C   UNL A   1      34.895  33.288  29.664  1.00  0.00     0.188 C 
BRANCH   2   3
ATOM      3  O   UNL A   1      34.882  33.104  31.068  1.00  0.00    -0.376 OA
BRANCH   3   4
ATOM      4  C   UNL A   1      34.792  34.258  31.883  1.00  0.00     0.202 C 
BRANCH   4   5
ATOM      5  C   UNL A   1      36.088  34.982  32.284  1.00  0.00     0.261 C 
BRANCH   5   6
ATOM      6  O   UNL A   1      36.298  35.162  33.692  1.00  0.00    -0.460 OA
BRANCH   6   7
ATOM      7  C   UNL A   1      36.232  34.060  34.468  1.00  0.00     0.338 C 
ATOM      8  O   UNL A   1      35.300  33.728  35.180  1.00  0.00    -0.246 OA
BRANCH   7   9
ATOM      9  C   UNL A   1      37.438  33.239  34.227  1.00  0.00     0.087 C 
ATOM     10  C   UNL A   1      40.676  29.440  33.376  1.00  0.00    -0.020 A 
ATOM     11  C   UNL A   1      40.785  30.793  33.783  1.00  0.00     0.053 A 
ATOM     12  C   UNL A   1      39.399  29.034  32.925  1.00  0.00     0.045 A 
ATOM     13  C   UNL A   1      39.679  31.653  33.841  1.00  0.00     0.128 A 
ATOM     14  C   UNL A   1      38.297  29.907  32.964  1.00  0.00     0.032 A 
ATOM     15  Cl  UNL A   1      39.024  27.447  32.350  1.00  0.00    -0.084 Cl
ATOM     16  C   UNL A   1      38.424  31.200  33.466  1.00  0.00     0.019 A 
ATOM     17  O   UNL A   1      39.922  32.915  34.305  1.00  0.00    -0.475 OA
ATOM     18  C   UNL A   1      37.254  32.038  33.664  1.00  0.00     0.027 C 
ATOM     19  C   UNL A   1      38.794  33.791  34.589  1.00  0.00     0.316 C 
BRANCH  10  20
ATOM     20  C   UNL A   1      41.886  28.484  33.559  1.00  0.00    -0.012 C 
ATOM     21  C   UNL A   1      42.316  27.767  32.249  1.00  0.00     0.016 C 
ATOM     22  C   UNL A   1      41.633  27.348  34.574  1.00  0.00     0.016 C 
ATOM     23  C   UNL A   1      43.105  29.326  34.004  1.00  0.00     0.016 C 
ENDBRANCH  10  20
BRANCH  19  24
ATOM     24  C   UNL A   1      38.878  34.218  36.062  1.00  0.00     0.430 C 
ATOM     25  F   UNL A   1      40.010  33.749  36.645  1.00  0.00    -0.167 F 
ATOM     26  F   UNL A   1      38.909  35.565  36.196  1.00  0.00    -0.167 F 
ATOM     27  F   UNL A   1      37.833  33.763  36.786  1.00  0.00    -0.167 F 
ENDBRANCH  19  24
ENDBRANCH   7   9
ENDBRANCH   6   7
ENDBRANCH   5   6
ENDBRANCH   4   5
ENDBRANCH   3   4
ENDBRANCH   2   3
ENDBRANCH   1   2
BRANCH   1  28
ATOM     28  O   UNL A   1      33.266  33.754  27.729  1.00  0.00    -0.376 OA
BRANCH  28  29
ATOM     29  C   UNL A   1      32.176  32.948  27.295  1.00  0.00     0.202 C 
BRANCH  29  30
ATOM     30  C   UNL A   1      32.394  31.446  27.063  1.00  0.00     0.261 C 
BRANCH  30  31
ATOM     31  O   UNL A   1      33.767  31.026  27.049  1.00  0.00    -0.460 OA
BRANCH  31  32
ATOM     32  C   UNL A   1      34.006  29.801  27.586  1.00  0.00     0.338 C 
ATOM     33  O   UNL A   1      33.252  28.843  27.595  1.00  0.00    -0.246 OA
BRANCH  32  34
ATOM     34  C   UNL A   1      35.423  29.716  28.001  1.00  0.00     0.060 A 
ATOM     35  C   UNL A   1      35.775  29.466  29.328  1.00  0.00     0.016 A 
ATOM     36  C   UNL A   1      36.415  29.877  27.023  1.00  0.00     0.016 A 
ATOM     37  C   UNL A   1      37.126  29.346  29.666  1.00  0.00     0.010 A 
ATOM     38  C   UNL A   1      37.763  29.769  27.366  1.00  0.00     0.010 A 
ATOM     39  C   UNL A   1      38.129  29.480  28.687  1.00  0.00    -0.014 A 
BRANCH  39  40
ATOM     40  C   UNL A   1      39.534  29.149  29.026  1.00  0.00     0.031 A 
ATOM     41  C   UNL A   1      40.132  27.811  28.718  1.00  0.00     0.074 A 
ATOM     42  C   UNL A   1      40.283  30.104  29.611  1.00  0.00     0.049 A 
ATOM     43  N   UNL A   1      41.383  27.439  28.803  1.00  0.00    -0.248 NA
ATOM     44  C   UNL A   1      39.218  26.754  28.263  1.00  0.00     0.031 C 
ATOM     45  C   UNL A   1      39.793  31.431  29.992  1.00  0.00     0.029 A 
ATOM     46  N   UNL A   1      41.609  30.122  29.966  1.00  0.00    -0.354 N 
ATOM     47  C   UNL A   1      41.418  26.118  28.379  1.00  0.00     0.074 A 
ATOM     48  C   UNL A   1      40.052  25.733  28.092  1.00  0.00     0.031 C 
ATOM     49  C   UNL A   1      40.813  32.150  30.481  1.00  0.00     0.029 A 
ATOM     50  C   UNL A   1      42.024  31.333  30.469  1.00  0.00     0.049 A 
ATOM     51  H   UNL A   1      42.204  29.344  29.867  1.00  0.00     0.167 HD
ATOM     52  C   UNL A   1      42.498  25.314  28.223  1.00  0.00     0.031 A 
ATOM     53  C   UNL A   1      43.245  31.756  30.851  1.00  0.00     0.031 A 
ATOM     54  C   UNL A   1      43.850  25.705  28.539  1.00  0.00     0.049 A 
ATOM     55  C   UNL A   1      44.425  30.838  30.691  1.00  0.00     0.074 A 
ATOM     56  C   UNL A   1      45.012  24.968  28.381  1.00  0.00     0.029 A 
ATOM     57  N   UNL A   1      44.226  26.925  29.082  1.00  0.00    -0.354 N 
ATOM     58  N   UNL A   1      44.455  29.622  30.202  1.00  0.00    -0.248 NA
ATOM     59  C   UNL A   1      45.735  31.353  31.109  1.00  0.00     0.031 C 
ATOM     60  C   UNL A   1      46.078  25.714  28.889  1.00  0.00     0.029 A 
ATOM     61  C   UNL A   1      45.595  26.948  29.291  1.00  0.00     0.049 A 
ATOM     62  H   UNL A   1      43.609  27.665  29.288  1.00  0.00     0.167 HD
ATOM     63  C   UNL A   1      45.790  29.236  30.226  1.00  0.00     0.074 A 
ATOM     64  C   UNL A   1      46.538  30.351  30.769  1.00  0.00     0.031 C 
ATOM     65  C   UNL A   1      46.340  28.062  29.829  1.00  0.00     0.031 A 
BRANCH  52  66
ATOM     66  C   UNL A   1      42.289  23.933  27.656  1.00  0.00    -0.014 A 
ATOM     67  C   UNL A   1      41.923  22.869  28.501  1.00  0.00     0.010 A 
ATOM     68  C   UNL A   1      42.605  23.660  26.312  1.00  0.00     0.010 A 
ATOM     69  C   UNL A   1      41.910  21.555  28.025  1.00  0.00     0.020 A 
ATOM     70  C   UNL A   1      42.567  22.349  25.825  1.00  0.00     0.020 A 
ATOM     71  C   UNL A   1      42.243  21.303  26.692  1.00  0.00     0.054 A 
BRANCH  71  72
ATOM     72  S   UNL A   1      42.257  19.588  26.099  1.00  0.00     0.124 S 
ATOM     73  O   UNL A   1      42.760  18.863  27.261  1.00  0.00    -0.237 OA
ATOM     74  O   UNL A   1      40.853  19.354  25.767  1.00  0.00    -0.237 OA
ATOM     75  O   UNL A   1      43.158  19.631  24.950  1.00  0.00    -0.744 OA
ENDBRANCH  71  72
ENDBRANCH  52  66
BRANCH  53  76
ATOM     76  C   UNL A   1      43.401  33.153  31.342  1.00  0.00    -0.014 A 
ATOM     77  C   UNL A   1      43.743  34.187  30.451  1.00  0.00     0.010 A 
ATOM     78  C   UNL A   1      43.309  33.436  32.717  1.00  0.00     0.010 A 
ATOM     79  C   UNL A   1      44.045  35.463  30.929  1.00  0.00     0.020 A 
ATOM     80  C   UNL A   1      43.581  34.721  33.196  1.00  0.00     0.020 A 
ATOM     81  C   UNL A   1      43.977  35.718  32.301  1.00  0.00     0.054 A 
BRANCH  81  82
ATOM     82  S   UNL A   1      44.429  37.368  32.905  1.00  0.00     0.124 S 
ATOM     83  O   UNL A   1      43.185  37.808  33.532  1.00  0.00    -0.237 OA
ATOM     84  O   UNL A   1      45.529  37.082  33.823  1.00  0.00    -0.237 OA
ATOM     85  O   UNL A   1      44.805  38.086  31.690  1.00  0.00    -0.744 OA
ENDBRANCH  81  82
ENDBRANCH  53  76
BRANCH  65  86
ATOM     86  C   UNL A   1      47.834  27.894  29.947  1.00  0.00    -0.014 A 
ATOM     87  C   UNL A   1      48.635  27.983  28.793  1.00  0.00     0.010 A 
ATOM     88  C   UNL A   1      48.426  27.507  31.161  1.00  0.00     0.010 A 
ATOM     89  C   UNL A   1      49.991  27.646  28.841  1.00  0.00     0.020 A 
ATOM     90  C   UNL A   1      49.790  27.198  31.220  1.00  0.00     0.020 A 
ATOM     91  C   UNL A   1      50.556  27.243  30.052  1.00  0.00     0.054 A 
BRANCH  91  92
ATOM     92  S   UNL A   1      52.305  26.762  30.085  1.00  0.00     0.124 S 
ATOM     93  O   UNL A   1      52.592  26.547  28.670  1.00  0.00    -0.237 OA
ATOM     94  O   UNL A   1      52.949  27.928  30.687  1.00  0.00    -0.237 OA
ATOM     95  O   UNL A   1      52.315  25.559  30.913  1.00  0.00    -0.744 OA
ENDBRANCH  91  92
ENDBRANCH  65  86
ENDBRANCH  39  40
ENDBRANCH  32  34
ENDBRANCH  31  32
ENDBRANCH  30  31
ENDBRANCH  29  30
ENDBRANCH  28  29
ENDBRANCH   1  28
TORSDOF 22
ENDMDL
MODEL 2
REMARK VINA RESULT:      -7.5      5.837     12.439
REMARK SMILES CC(C)(C)c1cc2c(cc1Cl)C=C(C(=O)OCCOCCOCCOC(=O)c1ccc(-c3c4nc(c(-c5ccc(S(=O)(=O)[O-])cc5)c5ccc([nH]5)c(-c5ccc(S(=O)(=O)[O-])cc5)c5nc(c(-c6ccc(S(=O)(=O)[O-])cc6)c6ccc3[nH]6)C=C5)C=C4)cc1)[C@@H](C(F)(F)F)O2
REMARK SMILES IDX 21 1 20 2 19 3 18 4 17 5 16 6 14 7 15 8 13 9 5 10 6 11 10 12
REMARK SMILES IDX 7 13 9 14 11 15 8 16 93 17 12 18 88 19 2 20 1 21 3 22 4 23
REMARK SMILES IDX 89 24 90 25 91 26 92 27 22 28 23 29 24 30 25 31 26 32 27 33
REMARK SMILES IDX 28 34 29 35 87 36 30 37 86 38 31 39 32 40 33 41 80 42 34 43
REMARK SMILES IDX 85 44 79 45 81 46 35 47 84 48 78 49 77 50 36 52 66 53 47 54
REMARK SMILES IDX 65 55 48 56 51 57 64 58 82 59 49 60 50 61 63 63 83 64 52 65
REMARK SMILES IDX 37 66 38 67 46 68 39 69 45 70 40 71 41 72 42 73 43 74 44 75
REMARK SMILES IDX 67 76 68 77 76 78 69 79 75 80 70 81 71 82 72 83 73 84 74 85
REMARK SMILES IDX 53 86 54 87 62 88 55 89 61 90 56 91 57 92 58 93 59 94 60 95
REMARK H PARENT 81 51 51 62
REMARK Flexibility Score: inf
ROOT
ATOM      1  C   UNL A   1      43.788  23.455  27.766  1.00  0.00     0.188 C 
ENDROOT
BRANCH   1   2
ATOM      2  C   UNL A   1      42.529  24.087  28.400  1.00  0.00     0.188 C 
BRANCH   2   3
ATOM      3  O   UNL A   1      42.457  25.486  28.198  1.00  0.00    -0.376 OA
BRANCH   3   4
ATOM      4  C   UNL A   1      42.262  25.952  26.875  1.00  0.00     0.202 C 
BRANCH   4   5
ATOM      5  C   UNL A   1      40.828  26.219  26.389  1.00  0.00     0.261 C 
BRANCH   5   6
ATOM      6  O   UNL A   1      40.057  25.061  26.036  1.00  0.00    -0.460 OA
BRANCH   6   7
ATOM      7  C   UNL A   1      39.216  24.576  26.972  1.00  0.00     0.338 C 
ATOM      8  O   UNL A   1      39.102  24.970  28.121  1.00  0.00    -0.246 OA
BRANCH   7   9
ATOM      9  C   UNL A   1      38.353  23.550  26.347  1.00  0.00     0.087 C 
ATOM     10  C   UNL A   1      34.494  20.540  25.047  1.00  0.00    -0.020 A 
ATOM     11  C   UNL A   1      35.895  20.543  24.833  1.00  0.00     0.053 A 
ATOM     12  C   UNL A   1      33.957  21.717  25.616  1.00  0.00     0.045 A 
ATOM     13  C   UNL A   1      36.719  21.598  25.251  1.00  0.00     0.128 A 
ATOM     14  C   UNL A   1      34.784  22.783  26.014  1.00  0.00     0.032 A 
ATOM     15  Cl  UNL A   1      32.278  21.966  25.944  1.00  0.00    -0.084 Cl
ATOM     16  C   UNL A   1      36.168  22.705  25.877  1.00  0.00     0.019 A 
ATOM     17  O   UNL A   1      38.058  21.441  25.028  1.00  0.00    -0.475 OA
ATOM     18  C   UNL A   1      37.029  23.729  26.444  1.00  0.00     0.027 C 
ATOM     19  C   UNL A   1      38.987  22.392  25.619  1.00  0.00     0.316 C 
BRANCH  10  20
ATOM     20  C   UNL A   1      33.679  19.247  24.775  1.00  0.00    -0.012 C 
ATOM     21  C   UNL A   1      32.643  19.395  23.626  1.00  0.00     0.016 C 
ATOM     22  C   UNL A   1      32.862  18.758  25.991  1.00  0.00     0.016 C 
ATOM     23  C   UNL A   1      34.662  18.142  24.321  1.00  0.00     0.016 C 
ENDBRANCH  10  20
BRANCH  19  24
ATOM     24  C   UNL A   1      39.972  21.613  26.503  1.00  0.00     0.430 C 
ATOM     25  F   UNL A   1      41.250  21.786  26.085  1.00  0.00    -0.167 F 
ATOM     26  F   UNL A   1      39.932  22.030  27.792  1.00  0.00    -0.167 F 
ATOM     27  F   UNL A   1      39.722  20.285  26.499  1.00  0.00    -0.167 F 
ENDBRANCH  19  24
ENDBRANCH   7   9
ENDBRANCH   6   7
ENDBRANCH   5   6
ENDBRANCH   4   5
ENDBRANCH   3   4
ENDBRANCH   2   3
ENDBRANCH   1   2
BRANCH   1  28
ATOM     28  O   UNL A   1      43.874  23.303  26.352  1.00  0.00    -0.376 OA
BRANCH  28  29
ATOM     29  C   UNL A   1      44.560  22.178  25.814  1.00  0.00     0.202 C 
BRANCH  29  30
ATOM     30  C   UNL A   1      46.040  22.312  25.430  1.00  0.00     0.261 C 
BRANCH  30  31
ATOM     31  O   UNL A   1      46.720  23.436  26.008  1.00  0.00    -0.460 OA
BRANCH  31  32
ATOM     32  C   UNL A   1      46.918  24.489  25.173  1.00  0.00     0.338 C 
ATOM     33  O   UNL A   1      47.172  24.444  23.981  1.00  0.00    -0.246 OA
BRANCH  32  34
ATOM     34  C   UNL A   1      46.580  25.744  25.880  1.00  0.00     0.060 A 
ATOM     35  C   UNL A   1      46.971  25.958  27.201  1.00  0.00     0.016 A 
ATOM     36  C   UNL A   1      45.868  26.731  25.182  1.00  0.00     0.016 A 
ATOM     37  C   UNL A   1      46.673  27.179  27.814  1.00  0.00     0.010 A 
ATOM     38  C   UNL A   1      45.561  27.944  25.800  1.00  0.00     0.010 A 
ATOM     39  C   UNL A   1      45.981  28.186  27.115  1.00  0.00    -0.014 A 
BRANCH  39  40
ATOM     40  C   UNL A   1      45.855  29.538  27.711  1.00  0.00     0.031 A 
ATOM     41  C   UNL A   1      46.899  30.594  27.513  1.00  0.00     0.074 A 
ATOM     42  C   UNL A   1      44.749  29.809  28.431  1.00  0.00     0.049 A 
ATOM     43  N   UNL A   1      46.845  31.861  27.829  1.00  0.00    -0.248 NA
ATOM     44  C   UNL A   1      48.164  30.181  26.888  1.00  0.00     0.031 C 
ATOM     45  C   UNL A   1      43.686  28.844  28.720  1.00  0.00     0.029 A 
ATOM     46  N   UNL A   1      44.322  30.968  29.028  1.00  0.00    -0.354 N 
ATOM     47  C   UNL A   1      48.049  32.411  27.413  1.00  0.00     0.074 A 
ATOM     48  C   UNL A   1      48.841  31.325  26.872  1.00  0.00     0.031 C 
ATOM     49  C   UNL A   1      42.707  29.462  29.396  1.00  0.00     0.029 A 
ATOM     50  C   UNL A   1      43.079  30.860  29.607  1.00  0.00     0.049 A 
ATOM     51  H   UNL A   1      44.853  31.797  29.040  1.00  0.00     0.167 HD
ATOM     52  C   UNL A   1      48.442  33.707  27.458  1.00  0.00     0.031 A 
ATOM     53  C   UNL A   1      42.306  31.781  30.215  1.00  0.00     0.031 A 
ATOM     54  C   UNL A   1      47.652  34.773  28.025  1.00  0.00     0.049 A 
ATOM     55  C   UNL A   1      42.773  33.208  30.274  1.00  0.00     0.074 A 
ATOM     56  C   UNL A   1      47.955  36.123  28.084  1.00  0.00     0.029 A 
ATOM     57  N   UNL A   1      46.416  34.617  28.635  1.00  0.00    -0.354 N 
ATOM     58  N   UNL A   1      43.876  33.730  29.793  1.00  0.00    -0.248 NA
ATOM     59  C   UNL A   1      41.886  34.176  30.934  1.00  0.00     0.031 C 
ATOM     60  C   UNL A   1      46.937  36.770  28.788  1.00  0.00     0.029 A 
ATOM     61  C   UNL A   1      45.959  35.840  29.099  1.00  0.00     0.049 A 
ATOM     62  H   UNL A   1      45.935  33.762  28.726  1.00  0.00     0.167 HD
ATOM     63  C   UNL A   1      43.803  35.091  30.066  1.00  0.00     0.074 A 
ATOM     64  C   UNL A   1      42.544  35.315  30.745  1.00  0.00     0.031 C 
ATOM     65  C   UNL A   1      44.702  36.062  29.773  1.00  0.00     0.031 A 
BRANCH  52  66
ATOM     66  C   UNL A   1      49.773  34.076  26.855  1.00  0.00    -0.014 A 
ATOM     67  C   UNL A   1      50.915  34.182  27.670  1.00  0.00     0.010 A 
ATOM     68  C   UNL A   1      49.860  34.466  25.505  1.00  0.00     0.010 A 
ATOM     69  C   UNL A   1      52.108  34.703  27.160  1.00  0.00     0.020 A 
ATOM     70  C   UNL A   1      51.059  34.961  24.984  1.00  0.00     0.020 A 
ATOM     71  C   UNL A   1      52.168  35.100  25.822  1.00  0.00     0.054 A 
BRANCH  71  72
ATOM     72  S   UNL A   1      53.712  35.807  25.184  1.00  0.00     0.124 S 
ATOM     73  O   UNL A   1      54.634  34.681  25.288  1.00  0.00    -0.237 OA
ATOM     74  O   UNL A   1      53.345  36.202  23.826  1.00  0.00    -0.237 OA
ATOM     75  O   UNL A   1      53.980  36.920  26.093  1.00  0.00    -0.744 OA
ENDBRANCH  71  72
ENDBRANCH  52  66
BRANCH  53  76
ATOM     76  C   UNL A   1      40.972  31.371  30.734  1.00  0.00    -0.014 A 
ATOM     77  C   UNL A   1      40.825  30.954  32.070  1.00  0.00     0.010 A 
ATOM     78  C   UNL A   1      39.866  31.299  29.869  1.00  0.00     0.010 A 
ATOM     79  C   UNL A   1      39.616  30.419  32.517  1.00  0.00     0.020 A 
ATOM     80  C   UNL A   1      38.643  30.793  30.322  1.00  0.00     0.020 A 
ATOM     81  C   UNL A   1      38.536  30.328  31.634  1.00  0.00     0.054 A 
BRANCH  81  82
ATOM     82  S   UNL A   1      36.992  29.578  32.221  1.00  0.00     0.124 S 
ATOM     83  O   UNL A   1      37.488  28.450  33.007  1.00  0.00    -0.237 OA
ATOM     84  O   UNL A   1      36.382  30.660  32.989  1.00  0.00    -0.237 OA
ATOM     85  O   UNL A   1      36.295  29.222  30.988  1.00  0.00    -0.744 OA
ENDBRANCH  81  82
ENDBRANCH  53  76
BRANCH  65  86
ATOM     86  C   UNL A   1      44.379  37.481  30.169  1.00  0.00    -0.014 A 
ATOM     87  C   UNL A   1      44.647  37.913  31.482  1.00  0.00     0.010 A 
ATOM     88  C   UNL A   1      43.684  38.336  29.298  1.00  0.00     0.010 A 
ATOM     89  C   UNL A   1      44.188  39.155  31.930  1.00  0.00     0.020 A 
ATOM     90  C   UNL A   1      43.248  39.593  29.733  1.00  0.00     0.020 A 
ATOM     91  C   UNL A   1      43.479  39.981  31.055  1.00  0.00     0.054 A 
BRANCH  91  92
ATOM     92  S   UNL A   1      42.848  41.568  31.668  1.00  0.00     0.124 S 
ATOM     93  O   UNL A   1      44.054  42.390  31.693  1.00  0.00    -0.237 OA
ATOM     94  O   UNL A   1      41.858  41.934  30.658  1.00  0.00    -0.237 OA
ATOM     95  O   UNL A   1      42.294  41.233  32.978  1.00  0.00    -0.744 OA
ENDBRANCH  91  92
ENDBRANCH  65  86
ENDBRANCH  39  40
ENDBRANCH  32  34
ENDBRANCH  31  32
ENDBRANCH  30  31
ENDBRANCH  29  30
ENDBRANCH  28  29
ENDBRANCH   1  28
TORSDOF 22
ENDMDL
MODEL 3
REMARK VINA RESULT:      -7.4      5.674     12.484
REMARK SMILES CC(C)(C)c1cc2c(cc1Cl)C=C(C(=O)OCCOCCOCCOC(=O)c1ccc(-c3c4nc(c(-c5ccc(S(=O)(=O)[O-])cc5)c5ccc([nH]5)c(-c5ccc(S(=O)(=O)[O-])cc5)c5nc(c(-c6ccc(S(=O)(=O)[O-])cc6)c6ccc3[nH]6)C=C5)C=C4)cc1)[C@@H](C(F)(F)F)O2
REMARK SMILES IDX 21 1 20 2 19 3 18 4 17 5 16 6 14 7 15 8 13 9 5 10 6 11 10 12
REMARK SMILES IDX 7 13 9 14 11 15 8 16 93 17 12 18 88 19 2 20 1 21 3 22 4 23
REMARK SMILES IDX 89 24 90 25 91 26 92 27 22 28 23 29 24 30 25 31 26 32 27 33
REMARK SMILES IDX 28 34 29 35 87 36 30 37 86 38 31 39 32 40 33 41 80 42 34 43
REMARK SMILES IDX 85 44 79 45 81 46 35 47 84 48 78 49 77 50 36 52 66 53 47 54
REMARK SMILES IDX 65 55 48 56 51 57 64 58 82 59 49 60 50 61 63 63 83 64 52 65
REMARK SMILES IDX 37 66 38 67 46 68 39 69 45 70 40 71 41 72 42 73 43 74 44 75
REMARK SMILES IDX 67 76 68 77 76 78 69 79 75 80 70 81 71 82 72 83 73 84 74 85
REMARK SMILES IDX 53 86 54 87 62 88 55 89 61 90 56 91 57 92 58 93 59 94 60 95
REMARK H PARENT 81 51 51 62
REMARK Flexibility Score: inf
ROOT
ATOM      1  C   UNL A   1      41.955  21.052  26.223  1.00  0.00     0.188 C 
ENDROOT
BRANCH   1   2
ATOM      2  C   UNL A   1      40.777  21.971  26.615  1.00  0.00     0.188 C 
BRANCH   2   3
ATOM      3  O   UNL A   1      39.540  21.536  26.084  1.00  0.00    -0.376 OA
BRANCH   3   4
ATOM      4  C   UNL A   1      38.565  22.520  25.793  1.00  0.00     0.202 C 
BRANCH   4   5
ATOM      5  C   UNL A   1      37.084  22.109  25.769  1.00  0.00     0.261 C 
BRANCH   5   6
ATOM      6  O   UNL A   1      36.630  21.461  24.571  1.00  0.00    -0.460 OA
BRANCH   6   7
ATOM      7  C   UNL A   1      35.419  20.868  24.615  1.00  0.00     0.338 C 
ATOM      8  O   UNL A   1      35.196  19.688  24.825  1.00  0.00    -0.246 OA
BRANCH   7   9
ATOM      9  C   UNL A   1      34.378  21.910  24.483  1.00  0.00     0.087 C 
ATOM     10  C   UNL A   1      31.838  26.198  23.587  1.00  0.00    -0.020 A 
ATOM     11  C   UNL A   1      31.582  24.996  24.292  1.00  0.00     0.053 A 
ATOM     12  C   UNL A   1      32.999  26.202  22.780  1.00  0.00     0.045 A 
ATOM     13  C   UNL A   1      32.471  23.912  24.282  1.00  0.00     0.128 A 
ATOM     14  C   UNL A   1      33.879  25.104  22.756  1.00  0.00     0.032 A 
ATOM     15  Cl  UNL A   1      33.508  27.535  21.804  1.00  0.00    -0.084 Cl
ATOM     16  C   UNL A   1      33.642  23.979  23.542  1.00  0.00     0.019 A 
ATOM     17  O   UNL A   1      32.121  22.839  25.052  1.00  0.00    -0.475 OA
ATOM     18  C   UNL A   1      34.634  22.923  23.646  1.00  0.00     0.027 C 
ATOM     19  C   UNL A   1      33.090  21.771  25.255  1.00  0.00     0.316 C 
BRANCH  10  20
ATOM     20  C   UNL A   1      30.935  27.437  23.828  1.00  0.00    -0.012 C 
ATOM     21  C   UNL A   1      30.476  28.138  22.519  1.00  0.00     0.016 C 
ATOM     22  C   UNL A   1      31.612  28.548  24.661  1.00  0.00     0.016 C 
ATOM     23  C   UNL A   1      29.642  26.963  24.533  1.00  0.00     0.016 C 
ENDBRANCH  10  20
BRANCH  19  24
ATOM     24  C   UNL A   1      33.326  21.619  26.765  1.00  0.00     0.430 C 
ATOM     25  F   UNL A   1      32.388  22.291  27.478  1.00  0.00    -0.167 F 
ATOM     26  F   UNL A   1      33.253  20.326  27.160  1.00  0.00    -0.167 F 
ATOM     27  F   UNL A   1      34.534  22.091  27.143  1.00  0.00    -0.167 F 
ENDBRANCH  19  24
ENDBRANCH   7   9
ENDBRANCH   6   7
ENDBRANCH   5   6
ENDBRANCH   4   5
ENDBRANCH   3   4
ENDBRANCH   2   3
ENDBRANCH   1   2
BRANCH   1  28
ATOM     28  O   UNL A   1      43.123  21.605  25.626  1.00  0.00    -0.376 OA
BRANCH  28  29
ATOM     29  C   UNL A   1      43.515  22.932  25.964  1.00  0.00     0.202 C 
BRANCH  29  30
ATOM     30  C   UNL A   1      43.032  24.104  25.100  1.00  0.00     0.261 C 
BRANCH  30  31
ATOM     31  O   UNL A   1      42.308  25.123  25.805  1.00  0.00    -0.460 OA
BRANCH  31  32
ATOM     32  C   UNL A   1      42.902  26.344  25.836  1.00  0.00     0.338 C 
ATOM     33  O   UNL A   1      43.401  26.941  24.898  1.00  0.00    -0.246 OA
BRANCH  32  34
ATOM     34  C   UNL A   1      42.683  26.962  27.162  1.00  0.00     0.060 A 
ATOM     35  C   UNL A   1      43.154  28.243  27.451  1.00  0.00     0.016 A 
ATOM     36  C   UNL A   1      41.971  26.234  28.127  1.00  0.00     0.016 A 
ATOM     37  C   UNL A   1      42.882  28.807  28.700  1.00  0.00     0.010 A 
ATOM     38  C   UNL A   1      41.712  26.795  29.379  1.00  0.00     0.010 A 
ATOM     39  C   UNL A   1      42.147  28.096  29.667  1.00  0.00    -0.014 A 
BRANCH  39  40
ATOM     40  C   UNL A   1      41.698  28.785  30.901  1.00  0.00     0.031 A 
ATOM     41  C   UNL A   1      42.462  28.694  32.185  1.00  0.00     0.074 A 
ATOM     42  C   UNL A   1      40.575  29.528  30.835  1.00  0.00     0.049 A 
ATOM     43  N   UNL A   1      42.284  29.373  33.288  1.00  0.00    -0.248 NA
ATOM     44  C   UNL A   1      43.561  27.720  32.247  1.00  0.00     0.031 C 
ATOM     45  C   UNL A   1      39.730  29.656  29.645  1.00  0.00     0.029 A 
ATOM     46  N   UNL A   1      39.964  30.327  31.768  1.00  0.00    -0.354 N 
ATOM     47  C   UNL A   1      43.266  28.939  34.168  1.00  0.00     0.074 A 
ATOM     48  C   UNL A   1      44.004  27.894  33.488  1.00  0.00     0.031 C 
ATOM     49  C   UNL A   1      38.740  30.522  29.905  1.00  0.00     0.029 A 
ATOM     50  C   UNL A   1      38.865  30.995  31.281  1.00  0.00     0.049 A 
ATOM     51  H   UNL A   1      40.284  30.415  32.695  1.00  0.00     0.167 HD
ATOM     52  C   UNL A   1      43.537  29.391  35.415  1.00  0.00     0.031 A 
ATOM     53  C   UNL A   1      38.061  31.908  31.861  1.00  0.00     0.031 A 
ATOM     54  C   UNL A   1      42.775  30.415  36.088  1.00  0.00     0.049 A 
ATOM     55  C   UNL A   1      38.367  32.378  33.255  1.00  0.00     0.074 A 
ATOM     56  C   UNL A   1      42.997  30.961  37.341  1.00  0.00     0.029 A 
ATOM     57  N   UNL A   1      41.646  31.040  35.578  1.00  0.00    -0.354 N 
ATOM     58  N   UNL A   1      39.356  32.023  34.040  1.00  0.00    -0.248 NA
ATOM     59  C   UNL A   1      37.469  33.386  33.834  1.00  0.00     0.031 C 
ATOM     60  C   UNL A   1      41.967  31.864  37.615  1.00  0.00     0.029 A 
ATOM     61  C   UNL A   1      41.146  31.942  36.502  1.00  0.00     0.049 A 
ATOM     62  H   UNL A   1      41.258  30.866  34.690  1.00  0.00     0.167 HD
ATOM     63  C   UNL A   1      39.216  32.785  35.194  1.00  0.00     0.074 A 
ATOM     64  C   UNL A   1      38.053  33.626  35.002  1.00  0.00     0.031 C 
ATOM     65  C   UNL A   1      39.989  32.783  36.308  1.00  0.00     0.031 A 
BRANCH  52  66
ATOM     66  C   UNL A   1      44.725  28.818  36.145  1.00  0.00    -0.014 A 
ATOM     67  C   UNL A   1      44.540  27.842  37.142  1.00  0.00     0.010 A 
ATOM     68  C   UNL A   1      46.009  29.358  35.949  1.00  0.00     0.010 A 
ATOM     69  C   UNL A   1      45.606  27.442  37.952  1.00  0.00     0.020 A 
ATOM     70  C   UNL A   1      47.085  28.940  36.740  1.00  0.00     0.020 A 
ATOM     71  C   UNL A   1      46.870  28.002  37.753  1.00  0.00     0.054 A 
BRANCH  71  72
ATOM     72  S   UNL A   1      48.235  27.499  38.836  1.00  0.00     0.124 S 
ATOM     73  O   UNL A   1      47.739  27.876  40.155  1.00  0.00    -0.237 OA
ATOM     74  O   UNL A   1      48.330  26.063  38.583  1.00  0.00    -0.237 OA
ATOM     75  O   UNL A   1      49.368  28.283  38.347  1.00  0.00    -0.744 OA
ENDBRANCH  71  72
ENDBRANCH  52  66
BRANCH  53  76
ATOM     76  C   UNL A   1      36.942  32.487  31.067  1.00  0.00    -0.014 A 
ATOM     77  C   UNL A   1      35.674  31.877  31.075  1.00  0.00     0.010 A 
ATOM     78  C   UNL A   1      37.166  33.589  30.223  1.00  0.00     0.010 A 
ATOM     79  C   UNL A   1      34.669  32.319  30.212  1.00  0.00     0.020 A 
ATOM     80  C   UNL A   1      36.152  34.054  29.379  1.00  0.00     0.020 A 
ATOM     81  C   UNL A   1      34.920  33.397  29.359  1.00  0.00     0.054 A 
BRANCH  81  82
ATOM     82  S   UNL A   1      33.619  33.918  28.207  1.00  0.00     0.124 S 
ATOM     83  O   UNL A   1      33.177  32.639  27.658  1.00  0.00    -0.237 OA
ATOM     84  O   UNL A   1      32.665  34.590  29.086  1.00  0.00    -0.237 OA
ATOM     85  O   UNL A   1      34.321  34.791  27.270  1.00  0.00    -0.744 OA
ENDBRANCH  81  82
ENDBRANCH  53  76
BRANCH  65  86
ATOM     86  C   UNL A   1      39.629  33.723  37.431  1.00  0.00    -0.014 A 
ATOM     87  C   UNL A   1      40.092  35.053  37.397  1.00  0.00     0.010 A 
ATOM     88  C   UNL A   1      38.964  33.261  38.579  1.00  0.00     0.010 A 
ATOM     89  C   UNL A   1      39.936  35.888  38.507  1.00  0.00     0.020 A 
ATOM     90  C   UNL A   1      38.779  34.104  39.681  1.00  0.00     0.020 A 
ATOM     91  C   UNL A   1      39.292  35.403  39.647  1.00  0.00     0.054 A 
BRANCH  91  92
ATOM     92  S   UNL A   1      39.142  36.486  41.095  1.00  0.00     0.124 S 
ATOM     93  O   UNL A   1      38.888  37.786  40.482  1.00  0.00    -0.237 OA
ATOM     94  O   UNL A   1      38.016  35.902  41.820  1.00  0.00    -0.237 OA
ATOM     95  O   UNL A   1      40.436  36.352  41.759  1.00  0.00    -0.744 OA
ENDBRANCH  91  92
ENDBRANCH  65  86
ENDBRANCH  39  40
ENDBRANCH  32  34
ENDBRANCH  31  32
ENDBRANCH  30  31
ENDBRANCH  29  30
ENDBRANCH  28  29
ENDBRANCH   1  28
TORSDOF 22
ENDMDL
