MODEL 1
REMARK VINA RESULT:      -9.5      0.000      0.000
REMARK SMILES COc1cc(C(=O)N[C@H]2CCCC[C@H]2C(=O)OCCOCCOCCOC(=O)c2ccc(-c3c4nc(c(-c5ccc(S(=O)(=O)[O-])cc5)c5ccc([nH]5)c(-c5ccc(S(=O)(=O)[O-])cc5)c5nc(c(-c6ccc(S(=O)(=O)[O-])cc6)c6ccc3[nH]6)C=C5)C=C4)cc2)cc(Cl)c1OC
REMARK SMILES IDX 21 1 20 2 19 3 18 4 17 5 15 6 16 7 14 8 9 9 10 10 11 11
REMARK SMILES IDX 13 12 12 13 8 14 6 15 7 16 5 18 3 19 4 20 92 21 90 22 89 23
REMARK SMILES IDX 91 24 2 25 1 26 93 27 94 28 22 29 23 30 24 31 25 32 26 33
REMARK SMILES IDX 27 34 28 35 29 36 30 37 88 38 31 39 87 40 32 41 33 42 34 43
REMARK SMILES IDX 81 44 35 45 86 46 80 47 82 48 36 49 85 50 79 51 78 52 37 54
REMARK SMILES IDX 67 55 48 56 66 57 49 58 52 59 65 60 83 61 50 62 51 63 64 65
REMARK SMILES IDX 84 66 53 67 38 68 39 69 47 70 40 71 46 72 41 73 42 74 43 75
REMARK SMILES IDX 44 76 45 77 68 78 69 79 77 80 70 81 76 82 71 83 72 84 73 85
REMARK SMILES IDX 74 86 75 87 54 88 55 89 63 90 56 91 62 92 57 93 58 94 59 95
REMARK SMILES IDX 60 96 61 97
REMARK H PARENT 8 17 82 53 52 64
REMARK Flexibility Score: inf
ROOT
ATOM      1  C   UNL A   1      33.918  32.789  27.938  1.00  0.00     0.188 C 
ENDROOT
BRANCH   1   2
ATOM      2  O   UNL A   1      33.519  31.435  27.755  1.00  0.00    -0.376 OA
BRANCH   2   3
ATOM      3  C   UNL A   1      32.364  31.200  26.956  1.00  0.00     0.202 C 
BRANCH   3   4
ATOM      4  C   UNL A   1      32.481  30.156  25.830  1.00  0.00     0.261 C 
BRANCH   4   5
ATOM      5  O   UNL A   1      32.698  28.790  26.262  1.00  0.00    -0.463 OA
BRANCH   5   6
ATOM      6  C   UNL A   1      32.885  27.914  25.243  1.00  0.00     0.311 C 
ATOM      7  O   UNL A   1      33.674  28.101  24.320  1.00  0.00    -0.252 OA
BRANCH   6   8
ATOM      8  C   UNL A   1      32.126  26.599  25.348  1.00  0.00     0.121 C 
ATOM      9  C   UNL A   1      31.399  25.923  24.150  1.00  0.00     0.096 C 
ATOM     10  C   UNL A   1      30.577  24.763  24.740  1.00  0.00     0.026 C 
ATOM     11  C   UNL A   1      31.429  23.751  25.506  1.00  0.00     0.002 C 
ATOM     12  C   UNL A   1      33.004  25.600  26.120  1.00  0.00     0.017 C 
ATOM     13  C   UNL A   1      32.190  24.420  26.636  1.00  0.00     0.001 C 
BRANCH   9  14
ATOM     14  N   UNL A   1      32.252  25.634  22.974  1.00  0.00    -0.348 N 
ATOM     15  C   UNL A   1      33.183  24.697  22.581  1.00  0.00     0.251 C 
ATOM     16  O   UNL A   1      33.529  24.660  21.399  1.00  0.00    -0.269 OA
ATOM     17  H   UNL A   1      32.115  26.307  22.268  1.00  0.00     0.164 HD
BRANCH  15  18
ATOM     18  C   UNL A   1      33.906  23.806  23.510  1.00  0.00     0.045 A 
ATOM     19  C   UNL A   1      34.179  21.540  24.358  1.00  0.00     0.163 A 
ATOM     20  C   UNL A   1      33.462  22.477  23.605  1.00  0.00     0.064 A 
ATOM     21  C   UNL A   1      35.369  21.940  24.991  1.00  0.00     0.179 A 
ATOM     22  C   UNL A   1      35.723  23.298  25.010  1.00  0.00     0.087 A 
ATOM     23  C   UNL A   1      34.964  24.239  24.304  1.00  0.00     0.038 A 
ATOM     24  Cl  UNL A   1      37.111  23.870  25.865  1.00  0.00    -0.080 Cl
BRANCH  19  25
ATOM     25  O   UNL A   1      33.828  20.221  24.487  1.00  0.00    -0.493 OA
ATOM     26  C   UNL A   1      32.482  19.943  24.859  1.00  0.00     0.278 C 
ENDBRANCH  19  25
BRANCH  21  27
ATOM     27  O   UNL A   1      36.110  20.980  25.641  1.00  0.00    -0.491 OA
ATOM     28  C   UNL A   1      37.240  20.556  24.870  1.00  0.00     0.278 C 
ENDBRANCH  21  27
ENDBRANCH  15  18
ENDBRANCH   9  14
ENDBRANCH   6   8
ENDBRANCH   5   6
ENDBRANCH   4   5
ENDBRANCH   3   4
ENDBRANCH   2   3
ENDBRANCH   1   2
BRANCH   1  29
ATOM     29  C   UNL A   1      34.409  33.175  29.332  1.00  0.00     0.188 C 
BRANCH  29  30
ATOM     30  O   UNL A   1      35.367  32.300  29.914  1.00  0.00    -0.376 OA
BRANCH  30  31
ATOM     31  C   UNL A   1      36.728  32.523  29.520  1.00  0.00     0.202 C 
BRANCH  31  32
ATOM     32  C   UNL A   1      37.789  31.644  30.223  1.00  0.00     0.261 C 
BRANCH  32  33
ATOM     33  O   UNL A   1      37.416  30.263  30.435  1.00  0.00    -0.460 OA
BRANCH  33  34
ATOM     34  C   UNL A   1      37.344  29.458  29.349  1.00  0.00     0.338 C 
ATOM     35  O   UNL A   1      36.333  29.183  28.722  1.00  0.00    -0.246 OA
BRANCH  34  36
ATOM     36  C   UNL A   1      38.723  29.182  28.860  1.00  0.00     0.060 A 
ATOM     37  C   UNL A   1      39.635  28.608  29.758  1.00  0.00     0.016 A 
ATOM     38  C   UNL A   1      39.110  29.420  27.538  1.00  0.00     0.016 A 
ATOM     39  C   UNL A   1      40.945  28.326  29.356  1.00  0.00     0.010 A 
ATOM     40  C   UNL A   1      40.426  29.148  27.139  1.00  0.00     0.010 A 
ATOM     41  C   UNL A   1      41.364  28.639  28.057  1.00  0.00    -0.014 A 
BRANCH  41  42
ATOM     42  C   UNL A   1      42.816  28.651  27.729  1.00  0.00     0.031 A 
ATOM     43  C   UNL A   1      43.421  27.394  27.152  1.00  0.00     0.074 A 
ATOM     44  C   UNL A   1      43.589  29.739  27.900  1.00  0.00     0.049 A 
ATOM     45  N   UNL A   1      44.660  27.150  26.809  1.00  0.00    -0.248 NA
ATOM     46  C   UNL A   1      42.502  26.264  26.937  1.00  0.00     0.031 C 
ATOM     47  C   UNL A   1      43.138  31.035  28.401  1.00  0.00     0.029 A 
ATOM     48  N   UNL A   1      44.934  29.918  27.669  1.00  0.00    -0.354 N 
ATOM     49  C   UNL A   1      44.670  25.840  26.344  1.00  0.00     0.074 A 
ATOM     50  C   UNL A   1      43.323  25.332  26.479  1.00  0.00     0.031 C 
ATOM     51  C   UNL A   1      44.191  31.874  28.445  1.00  0.00     0.029 A 
ATOM     52  C   UNL A   1      45.395  31.168  28.007  1.00  0.00     0.049 A 
ATOM     53  H   UNL A   1      45.513  29.214  27.295  1.00  0.00     0.167 HD
ATOM     54  C   UNL A   1      45.703  25.120  25.843  1.00  0.00     0.031 A 
ATOM     55  C   UNL A   1      46.644  31.680  27.984  1.00  0.00     0.031 A 
ATOM     56  C   UNL A   1      47.049  25.606  25.720  1.00  0.00     0.049 A 
ATOM     57  C   UNL A   1      47.796  30.831  27.501  1.00  0.00     0.074 A 
ATOM     58  C   UNL A   1      48.156  24.946  25.213  1.00  0.00     0.029 A 
ATOM     59  N   UNL A   1      47.480  26.863  26.113  1.00  0.00    -0.354 N 
ATOM     60  N   UNL A   1      47.784  29.604  27.040  1.00  0.00    -0.248 NA
ATOM     61  C   UNL A   1      49.134  31.446  27.529  1.00  0.00     0.031 C 
ATOM     62  C   UNL A   1      49.267  25.783  25.353  1.00  0.00     0.029 A 
ATOM     63  C   UNL A   1      48.839  26.988  25.888  1.00  0.00     0.049 A 
ATOM     64  H   UNL A   1      46.903  27.562  26.497  1.00  0.00     0.167 HD
ATOM     65  C   UNL A   1      49.102  29.312  26.696  1.00  0.00     0.074 A 
ATOM     66  C   UNL A   1      49.883  30.493  26.990  1.00  0.00     0.031 C 
ATOM     67  C   UNL A   1      49.615  28.167  26.179  1.00  0.00     0.031 A 
BRANCH  54  68
ATOM     68  C   UNL A   1      45.414  23.704  25.424  1.00  0.00    -0.014 A 
ATOM     69  C   UNL A   1      45.120  23.386  24.085  1.00  0.00     0.010 A 
ATOM     70  C   UNL A   1      45.467  22.672  26.378  1.00  0.00     0.010 A 
ATOM     71  C   UNL A   1      44.844  22.066  23.718  1.00  0.00     0.020 A 
ATOM     72  C   UNL A   1      45.221  21.348  26.010  1.00  0.00     0.020 A 
ATOM     73  C   UNL A   1      44.893  21.057  24.684  1.00  0.00     0.054 A 
BRANCH  73  74
ATOM     74  S   UNL A   1      44.546  19.350  24.177  1.00  0.00     0.124 S 
ATOM     75  O   UNL A   1      43.329  19.056  24.929  1.00  0.00    -0.237 OA
ATOM     76  O   UNL A   1      44.375  19.475  22.731  1.00  0.00    -0.237 OA
ATOM     77  O   UNL A   1      45.734  18.614  24.600  1.00  0.00    -0.744 OA
ENDBRANCH  73  74
ENDBRANCH  54  68
BRANCH  55  78
ATOM     78  C   UNL A   1      46.890  33.073  28.454  1.00  0.00    -0.014 A 
ATOM     79  C   UNL A   1      46.899  34.148  27.547  1.00  0.00     0.010 A 
ATOM     80  C   UNL A   1      47.146  33.328  29.814  1.00  0.00     0.010 A 
ATOM     81  C   UNL A   1      47.173  35.448  27.988  1.00  0.00     0.020 A 
ATOM     82  C   UNL A   1      47.392  34.628  30.264  1.00  0.00     0.020 A 
ATOM     83  C   UNL A   1      47.415  35.680  29.346  1.00  0.00     0.054 A 
BRANCH  83  84
ATOM     84  S   UNL A   1      47.716  37.380  29.904  1.00  0.00     0.124 S 
ATOM     85  O   UNL A   1      48.945  37.720  29.193  1.00  0.00    -0.237 OA
ATOM     86  O   UNL A   1      46.512  38.075  29.456  1.00  0.00    -0.237 OA
ATOM     87  O   UNL A   1      47.847  37.246  31.352  1.00  0.00    -0.744 OA
ENDBRANCH  83  84
ENDBRANCH  55  78
BRANCH  67  88
ATOM     88  C   UNL A   1      51.087  28.139  25.850  1.00  0.00    -0.014 A 
ATOM     89  C   UNL A   1      52.037  27.664  26.771  1.00  0.00     0.010 A 
ATOM     90  C   UNL A   1      51.519  28.534  24.570  1.00  0.00     0.010 A 
ATOM     91  C   UNL A   1      53.393  27.615  26.430  1.00  0.00     0.020 A 
ATOM     92  C   UNL A   1      52.869  28.460  24.215  1.00  0.00     0.020 A 
ATOM     93  C   UNL A   1      53.800  28.014  25.154  1.00  0.00     0.054 A 
BRANCH  93  94
ATOM     94  S   UNL A   1      55.559  27.902  24.720  1.00  0.00     0.124 S 
ATOM     95  O   UNL A   1      55.560  26.830  23.730  1.00  0.00    -0.237 OA
ATOM     96  O   UNL A   1      55.848  29.238  24.203  1.00  0.00    -0.237 OA
ATOM     97  O   UNL A   1      56.209  27.579  25.989  1.00  0.00    -0.744 OA
ENDBRANCH  93  94
ENDBRANCH  67  88
ENDBRANCH  41  42
ENDBRANCH  34  36
ENDBRANCH  33  34
ENDBRANCH  32  33
ENDBRANCH  31  32
ENDBRANCH  30  31
ENDBRANCH  29  30
ENDBRANCH   1  29
TORSDOF 24
ENDMDL
MODEL 2
REMARK VINA RESULT:      -9.4      1.846      2.637
REMARK SMILES COc1cc(C(=O)N[C@H]2CCCC[C@H]2C(=O)OCCOCCOCCOC(=O)c2ccc(-c3c4nc(c(-c5ccc(S(=O)(=O)[O-])cc5)c5ccc([nH]5)c(-c5ccc(S(=O)(=O)[O-])cc5)c5nc(c(-c6ccc(S(=O)(=O)[O-])cc6)c6ccc3[nH]6)C=C5)C=C4)cc2)cc(Cl)c1OC
REMARK SMILES IDX 21 1 20 2 19 3 18 4 17 5 15 6 16 7 14 8 9 9 10 10 11 11
REMARK SMILES IDX 13 12 12 13 8 14 6 15 7 16 5 18 3 19 4 20 92 21 90 22 89 23
REMARK SMILES IDX 91 24 2 25 1 26 93 27 94 28 22 29 23 30 24 31 25 32 26 33
REMARK SMILES IDX 27 34 28 35 29 36 30 37 88 38 31 39 87 40 32 41 33 42 34 43
REMARK SMILES IDX 81 44 35 45 86 46 80 47 82 48 36 49 85 50 79 51 78 52 37 54
REMARK SMILES IDX 67 55 48 56 66 57 49 58 52 59 65 60 83 61 50 62 51 63 64 65
REMARK SMILES IDX 84 66 53 67 38 68 39 69 47 70 40 71 46 72 41 73 42 74 43 75
REMARK SMILES IDX 44 76 45 77 68 78 69 79 77 80 70 81 76 82 71 83 72 84 73 85
REMARK SMILES IDX 74 86 75 87 54 88 55 89 63 90 56 91 62 92 57 93 58 94 59 95
REMARK SMILES IDX 60 96 61 97
REMARK H PARENT 8 17 82 53 52 64
REMARK Flexibility Score: inf
ROOT
ATOM      1  C   UNL A   1      33.630  32.815  28.044  1.00  0.00     0.188 C 
ENDROOT
BRANCH   1   2
ATOM      2  O   UNL A   1      34.456  31.954  27.270  1.00  0.00    -0.376 OA
BRANCH   2   3
ATOM      3  C   UNL A   1      34.703  30.650  27.789  1.00  0.00     0.202 C 
BRANCH   3   4
ATOM      4  C   UNL A   1      34.268  29.450  26.929  1.00  0.00     0.261 C 
BRANCH   4   5
ATOM      5  O   UNL A   1      33.215  29.715  25.969  1.00  0.00    -0.463 OA
BRANCH   5   6
ATOM      6  C   UNL A   1      33.241  28.902  24.884  1.00  0.00     0.311 C 
ATOM      7  O   UNL A   1      34.224  28.766  24.159  1.00  0.00    -0.252 OA
BRANCH   6   8
ATOM      8  C   UNL A   1      31.996  28.058  24.652  1.00  0.00     0.121 C 
ATOM      9  C   UNL A   1      31.321  27.878  23.262  1.00  0.00     0.096 C 
ATOM     10  C   UNL A   1      29.983  27.160  23.520  1.00  0.00     0.026 C 
ATOM     11  C   UNL A   1      30.148  25.816  24.228  1.00  0.00     0.002 C 
ATOM     12  C   UNL A   1      32.188  26.713  25.372  1.00  0.00     0.017 C 
ATOM     13  C   UNL A   1      30.865  25.981  25.555  1.00  0.00     0.001 C 
BRANCH   9  14
ATOM     14  N   UNL A   1      32.199  27.337  22.198  1.00  0.00    -0.348 N 
ATOM     15  C   UNL A   1      32.855  26.162  21.902  1.00  0.00     0.251 C 
ATOM     16  O   UNL A   1      33.328  26.013  20.774  1.00  0.00    -0.269 OA
ATOM     17  H   UNL A   1      32.360  28.013  21.501  1.00  0.00     0.164 HD
BRANCH  15  18
ATOM     18  C   UNL A   1      33.154  25.106  22.890  1.00  0.00     0.045 A 
ATOM     19  C   UNL A   1      32.632  22.871  23.699  1.00  0.00     0.163 A 
ATOM     20  C   UNL A   1      32.329  23.970  22.887  1.00  0.00     0.064 A 
ATOM     21  C   UNL A   1      33.792  22.907  24.492  1.00  0.00     0.179 A 
ATOM     22  C   UNL A   1      34.526  24.098  24.595  1.00  0.00     0.087 A 
ATOM     23  C   UNL A   1      34.178  25.215  23.826  1.00  0.00     0.038 A 
ATOM     24  Cl  UNL A   1      35.895  24.241  25.639  1.00  0.00    -0.080 Cl
BRANCH  19  25
ATOM     25  O   UNL A   1      31.893  21.716  23.743  1.00  0.00    -0.493 OA
ATOM     26  C   UNL A   1      32.061  20.799  22.667  1.00  0.00     0.278 C 
ENDBRANCH  19  25
BRANCH  21  27
ATOM     27  O   UNL A   1      34.125  21.776  25.203  1.00  0.00    -0.491 OA
ATOM     28  C   UNL A   1      33.619  21.812  26.542  1.00  0.00     0.278 C 
ENDBRANCH  21  27
ENDBRANCH  15  18
ENDBRANCH   9  14
ENDBRANCH   6   8
ENDBRANCH   5   6
ENDBRANCH   4   5
ENDBRANCH   3   4
ENDBRANCH   2   3
ENDBRANCH   1   2
BRANCH   1  29
ATOM     29  C   UNL A   1      34.232  34.162  28.445  1.00  0.00     0.188 C 
BRANCH  29  30
ATOM     30  O   UNL A   1      34.511  34.327  29.829  1.00  0.00    -0.376 OA
BRANCH  30  31
ATOM     31  C   UNL A   1      35.537  33.475  30.359  1.00  0.00     0.202 C 
BRANCH  31  32
ATOM     32  C   UNL A   1      35.062  32.362  31.321  1.00  0.00     0.261 C 
BRANCH  32  33
ATOM     33  O   UNL A   1      35.986  31.267  31.515  1.00  0.00    -0.460 OA
BRANCH  33  34
ATOM     34  C   UNL A   1      37.118  31.516  32.214  1.00  0.00     0.338 C 
ATOM     35  O   UNL A   1      37.180  31.912  33.367  1.00  0.00    -0.246 OA
BRANCH  34  36
ATOM     36  C   UNL A   1      38.280  30.965  31.464  1.00  0.00     0.060 A 
ATOM     37  C   UNL A   1      39.269  30.286  32.191  1.00  0.00     0.016 A 
ATOM     38  C   UNL A   1      38.381  31.051  30.073  1.00  0.00     0.016 A 
ATOM     39  C   UNL A   1      40.384  29.747  31.541  1.00  0.00     0.010 A 
ATOM     40  C   UNL A   1      39.505  30.521  29.423  1.00  0.00     0.010 A 
ATOM     41  C   UNL A   1      40.534  29.903  30.157  1.00  0.00    -0.014 A 
BRANCH  41  42
ATOM     42  C   UNL A   1      41.850  29.630  29.519  1.00  0.00     0.031 A 
ATOM     43  C   UNL A   1      42.100  28.244  28.975  1.00  0.00     0.074 A 
ATOM     44  C   UNL A   1      42.802  30.572  29.387  1.00  0.00     0.049 A 
ATOM     45  N   UNL A   1      43.168  27.757  28.398  1.00  0.00    -0.248 NA
ATOM     46  C   UNL A   1      40.992  27.283  29.101  1.00  0.00     0.031 C 
ATOM     47  C   UNL A   1      42.689  31.964  29.819  1.00  0.00     0.029 A 
ATOM     48  N   UNL A   1      44.064  30.490  28.847  1.00  0.00    -0.354 N 
ATOM     49  C   UNL A   1      42.865  26.434  28.100  1.00  0.00     0.074 A 
ATOM     50  C   UNL A   1      41.526  26.186  28.586  1.00  0.00     0.031 C 
ATOM     51  C   UNL A   1      43.839  32.603  29.532  1.00  0.00     0.029 A 
ATOM     52  C   UNL A   1      44.781  31.661  28.925  1.00  0.00     0.049 A 
ATOM     53  H   UNL A   1      44.422  29.667  28.439  1.00  0.00     0.167 HD
ATOM     54  C   UNL A   1      43.624  25.504  27.472  1.00  0.00     0.031 A 
ATOM     55  C   UNL A   1      46.053  31.939  28.568  1.00  0.00     0.031 A 
ATOM     56  C   UNL A   1      44.962  25.731  26.999  1.00  0.00     0.049 A 
ATOM     57  C   UNL A   1      46.912  30.863  27.946  1.00  0.00     0.074 A 
ATOM     58  C   UNL A   1      45.801  24.847  26.342  1.00  0.00     0.029 A 
ATOM     59  N   UNL A   1      45.663  26.918  27.138  1.00  0.00    -0.354 N 
ATOM     60  N   UNL A   1      46.600  29.625  27.648  1.00  0.00    -0.248 NA
ATOM     61  C   UNL A   1      48.297  31.230  27.607  1.00  0.00     0.031 C 
ATOM     62  C   UNL A   1      47.030  25.482  26.136  1.00  0.00     0.029 A 
ATOM     63  C   UNL A   1      46.934  26.781  26.606  1.00  0.00     0.049 A 
ATOM     64  H   UNL A   1      45.310  27.737  27.554  1.00  0.00     0.167 HD
ATOM     65  C   UNL A   1      47.737  29.077  27.059  1.00  0.00     0.074 A 
ATOM     66  C   UNL A   1      48.740  30.120  27.033  1.00  0.00     0.031 C 
ATOM     67  C   UNL A   1      47.930  27.823  26.579  1.00  0.00     0.031 A 
BRANCH  54  68
ATOM     68  C   UNL A   1      43.029  24.134  27.296  1.00  0.00    -0.014 A 
ATOM     69  C   UNL A   1      43.118  23.164  28.311  1.00  0.00     0.010 A 
ATOM     70  C   UNL A   1      42.345  23.821  26.107  1.00  0.00     0.010 A 
ATOM     71  C   UNL A   1      42.568  21.893  28.124  1.00  0.00     0.020 A 
ATOM     72  C   UNL A   1      41.769  22.562  25.927  1.00  0.00     0.020 A 
ATOM     73  C   UNL A   1      41.900  21.600  26.931  1.00  0.00     0.054 A 
BRANCH  73  74
ATOM     74  S   UNL A   1      41.183  19.948  26.720  1.00  0.00     0.124 S 
ATOM     75  O   UNL A   1      42.239  19.253  25.988  1.00  0.00    -0.237 OA
ATOM     76  O   UNL A   1      40.982  19.508  28.099  1.00  0.00    -0.237 OA
ATOM     77  O   UNL A   1      39.958  20.195  25.964  1.00  0.00    -0.744 OA
ENDBRANCH  73  74
ENDBRANCH  54  68
BRANCH  55  78
ATOM     78  C   UNL A   1      46.616  33.299  28.806  1.00  0.00    -0.014 A 
ATOM     79  C   UNL A   1      47.374  33.572  29.959  1.00  0.00     0.010 A 
ATOM     80  C   UNL A   1      46.371  34.338  27.890  1.00  0.00     0.010 A 
ATOM     81  C   UNL A   1      47.864  34.861  30.198  1.00  0.00     0.020 A 
ATOM     82  C   UNL A   1      46.883  35.620  28.111  1.00  0.00     0.020 A 
ATOM     83  C   UNL A   1      47.617  35.877  29.270  1.00  0.00     0.054 A 
BRANCH  83  84
ATOM     84  S   UNL A   1      48.307  37.528  29.574  1.00  0.00     0.124 S 
ATOM     85  O   UNL A   1      47.466  38.011  30.665  1.00  0.00    -0.237 OA
ATOM     86  O   UNL A   1      49.692  37.230  29.927  1.00  0.00    -0.237 OA
ATOM     87  O   UNL A   1      48.130  38.212  28.296  1.00  0.00    -0.744 OA
ENDBRANCH  83  84
ENDBRANCH  55  78
BRANCH  67  88
ATOM     88  C   UNL A   1      49.259  27.506  25.940  1.00  0.00    -0.014 A 
ATOM     89  C   UNL A   1      50.405  27.254  26.714  1.00  0.00     0.010 A 
ATOM     90  C   UNL A   1      49.346  27.396  24.539  1.00  0.00     0.010 A 
ATOM     91  C   UNL A   1      51.619  26.929  26.099  1.00  0.00     0.020 A 
ATOM     92  C   UNL A   1      50.549  27.043  23.922  1.00  0.00     0.020 A 
ATOM     93  C   UNL A   1      51.683  26.827  24.706  1.00  0.00     0.054 A 
BRANCH  93  94
ATOM     94  S   UNL A   1      53.259  26.363  23.934  1.00  0.00     0.124 S 
ATOM     95  O   UNL A   1      54.194  27.283  24.574  1.00  0.00    -0.237 OA
ATOM     96  O   UNL A   1      53.400  24.958  24.311  1.00  0.00    -0.237 OA
ATOM     97  O   UNL A   1      53.030  26.598  22.509  1.00  0.00    -0.744 OA
ENDBRANCH  93  94
ENDBRANCH  67  88
ENDBRANCH  41  42
ENDBRANCH  34  36
ENDBRANCH  33  34
ENDBRANCH  32  33
ENDBRANCH  31  32
ENDBRANCH  30  31
ENDBRANCH  29  30
ENDBRANCH   1  29
TORSDOF 24
ENDMDL
MODEL 3
REMARK VINA RESULT:      -9.1      4.713      9.714
REMARK SMILES COc1cc(C(=O)N[C@H]2CCCC[C@H]2C(=O)OCCOCCOCCOC(=O)c2ccc(-c3c4nc(c(-c5ccc(S(=O)(=O)[O-])cc5)c5ccc([nH]5)c(-c5ccc(S(=O)(=O)[O-])cc5)c5nc(c(-c6ccc(S(=O)(=O)[O-])cc6)c6ccc3[nH]6)C=C5)C=C4)cc2)cc(Cl)c1OC
REMARK SMILES IDX 21 1 20 2 19 3 18 4 17 5 15 6 16 7 14 8 9 9 10 10 11 11
REMARK SMILES IDX 13 12 12 13 8 14 6 15 7 16 5 18 3 19 4 20 92 21 90 22 89 23
REMARK SMILES IDX 91 24 2 25 1 26 93 27 94 28 22 29 23 30 24 31 25 32 26 33
REMARK SMILES IDX 27 34 28 35 29 36 30 37 88 38 31 39 87 40 32 41 33 42 34 43
REMARK SMILES IDX 81 44 35 45 86 46 80 47 82 48 36 49 85 50 79 51 78 52 37 54
REMARK SMILES IDX 67 55 48 56 66 57 49 58 52 59 65 60 83 61 50 62 51 63 64 65
REMARK SMILES IDX 84 66 53 67 38 68 39 69 47 70 40 71 46 72 41 73 42 74 43 75
REMARK SMILES IDX 44 76 45 77 68 78 69 79 77 80 70 81 76 82 71 83 72 84 73 85
REMARK SMILES IDX 74 86 75 87 54 88 55 89 63 90 56 91 62 92 57 93 58 94 59 95
REMARK SMILES IDX 60 96 61 97
REMARK H PARENT 8 17 82 53 52 64
REMARK Flexibility Score: inf
ROOT
ATOM      1  C   UNL A   1      34.747  32.147  29.077  1.00  0.00     0.188 C 
ENDROOT
BRANCH   1   2
ATOM      2  O   UNL A   1      34.083  31.711  27.896  1.00  0.00    -0.376 OA
BRANCH   2   3
ATOM      3  C   UNL A   1      34.495  30.465  27.341  1.00  0.00     0.202 C 
BRANCH   3   4
ATOM      4  C   UNL A   1      35.671  29.741  28.020  1.00  0.00     0.261 C 
BRANCH   4   5
ATOM      5  O   UNL A   1      36.958  29.891  27.373  1.00  0.00    -0.463 OA
BRANCH   5   6
ATOM      6  C   UNL A   1      37.982  30.125  28.231  1.00  0.00     0.311 C 
ATOM      7  O   UNL A   1      38.184  31.211  28.769  1.00  0.00    -0.252 OA
BRANCH   6   8
ATOM      8  C   UNL A   1      38.840  28.921  28.591  1.00  0.00     0.121 C 
ATOM      9  C   UNL A   1      39.549  28.020  27.538  1.00  0.00     0.096 C 
ATOM     10  C   UNL A   1      40.097  26.804  28.308  1.00  0.00     0.026 C 
ATOM     11  C   UNL A   1      41.054  27.188  29.436  1.00  0.00     0.002 C 
ATOM     12  C   UNL A   1      39.793  29.333  29.724  1.00  0.00     0.017 C 
ATOM     13  C   UNL A   1      40.384  28.119  30.430  1.00  0.00     0.001 C 
BRANCH   9  14
ATOM     14  N   UNL A   1      40.472  28.726  26.620  1.00  0.00    -0.348 N 
ATOM     15  C   UNL A   1      41.611  28.455  25.893  1.00  0.00     0.251 C 
ATOM     16  O   UNL A   1      41.981  29.264  25.042  1.00  0.00    -0.269 OA
ATOM     17  H   UNL A   1      40.190  29.661  26.492  1.00  0.00     0.164 HD
BRANCH  15  18
ATOM     18  C   UNL A   1      42.509  27.312  26.155  1.00  0.00     0.045 A 
ATOM     19  C   UNL A   1      43.163  25.053  25.525  1.00  0.00     0.163 A 
ATOM     20  C   UNL A   1      42.274  26.130  25.433  1.00  0.00     0.064 A 
ATOM     21  C   UNL A   1      44.313  25.183  26.324  1.00  0.00     0.179 A 
ATOM     22  C   UNL A   1      44.462  26.309  27.149  1.00  0.00     0.087 A 
ATOM     23  C   UNL A   1      43.533  27.355  27.097  1.00  0.00     0.038 A 
ATOM     24  Cl  UNL A   1      45.794  26.476  28.236  1.00  0.00    -0.080 Cl
BRANCH  19  25
ATOM     25  O   UNL A   1      43.020  23.873  24.842  1.00  0.00    -0.493 OA
ATOM     26  C   UNL A   1      42.678  22.721  25.605  1.00  0.00     0.278 C 
ENDBRANCH  19  25
BRANCH  21  27
ATOM     27  O   UNL A   1      45.224  24.152  26.318  1.00  0.00    -0.491 OA
ATOM     28  C   UNL A   1      46.396  24.470  25.560  1.00  0.00     0.278 C 
ENDBRANCH  21  27
ENDBRANCH  15  18
ENDBRANCH   9  14
ENDBRANCH   6   8
ENDBRANCH   5   6
ENDBRANCH   4   5
ENDBRANCH   3   4
ENDBRANCH   2   3
ENDBRANCH   1   2
BRANCH   1  29
ATOM     29  C   UNL A   1      34.548  33.609  29.472  1.00  0.00     0.188 C 
BRANCH  29  30
ATOM     30  O   UNL A   1      33.738  33.836  30.619  1.00  0.00    -0.376 OA
BRANCH  30  31
ATOM     31  C   UNL A   1      33.933  35.097  31.274  1.00  0.00     0.202 C 
BRANCH  31  32
ATOM     32  C   UNL A   1      34.356  35.029  32.760  1.00  0.00     0.261 C 
BRANCH  32  33
ATOM     33  O   UNL A   1      34.721  33.717  33.247  1.00  0.00    -0.460 OA
BRANCH  33  34
ATOM     34  C   UNL A   1      35.591  33.651  34.282  1.00  0.00     0.338 C 
ATOM     35  O   UNL A   1      35.317  33.793  35.463  1.00  0.00    -0.246 OA
BRANCH  34  36
ATOM     36  C   UNL A   1      36.884  33.099  33.792  1.00  0.00     0.060 A 
ATOM     37  C   UNL A   1      38.008  33.221  34.623  1.00  0.00     0.016 A 
ATOM     38  C   UNL A   1      36.995  32.421  32.575  1.00  0.00     0.016 A 
ATOM     39  C   UNL A   1      39.249  32.722  34.216  1.00  0.00     0.010 A 
ATOM     40  C   UNL A   1      38.243  31.930  32.163  1.00  0.00     0.010 A 
ATOM     41  C   UNL A   1      39.386  32.115  32.962  1.00  0.00    -0.014 A 
BRANCH  41  42
ATOM     42  C   UNL A   1      40.742  31.885  32.394  1.00  0.00     0.031 A 
ATOM     43  C   UNL A   1      41.307  32.931  31.463  1.00  0.00     0.074 A 
ATOM     44  C   UNL A   1      41.484  30.805  32.700  1.00  0.00     0.049 A 
ATOM     45  N   UNL A   1      42.450  32.948  30.827  1.00  0.00    -0.248 NA
ATOM     46  C   UNL A   1      40.464  34.114  31.221  1.00  0.00     0.031 C 
ATOM     47  C   UNL A   1      41.094  29.736  33.618  1.00  0.00     0.029 A 
ATOM     48  N   UNL A   1      42.732  30.430  32.260  1.00  0.00    -0.354 N 
ATOM     49  C   UNL A   1      42.461  34.136  30.105  1.00  0.00     0.074 A 
ATOM     50  C   UNL A   1      41.200  34.797  30.357  1.00  0.00     0.031 C 
ATOM     51  C   UNL A   1      42.083  28.823  33.666  1.00  0.00     0.029 A 
ATOM     52  C   UNL A   1      43.161  29.223  32.761  1.00  0.00     0.049 A 
ATOM     53  H   UNL A   1      43.271  30.977  31.642  1.00  0.00     0.167 HD
ATOM     54  C   UNL A   1      43.432  34.641  29.307  1.00  0.00     0.031 A 
ATOM     55  C   UNL A   1      44.281  28.514  32.508  1.00  0.00     0.031 A 
ATOM     56  C   UNL A   1      44.682  33.988  29.034  1.00  0.00     0.049 A 
ATOM     57  C   UNL A   1      45.314  29.057  31.549  1.00  0.00     0.074 A 
ATOM     58  C   UNL A   1      45.729  34.434  28.245  1.00  0.00     0.029 A 
ATOM     59  N   UNL A   1      45.056  32.749  29.529  1.00  0.00    -0.354 N 
ATOM     60  N   UNL A   1      45.320  30.194  30.896  1.00  0.00    -0.248 NA
ATOM     61  C   UNL A   1      46.498  28.217  31.300  1.00  0.00     0.031 C 
ATOM     62  C   UNL A   1      46.710  33.439  28.216  1.00  0.00     0.029 A 
ATOM     63  C   UNL A   1      46.303  32.402  29.040  1.00  0.00     0.049 A 
ATOM     64  H   UNL A   1      44.514  32.198  30.138  1.00  0.00     0.167 HD
ATOM     65  C   UNL A   1      46.518  30.219  30.185  1.00  0.00     0.074 A 
ATOM     66  C   UNL A   1      47.216  28.991  30.496  1.00  0.00     0.031 C 
ATOM     67  C   UNL A   1      46.998  31.178  29.354  1.00  0.00     0.031 A 
BRANCH  54  68
ATOM     68  C   UNL A   1      43.156  35.961  28.639  1.00  0.00    -0.014 A 
ATOM     69  C   UNL A   1      43.596  37.171  29.206  1.00  0.00     0.010 A 
ATOM     70  C   UNL A   1      42.472  35.988  27.411  1.00  0.00     0.010 A 
ATOM     71  C   UNL A   1      43.321  38.387  28.575  1.00  0.00     0.020 A 
ATOM     72  C   UNL A   1      42.220  37.199  26.762  1.00  0.00     0.020 A 
ATOM     73  C   UNL A   1      42.631  38.392  27.360  1.00  0.00     0.054 A 
BRANCH  73  74
ATOM     74  S   UNL A   1      42.300  39.984  26.555  1.00  0.00     0.124 S 
ATOM     75  O   UNL A   1      42.174  40.880  27.702  1.00  0.00    -0.237 OA
ATOM     76  O   UNL A   1      43.491  40.180  25.733  1.00  0.00    -0.237 OA
ATOM     77  O   UNL A   1      41.065  39.747  25.811  1.00  0.00    -0.744 OA
ENDBRANCH  73  74
ENDBRANCH  54  68
BRANCH  55  78
ATOM     78  C   UNL A   1      44.490  27.188  33.157  1.00  0.00    -0.014 A 
ATOM     79  C   UNL A   1      45.136  27.090  34.402  1.00  0.00     0.010 A 
ATOM     80  C   UNL A   1      44.066  26.010  32.515  1.00  0.00     0.010 A 
ATOM     81  C   UNL A   1      45.367  25.839  34.986  1.00  0.00     0.020 A 
ATOM     82  C   UNL A   1      44.270  24.761  33.107  1.00  0.00     0.020 A 
ATOM     83  C   UNL A   1      44.929  24.682  34.335  1.00  0.00     0.054 A 
BRANCH  83  84
ATOM     84  S   UNL A   1      45.193  23.074  35.135  1.00  0.00     0.124 S 
ATOM     85  O   UNL A   1      43.865  22.473  35.053  1.00  0.00    -0.237 OA
ATOM     86  O   UNL A   1      46.216  22.467  34.290  1.00  0.00    -0.237 OA
ATOM     87  O   UNL A   1      45.637  23.431  36.480  1.00  0.00    -0.744 OA
ENDBRANCH  83  84
ENDBRANCH  55  78
BRANCH  67  88
ATOM     88  C   UNL A   1      48.363  30.970  28.747  1.00  0.00    -0.014 A 
ATOM     89  C   UNL A   1      48.525  30.333  27.504  1.00  0.00     0.010 A 
ATOM     90  C   UNL A   1      49.498  31.480  29.404  1.00  0.00     0.010 A 
ATOM     91  C   UNL A   1      49.799  30.182  26.945  1.00  0.00     0.020 A 
ATOM     92  C   UNL A   1      50.769  31.357  28.836  1.00  0.00     0.020 A 
ATOM     93  C   UNL A   1      50.914  30.695  27.616  1.00  0.00     0.054 A 
BRANCH  93  94
ATOM     94  S   UNL A   1      52.551  30.524  26.852  1.00  0.00     0.124 S 
ATOM     95  O   UNL A   1      52.776  29.084  26.935  1.00  0.00    -0.237 OA
ATOM     96  O   UNL A   1      52.334  31.050  25.506  1.00  0.00    -0.237 OA
ATOM     97  O   UNL A   1      53.417  31.340  27.700  1.00  0.00    -0.744 OA
ENDBRANCH  93  94
ENDBRANCH  67  88
ENDBRANCH  41  42
ENDBRANCH  34  36
ENDBRANCH  33  34
ENDBRANCH  32  33
ENDBRANCH  31  32
ENDBRANCH  30  31
ENDBRANCH  29  30
ENDBRANCH   1  29
TORSDOF 24
ENDMDL
