MODEL 1
REMARK VINA RESULT:      -9.9      0.000      0.000
REMARK SMILES C[C@@H](C(=O)OCCOCCOCCOC(=O)c1ccc(-c2c3nc(c(-c4ccc(S(=O)(=O)[O-])cc4)c4ccc([nH]4)c(-c4ccc(S(=O)(=O)[O-])cc4)c4nc(c(-c5ccc(S(=O)(=O)[O-])cc5)c5ccc2[nH]5)C=C4)C=C3)cc1)c1ccc(N[C@H]2CCC[C@@H]2O)cc1F
REMARK SMILES IDX 9 1 8 2 7 3 6 4 5 5 3 6 4 7 2 8 1 9 77 10 78 11 89 12 79 13
REMARK SMILES IDX 88 14 90 15 80 16 81 17 82 19 83 20 86 21 84 22 85 23 87 24
REMARK SMILES IDX 10 26 11 27 12 28 13 29 14 30 15 31 16 32 17 33 18 34 76 35
REMARK SMILES IDX 19 36 75 37 20 38 21 39 22 40 69 41 23 42 74 43 68 44 70 45
REMARK SMILES IDX 24 46 73 47 67 48 66 49 25 51 55 52 36 53 54 54 37 55 40 56
REMARK SMILES IDX 53 57 71 58 38 59 39 60 52 62 72 63 41 64 26 65 27 66 35 67
REMARK SMILES IDX 28 68 34 69 29 70 30 71 31 72 32 73 33 74 56 75 57 76 65 77
REMARK SMILES IDX 58 78 64 79 59 80 60 81 61 82 62 83 63 84 42 85 43 86 51 87
REMARK SMILES IDX 44 88 50 89 45 90 46 91 47 92 48 93 49 94
REMARK H PARENT 81 18 87 25 70 50 40 61
REMARK Flexibility Score: inf
ROOT
ATOM      1  C   UNL A   1      34.167  30.408  27.369  1.00  0.00     0.188 C 
ENDROOT
BRANCH   1   2
ATOM      2  O   UNL A   1      32.809  30.702  27.076  1.00  0.00    -0.376 OA
BRANCH   2   3
ATOM      3  C   UNL A   1      31.891  29.617  26.964  1.00  0.00     0.202 C 
BRANCH   3   4
ATOM      4  C   UNL A   1      32.346  28.271  26.366  1.00  0.00     0.261 C 
BRANCH   4   5
ATOM      5  O   UNL A   1      31.390  27.643  25.483  1.00  0.00    -0.463 OA
BRANCH   5   6
ATOM      6  C   UNL A   1      31.786  26.476  24.904  1.00  0.00     0.313 C 
ATOM      7  O   UNL A   1      32.930  26.278  24.512  1.00  0.00    -0.252 OA
BRANCH   6   8
ATOM      8  C   UNL A   1      30.664  25.424  24.800  1.00  0.00     0.129 C 
ATOM      9  C   UNL A   1      29.563  25.583  25.860  1.00  0.00     0.025 C 
BRANCH   8  10
ATOM     10  C   UNL A   1      31.166  23.999  24.548  1.00  0.00     0.002 A 
ATOM     11  C   UNL A   1      31.261  23.387  23.290  1.00  0.00     0.010 A 
ATOM     12  C   UNL A   1      31.647  23.254  25.630  1.00  0.00     0.129 A 
ATOM     13  C   UNL A   1      31.837  22.101  23.136  1.00  0.00     0.026 A 
ATOM     14  C   UNL A   1      32.207  21.984  25.474  1.00  0.00     0.065 A 
ATOM     15  F   UNL A   1      31.641  23.783  26.860  1.00  0.00    -0.207 F 
ATOM     16  C   UNL A   1      32.341  21.381  24.219  1.00  0.00     0.037 A 
BRANCH  16  17
ATOM     17  N   UNL A   1      33.039  20.195  24.148  1.00  0.00    -0.380 N 
ATOM     18  H   UNL A   1      34.008  20.315  24.023  1.00  0.00     0.160 HD
BRANCH  17  19
ATOM     19  C   UNL A   1      32.627  18.793  24.222  1.00  0.00     0.107 C 
ATOM     20  C   UNL A   1      32.877  18.020  22.937  1.00  0.00     0.027 C 
ATOM     21  C   UNL A   1      33.247  17.954  25.346  1.00  0.00     0.136 C 
ATOM     22  C   UNL A   1      33.494  16.686  23.345  1.00  0.00     0.005 C 
ATOM     23  C   UNL A   1      33.130  16.530  24.811  1.00  0.00     0.034 C 
BRANCH  21  24
ATOM     24  O   UNL A   1      32.545  18.099  26.573  1.00  0.00    -0.391 OA
ATOM     25  H   UNL A   1      31.779  17.504  26.580  1.00  0.00     0.211 HD
ENDBRANCH  21  24
ENDBRANCH  17  19
ENDBRANCH  16  17
ENDBRANCH   8  10
ENDBRANCH   6   8
ENDBRANCH   5   6
ENDBRANCH   4   5
ENDBRANCH   3   4
ENDBRANCH   2   3
ENDBRANCH   1   2
BRANCH   1  26
ATOM     26  C   UNL A   1      35.042  31.517  27.981  1.00  0.00     0.188 C 
BRANCH  26  27
ATOM     27  O   UNL A   1      34.439  32.276  29.000  1.00  0.00    -0.376 OA
BRANCH  27  28
ATOM     28  C   UNL A   1      35.132  33.364  29.583  1.00  0.00     0.202 C 
BRANCH  28  29
ATOM     29  C   UNL A   1      35.787  33.354  30.983  1.00  0.00     0.261 C 
BRANCH  29  30
ATOM     30  O   UNL A   1      37.047  32.695  31.150  1.00  0.00    -0.460 OA
BRANCH  30  31
ATOM     31  C   UNL A   1      37.011  31.353  31.319  1.00  0.00     0.338 C 
ATOM     32  O   UNL A   1      36.052  30.684  31.687  1.00  0.00    -0.246 OA
BRANCH  31  33
ATOM     33  C   UNL A   1      38.248  30.787  30.746  1.00  0.00     0.060 A 
ATOM     34  C   UNL A   1      39.200  30.253  31.618  1.00  0.00     0.016 A 
ATOM     35  C   UNL A   1      38.471  30.769  29.367  1.00  0.00     0.016 A 
ATOM     36  C   UNL A   1      40.371  29.693  31.112  1.00  0.00     0.010 A 
ATOM     37  C   UNL A   1      39.671  30.243  28.866  1.00  0.00     0.010 A 
ATOM     38  C   UNL A   1      40.638  29.713  29.736  1.00  0.00    -0.014 A 
BRANCH  38  39
ATOM     39  C   UNL A   1      42.000  29.358  29.253  1.00  0.00     0.031 A 
ATOM     40  C   UNL A   1      42.223  27.975  28.696  1.00  0.00     0.074 A 
ATOM     41  C   UNL A   1      42.990  30.269  29.166  1.00  0.00     0.049 A 
ATOM     42  N   UNL A   1      43.301  27.457  28.166  1.00  0.00    -0.248 NA
ATOM     43  C   UNL A   1      41.064  27.067  28.712  1.00  0.00     0.031 C 
ATOM     44  C   UNL A   1      42.858  31.689  29.492  1.00  0.00     0.029 A 
ATOM     45  N   UNL A   1      44.272  30.156  28.673  1.00  0.00    -0.354 N 
ATOM     46  C   UNL A   1      42.963  26.154  27.821  1.00  0.00     0.074 A 
ATOM     47  C   UNL A   1      41.574  25.966  28.182  1.00  0.00     0.031 C 
ATOM     48  C   UNL A   1      43.982  32.326  29.117  1.00  0.00     0.029 A 
ATOM     49  C   UNL A   1      44.944  31.354  28.589  1.00  0.00     0.049 A 
ATOM     50  H   UNL A   1      44.670  29.296  28.406  1.00  0.00     0.167 HD
ATOM     51  C   UNL A   1      43.740  25.190  27.272  1.00  0.00     0.031 A 
ATOM     52  C   UNL A   1      46.183  31.643  28.131  1.00  0.00     0.031 A 
ATOM     53  C   UNL A   1      45.123  25.363  26.914  1.00  0.00     0.049 A 
ATOM     54  C   UNL A   1      47.059  30.532  27.598  1.00  0.00     0.074 A 
ATOM     55  C   UNL A   1      46.006  24.413  26.427  1.00  0.00     0.029 A 
ATOM     56  N   UNL A   1      45.822  26.555  26.991  1.00  0.00    -0.354 N 
ATOM     57  N   UNL A   1      46.751  29.279  27.361  1.00  0.00    -0.248 NA
ATOM     58  C   UNL A   1      48.455  30.875  27.284  1.00  0.00     0.031 C 
ATOM     59  C   UNL A   1      47.256  25.018  26.272  1.00  0.00     0.029 A 
ATOM     60  C   UNL A   1      47.133  26.361  26.589  1.00  0.00     0.049 A 
ATOM     61  H   UNL A   1      45.444  27.414  27.290  1.00  0.00     0.167 HD
ATOM     62  C   UNL A   1      47.916  28.688  26.873  1.00  0.00     0.074 A 
ATOM     63  C   UNL A   1      48.919  29.727  26.806  1.00  0.00     0.031 C 
ATOM     64  C   UNL A   1      48.136  27.393  26.528  1.00  0.00     0.031 A 
BRANCH  51  65
ATOM     65  C   UNL A   1      43.137  23.822  27.106  1.00  0.00    -0.014 A 
ATOM     66  C   UNL A   1      43.009  22.932  28.187  1.00  0.00     0.010 A 
ATOM     67  C   UNL A   1      42.635  23.449  25.844  1.00  0.00     0.010 A 
ATOM     68  C   UNL A   1      42.406  21.685  28.001  1.00  0.00     0.020 A 
ATOM     69  C   UNL A   1      42.008  22.215  25.663  1.00  0.00     0.020 A 
ATOM     70  C   UNL A   1      41.907  21.336  26.741  1.00  0.00     0.054 A 
BRANCH  70  71
ATOM     71  S   UNL A   1      41.091  19.729  26.540  1.00  0.00     0.124 S 
ATOM     72  O   UNL A   1      40.936  19.295  27.926  1.00  0.00    -0.237 OA
ATOM     73  O   UNL A   1      39.852  20.085  25.852  1.00  0.00    -0.237 OA
ATOM     74  O   UNL A   1      42.041  18.952  25.748  1.00  0.00    -0.744 OA
ENDBRANCH  70  71
ENDBRANCH  51  65
BRANCH  52  75
ATOM     75  C   UNL A   1      46.702  33.041  28.202  1.00  0.00    -0.014 A 
ATOM     76  C   UNL A   1      47.365  33.525  29.346  1.00  0.00     0.010 A 
ATOM     77  C   UNL A   1      46.503  33.918  27.117  1.00  0.00     0.010 A 
ATOM     78  C   UNL A   1      47.808  34.852  29.404  1.00  0.00     0.020 A 
ATOM     79  C   UNL A   1      46.978  35.230  27.155  1.00  0.00     0.020 A 
ATOM     80  C   UNL A   1      47.617  35.694  28.304  1.00  0.00     0.054 A 
BRANCH  80  81
ATOM     81  S   UNL A   1      48.248  37.394  28.373  1.00  0.00     0.124 S 
ATOM     82  O   UNL A   1      47.429  37.980  29.428  1.00  0.00    -0.237 OA
ATOM     83  O   UNL A   1      49.658  37.192  28.702  1.00  0.00    -0.237 OA
ATOM     84  O   UNL A   1      47.996  37.905  27.027  1.00  0.00    -0.744 OA
ENDBRANCH  80  81
ENDBRANCH  52  75
BRANCH  64  85
ATOM     85  C   UNL A   1      49.514  27.007  26.045  1.00  0.00    -0.014 A 
ATOM     86  C   UNL A   1      50.443  26.392  26.903  1.00  0.00     0.010 A 
ATOM     87  C   UNL A   1      49.857  27.186  24.690  1.00  0.00     0.010 A 
ATOM     88  C   UNL A   1      51.695  25.991  26.427  1.00  0.00     0.020 A 
ATOM     89  C   UNL A   1      51.097  26.757  24.204  1.00  0.00     0.020 A 
ATOM     90  C   UNL A   1      52.014  26.174  25.078  1.00  0.00     0.054 A 
BRANCH  90  91
ATOM     91  S   UNL A   1      53.628  25.601  24.478  1.00  0.00     0.124 S 
ATOM     92  O   UNL A   1      53.601  24.185  24.835  1.00  0.00    -0.237 OA
ATOM     93  O   UNL A   1      53.558  25.890  23.048  1.00  0.00    -0.237 OA
ATOM     94  O   UNL A   1      54.586  26.414  25.226  1.00  0.00    -0.744 OA
ENDBRANCH  90  91
ENDBRANCH  64  85
ENDBRANCH  38  39
ENDBRANCH  31  33
ENDBRANCH  30  31
ENDBRANCH  29  30
ENDBRANCH  28  29
ENDBRANCH  27  28
ENDBRANCH  26  27
ENDBRANCH   1  26
TORSDOF 24
ENDMDL
MODEL 2
REMARK VINA RESULT:      -9.3      6.246     10.723
REMARK SMILES C[C@@H](C(=O)OCCOCCOCCOC(=O)c1ccc(-c2c3nc(c(-c4ccc(S(=O)(=O)[O-])cc4)c4ccc([nH]4)c(-c4ccc(S(=O)(=O)[O-])cc4)c4nc(c(-c5ccc(S(=O)(=O)[O-])cc5)c5ccc2[nH]5)C=C4)C=C3)cc1)c1ccc(N[C@H]2CCC[C@@H]2O)cc1F
REMARK SMILES IDX 9 1 8 2 7 3 6 4 5 5 3 6 4 7 2 8 1 9 77 10 78 11 89 12 79 13
REMARK SMILES IDX 88 14 90 15 80 16 81 17 82 19 83 20 86 21 84 22 85 23 87 24
REMARK SMILES IDX 10 26 11 27 12 28 13 29 14 30 15 31 16 32 17 33 18 34 76 35
REMARK SMILES IDX 19 36 75 37 20 38 21 39 22 40 69 41 23 42 74 43 68 44 70 45
REMARK SMILES IDX 24 46 73 47 67 48 66 49 25 51 55 52 36 53 54 54 37 55 40 56
REMARK SMILES IDX 53 57 71 58 38 59 39 60 52 62 72 63 41 64 26 65 27 66 35 67
REMARK SMILES IDX 28 68 34 69 29 70 30 71 31 72 32 73 33 74 56 75 57 76 65 77
REMARK SMILES IDX 58 78 64 79 59 80 60 81 61 82 62 83 63 84 42 85 43 86 51 87
REMARK SMILES IDX 44 88 50 89 45 90 46 91 47 92 48 93 49 94
REMARK H PARENT 81 18 87 25 70 50 40 61
REMARK Flexibility Score: inf
ROOT
ATOM      1  C   UNL A   1      34.478  30.777  27.775  1.00  0.00     0.188 C 
ENDROOT
BRANCH   1   2
ATOM      2  O   UNL A   1      33.185  30.957  27.215  1.00  0.00    -0.376 OA
BRANCH   2   3
ATOM      3  C   UNL A   1      32.756  30.053  26.199  1.00  0.00     0.202 C 
BRANCH   3   4
ATOM      4  C   UNL A   1      33.556  28.767  25.915  1.00  0.00     0.261 C 
BRANCH   4   5
ATOM      5  O   UNL A   1      33.182  27.628  26.721  1.00  0.00    -0.463 OA
BRANCH   5   6
ATOM      6  C   UNL A   1      31.964  27.079  26.456  1.00  0.00     0.313 C 
ATOM      7  O   UNL A   1      31.040  27.084  27.261  1.00  0.00    -0.252 OA
BRANCH   6   8
ATOM      8  C   UNL A   1      31.854  26.462  25.048  1.00  0.00     0.129 C 
ATOM      9  C   UNL A   1      30.618  26.926  24.262  1.00  0.00     0.025 C 
BRANCH   8  10
ATOM     10  C   UNL A   1      32.171  24.964  24.997  1.00  0.00     0.002 A 
ATOM     11  C   UNL A   1      31.249  23.935  25.236  1.00  0.00     0.010 A 
ATOM     12  C   UNL A   1      33.453  24.561  24.609  1.00  0.00     0.129 A 
ATOM     13  C   UNL A   1      31.602  22.573  25.063  1.00  0.00     0.026 A 
ATOM     14  C   UNL A   1      33.798  23.217  24.447  1.00  0.00     0.065 A 
ATOM     15  F   UNL A   1      34.381  25.480  24.312  1.00  0.00    -0.207 F 
ATOM     16  C   UNL A   1      32.874  22.185  24.645  1.00  0.00     0.037 A 
BRANCH  16  17
ATOM     17  N   UNL A   1      33.264  20.904  24.318  1.00  0.00    -0.380 N 
ATOM     18  H   UNL A   1      34.186  20.849  23.977  1.00  0.00     0.160 HD
BRANCH  17  19
ATOM     19  C   UNL A   1      32.582  19.611  24.377  1.00  0.00     0.107 C 
ATOM     20  C   UNL A   1      32.400  18.961  23.015  1.00  0.00     0.027 C 
ATOM     21  C   UNL A   1      33.215  18.541  25.274  1.00  0.00     0.136 C 
ATOM     22  C   UNL A   1      32.782  17.493  23.179  1.00  0.00     0.005 C 
ATOM     23  C   UNL A   1      32.690  17.240  24.674  1.00  0.00     0.034 C 
BRANCH  21  24
ATOM     24  O   UNL A   1      32.818  18.676  26.631  1.00  0.00    -0.391 OA
ATOM     25  H   UNL A   1      32.094  19.319  26.694  1.00  0.00     0.211 HD
ENDBRANCH  21  24
ENDBRANCH  17  19
ENDBRANCH  16  17
ENDBRANCH   8  10
ENDBRANCH   6   8
ENDBRANCH   5   6
ENDBRANCH   4   5
ENDBRANCH   3   4
ENDBRANCH   2   3
ENDBRANCH   1   2
BRANCH   1  26
ATOM     26  C   UNL A   1      35.328  32.025  28.074  1.00  0.00     0.188 C 
BRANCH  26  27
ATOM     27  O   UNL A   1      34.790  32.916  29.020  1.00  0.00    -0.376 OA
BRANCH  27  28
ATOM     28  C   UNL A   1      34.236  34.150  28.602  1.00  0.00     0.202 C 
BRANCH  28  29
ATOM     29  C   UNL A   1      33.000  34.829  29.234  1.00  0.00     0.261 C 
BRANCH  29  30
ATOM     30  O   UNL A   1      33.198  35.791  30.276  1.00  0.00    -0.460 OA
BRANCH  30  31
ATOM     31  C   UNL A   1      32.868  35.402  31.529  1.00  0.00     0.338 C 
ATOM     32  O   UNL A   1      31.746  35.383  32.021  1.00  0.00    -0.246 OA
BRANCH  31  33
ATOM     33  C   UNL A   1      34.052  34.763  32.135  1.00  0.00     0.060 A 
ATOM     34  C   UNL A   1      35.268  35.452  32.106  1.00  0.00     0.016 A 
ATOM     35  C   UNL A   1      33.974  33.505  32.737  1.00  0.00     0.016 A 
ATOM     36  C   UNL A   1      36.401  34.888  32.685  1.00  0.00     0.010 A 
ATOM     37  C   UNL A   1      35.129  32.922  33.281  1.00  0.00     0.010 A 
ATOM     38  C   UNL A   1      36.356  33.604  33.247  1.00  0.00    -0.014 A 
BRANCH  38  39
ATOM     39  C   UNL A   1      37.629  32.922  33.611  1.00  0.00     0.031 A 
ATOM     40  C   UNL A   1      38.209  33.177  34.979  1.00  0.00     0.074 A 
ATOM     41  C   UNL A   1      38.191  31.986  32.821  1.00  0.00     0.049 A 
ATOM     42  N   UNL A   1      39.270  32.656  35.540  1.00  0.00    -0.248 NA
ATOM     43  C   UNL A   1      37.476  34.122  35.837  1.00  0.00     0.031 C 
ATOM     44  C   UNL A   1      37.634  31.505  31.558  1.00  0.00     0.029 A 
ATOM     45  N   UNL A   1      39.303  31.196  33.020  1.00  0.00    -0.354 N 
ATOM     46  C   UNL A   1      39.353  33.237  36.800  1.00  0.00     0.074 A 
ATOM     47  C   UNL A   1      38.225  34.134  36.929  1.00  0.00     0.031 C 
ATOM     48  C   UNL A   1      38.359  30.452  31.137  1.00  0.00     0.029 A 
ATOM     49  C   UNL A   1      39.475  30.225  32.059  1.00  0.00     0.049 A 
ATOM     50  H   UNL A   1      39.917  31.315  33.781  1.00  0.00     0.167 HD
ATOM     51  C   UNL A   1      40.294  33.059  37.758  1.00  0.00     0.031 A 
ATOM     52  C   UNL A   1      40.411  29.258  31.938  1.00  0.00     0.031 A 
ATOM     53  C   UNL A   1      41.422  32.175  37.640  1.00  0.00     0.049 A 
ATOM     54  C   UNL A   1      41.497  29.135  32.983  1.00  0.00     0.074 A 
ATOM     55  C   UNL A   1      42.467  31.997  38.531  1.00  0.00     0.029 A 
ATOM     56  N   UNL A   1      41.654  31.319  36.577  1.00  0.00    -0.354 N 
ATOM     57  N   UNL A   1      41.612  29.757  34.131  1.00  0.00    -0.248 NA
ATOM     58  C   UNL A   1      42.587  28.186  32.704  1.00  0.00     0.031 C 
ATOM     59  C   UNL A   1      43.363  31.079  37.977  1.00  0.00     0.029 A 
ATOM     60  C   UNL A   1      42.839  30.629  36.776  1.00  0.00     0.049 A 
ATOM     61  H   UNL A   1      41.065  31.215  35.795  1.00  0.00     0.167 HD
ATOM     62  C   UNL A   1      42.787  29.276  34.708  1.00  0.00     0.074 A 
ATOM     63  C   UNL A   1      43.321  28.280  33.806  1.00  0.00     0.031 C 
ATOM     64  C   UNL A   1      43.377  29.642  35.875  1.00  0.00     0.031 A 
BRANCH  51  65
ATOM     65  C   UNL A   1      40.194  33.910  38.995  1.00  0.00    -0.014 A 
ATOM     66  C   UNL A   1      39.560  33.449  40.162  1.00  0.00     0.010 A 
ATOM     67  C   UNL A   1      40.805  35.178  38.999  1.00  0.00     0.010 A 
ATOM     68  C   UNL A   1      39.523  34.254  41.305  1.00  0.00     0.020 A 
ATOM     69  C   UNL A   1      40.794  35.972  40.147  1.00  0.00     0.020 A 
ATOM     70  C   UNL A   1      40.143  35.508  41.291  1.00  0.00     0.054 A 
BRANCH  70  71
ATOM     71  S   UNL A   1      40.117  36.512  42.801  1.00  0.00     0.124 S 
ATOM     72  O   UNL A   1      39.804  37.839  42.274  1.00  0.00    -0.237 OA
ATOM     73  O   UNL A   1      39.059  35.881  43.584  1.00  0.00    -0.237 OA
ATOM     74  O   UNL A   1      41.466  36.362  43.342  1.00  0.00    -0.744 OA
ENDBRANCH  70  71
ENDBRANCH  51  65
BRANCH  52  75
ATOM     75  C   UNL A   1      40.404  28.351  30.751  1.00  0.00    -0.014 A 
ATOM     76  C   UNL A   1      39.368  27.422  30.539  1.00  0.00     0.010 A 
ATOM     77  C   UNL A   1      41.470  28.395  29.831  1.00  0.00     0.010 A 
ATOM     78  C   UNL A   1      39.404  26.555  29.439  1.00  0.00     0.020 A 
ATOM     79  C   UNL A   1      41.489  27.559  28.712  1.00  0.00     0.020 A 
ATOM     80  C   UNL A   1      40.462  26.635  28.530  1.00  0.00     0.054 A 
BRANCH  80  81
ATOM     81  S   UNL A   1      40.464  25.544  27.080  1.00  0.00     0.124 S 
ATOM     82  O   UNL A   1      39.096  25.038  27.077  1.00  0.00    -0.237 OA
ATOM     83  O   UNL A   1      40.803  26.463  25.996  1.00  0.00    -0.237 OA
ATOM     84  O   UNL A   1      41.497  24.558  27.397  1.00  0.00    -0.744 OA
ENDBRANCH  80  81
ENDBRANCH  52  75
BRANCH  64  85
ATOM     85  C   UNL A   1      44.674  28.971  36.260  1.00  0.00    -0.014 A 
ATOM     86  C   UNL A   1      45.867  29.237  35.566  1.00  0.00     0.010 A 
ATOM     87  C   UNL A   1      44.719  28.126  37.386  1.00  0.00     0.010 A 
ATOM     88  C   UNL A   1      47.072  28.650  35.968  1.00  0.00     0.020 A 
ATOM     89  C   UNL A   1      45.927  27.562  37.811  1.00  0.00     0.020 A 
ATOM     90  C   UNL A   1      47.094  27.817  37.091  1.00  0.00     0.054 A 
BRANCH  90  91
ATOM     91  S   UNL A   1      48.680  27.107  37.618  1.00  0.00     0.124 S 
ATOM     92  O   UNL A   1      48.494  26.985  39.061  1.00  0.00    -0.237 OA
ATOM     93  O   UNL A   1      48.725  25.847  36.880  1.00  0.00    -0.237 OA
ATOM     94  O   UNL A   1      49.663  28.104  37.198  1.00  0.00    -0.744 OA
ENDBRANCH  90  91
ENDBRANCH  64  85
ENDBRANCH  38  39
ENDBRANCH  31  33
ENDBRANCH  30  31
ENDBRANCH  29  30
ENDBRANCH  28  29
ENDBRANCH  27  28
ENDBRANCH  26  27
ENDBRANCH   1  26
TORSDOF 24
ENDMDL
MODEL 3
REMARK VINA RESULT:      -8.5      6.501      9.196
REMARK SMILES C[C@@H](C(=O)OCCOCCOCCOC(=O)c1ccc(-c2c3nc(c(-c4ccc(S(=O)(=O)[O-])cc4)c4ccc([nH]4)c(-c4ccc(S(=O)(=O)[O-])cc4)c4nc(c(-c5ccc(S(=O)(=O)[O-])cc5)c5ccc2[nH]5)C=C4)C=C3)cc1)c1ccc(N[C@H]2CCC[C@@H]2O)cc1F
REMARK SMILES IDX 9 1 8 2 7 3 6 4 5 5 3 6 4 7 2 8 1 9 77 10 78 11 89 12 79 13
REMARK SMILES IDX 88 14 90 15 80 16 81 17 82 19 83 20 86 21 84 22 85 23 87 24
REMARK SMILES IDX 10 26 11 27 12 28 13 29 14 30 15 31 16 32 17 33 18 34 76 35
REMARK SMILES IDX 19 36 75 37 20 38 21 39 22 40 69 41 23 42 74 43 68 44 70 45
REMARK SMILES IDX 24 46 73 47 67 48 66 49 25 51 55 52 36 53 54 54 37 55 40 56
REMARK SMILES IDX 53 57 71 58 38 59 39 60 52 62 72 63 41 64 26 65 27 66 35 67
REMARK SMILES IDX 28 68 34 69 29 70 30 71 31 72 32 73 33 74 56 75 57 76 65 77
REMARK SMILES IDX 58 78 64 79 59 80 60 81 61 82 62 83 63 84 42 85 43 86 51 87
REMARK SMILES IDX 44 88 50 89 45 90 46 91 47 92 48 93 49 94
REMARK H PARENT 81 18 87 25 70 50 40 61
REMARK Flexibility Score: inf
ROOT
ATOM      1  C   UNL A   1      33.407  30.667  27.508  1.00  0.00     0.188 C 
ENDROOT
BRANCH   1   2
ATOM      2  O   UNL A   1      32.244  30.653  26.693  1.00  0.00    -0.376 OA
BRANCH   2   3
ATOM      3  C   UNL A   1      31.799  29.404  26.169  1.00  0.00     0.202 C 
BRANCH   3   4
ATOM      4  C   UNL A   1      32.180  28.086  26.872  1.00  0.00     0.261 C 
BRANCH   4   5
ATOM      5  O   UNL A   1      31.064  27.241  27.227  1.00  0.00    -0.463 OA
BRANCH   5   6
ATOM      6  C   UNL A   1      30.788  26.220  26.370  1.00  0.00     0.313 C 
ATOM      7  O   UNL A   1      29.835  25.464  26.516  1.00  0.00    -0.252 OA
BRANCH   6   8
ATOM      8  C   UNL A   1      31.778  26.112  25.194  1.00  0.00     0.129 C 
ATOM      9  C   UNL A   1      31.101  26.021  23.818  1.00  0.00     0.025 C 
BRANCH   8  10
ATOM     10  C   UNL A   1      32.942  25.148  25.445  1.00  0.00     0.002 A 
ATOM     11  C   UNL A   1      32.984  24.179  26.458  1.00  0.00     0.010 A 
ATOM     12  C   UNL A   1      34.028  25.160  24.563  1.00  0.00     0.129 A 
ATOM     13  C   UNL A   1      34.055  23.256  26.553  1.00  0.00     0.026 A 
ATOM     14  C   UNL A   1      35.085  24.253  24.666  1.00  0.00     0.065 A 
ATOM     15  F   UNL A   1      34.045  26.020  23.536  1.00  0.00    -0.207 F 
ATOM     16  C   UNL A   1      35.117  23.258  25.649  1.00  0.00     0.037 A 
BRANCH  16  17
ATOM     17  N   UNL A   1      36.124  22.320  25.579  1.00  0.00    -0.380 N 
ATOM     18  H   UNL A   1      35.800  21.392  25.632  1.00  0.00     0.160 HD
BRANCH  17  19
ATOM     19  C   UNL A   1      37.576  22.428  25.444  1.00  0.00     0.107 C 
ATOM     20  C   UNL A   1      38.157  23.662  26.114  1.00  0.00     0.027 C 
ATOM     21  C   UNL A   1      38.403  21.242  25.955  1.00  0.00     0.136 C 
ATOM     22  C   UNL A   1      39.396  23.202  26.876  1.00  0.00     0.005 C 
ATOM     23  C   UNL A   1      39.763  21.873  26.238  1.00  0.00     0.034 C 
BRANCH  21  24
ATOM     24  O   UNL A   1      38.510  20.206  24.988  1.00  0.00    -0.391 OA
ATOM     25  H   UNL A   1      38.366  19.347  25.416  1.00  0.00     0.211 HD
ENDBRANCH  21  24
ENDBRANCH  17  19
ENDBRANCH  16  17
ENDBRANCH   8  10
ENDBRANCH   6   8
ENDBRANCH   5   6
ENDBRANCH   4   5
ENDBRANCH   3   4
ENDBRANCH   2   3
ENDBRANCH   1   2
BRANCH   1  26
ATOM     26  C   UNL A   1      34.180  31.989  27.662  1.00  0.00     0.188 C 
BRANCH  26  27
ATOM     27  O   UNL A   1      33.894  32.730  28.823  1.00  0.00    -0.376 OA
BRANCH  27  28
ATOM     28  C   UNL A   1      33.940  34.145  28.795  1.00  0.00     0.202 C 
BRANCH  28  29
ATOM     29  C   UNL A   1      32.906  35.081  29.459  1.00  0.00     0.261 C 
BRANCH  29  30
ATOM     30  O   UNL A   1      33.293  35.822  30.622  1.00  0.00    -0.460 OA
BRANCH  30  31
ATOM     31  C   UNL A   1      33.134  35.203  31.815  1.00  0.00     0.338 C 
ATOM     32  O   UNL A   1      32.079  35.012  32.408  1.00  0.00    -0.246 OA
BRANCH  31  33
ATOM     33  C   UNL A   1      34.416  34.567  32.174  1.00  0.00     0.060 A 
ATOM     34  C   UNL A   1      34.391  33.277  32.711  1.00  0.00     0.016 A 
ATOM     35  C   UNL A   1      35.635  35.222  31.978  1.00  0.00     0.016 A 
ATOM     36  C   UNL A   1      35.583  32.639  33.044  1.00  0.00     0.010 A 
ATOM     37  C   UNL A   1      36.830  34.590  32.355  1.00  0.00     0.010 A 
ATOM     38  C   UNL A   1      36.813  33.298  32.904  1.00  0.00    -0.014 A 
BRANCH  38  39
ATOM     39  C   UNL A   1      38.032  32.701  33.514  1.00  0.00     0.031 A 
ATOM     40  C   UNL A   1      38.975  31.934  32.621  1.00  0.00     0.074 A 
ATOM     41  C   UNL A   1      38.388  32.945  34.791  1.00  0.00     0.049 A 
ATOM     42  N   UNL A   1      40.122  31.376  32.910  1.00  0.00    -0.248 NA
ATOM     43  C   UNL A   1      38.583  31.808  31.208  1.00  0.00     0.031 C 
ATOM     44  C   UNL A   1      37.668  33.824  35.712  1.00  0.00     0.029 A 
ATOM     45  N   UNL A   1      39.505  32.560  35.499  1.00  0.00    -0.354 N 
ATOM     46  C   UNL A   1      40.570  30.801  31.727  1.00  0.00     0.074 A 
ATOM     47  C   UNL A   1      39.583  31.095  30.711  1.00  0.00     0.031 C 
ATOM     48  C   UNL A   1      38.401  33.973  36.830  1.00  0.00     0.029 A 
ATOM     49  C   UNL A   1      39.608  33.147  36.740  1.00  0.00     0.049 A 
ATOM     50  H   UNL A   1      40.170  31.923  35.149  1.00  0.00     0.167 HD
ATOM     51  C   UNL A   1      41.693  30.076  31.506  1.00  0.00     0.031 A 
ATOM     52  C   UNL A   1      40.564  33.045  37.690  1.00  0.00     0.031 A 
ATOM     53  C   UNL A   1      42.679  29.773  32.507  1.00  0.00     0.049 A 
ATOM     54  C   UNL A   1      41.767  32.163  37.446  1.00  0.00     0.074 A 
ATOM     55  C   UNL A   1      43.805  28.975  32.386  1.00  0.00     0.029 A 
ATOM     56  N   UNL A   1      42.670  30.254  33.805  1.00  0.00    -0.354 N 
ATOM     57  N   UNL A   1      42.133  31.550  36.346  1.00  0.00    -0.248 NA
ATOM     58  C   UNL A   1      42.679  31.949  38.581  1.00  0.00     0.031 C 
ATOM     59  C   UNL A   1      44.440  28.924  33.630  1.00  0.00     0.029 A 
ATOM     60  C   UNL A   1      43.753  29.750  34.504  1.00  0.00     0.049 A 
ATOM     61  H   UNL A   1      41.992  30.865  34.177  1.00  0.00     0.167 HD
ATOM     62  C   UNL A   1      43.314  30.878  36.659  1.00  0.00     0.074 A 
ATOM     63  C   UNL A   1      43.626  31.196  38.035  1.00  0.00     0.031 C 
ATOM     64  C   UNL A   1      44.062  30.058  35.877  1.00  0.00     0.031 A 
BRANCH  51  65
ATOM     65  C   UNL A   1      41.873  29.476  30.137  1.00  0.00    -0.014 A 
ATOM     66  C   UNL A   1      41.192  28.311  29.744  1.00  0.00     0.010 A 
ATOM     67  C   UNL A   1      42.702  30.135  29.210  1.00  0.00     0.010 A 
ATOM     68  C   UNL A   1      41.354  27.806  28.450  1.00  0.00     0.020 A 
ATOM     69  C   UNL A   1      42.844  29.649  27.909  1.00  0.00     0.020 A 
ATOM     70  C   UNL A   1      42.177  28.480  27.541  1.00  0.00     0.054 A 
BRANCH  70  71
ATOM     71  S   UNL A   1      42.335  27.827  25.856  1.00  0.00     0.124 S 
ATOM     72  O   UNL A   1      41.415  26.692  25.887  1.00  0.00    -0.237 OA
ATOM     73  O   UNL A   1      41.909  28.958  25.035  1.00  0.00    -0.237 OA
ATOM     74  O   UNL A   1      43.749  27.479  25.749  1.00  0.00    -0.744 OA
ENDBRANCH  70  71
ENDBRANCH  51  65
BRANCH  52  75
ATOM     75  C   UNL A   1      40.406  33.757  38.994  1.00  0.00    -0.014 A 
ATOM     76  C   UNL A   1      41.051  34.981  39.249  1.00  0.00     0.010 A 
ATOM     77  C   UNL A   1      39.619  33.184  40.013  1.00  0.00     0.010 A 
ATOM     78  C   UNL A   1      40.920  35.610  40.493  1.00  0.00     0.020 A 
ATOM     79  C   UNL A   1      39.453  33.827  41.241  1.00  0.00     0.020 A 
ATOM     80  C   UNL A   1      40.115  35.031  41.479  1.00  0.00     0.054 A 
BRANCH  80  81
ATOM     81  S   UNL A   1      39.909  35.886  43.066  1.00  0.00     0.124 S 
ATOM     82  O   UNL A   1      41.193  35.642  43.713  1.00  0.00    -0.237 OA
ATOM     83  O   UNL A   1      39.660  37.264  42.649  1.00  0.00    -0.237 OA
ATOM     84  O   UNL A   1      38.763  35.209  43.671  1.00  0.00    -0.744 OA
ENDBRANCH  80  81
ENDBRANCH  52  75
BRANCH  64  85
ATOM     85  C   UNL A   1      45.299  29.433  36.478  1.00  0.00    -0.014 A 
ATOM     86  C   UNL A   1      46.541  30.092  36.440  1.00  0.00     0.010 A 
ATOM     87  C   UNL A   1      45.202  28.208  37.166  1.00  0.00     0.010 A 
ATOM     88  C   UNL A   1      47.666  29.525  37.048  1.00  0.00     0.020 A 
ATOM     89  C   UNL A   1      46.318  27.654  37.802  1.00  0.00     0.020 A 
ATOM     90  C   UNL A   1      47.547  28.310  37.728  1.00  0.00     0.054 A 
BRANCH  90  91
ATOM     91  S   UNL A   1      49.013  27.622  38.548  1.00  0.00     0.124 S 
ATOM     92  O   UNL A   1      49.682  28.825  39.035  1.00  0.00    -0.237 OA
ATOM     93  O   UNL A   1      48.430  26.766  39.579  1.00  0.00    -0.237 OA
ATOM     94  O   UNL A   1      49.709  26.912  37.477  1.00  0.00    -0.744 OA
ENDBRANCH  90  91
ENDBRANCH  64  85
ENDBRANCH  38  39
ENDBRANCH  31  33
ENDBRANCH  30  31
ENDBRANCH  29  30
ENDBRANCH  28  29
ENDBRANCH  27  28
ENDBRANCH  26  27
ENDBRANCH   1  26
TORSDOF 24
ENDMDL
