MODEL 1
REMARK VINA RESULT:      -9.2      0.000      0.000
REMARK SMILES Cc1ccc2oc(C(=O)N[C@@H]3C=C[C@H](C(=O)OCCOCCOCCOC(=O)c4ccc(-c5c6nc(c(-c7ccc(S(=O)(=O)[O-])cc7)c7ccc([nH]7)c(-c7ccc(S(=O)(=O)[O-])cc7)c7nc(c(-c8ccc(S(=O)(=O)[O-])cc8)c8ccc5[nH]8)C=C7)C=C6)cc4)C3)cc2c1
REMARK SMILES IDX 22 1 21 2 20 3 19 4 18 5 17 6 15 7 16 8 14 9 11 10 12 11
REMARK SMILES IDX 89 12 13 13 10 14 8 15 9 16 7 18 1 19 2 20 3 21 92 22 4 23
REMARK SMILES IDX 91 24 5 25 90 26 6 27 23 28 24 29 25 30 26 31 27 32 28 33
REMARK SMILES IDX 29 34 30 35 88 36 31 37 87 38 32 39 33 40 34 41 81 42 35 43
REMARK SMILES IDX 86 44 80 45 82 46 36 47 85 48 79 49 78 50 37 52 67 53 48 54
REMARK SMILES IDX 66 55 49 56 52 57 65 58 83 59 50 60 51 61 64 63 84 64 53 65
REMARK SMILES IDX 38 66 39 67 47 68 40 69 46 70 41 71 42 72 43 73 44 74 45 75
REMARK SMILES IDX 68 76 69 77 77 78 70 79 76 80 71 81 72 82 73 83 74 84 75 85
REMARK SMILES IDX 54 86 55 87 63 88 56 89 62 90 57 91 58 92 59 93 60 94 61 95
REMARK H PARENT 10 17 82 51 52 62
REMARK Flexibility Score: inf
ROOT
ATOM      1  C   UNL A   1      32.889  36.429  29.055  1.00  0.00     0.188 C 
ENDROOT
BRANCH   1   2
ATOM      2  C   UNL A   1      33.278  37.158  30.359  1.00  0.00     0.188 C 
BRANCH   2   3
ATOM      3  O   UNL A   1      33.620  36.269  31.405  1.00  0.00    -0.376 OA
BRANCH   3   4
ATOM      4  C   UNL A   1      33.115  36.593  32.692  1.00  0.00     0.202 C 
BRANCH   4   5
ATOM      5  C   UNL A   1      34.010  36.247  33.901  1.00  0.00     0.261 C 
BRANCH   5   6
ATOM      6  O   UNL A   1      35.322  35.719  33.604  1.00  0.00    -0.463 OA
BRANCH   6   7
ATOM      7  C   UNL A   1      35.446  34.369  33.685  1.00  0.00     0.312 C 
ATOM      8  O   UNL A   1      35.154  33.740  34.694  1.00  0.00    -0.252 OA
BRANCH   7   9
ATOM      9  C   UNL A   1      35.773  33.727  32.319  1.00  0.00     0.124 C 
ATOM     10  C   UNL A   1      36.744  31.532  32.676  1.00  0.00     0.106 C 
ATOM     11  C   UNL A   1      37.695  32.424  31.972  1.00  0.00    -0.006 C 
ATOM     12  C   UNL A   1      35.415  32.238  32.389  1.00  0.00     0.048 C 
ATOM     13  C   UNL A   1      37.180  33.653  31.810  1.00  0.00    -0.014 C 
BRANCH  10  14
ATOM     14  N   UNL A   1      37.068  31.295  34.087  1.00  0.00    -0.343 N 
ATOM     15  C   UNL A   1      38.154  31.006  34.899  1.00  0.00     0.287 C 
ATOM     16  O   UNL A   1      37.950  31.183  36.104  1.00  0.00    -0.266 OA
ATOM     17  H   UNL A   1      36.251  31.363  34.632  1.00  0.00     0.164 HD
BRANCH  15  18
ATOM     18  C   UNL A   1      39.440  30.532  34.409  1.00  0.00     0.192 A 
ATOM     19  C   UNL A   1      44.918  28.130  34.177  1.00  0.00     0.044 C 
ATOM     20  C   UNL A   1      43.494  28.484  33.854  1.00  0.00    -0.050 A 
ATOM     21  C   UNL A   1      42.693  27.649  33.058  1.00  0.00     0.007 A 
ATOM     22  C   UNL A   1      42.944  29.645  34.413  1.00  0.00     0.015 A 
ATOM     23  C   UNL A   1      41.314  27.883  32.894  1.00  0.00     0.048 A 
ATOM     24  C   UNL A   1      41.587  29.924  34.198  1.00  0.00     0.021 A 
ATOM     25  C   UNL A   1      40.796  29.002  33.540  1.00  0.00     0.135 A 
ATOM     26  C   UNL A   1      40.732  31.007  34.474  1.00  0.00     0.065 A 
ATOM     27  O   UNL A   1      39.481  29.357  33.666  1.00  0.00    -0.451 OA
ENDBRANCH  15  18
ENDBRANCH  10  14
ENDBRANCH   7   9
ENDBRANCH   6   7
ENDBRANCH   5   6
ENDBRANCH   4   5
ENDBRANCH   3   4
ENDBRANCH   2   3
ENDBRANCH   1   2
BRANCH   1  28
ATOM     28  O   UNL A   1      33.797  35.542  28.427  1.00  0.00    -0.376 OA
BRANCH  28  29
ATOM     29  C   UNL A   1      33.726  34.169  28.756  1.00  0.00     0.202 C 
BRANCH  29  30
ATOM     30  C   UNL A   1      35.003  33.312  28.681  1.00  0.00     0.261 C 
BRANCH  30  31
ATOM     31  O   UNL A   1      35.056  32.319  27.636  1.00  0.00    -0.460 OA
BRANCH  31  32
ATOM     32  C   UNL A   1      34.794  31.039  28.005  1.00  0.00     0.338 C 
ATOM     33  O   UNL A   1      33.698  30.492  28.018  1.00  0.00    -0.246 OA
BRANCH  32  34
ATOM     34  C   UNL A   1      36.061  30.292  28.205  1.00  0.00     0.060 A 
ATOM     35  C   UNL A   1      36.339  29.739  29.467  1.00  0.00     0.016 A 
ATOM     36  C   UNL A   1      36.997  30.181  27.178  1.00  0.00     0.016 A 
ATOM     37  C   UNL A   1      37.554  29.091  29.710  1.00  0.00     0.010 A 
ATOM     38  C   UNL A   1      38.229  29.564  27.433  1.00  0.00     0.010 A 
ATOM     39  C   UNL A   1      38.527  29.040  28.707  1.00  0.00    -0.014 A 
BRANCH  39  40
ATOM     40  C   UNL A   1      39.920  28.636  29.037  1.00  0.00     0.031 A 
ATOM     41  C   UNL A   1      40.820  29.648  29.700  1.00  0.00     0.074 A 
ATOM     42  C   UNL A   1      40.389  27.404  28.763  1.00  0.00     0.049 A 
ATOM     43  N   UNL A   1      42.089  29.561  30.000  1.00  0.00    -0.248 NA
ATOM     44  C   UNL A   1      40.199  30.932  30.068  1.00  0.00     0.031 C 
ATOM     45  C   UNL A   1      39.615  26.311  28.180  1.00  0.00     0.029 A 
ATOM     46  N   UNL A   1      41.647  26.874  28.929  1.00  0.00    -0.354 N 
ATOM     47  C   UNL A   1      42.426  30.783  30.574  1.00  0.00     0.074 A 
ATOM     48  C   UNL A   1      41.233  31.600  30.557  1.00  0.00     0.031 C 
ATOM     49  C   UNL A   1      40.419  25.243  28.022  1.00  0.00     0.029 A 
ATOM     50  C   UNL A   1      41.774  25.591  28.452  1.00  0.00     0.049 A 
ATOM     51  H   UNL A   1      42.387  27.369  29.350  1.00  0.00     0.167 HD
ATOM     52  C   UNL A   1      43.619  31.190  31.069  1.00  0.00     0.031 A 
ATOM     53  C   UNL A   1      42.862  24.800  28.346  1.00  0.00     0.031 A 
ATOM     54  C   UNL A   1      44.813  30.386  31.068  1.00  0.00     0.049 A 
ATOM     55  C   UNL A   1      44.202  25.308  28.819  1.00  0.00     0.074 A 
ATOM     56  C   UNL A   1      46.066  30.708  31.560  1.00  0.00     0.029 A 
ATOM     57  N   UNL A   1      44.906  29.107  30.543  1.00  0.00    -0.354 N 
ATOM     58  N   UNL A   1      44.500  26.458  29.378  1.00  0.00    -0.248 NA
ATOM     59  C   UNL A   1      45.353  24.406  28.652  1.00  0.00     0.031 C 
ATOM     60  C   UNL A   1      46.933  29.650  31.271  1.00  0.00     0.029 A 
ATOM     61  C   UNL A   1      46.203  28.637  30.669  1.00  0.00     0.049 A 
ATOM     62  H   UNL A   1      44.161  28.606  30.139  1.00  0.00     0.167 HD
ATOM     63  C   UNL A   1      45.864  26.401  29.660  1.00  0.00     0.074 A 
ATOM     64  C   UNL A   1      46.328  25.101  29.223  1.00  0.00     0.031 C 
ATOM     65  C   UNL A   1      46.658  27.340  30.235  1.00  0.00     0.031 A 
BRANCH  52  66
ATOM     66  C   UNL A   1      43.703  32.593  31.615  1.00  0.00    -0.014 A 
ATOM     67  C   UNL A   1      43.946  33.694  30.774  1.00  0.00     0.010 A 
ATOM     68  C   UNL A   1      43.499  32.815  32.989  1.00  0.00     0.010 A 
ATOM     69  C   UNL A   1      44.024  34.985  31.304  1.00  0.00     0.020 A 
ATOM     70  C   UNL A   1      43.545  34.107  33.519  1.00  0.00     0.020 A 
ATOM     71  C   UNL A   1      43.823  35.183  32.674  1.00  0.00     0.054 A 
BRANCH  71  72
ATOM     72  S   UNL A   1      43.910  36.872  33.329  1.00  0.00     0.124 S 
ATOM     73  O   UNL A   1      42.604  37.016  33.966  1.00  0.00    -0.237 OA
ATOM     74  O   UNL A   1      45.050  36.801  34.241  1.00  0.00    -0.237 OA
ATOM     75  O   UNL A   1      44.117  37.696  32.141  1.00  0.00    -0.744 OA
ENDBRANCH  71  72
ENDBRANCH  52  66
BRANCH  53  76
ATOM     76  C   UNL A   1      42.743  23.441  27.744  1.00  0.00    -0.014 A 
ATOM     77  C   UNL A   1      42.160  22.385  28.468  1.00  0.00     0.010 A 
ATOM     78  C   UNL A   1      43.231  23.189  26.449  1.00  0.00     0.010 A 
ATOM     79  C   UNL A   1      42.083  21.102  27.916  1.00  0.00     0.020 A 
ATOM     80  C   UNL A   1      43.128  21.916  25.880  1.00  0.00     0.020 A 
ATOM     81  C   UNL A   1      42.565  20.877  26.623  1.00  0.00     0.054 A 
BRANCH  81  82
ATOM     82  S   UNL A   1      42.410  19.215  25.912  1.00  0.00     0.124 S 
ATOM     83  O   UNL A   1      42.926  18.375  26.988  1.00  0.00    -0.237 OA
ATOM     84  O   UNL A   1      40.974  19.115  25.664  1.00  0.00    -0.237 OA
ATOM     85  O   UNL A   1      43.242  19.277  24.713  1.00  0.00    -0.744 OA
ENDBRANCH  81  82
ENDBRANCH  53  76
BRANCH  65  86
ATOM     86  C   UNL A   1      48.104  26.987  30.476  1.00  0.00    -0.014 A 
ATOM     87  C   UNL A   1      49.121  27.398  29.595  1.00  0.00     0.010 A 
ATOM     88  C   UNL A   1      48.459  26.285  31.644  1.00  0.00     0.010 A 
ATOM     89  C   UNL A   1      50.458  27.084  29.860  1.00  0.00     0.020 A 
ATOM     90  C   UNL A   1      49.796  25.998  31.930  1.00  0.00     0.020 A 
ATOM     91  C   UNL A   1      50.787  26.388  31.028  1.00  0.00     0.054 A 
BRANCH  91  92
ATOM     92  S   UNL A   1      52.533  26.033  31.372  1.00  0.00     0.124 S 
ATOM     93  O   UNL A   1      53.081  25.869  30.028  1.00  0.00    -0.237 OA
ATOM     94  O   UNL A   1      52.968  27.231  32.085  1.00  0.00    -0.237 OA
ATOM     95  O   UNL A   1      52.488  24.815  32.179  1.00  0.00    -0.744 OA
ENDBRANCH  91  92
ENDBRANCH  65  86
ENDBRANCH  39  40
ENDBRANCH  32  34
ENDBRANCH  31  32
ENDBRANCH  30  31
ENDBRANCH  29  30
ENDBRANCH  28  29
ENDBRANCH   1  28
TORSDOF 22
ENDMDL
MODEL 2
REMARK VINA RESULT:      -8.5      5.214     12.525
REMARK SMILES Cc1ccc2oc(C(=O)N[C@@H]3C=C[C@H](C(=O)OCCOCCOCCOC(=O)c4ccc(-c5c6nc(c(-c7ccc(S(=O)(=O)[O-])cc7)c7ccc([nH]7)c(-c7ccc(S(=O)(=O)[O-])cc7)c7nc(c(-c8ccc(S(=O)(=O)[O-])cc8)c8ccc5[nH]8)C=C7)C=C6)cc4)C3)cc2c1
REMARK SMILES IDX 22 1 21 2 20 3 19 4 18 5 17 6 15 7 16 8 14 9 11 10 12 11
REMARK SMILES IDX 89 12 13 13 10 14 8 15 9 16 7 18 1 19 2 20 3 21 92 22 4 23
REMARK SMILES IDX 91 24 5 25 90 26 6 27 23 28 24 29 25 30 26 31 27 32 28 33
REMARK SMILES IDX 29 34 30 35 88 36 31 37 87 38 32 39 33 40 34 41 81 42 35 43
REMARK SMILES IDX 86 44 80 45 82 46 36 47 85 48 79 49 78 50 37 52 67 53 48 54
REMARK SMILES IDX 66 55 49 56 52 57 65 58 83 59 50 60 51 61 64 63 84 64 53 65
REMARK SMILES IDX 38 66 39 67 47 68 40 69 46 70 41 71 42 72 43 73 44 74 45 75
REMARK SMILES IDX 68 76 69 77 77 78 70 79 76 80 71 81 72 82 73 83 74 84 75 85
REMARK SMILES IDX 54 86 55 87 63 88 56 89 62 90 57 91 58 92 59 93 60 94 61 95
REMARK H PARENT 10 17 82 51 52 62
REMARK Flexibility Score: inf
ROOT
ATOM      1  C   UNL A   1      42.119  22.334  26.239  1.00  0.00     0.188 C 
ENDROOT
BRANCH   1   2
ATOM      2  C   UNL A   1      41.098  21.198  26.464  1.00  0.00     0.188 C 
BRANCH   2   3
ATOM      3  O   UNL A   1      39.830  21.674  26.878  1.00  0.00    -0.376 OA
BRANCH   3   4
ATOM      4  C   UNL A   1      38.946  22.081  25.845  1.00  0.00     0.202 C 
BRANCH   4   5
ATOM      5  C   UNL A   1      37.699  21.204  25.605  1.00  0.00     0.261 C 
BRANCH   5   6
ATOM      6  O   UNL A   1      36.505  21.887  25.160  1.00  0.00    -0.463 OA
BRANCH   6   7
ATOM      7  C   UNL A   1      35.333  21.398  25.641  1.00  0.00     0.312 C 
ATOM      8  O   UNL A   1      34.892  21.703  26.741  1.00  0.00    -0.252 OA
BRANCH   7   9
ATOM      9  C   UNL A   1      34.543  20.612  24.571  1.00  0.00     0.124 C 
ATOM     10  C   UNL A   1      32.177  21.097  24.803  1.00  0.00     0.106 C 
ATOM     11  C   UNL A   1      32.445  19.655  25.010  1.00  0.00    -0.006 C 
ATOM     12  C   UNL A   1      33.431  21.520  24.031  1.00  0.00     0.048 C 
ATOM     13  C   UNL A   1      33.758  19.387  24.925  1.00  0.00    -0.014 C 
BRANCH  10  14
ATOM     14  N   UNL A   1      31.885  21.840  26.033  1.00  0.00    -0.343 N 
ATOM     15  C   UNL A   1      31.423  23.080  26.447  1.00  0.00     0.287 C 
ATOM     16  O   UNL A   1      31.078  23.126  27.632  1.00  0.00    -0.266 OA
ATOM     17  H   UNL A   1      32.079  21.277  26.817  1.00  0.00     0.164 HD
BRANCH  15  18
ATOM     18  C   UNL A   1      31.340  24.252  25.587  1.00  0.00     0.192 A 
ATOM     19  C   UNL A   1      29.934  29.660  23.441  1.00  0.00     0.044 C 
ATOM     20  C   UNL A   1      30.701  28.429  23.829  1.00  0.00    -0.050 A 
ATOM     21  C   UNL A   1      32.091  28.460  24.023  1.00  0.00     0.007 A 
ATOM     22  C   UNL A   1      29.995  27.239  24.059  1.00  0.00     0.015 A 
ATOM     23  C   UNL A   1      32.791  27.359  24.553  1.00  0.00     0.048 A 
ATOM     24  C   UNL A   1      30.695  26.115  24.520  1.00  0.00     0.021 A 
ATOM     25  C   UNL A   1      32.033  26.229  24.846  1.00  0.00     0.135 A 
ATOM     26  C   UNL A   1      30.380  24.761  24.740  1.00  0.00     0.065 A 
ATOM     27  O   UNL A   1      32.439  25.100  25.504  1.00  0.00    -0.451 OA
ENDBRANCH  15  18
ENDBRANCH  10  14
ENDBRANCH   7   9
ENDBRANCH   6   7
ENDBRANCH   5   6
ENDBRANCH   4   5
ENDBRANCH   3   4
ENDBRANCH   2   3
ENDBRANCH   1   2
BRANCH   1  28
ATOM     28  O   UNL A   1      42.780  22.473  24.994  1.00  0.00    -0.376 OA
BRANCH  28  29
ATOM     29  C   UNL A   1      43.938  23.282  24.939  1.00  0.00     0.202 C 
BRANCH  29  30
ATOM     30  C   UNL A   1      44.073  24.465  25.915  1.00  0.00     0.261 C 
BRANCH  30  31
ATOM     31  O   UNL A   1      43.665  25.759  25.426  1.00  0.00    -0.460 OA
BRANCH  31  32
ATOM     32  C   UNL A   1      42.396  26.143  25.720  1.00  0.00     0.338 C 
ATOM     33  O   UNL A   1      41.394  25.930  25.047  1.00  0.00    -0.246 OA
BRANCH  32  34
ATOM     34  C   UNL A   1      42.330  26.693  27.096  1.00  0.00     0.060 A 
ATOM     35  C   UNL A   1      41.434  26.126  28.019  1.00  0.00     0.016 A 
ATOM     36  C   UNL A   1      43.101  27.794  27.465  1.00  0.00     0.016 A 
ATOM     37  C   UNL A   1      41.296  26.664  29.302  1.00  0.00     0.010 A 
ATOM     38  C   UNL A   1      42.935  28.355  28.739  1.00  0.00     0.010 A 
ATOM     39  C   UNL A   1      42.012  27.813  29.654  1.00  0.00    -0.014 A 
BRANCH  39  40
ATOM     40  C   UNL A   1      41.653  28.570  30.884  1.00  0.00     0.031 A 
ATOM     41  C   UNL A   1      40.468  29.499  30.831  1.00  0.00     0.074 A 
ATOM     42  C   UNL A   1      42.352  28.443  32.028  1.00  0.00     0.049 A 
ATOM     43  N   UNL A   1      40.019  30.325  31.738  1.00  0.00    -0.248 NA
ATOM     44  C   UNL A   1      39.690  29.496  29.580  1.00  0.00     0.031 C 
ATOM     45  C   UNL A   1      43.480  27.539  32.239  1.00  0.00     0.029 A 
ATOM     46  N   UNL A   1      42.217  29.099  33.229  1.00  0.00    -0.354 N 
ATOM     47  C   UNL A   1      38.918  30.956  31.164  1.00  0.00     0.074 A 
ATOM     48  C   UNL A   1      38.785  30.431  29.823  1.00  0.00     0.031 C 
ATOM     49  C   UNL A   1      43.946  27.709  33.491  1.00  0.00     0.029 A 
ATOM     50  C   UNL A   1      43.176  28.762  34.154  1.00  0.00     0.049 A 
ATOM     51  H   UNL A   1      41.499  29.748  33.409  1.00  0.00     0.167 HD
ATOM     52  C   UNL A   1      38.094  31.886  31.702  1.00  0.00     0.031 A 
ATOM     53  C   UNL A   1      43.425  29.265  35.381  1.00  0.00     0.031 A 
ATOM     54  C   UNL A   1      38.237  32.424  33.029  1.00  0.00     0.049 A 
ATOM     55  C   UNL A   1      42.550  30.368  35.926  1.00  0.00     0.074 A 
ATOM     56  C   UNL A   1      37.443  33.361  33.666  1.00  0.00     0.029 A 
ATOM     57  N   UNL A   1      39.244  32.081  33.918  1.00  0.00    -0.354 N 
ATOM     58  N   UNL A   1      41.502  30.938  35.379  1.00  0.00    -0.248 NA
ATOM     59  C   UNL A   1      42.890  30.890  37.259  1.00  0.00     0.031 C 
ATOM     60  C   UNL A   1      38.009  33.635  34.915  1.00  0.00     0.029 A 
ATOM     61  C   UNL A   1      39.111  32.812  35.087  1.00  0.00     0.049 A 
ATOM     62  H   UNL A   1      39.950  31.418  33.745  1.00  0.00     0.167 HD
ATOM     63  C   UNL A   1      41.038  31.859  36.316  1.00  0.00     0.074 A 
ATOM     64  C   UNL A   1      41.911  31.762  37.467  1.00  0.00     0.031 C 
ATOM     65  C   UNL A   1      39.981  32.707  36.231  1.00  0.00     0.031 A 
BRANCH  52  66
ATOM     66  C   UNL A   1      36.984  32.418  30.831  1.00  0.00    -0.014 A 
ATOM     67  C   UNL A   1      35.706  31.830  30.833  1.00  0.00     0.010 A 
ATOM     68  C   UNL A   1      37.216  33.547  30.025  1.00  0.00     0.010 A 
ATOM     69  C   UNL A   1      34.693  32.338  30.014  1.00  0.00     0.020 A 
ATOM     70  C   UNL A   1      36.197  34.078  29.229  1.00  0.00     0.020 A 
ATOM     71  C   UNL A   1      34.946  33.458  29.217  1.00  0.00     0.054 A 
BRANCH  71  72
ATOM     72  S   UNL A   1      33.606  34.106  28.181  1.00  0.00     0.124 S 
ATOM     73  O   UNL A   1      32.811  34.856  29.149  1.00  0.00    -0.237 OA
ATOM     74  O   UNL A   1      34.326  34.914  27.199  1.00  0.00    -0.237 OA
ATOM     75  O   UNL A   1      32.966  32.906  27.647  1.00  0.00    -0.744 OA
ENDBRANCH  71  72
ENDBRANCH  52  66
BRANCH  53  76
ATOM     76  C   UNL A   1      44.571  28.749  36.184  1.00  0.00    -0.014 A 
ATOM     77  C   UNL A   1      45.850  29.320  36.056  1.00  0.00     0.010 A 
ATOM     78  C   UNL A   1      44.394  27.670  37.069  1.00  0.00     0.010 A 
ATOM     79  C   UNL A   1      46.931  28.811  36.783  1.00  0.00     0.020 A 
ATOM     80  C   UNL A   1      45.464  27.179  37.822  1.00  0.00     0.020 A 
ATOM     81  C   UNL A   1      46.730  27.745  37.665  1.00  0.00     0.054 A 
BRANCH  81  82
ATOM     82  S   UNL A   1      48.138  27.135  38.632  1.00  0.00     0.124 S 
ATOM     83  O   UNL A   1      47.723  27.438  39.998  1.00  0.00    -0.237 OA
ATOM     84  O   UNL A   1      48.167  25.717  38.279  1.00  0.00    -0.237 OA
ATOM     85  O   UNL A   1      49.263  27.920  38.131  1.00  0.00    -0.744 OA
ENDBRANCH  81  82
ENDBRANCH  53  76
BRANCH  65  86
ATOM     86  C   UNL A   1      39.669  33.565  37.431  1.00  0.00    -0.014 A 
ATOM     87  C   UNL A   1      38.894  33.084  38.502  1.00  0.00     0.010 A 
ATOM     88  C   UNL A   1      40.217  34.860  37.516  1.00  0.00     0.010 A 
ATOM     89  C   UNL A   1      38.647  33.890  39.617  1.00  0.00     0.020 A 
ATOM     90  C   UNL A   1      40.000  35.657  38.643  1.00  0.00     0.020 A 
ATOM     91  C   UNL A   1      39.204  35.173  39.681  1.00  0.00     0.054 A 
BRANCH  91  92
ATOM     92  S   UNL A   1      38.905  36.182  41.159  1.00  0.00     0.124 S 
ATOM     93  O   UNL A   1      40.186  36.089  41.855  1.00  0.00    -0.237 OA
ATOM     94  O   UNL A   1      38.592  37.493  40.593  1.00  0.00    -0.237 OA
ATOM     95  O   UNL A   1      37.788  35.512  41.819  1.00  0.00    -0.744 OA
ENDBRANCH  91  92
ENDBRANCH  65  86
ENDBRANCH  39  40
ENDBRANCH  32  34
ENDBRANCH  31  32
ENDBRANCH  30  31
ENDBRANCH  29  30
ENDBRANCH  28  29
ENDBRANCH   1  28
TORSDOF 22
ENDMDL
MODEL 3
REMARK VINA RESULT:      -8.2      5.001     11.980
REMARK SMILES Cc1ccc2oc(C(=O)N[C@@H]3C=C[C@H](C(=O)OCCOCCOCCOC(=O)c4ccc(-c5c6nc(c(-c7ccc(S(=O)(=O)[O-])cc7)c7ccc([nH]7)c(-c7ccc(S(=O)(=O)[O-])cc7)c7nc(c(-c8ccc(S(=O)(=O)[O-])cc8)c8ccc5[nH]8)C=C7)C=C6)cc4)C3)cc2c1
REMARK SMILES IDX 22 1 21 2 20 3 19 4 18 5 17 6 15 7 16 8 14 9 11 10 12 11
REMARK SMILES IDX 89 12 13 13 10 14 8 15 9 16 7 18 1 19 2 20 3 21 92 22 4 23
REMARK SMILES IDX 91 24 5 25 90 26 6 27 23 28 24 29 25 30 26 31 27 32 28 33
REMARK SMILES IDX 29 34 30 35 88 36 31 37 87 38 32 39 33 40 34 41 81 42 35 43
REMARK SMILES IDX 86 44 80 45 82 46 36 47 85 48 79 49 78 50 37 52 67 53 48 54
REMARK SMILES IDX 66 55 49 56 52 57 65 58 83 59 50 60 51 61 64 63 84 64 53 65
REMARK SMILES IDX 38 66 39 67 47 68 40 69 46 70 41 71 42 72 43 73 44 74 45 75
REMARK SMILES IDX 68 76 69 77 77 78 70 79 76 80 71 81 72 82 73 83 74 84 75 85
REMARK SMILES IDX 54 86 55 87 63 88 56 89 62 90 57 91 58 92 59 93 60 94 61 95
REMARK H PARENT 10 17 82 51 52 62
REMARK Flexibility Score: inf
ROOT
ATOM      1  C   UNL A   1      40.829  21.638  27.490  1.00  0.00     0.188 C 
ENDROOT
BRANCH   1   2
ATOM      2  C   UNL A   1      39.868  22.257  26.453  1.00  0.00     0.188 C 
BRANCH   2   3
ATOM      3  O   UNL A   1      38.938  23.153  27.032  1.00  0.00    -0.376 OA
BRANCH   3   4
ATOM      4  C   UNL A   1      38.137  23.896  26.126  1.00  0.00     0.202 C 
BRANCH   4   5
ATOM      5  C   UNL A   1      36.675  23.437  25.945  1.00  0.00     0.261 C 
BRANCH   5   6
ATOM      6  O   UNL A   1      36.458  22.014  25.804  1.00  0.00    -0.463 OA
BRANCH   6   7
ATOM      7  C   UNL A   1      35.183  21.591  26.002  1.00  0.00     0.312 C 
ATOM      8  O   UNL A   1      34.552  21.849  27.019  1.00  0.00    -0.252 OA
BRANCH   7   9
ATOM      9  C   UNL A   1      34.572  20.957  24.732  1.00  0.00     0.124 C 
ATOM     10  C   UNL A   1      32.176  21.344  24.716  1.00  0.00     0.106 C 
ATOM     11  C   UNL A   1      32.478  19.894  24.742  1.00  0.00    -0.006 C 
ATOM     12  C   UNL A   1      33.499  21.909  24.189  1.00  0.00     0.048 C 
ATOM     13  C   UNL A   1      33.802  19.674  24.795  1.00  0.00    -0.014 C 
BRANCH  10  14
ATOM     14  N   UNL A   1      31.697  21.885  25.992  1.00  0.00    -0.343 N 
ATOM     15  C   UNL A   1      31.390  23.098  26.589  1.00  0.00     0.287 C 
ATOM     16  O   UNL A   1      30.736  23.001  27.632  1.00  0.00    -0.266 OA
ATOM     17  H   UNL A   1      31.544  21.150  26.629  1.00  0.00     0.164 HD
BRANCH  15  18
ATOM     18  C   UNL A   1      31.788  24.395  26.061  1.00  0.00     0.192 A 
ATOM     19  C   UNL A   1      34.167  28.649  22.587  1.00  0.00     0.044 C 
ATOM     20  C   UNL A   1      33.219  27.876  23.458  1.00  0.00    -0.050 A 
ATOM     21  C   UNL A   1      31.833  28.093  23.408  1.00  0.00     0.007 A 
ATOM     22  C   UNL A   1      33.735  26.876  24.294  1.00  0.00     0.015 A 
ATOM     23  C   UNL A   1      30.927  27.258  24.090  1.00  0.00     0.048 A 
ATOM     24  C   UNL A   1      32.844  26.083  25.031  1.00  0.00     0.021 A 
ATOM     25  C   UNL A   1      31.483  26.224  24.838  1.00  0.00     0.135 A 
ATOM     26  C   UNL A   1      32.971  25.103  26.033  1.00  0.00     0.065 A 
ATOM     27  O   UNL A   1      30.826  25.196  25.457  1.00  0.00    -0.451 OA
ENDBRANCH  15  18
ENDBRANCH  10  14
ENDBRANCH   7   9
ENDBRANCH   6   7
ENDBRANCH   5   6
ENDBRANCH   4   5
ENDBRANCH   3   4
ENDBRANCH   2   3
ENDBRANCH   1   2
BRANCH   1  28
ATOM     28  O   UNL A   1      40.867  20.236  27.691  1.00  0.00    -0.376 OA
BRANCH  28  29
ATOM     29  C   UNL A   1      42.103  19.571  27.523  1.00  0.00     0.202 C 
BRANCH  29  30
ATOM     30  C   UNL A   1      42.430  18.927  26.163  1.00  0.00     0.261 C 
BRANCH  30  31
ATOM     31  O   UNL A   1      42.841  19.818  25.106  1.00  0.00    -0.460 OA
BRANCH  31  32
ATOM     32  C   UNL A   1      44.172  19.863  24.838  1.00  0.00     0.338 C 
ATOM     33  O   UNL A   1      44.843  18.979  24.321  1.00  0.00    -0.246 OA
BRANCH  32  34
ATOM     34  C   UNL A   1      44.696  21.232  25.067  1.00  0.00     0.060 A 
ATOM     35  C   UNL A   1      45.137  21.592  26.352  1.00  0.00     0.016 A 
ATOM     36  C   UNL A   1      44.702  22.178  24.042  1.00  0.00     0.016 A 
ATOM     37  C   UNL A   1      45.571  22.894  26.619  1.00  0.00     0.010 A 
ATOM     38  C   UNL A   1      45.102  23.492  24.320  1.00  0.00     0.010 A 
ATOM     39  C   UNL A   1      45.511  23.866  25.615  1.00  0.00    -0.014 A 
BRANCH  39  40
ATOM     40  C   UNL A   1      45.671  25.305  25.958  1.00  0.00     0.031 A 
ATOM     41  C   UNL A   1      47.048  25.911  25.872  1.00  0.00     0.074 A 
ATOM     42  C   UNL A   1      44.627  26.068  26.335  1.00  0.00     0.049 A 
ATOM     43  N   UNL A   1      47.450  27.110  26.204  1.00  0.00    -0.248 NA
ATOM     44  C   UNL A   1      48.113  25.042  25.344  1.00  0.00     0.031 C 
ATOM     45  C   UNL A   1      43.235  25.629  26.403  1.00  0.00     0.029 A 
ATOM     46  N   UNL A   1      44.588  27.379  26.748  1.00  0.00    -0.354 N 
ATOM     47  C   UNL A   1      48.818  27.135  25.945  1.00  0.00     0.074 A 
ATOM     48  C   UNL A   1      49.177  25.824  25.451  1.00  0.00     0.031 C 
ATOM     49  C   UNL A   1      42.479  26.650  26.849  1.00  0.00     0.029 A 
ATOM     50  C   UNL A   1      43.338  27.799  27.138  1.00  0.00     0.049 A 
ATOM     51  H   UNL A   1      45.382  27.961  26.763  1.00  0.00     0.167 HD
ATOM     52  C   UNL A   1      49.695  28.154  26.104  1.00  0.00     0.031 A 
ATOM     53  C   UNL A   1      42.938  28.962  27.691  1.00  0.00     0.031 A 
ATOM     54  C   UNL A   1      49.343  29.452  26.614  1.00  0.00     0.049 A 
ATOM     55  C   UNL A   1      43.950  30.053  27.945  1.00  0.00     0.074 A 
ATOM     56  C   UNL A   1      50.161  30.553  26.798  1.00  0.00     0.029 A 
ATOM     57  N   UNL A   1      48.074  29.823  27.030  1.00  0.00    -0.354 N 
ATOM     58  N   UNL A   1      45.235  30.069  27.676  1.00  0.00    -0.248 NA
ATOM     59  C   UNL A   1      43.454  31.287  28.574  1.00  0.00     0.031 C 
ATOM     60  C   UNL A   1      49.402  31.568  27.390  1.00  0.00     0.029 A 
ATOM     61  C   UNL A   1      48.093  31.126  27.501  1.00  0.00     0.049 A 
ATOM     62  H   UNL A   1      47.277  29.246  26.997  1.00  0.00     0.167 HD
ATOM     63  C   UNL A   1      45.690  31.325  28.070  1.00  0.00     0.074 A 
ATOM     64  C   UNL A   1      44.544  32.045  28.584  1.00  0.00     0.031 C 
ATOM     65  C   UNL A   1      46.946  31.837  28.007  1.00  0.00     0.031 A 
BRANCH  52  66
ATOM     66  C   UNL A   1      51.139  27.888  25.762  1.00  0.00    -0.014 A 
ATOM     67  C   UNL A   1      51.981  27.177  26.636  1.00  0.00     0.010 A 
ATOM     68  C   UNL A   1      51.651  28.326  24.527  1.00  0.00     0.010 A 
ATOM     69  C   UNL A   1      53.318  26.946  26.300  1.00  0.00     0.020 A 
ATOM     70  C   UNL A   1      52.978  28.070  24.172  1.00  0.00     0.020 A 
ATOM     71  C   UNL A   1      53.807  27.395  25.069  1.00  0.00     0.054 A 
BRANCH  71  72
ATOM     72  S   UNL A   1      55.541  27.063  24.651  1.00  0.00     0.124 S 
ATOM     73  O   UNL A   1      55.599  27.481  23.253  1.00  0.00    -0.237 OA
ATOM     74  O   UNL A   1      56.264  27.915  25.592  1.00  0.00    -0.237 OA
ATOM     75  O   UNL A   1      55.684  25.626  24.877  1.00  0.00    -0.744 OA
ENDBRANCH  71  72
ENDBRANCH  52  66
BRANCH  53  76
ATOM     76  C   UNL A   1      41.509  29.160  28.068  1.00  0.00    -0.014 A 
ATOM     77  C   UNL A   1      40.497  29.110  27.093  1.00  0.00     0.010 A 
ATOM     78  C   UNL A   1      41.154  29.419  29.404  1.00  0.00     0.010 A 
ATOM     79  C   UNL A   1      39.161  29.332  27.443  1.00  0.00     0.020 A 
ATOM     80  C   UNL A   1      39.817  29.610  29.765  1.00  0.00     0.020 A 
ATOM     81  C   UNL A   1      38.829  29.577  28.779  1.00  0.00     0.054 A 
BRANCH  81  82
ATOM     82  S   UNL A   1      37.084  29.815  29.215  1.00  0.00     0.124 S 
ATOM     83  O   UNL A   1      36.404  29.338  28.014  1.00  0.00    -0.237 OA
ATOM     84  O   UNL A   1      36.942  28.974  30.400  1.00  0.00    -0.237 OA
ATOM     85  O   UNL A   1      36.986  31.252  29.460  1.00  0.00    -0.744 OA
ENDBRANCH  81  82
ENDBRANCH  53  76
BRANCH  65  86
ATOM     86  C   UNL A   1      47.148  33.263  28.456  1.00  0.00    -0.014 A 
ATOM     87  C   UNL A   1      46.909  34.349  27.595  1.00  0.00     0.010 A 
ATOM     88  C   UNL A   1      47.524  33.522  29.789  1.00  0.00     0.010 A 
ATOM     89  C   UNL A   1      47.073  35.662  28.048  1.00  0.00     0.020 A 
ATOM     90  C   UNL A   1      47.658  34.832  30.254  1.00  0.00     0.020 A 
ATOM     91  C   UNL A   1      47.445  35.895  29.376  1.00  0.00     0.054 A 
BRANCH  91  92
ATOM     92  S   UNL A   1      47.607  37.608  29.951  1.00  0.00     0.124 S 
ATOM     93  O   UNL A   1      48.831  37.548  30.746  1.00  0.00    -0.237 OA
ATOM     94  O   UNL A   1      47.707  38.357  28.701  1.00  0.00    -0.237 OA
ATOM     95  O   UNL A   1      46.382  37.838  30.712  1.00  0.00    -0.744 OA
ENDBRANCH  91  92
ENDBRANCH  65  86
ENDBRANCH  39  40
ENDBRANCH  32  34
ENDBRANCH  31  32
ENDBRANCH  30  31
ENDBRANCH  29  30
ENDBRANCH  28  29
ENDBRANCH   1  28
TORSDOF 22
ENDMDL
