MODEL 1
REMARK VINA RESULT:      -9.9      0.000      0.000
REMARK SMILES CC(C)(C)OC(=O)N1[C@@H](C(=O)OCCOCCOCCOC(=O)c2ccc(-c3c4nc(c(-c5ccc(S(=O)(=O)[O-])cc5)c5ccc([nH]5)c(-c5ccc(S(=O)(=O)[O-])cc5)c5nc(c(-c6ccc(S(=O)(=O)[O-])cc6)c6ccc3[nH]6)C=C5)C=C4)cc2)C[C@H]2CCCC[C@@H]21
REMARK SMILES IDX 16 1 15 2 14 3 13 4 12 5 10 6 11 7 9 8 8 9 90 10 84 11 85 12
REMARK SMILES IDX 89 13 86 14 88 15 87 16 6 17 7 18 5 19 2 20 1 21 3 22 4 23
REMARK SMILES IDX 17 24 18 25 19 26 20 27 21 28 22 29 23 30 24 31 25 32 83 33
REMARK SMILES IDX 26 34 82 35 27 36 28 37 29 38 76 39 30 40 81 41 75 42 77 43
REMARK SMILES IDX 31 44 80 45 74 46 73 47 32 49 62 50 43 51 61 52 44 53 47 54
REMARK SMILES IDX 60 55 78 56 45 57 46 58 59 60 79 61 48 62 33 63 34 64 42 65
REMARK SMILES IDX 35 66 41 67 36 68 37 69 38 70 39 71 40 72 63 73 64 74 72 75
REMARK SMILES IDX 65 76 71 77 66 78 67 79 68 80 69 81 70 82 49 83 50 84 58 85
REMARK SMILES IDX 51 86 57 87 52 88 53 89 54 90 55 91 56 92
REMARK H PARENT 77 48 47 59
REMARK Flexibility Score: inf
ROOT
ATOM      1  C   UNL A   1      31.500  28.947  23.587  1.00  0.00     0.188 C 
ENDROOT
BRANCH   1   2
ATOM      2  O   UNL A   1      30.468  27.967  23.561  1.00  0.00    -0.376 OA
BRANCH   2   3
ATOM      3  C   UNL A   1      30.655  26.742  22.879  1.00  0.00     0.202 C 
BRANCH   3   4
ATOM      4  C   UNL A   1      30.883  25.465  23.706  1.00  0.00     0.261 C 
BRANCH   4   5
ATOM      5  O   UNL A   1      31.618  24.380  23.096  1.00  0.00    -0.462 OA
BRANCH   5   6
ATOM      6  C   UNL A   1      31.585  23.199  23.777  1.00  0.00     0.329 C 
ATOM      7  O   UNL A   1      30.846  22.998  24.736  1.00  0.00    -0.250 OA
BRANCH   6   8
ATOM      8  C   UNL A   1      32.570  22.126  23.210  1.00  0.00     0.199 C 
ATOM      9  N   UNL A   1      33.236  21.232  24.198  1.00  0.00    -0.291 N 
ATOM     10  C   UNL A   1      34.368  21.929  24.780  1.00  0.00     0.092 C 
ATOM     11  C   UNL A   1      33.746  22.985  22.663  1.00  0.00     0.043 C 
ATOM     12  C   UNL A   1      34.937  22.666  23.568  1.00  0.00     0.014 C 
ATOM     13  C   UNL A   1      35.544  21.162  25.403  1.00  0.00     0.025 C 
ATOM     14  C   UNL A   1      35.819  23.799  24.074  1.00  0.00     0.006 C 
ATOM     15  C   UNL A   1      36.625  22.146  25.871  1.00  0.00     0.002 C 
ATOM     16  C   UNL A   1      37.018  23.186  24.816  1.00  0.00     0.000 C 
BRANCH   9  17
ATOM     17  C   UNL A   1      32.930  19.948  24.593  1.00  0.00     0.411 C 
ATOM     18  O   UNL A   1      31.976  19.713  25.328  1.00  0.00    -0.224 OA
BRANCH  17  19
ATOM     19  O   UNL A   1      33.765  18.964  24.165  1.00  0.00    -0.444 OA
BRANCH  19  20
ATOM     20  C   UNL A   1      33.184  17.716  23.630  1.00  0.00     0.106 C 
ATOM     21  C   UNL A   1      34.369  16.894  23.104  1.00  0.00     0.056 C 
ATOM     22  C   UNL A   1      32.251  18.049  22.462  1.00  0.00     0.056 C 
ATOM     23  C   UNL A   1      32.436  16.814  24.641  1.00  0.00     0.056 C 
ENDBRANCH  19  20
ENDBRANCH  17  19
ENDBRANCH   9  17
ENDBRANCH   6   8
ENDBRANCH   5   6
ENDBRANCH   4   5
ENDBRANCH   3   4
ENDBRANCH   2   3
ENDBRANCH   1   2
BRANCH   1  24
ATOM     24  C   UNL A   1      32.246  29.271  24.896  1.00  0.00     0.188 C 
BRANCH  24  25
ATOM     25  O   UNL A   1      31.410  29.320  26.028  1.00  0.00    -0.376 OA
BRANCH  25  26
ATOM     26  C   UNL A   1      31.927  29.839  27.230  1.00  0.00     0.202 C 
BRANCH  26  27
ATOM     27  C   UNL A   1      32.801  31.107  27.255  1.00  0.00     0.261 C 
BRANCH  27  28
ATOM     28  O   UNL A   1      34.226  30.942  27.326  1.00  0.00    -0.460 OA
BRANCH  28  29
ATOM     29  C   UNL A   1      34.827  31.240  28.502  1.00  0.00     0.338 C 
ATOM     30  O   UNL A   1      34.353  31.894  29.413  1.00  0.00    -0.246 OA
BRANCH  29  31
ATOM     31  C   UNL A   1      36.124  30.526  28.582  1.00  0.00     0.060 A 
ATOM     32  C   UNL A   1      36.688  30.302  29.838  1.00  0.00     0.016 A 
ATOM     33  C   UNL A   1      36.829  30.156  27.438  1.00  0.00     0.016 A 
ATOM     34  C   UNL A   1      37.958  29.740  29.969  1.00  0.00     0.010 A 
ATOM     35  C   UNL A   1      38.113  29.599  27.566  1.00  0.00     0.010 A 
ATOM     36  C   UNL A   1      38.701  29.415  28.833  1.00  0.00    -0.014 A 
BRANCH  36  37
ATOM     37  C   UNL A   1      40.138  29.054  28.971  1.00  0.00     0.031 A 
ATOM     38  C   UNL A   1      41.093  30.082  29.523  1.00  0.00     0.074 A 
ATOM     39  C   UNL A   1      40.592  27.820  28.679  1.00  0.00     0.049 A 
ATOM     40  N   UNL A   1      42.395  30.031  29.642  1.00  0.00    -0.248 NA
ATOM     41  C   UNL A   1      40.491  31.335  30.005  1.00  0.00     0.031 C 
ATOM     42  C   UNL A   1      39.768  26.694  28.246  1.00  0.00     0.029 A 
ATOM     43  N   UNL A   1      41.868  27.310  28.708  1.00  0.00    -0.354 N 
ATOM     44  C   UNL A   1      42.773  31.255  30.186  1.00  0.00     0.074 A 
ATOM     45  C   UNL A   1      41.563  32.033  30.350  1.00  0.00     0.031 C 
ATOM     46  C   UNL A   1      40.558  25.623  28.054  1.00  0.00     0.029 A 
ATOM     47  C   UNL A   1      41.951  26.003  28.291  1.00  0.00     0.049 A 
ATOM     48  H   UNL A   1      42.651  27.832  29.000  1.00  0.00     0.167 HD
ATOM     49  C   UNL A   1      44.012  31.695  30.517  1.00  0.00     0.031 A 
ATOM     50  C   UNL A   1      43.025  25.211  28.091  1.00  0.00     0.031 A 
ATOM     51  C   UNL A   1      45.216  30.923  30.342  1.00  0.00     0.049 A 
ATOM     52  C   UNL A   1      44.406  25.760  28.348  1.00  0.00     0.074 A 
ATOM     53  C   UNL A   1      46.521  31.285  30.624  1.00  0.00     0.029 A 
ATOM     54  N   UNL A   1      45.263  29.631  29.836  1.00  0.00    -0.354 N 
ATOM     55  N   UNL A   1      44.755  26.935  28.817  1.00  0.00    -0.248 NA
ATOM     56  C   UNL A   1      45.538  24.872  28.048  1.00  0.00     0.031 C 
ATOM     57  C   UNL A   1      47.363  30.240  30.229  1.00  0.00     0.029 A 
ATOM     58  C   UNL A   1      46.577  29.194  29.772  1.00  0.00     0.049 A 
ATOM     59  H   UNL A   1      44.479  29.103  29.564  1.00  0.00     0.167 HD
ATOM     60  C   UNL A   1      46.146  26.916  28.895  1.00  0.00     0.074 A 
ATOM     61  C   UNL A   1      46.569  25.607  28.441  1.00  0.00     0.031 C 
ATOM     62  C   UNL A   1      46.993  27.891  29.309  1.00  0.00     0.031 A 
BRANCH  49  63
ATOM     63  C   UNL A   1      44.125  33.106  31.039  1.00  0.00    -0.014 A 
ATOM     64  C   UNL A   1      44.472  34.181  30.199  1.00  0.00     0.010 A 
ATOM     65  C   UNL A   1      43.885  33.358  32.402  1.00  0.00     0.010 A 
ATOM     66  C   UNL A   1      44.638  35.465  30.725  1.00  0.00     0.020 A 
ATOM     67  C   UNL A   1      44.014  34.648  32.925  1.00  0.00     0.020 A 
ATOM     68  C   UNL A   1      44.415  35.689  32.087  1.00  0.00     0.054 A 
BRANCH  68  69
ATOM     69  S   UNL A   1      44.652  37.362  32.746  1.00  0.00     0.124 S 
ATOM     70  O   UNL A   1      43.400  37.584  33.465  1.00  0.00    -0.237 OA
ATOM     71  O   UNL A   1      45.839  37.213  33.583  1.00  0.00    -0.237 OA
ATOM     72  O   UNL A   1      44.836  38.183  31.551  1.00  0.00    -0.744 OA
ENDBRANCH  68  69
ENDBRANCH  49  63
BRANCH  50  73
ATOM     73  C   UNL A   1      42.844  23.817  27.592  1.00  0.00    -0.014 A 
ATOM     74  C   UNL A   1      42.595  22.762  28.489  1.00  0.00     0.010 A 
ATOM     75  C   UNL A   1      42.916  23.536  26.216  1.00  0.00     0.010 A 
ATOM     76  C   UNL A   1      42.427  21.456  28.019  1.00  0.00     0.020 A 
ATOM     77  C   UNL A   1      42.717  22.236  25.739  1.00  0.00     0.020 A 
ATOM     78  C   UNL A   1      42.479  21.203  26.646  1.00  0.00     0.054 A 
BRANCH  78  79
ATOM     79  S   UNL A   1      42.182  19.512  26.056  1.00  0.00     0.124 S 
ATOM     80  O   UNL A   1      40.747  19.527  25.791  1.00  0.00    -0.237 OA
ATOM     81  O   UNL A   1      43.044  19.437  24.878  1.00  0.00    -0.237 OA
ATOM     82  O   UNL A   1      42.601  18.677  27.180  1.00  0.00    -0.744 OA
ENDBRANCH  78  79
ENDBRANCH  50  73
BRANCH  62  83
ATOM     83  C   UNL A   1      48.468  27.569  29.332  1.00  0.00    -0.014 A 
ATOM     84  C   UNL A   1      49.094  27.058  30.484  1.00  0.00     0.010 A 
ATOM     85  C   UNL A   1      49.234  27.752  28.166  1.00  0.00     0.010 A 
ATOM     86  C   UNL A   1      50.465  26.785  30.484  1.00  0.00     0.020 A 
ATOM     87  C   UNL A   1      50.598  27.446  28.150  1.00  0.00     0.020 A 
ATOM     88  C   UNL A   1      51.210  26.984  29.317  1.00  0.00     0.054 A 
BRANCH  88  89
ATOM     89  S   UNL A   1      52.984  26.603  29.337  1.00  0.00     0.124 S 
ATOM     90  O   UNL A   1      53.579  27.934  29.425  1.00  0.00    -0.237 OA
ATOM     91  O   UNL A   1      53.121  25.773  30.530  1.00  0.00    -0.237 OA
ATOM     92  O   UNL A   1      53.204  25.906  28.071  1.00  0.00    -0.744 OA
ENDBRANCH  88  89
ENDBRANCH  62  83
ENDBRANCH  36  37
ENDBRANCH  29  31
ENDBRANCH  28  29
ENDBRANCH  27  28
ENDBRANCH  26  27
ENDBRANCH  25  26
ENDBRANCH  24  25
ENDBRANCH   1  24
TORSDOF 23
ENDMDL
MODEL 2
REMARK VINA RESULT:      -9.8      2.951      8.251
REMARK SMILES CC(C)(C)OC(=O)N1[C@@H](C(=O)OCCOCCOCCOC(=O)c2ccc(-c3c4nc(c(-c5ccc(S(=O)(=O)[O-])cc5)c5ccc([nH]5)c(-c5ccc(S(=O)(=O)[O-])cc5)c5nc(c(-c6ccc(S(=O)(=O)[O-])cc6)c6ccc3[nH]6)C=C5)C=C4)cc2)C[C@H]2CCCC[C@@H]21
REMARK SMILES IDX 16 1 15 2 14 3 13 4 12 5 10 6 11 7 9 8 8 9 90 10 84 11 85 12
REMARK SMILES IDX 89 13 86 14 88 15 87 16 6 17 7 18 5 19 2 20 1 21 3 22 4 23
REMARK SMILES IDX 17 24 18 25 19 26 20 27 21 28 22 29 23 30 24 31 25 32 83 33
REMARK SMILES IDX 26 34 82 35 27 36 28 37 29 38 76 39 30 40 81 41 75 42 77 43
REMARK SMILES IDX 31 44 80 45 74 46 73 47 32 49 62 50 43 51 61 52 44 53 47 54
REMARK SMILES IDX 60 55 78 56 45 57 46 58 59 60 79 61 48 62 33 63 34 64 42 65
REMARK SMILES IDX 35 66 41 67 36 68 37 69 38 70 39 71 40 72 63 73 64 74 72 75
REMARK SMILES IDX 65 76 71 77 66 78 67 79 68 80 69 81 70 82 49 83 50 84 58 85
REMARK SMILES IDX 51 86 57 87 52 88 53 89 54 90 55 91 56 92
REMARK H PARENT 77 48 47 59
REMARK Flexibility Score: inf
ROOT
ATOM      1  C   UNL A   1      34.470  23.038  26.385  1.00  0.00     0.188 C 
ENDROOT
BRANCH   1   2
ATOM      2  O   UNL A   1      33.121  23.030  26.840  1.00  0.00    -0.376 OA
BRANCH   2   3
ATOM      3  C   UNL A   1      32.119  22.349  26.111  1.00  0.00     0.202 C 
BRANCH   3   4
ATOM      4  C   UNL A   1      31.324  23.125  25.048  1.00  0.00     0.261 C 
BRANCH   4   5
ATOM      5  O   UNL A   1      31.305  24.569  25.130  1.00  0.00    -0.462 OA
BRANCH   5   6
ATOM      6  C   UNL A   1      30.601  25.199  24.146  1.00  0.00     0.329 C 
ATOM      7  O   UNL A   1      30.485  24.747  23.010  1.00  0.00    -0.250 OA
BRANCH   6   8
ATOM      8  C   UNL A   1      29.950  26.542  24.609  1.00  0.00     0.199 C 
ATOM      9  N   UNL A   1      30.543  27.800  24.074  1.00  0.00    -0.291 N 
ATOM     10  C   UNL A   1      31.725  28.133  24.847  1.00  0.00     0.092 C 
ATOM     11  C   UNL A   1      30.307  26.600  26.122  1.00  0.00     0.043 C 
ATOM     12  C   UNL A   1      31.283  27.770  26.265  1.00  0.00     0.014 C 
ATOM     13  C   UNL A   1      32.251  29.573  24.921  1.00  0.00     0.025 C 
ATOM     14  C   UNL A   1      32.529  27.606  27.122  1.00  0.00     0.006 C 
ATOM     15  C   UNL A   1      33.461  29.645  25.862  1.00  0.00     0.002 C 
ATOM     16  C   UNL A   1      33.234  28.969  27.220  1.00  0.00     0.000 C 
BRANCH   9  17
ATOM     17  C   UNL A   1      30.145  28.602  23.027  1.00  0.00     0.411 C 
ATOM     18  O   UNL A   1      30.363  28.289  21.860  1.00  0.00    -0.224 OA
BRANCH  17  19
ATOM     19  O   UNL A   1      29.545  29.777  23.355  1.00  0.00    -0.444 OA
BRANCH  19  20
ATOM     20  C   UNL A   1      28.178  30.041  22.863  1.00  0.00     0.106 C 
ATOM     21  C   UNL A   1      27.655  31.224  23.692  1.00  0.00     0.056 C 
ATOM     22  C   UNL A   1      27.295  28.818  23.129  1.00  0.00     0.056 C 
ATOM     23  C   UNL A   1      28.046  30.453  21.377  1.00  0.00     0.056 C 
ENDBRANCH  19  20
ENDBRANCH  17  19
ENDBRANCH   9  17
ENDBRANCH   6   8
ENDBRANCH   5   6
ENDBRANCH   4   5
ENDBRANCH   3   4
ENDBRANCH   2   3
ENDBRANCH   1   2
BRANCH   1  24
ATOM     24  C   UNL A   1      34.923  24.014  25.282  1.00  0.00     0.188 C 
BRANCH  24  25
ATOM     25  O   UNL A   1      36.023  23.553  24.534  1.00  0.00    -0.376 OA
BRANCH  25  26
ATOM     26  C   UNL A   1      36.295  22.172  24.508  1.00  0.00     0.202 C 
BRANCH  26  27
ATOM     27  C   UNL A   1      37.630  21.599  25.019  1.00  0.00     0.261 C 
BRANCH  27  28
ATOM     28  O   UNL A   1      38.183  22.152  26.224  1.00  0.00    -0.460 OA
BRANCH  28  29
ATOM     29  C   UNL A   1      39.521  22.046  26.398  1.00  0.00     0.338 C 
ATOM     30  O   UNL A   1      40.231  21.131  26.022  1.00  0.00    -0.246 OA
BRANCH  29  31
ATOM     31  C   UNL A   1      40.036  23.296  27.007  1.00  0.00     0.060 A 
ATOM     32  C   UNL A   1      39.604  24.518  26.492  1.00  0.00     0.016 A 
ATOM     33  C   UNL A   1      40.998  23.278  28.014  1.00  0.00     0.016 A 
ATOM     34  C   UNL A   1      40.140  25.723  26.947  1.00  0.00     0.010 A 
ATOM     35  C   UNL A   1      41.547  24.489  28.469  1.00  0.00     0.010 A 
ATOM     36  C   UNL A   1      41.144  25.721  27.916  1.00  0.00    -0.014 A 
BRANCH  36  37
ATOM     37  C   UNL A   1      41.883  26.978  28.213  1.00  0.00     0.031 A 
ATOM     38  C   UNL A   1      41.143  28.117  28.866  1.00  0.00     0.074 A 
ATOM     39  C   UNL A   1      43.203  27.100  27.974  1.00  0.00     0.049 A 
ATOM     40  N   UNL A   1      41.548  29.334  29.129  1.00  0.00    -0.248 NA
ATOM     41  C   UNL A   1      39.757  27.840  29.278  1.00  0.00     0.031 C 
ATOM     42  C   UNL A   1      44.071  26.045  27.454  1.00  0.00     0.029 A 
ATOM     43  N   UNL A   1      44.045  28.172  28.145  1.00  0.00    -0.354 N 
ATOM     44  C   UNL A   1      40.459  29.977  29.710  1.00  0.00     0.074 A 
ATOM     45  C   UNL A   1      39.372  29.021  29.738  1.00  0.00     0.031 C 
ATOM     46  C   UNL A   1      45.325  26.522  27.351  1.00  0.00     0.029 A 
ATOM     47  C   UNL A   1      45.337  27.932  27.741  1.00  0.00     0.049 A 
ATOM     48  H   UNL A   1      43.751  29.034  28.521  1.00  0.00     0.167 HD
ATOM     49  C   UNL A   1      40.368  31.247  30.176  1.00  0.00     0.031 A 
ATOM     50  C   UNL A   1      46.401  28.758  27.662  1.00  0.00     0.031 A 
ATOM     51  C   UNL A   1      41.448  32.200  30.136  1.00  0.00     0.049 A 
ATOM     52  C   UNL A   1      46.247  30.202  28.070  1.00  0.00     0.074 A 
ATOM     53  C   UNL A   1      41.452  33.517  30.561  1.00  0.00     0.029 A 
ATOM     54  N   UNL A   1      42.718  31.940  29.640  1.00  0.00    -0.354 N 
ATOM     55  N   UNL A   1      45.200  30.813  28.573  1.00  0.00    -0.248 NA
ATOM     56  C   UNL A   1      47.422  31.068  27.898  1.00  0.00     0.031 C 
ATOM     57  C   UNL A   1      42.701  34.072  30.262  1.00  0.00     0.029 A 
ATOM     58  C   UNL A   1      43.503  33.079  29.722  1.00  0.00     0.049 A 
ATOM     59  H   UNL A   1      43.017  31.073  29.283  1.00  0.00     0.167 HD
ATOM     60  C   UNL A   1      45.600  32.127  28.804  1.00  0.00     0.074 A 
ATOM     61  C   UNL A   1      46.988  32.215  28.402  1.00  0.00     0.031 C 
ATOM     62  C   UNL A   1      44.884  33.163  29.309  1.00  0.00     0.031 A 
BRANCH  49  63
ATOM     63  C   UNL A   1      39.028  31.692  30.706  1.00  0.00    -0.014 A 
ATOM     64  C   UNL A   1      38.075  32.316  29.879  1.00  0.00     0.010 A 
ATOM     65  C   UNL A   1      38.720  31.486  32.063  1.00  0.00     0.010 A 
ATOM     66  C   UNL A   1      36.869  32.781  30.414  1.00  0.00     0.020 A 
ATOM     67  C   UNL A   1      37.501  31.917  32.594  1.00  0.00     0.020 A 
ATOM     68  C   UNL A   1      36.594  32.585  31.771  1.00  0.00     0.054 A 
BRANCH  68  69
ATOM     69  S   UNL A   1      35.029  33.211  32.442  1.00  0.00     0.124 S 
ATOM     70  O   UNL A   1      35.075  34.618  32.051  1.00  0.00    -0.237 OA
ATOM     71  O   UNL A   1      34.034  32.398  31.746  1.00  0.00    -0.237 OA
ATOM     72  O   UNL A   1      35.141  32.960  33.877  1.00  0.00    -0.744 OA
ENDBRANCH  68  69
ENDBRANCH  49  63
BRANCH  50  73
ATOM     73  C   UNL A   1      47.705  28.251  27.147  1.00  0.00    -0.014 A 
ATOM     74  C   UNL A   1      48.741  27.907  28.036  1.00  0.00     0.010 A 
ATOM     75  C   UNL A   1      47.920  28.106  25.765  1.00  0.00     0.010 A 
ATOM     76  C   UNL A   1      49.963  27.432  27.551  1.00  0.00     0.020 A 
ATOM     77  C   UNL A   1      49.130  27.602  25.277  1.00  0.00     0.020 A 
ATOM     78  C   UNL A   1      50.147  27.273  26.175  1.00  0.00     0.054 A 
BRANCH  78  79
ATOM     79  S   UNL A   1      51.716  26.584  25.576  1.00  0.00     0.124 S 
ATOM     80  O   UNL A   1      51.749  27.055  24.195  1.00  0.00    -0.237 OA
ATOM     81  O   UNL A   1      52.690  27.196  26.478  1.00  0.00    -0.237 OA
ATOM     82  O   UNL A   1      51.544  25.143  25.742  1.00  0.00    -0.744 OA
ENDBRANCH  78  79
ENDBRANCH  50  73
BRANCH  62  83
ATOM     83  C   UNL A   1      45.601  34.479  29.496  1.00  0.00    -0.014 A 
ATOM     84  C   UNL A   1      45.620  35.459  28.487  1.00  0.00     0.010 A 
ATOM     85  C   UNL A   1      46.241  34.750  30.720  1.00  0.00     0.010 A 
ATOM     86  C   UNL A   1      46.307  36.661  28.679  1.00  0.00     0.020 A 
ATOM     87  C   UNL A   1      46.898  35.965  30.930  1.00  0.00     0.020 A 
ATOM     88  C   UNL A   1      46.945  36.906  29.900  1.00  0.00     0.054 A 
BRANCH  88  89
ATOM     89  S   UNL A   1      47.813  38.482  30.132  1.00  0.00     0.124 S 
ATOM     90  O   UNL A   1      47.406  38.857  31.483  1.00  0.00    -0.237 OA
ATOM     91  O   UNL A   1      49.215  38.102  29.980  1.00  0.00    -0.237 OA
ATOM     92  O   UNL A   1      47.284  39.330  29.065  1.00  0.00    -0.744 OA
ENDBRANCH  88  89
ENDBRANCH  62  83
ENDBRANCH  36  37
ENDBRANCH  29  31
ENDBRANCH  28  29
ENDBRANCH  27  28
ENDBRANCH  26  27
ENDBRANCH  25  26
ENDBRANCH  24  25
ENDBRANCH   1  24
TORSDOF 23
ENDMDL
MODEL 3
REMARK VINA RESULT:      -9.4      2.709      9.719
REMARK SMILES CC(C)(C)OC(=O)N1[C@@H](C(=O)OCCOCCOCCOC(=O)c2ccc(-c3c4nc(c(-c5ccc(S(=O)(=O)[O-])cc5)c5ccc([nH]5)c(-c5ccc(S(=O)(=O)[O-])cc5)c5nc(c(-c6ccc(S(=O)(=O)[O-])cc6)c6ccc3[nH]6)C=C5)C=C4)cc2)C[C@H]2CCCC[C@@H]21
REMARK SMILES IDX 16 1 15 2 14 3 13 4 12 5 10 6 11 7 9 8 8 9 90 10 84 11 85 12
REMARK SMILES IDX 89 13 86 14 88 15 87 16 6 17 7 18 5 19 2 20 1 21 3 22 4 23
REMARK SMILES IDX 17 24 18 25 19 26 20 27 21 28 22 29 23 30 24 31 25 32 83 33
REMARK SMILES IDX 26 34 82 35 27 36 28 37 29 38 76 39 30 40 81 41 75 42 77 43
REMARK SMILES IDX 31 44 80 45 74 46 73 47 32 49 62 50 43 51 61 52 44 53 47 54
REMARK SMILES IDX 60 55 78 56 45 57 46 58 59 60 79 61 48 62 33 63 34 64 42 65
REMARK SMILES IDX 35 66 41 67 36 68 37 69 38 70 39 71 40 72 63 73 64 74 72 75
REMARK SMILES IDX 65 76 71 77 66 78 67 79 68 80 69 81 70 82 49 83 50 84 58 85
REMARK SMILES IDX 51 86 57 87 52 88 53 89 54 90 55 91 56 92
REMARK H PARENT 77 48 47 59
REMARK Flexibility Score: inf
ROOT
ATOM      1  C   UNL A   1      33.111  21.176  25.193  1.00  0.00     0.188 C 
ENDROOT
BRANCH   1   2
ATOM      2  O   UNL A   1      31.745  21.511  24.976  1.00  0.00    -0.376 OA
BRANCH   2   3
ATOM      3  C   UNL A   1      31.276  22.822  25.224  1.00  0.00     0.202 C 
BRANCH   3   4
ATOM      4  C   UNL A   1      30.705  23.636  24.051  1.00  0.00     0.261 C 
BRANCH   4   5
ATOM      5  O   UNL A   1      31.621  24.425  23.259  1.00  0.00    -0.462 OA
BRANCH   5   6
ATOM      6  C   UNL A   1      31.993  25.615  23.813  1.00  0.00     0.329 C 
ATOM      7  O   UNL A   1      33.163  25.977  23.902  1.00  0.00    -0.250 OA
BRANCH   6   8
ATOM      8  C   UNL A   1      30.785  26.474  24.310  1.00  0.00     0.199 C 
ATOM      9  N   UNL A   1      30.801  27.923  23.966  1.00  0.00    -0.291 N 
ATOM     10  C   UNL A   1      31.656  28.624  24.906  1.00  0.00     0.092 C 
ATOM     11  C   UNL A   1      30.971  26.476  25.855  1.00  0.00     0.043 C 
ATOM     12  C   UNL A   1      31.318  27.920  26.221  1.00  0.00     0.014 C 
ATOM     13  C   UNL A   1      31.487  30.127  25.172  1.00  0.00     0.025 C 
ATOM     14  C   UNL A   1      32.444  28.194  27.207  1.00  0.00     0.006 C 
ATOM     15  C   UNL A   1      32.471  30.584  26.258  1.00  0.00     0.002 C 
ATOM     16  C   UNL A   1      32.468  29.700  27.512  1.00  0.00     0.000 C 
BRANCH   9  17
ATOM     17  C   UNL A   1      30.166  28.610  22.955  1.00  0.00     0.411 C 
ATOM     18  O   UNL A   1      30.171  28.197  21.798  1.00  0.00    -0.224 OA
BRANCH  17  19
ATOM     19  O   UNL A   1      29.579  29.788  23.294  1.00  0.00    -0.444 OA
BRANCH  19  20
ATOM     20  C   UNL A   1      28.168  30.016  22.921  1.00  0.00     0.106 C 
ATOM     21  C   UNL A   1      28.179  30.354  21.423  1.00  0.00     0.056 C 
ATOM     22  C   UNL A   1      27.624  31.218  23.699  1.00  0.00     0.056 C 
ATOM     23  C   UNL A   1      27.205  28.816  23.095  1.00  0.00     0.056 C 
ENDBRANCH  19  20
ENDBRANCH  17  19
ENDBRANCH   9  17
ENDBRANCH   6   8
ENDBRANCH   5   6
ENDBRANCH   4   5
ENDBRANCH   3   4
ENDBRANCH   2   3
ENDBRANCH   1   2
BRANCH   1  24
ATOM     24  C   UNL A   1      33.945  21.920  26.254  1.00  0.00     0.188 C 
BRANCH  24  25
ATOM     25  O   UNL A   1      35.257  21.428  26.392  1.00  0.00    -0.376 OA
BRANCH  25  26
ATOM     26  C   UNL A   1      36.100  21.420  25.264  1.00  0.00     0.202 C 
BRANCH  26  27
ATOM     27  C   UNL A   1      37.634  21.420  25.399  1.00  0.00     0.261 C 
BRANCH  27  28
ATOM     28  O   UNL A   1      38.292  22.679  25.606  1.00  0.00    -0.460 OA
BRANCH  28  29
ATOM     29  C   UNL A   1      39.335  22.700  26.469  1.00  0.00     0.338 C 
ATOM     30  O   UNL A   1      40.062  21.764  26.749  1.00  0.00    -0.246 OA
BRANCH  29  31
ATOM     31  C   UNL A   1      39.557  24.089  26.936  1.00  0.00     0.060 A 
ATOM     32  C   UNL A   1      40.125  25.008  26.053  1.00  0.00     0.016 A 
ATOM     33  C   UNL A   1      39.295  24.472  28.249  1.00  0.00     0.016 A 
ATOM     34  C   UNL A   1      40.464  26.295  26.471  1.00  0.00     0.010 A 
ATOM     35  C   UNL A   1      39.642  25.765  28.677  1.00  0.00     0.010 A 
ATOM     36  C   UNL A   1      40.259  26.678  27.798  1.00  0.00    -0.014 A 
BRANCH  36  37
ATOM     37  C   UNL A   1      40.846  27.951  28.296  1.00  0.00     0.031 A 
ATOM     38  C   UNL A   1      42.338  28.147  28.204  1.00  0.00     0.074 A 
ATOM     39  C   UNL A   1      40.076  28.953  28.764  1.00  0.00     0.049 A 
ATOM     40  N   UNL A   1      43.080  29.123  28.660  1.00  0.00    -0.248 NA
ATOM     41  C   UNL A   1      43.089  27.094  27.502  1.00  0.00     0.031 C 
ATOM     42  C   UNL A   1      38.615  28.952  28.805  1.00  0.00     0.029 A 
ATOM     43  N   UNL A   1      40.425  30.173  29.292  1.00  0.00    -0.354 N 
ATOM     44  C   UNL A   1      44.389  28.790  28.324  1.00  0.00     0.074 A 
ATOM     45  C   UNL A   1      44.337  27.510  27.649  1.00  0.00     0.031 C 
ATOM     46  C   UNL A   1      38.192  30.117  29.327  1.00  0.00     0.029 A 
ATOM     47  C   UNL A   1      39.351  30.922  29.712  1.00  0.00     0.049 A 
ATOM     48  H   UNL A   1      41.357  30.483  29.363  1.00  0.00     0.167 HD
ATOM     49  C   UNL A   1      45.531  29.482  28.558  1.00  0.00     0.031 A 
ATOM     50  C   UNL A   1      39.304  32.103  30.361  1.00  0.00     0.031 A 
ATOM     51  C   UNL A   1      45.582  30.751  29.241  1.00  0.00     0.049 A 
ATOM     52  C   UNL A   1      40.593  32.800  30.722  1.00  0.00     0.074 A 
ATOM     53  C   UNL A   1      46.689  31.521  29.548  1.00  0.00     0.029 A 
ATOM     54  N   UNL A   1      44.476  31.434  29.725  1.00  0.00    -0.354 N 
ATOM     55  N   UNL A   1      41.827  32.453  30.443  1.00  0.00    -0.248 NA
ATOM     56  C   UNL A   1      40.478  34.050  31.487  1.00  0.00     0.031 C 
ATOM     57  C   UNL A   1      46.260  32.637  30.274  1.00  0.00     0.029 A 
ATOM     58  C   UNL A   1      44.877  32.603  30.354  1.00  0.00     0.049 A 
ATOM     59  H   UNL A   1      43.543  31.134  29.636  1.00  0.00     0.167 HD
ATOM     60  C   UNL A   1      42.634  33.457  30.973  1.00  0.00     0.074 A 
ATOM     61  C   UNL A   1      41.745  34.431  31.573  1.00  0.00     0.031 C 
ATOM     62  C   UNL A   1      43.986  33.564  30.959  1.00  0.00     0.031 A 
BRANCH  49  63
ATOM     63  C   UNL A   1      46.826  28.839  28.127  1.00  0.00    -0.014 A 
ATOM     64  C   UNL A   1      47.391  29.088  26.862  1.00  0.00     0.010 A 
ATOM     65  C   UNL A   1      47.489  27.963  29.006  1.00  0.00     0.010 A 
ATOM     66  C   UNL A   1      48.555  28.424  26.463  1.00  0.00     0.020 A 
ATOM     67  C   UNL A   1      48.672  27.325  28.625  1.00  0.00     0.020 A 
ATOM     68  C   UNL A   1      49.184  27.541  27.346  1.00  0.00     0.054 A 
BRANCH  68  69
ATOM     69  S   UNL A   1      50.685  26.682  26.797  1.00  0.00     0.124 S 
ATOM     70  O   UNL A   1      50.246  25.289  26.778  1.00  0.00    -0.237 OA
ATOM     71  O   UNL A   1      50.935  27.279  25.487  1.00  0.00    -0.237 OA
ATOM     72  O   UNL A   1      51.669  27.010  27.826  1.00  0.00    -0.744 OA
ENDBRANCH  68  69
ENDBRANCH  49  63
BRANCH  50  73
ATOM     73  C   UNL A   1      37.990  32.696  30.741  1.00  0.00    -0.014 A 
ATOM     74  C   UNL A   1      37.475  32.525  32.040  1.00  0.00     0.010 A 
ATOM     75  C   UNL A   1      37.244  33.439  29.807  1.00  0.00     0.010 A 
ATOM     76  C   UNL A   1      36.242  33.082  32.393  1.00  0.00     0.020 A 
ATOM     77  C   UNL A   1      36.025  34.023  30.166  1.00  0.00     0.020 A 
ATOM     78  C   UNL A   1      35.529  33.836  31.458  1.00  0.00     0.054 A 
BRANCH  78  79
ATOM     79  S   UNL A   1      33.968  34.610  31.965  1.00  0.00     0.124 S 
ATOM     80  O   UNL A   1      33.392  33.594  32.839  1.00  0.00    -0.237 OA
ATOM     81  O   UNL A   1      34.426  35.831  32.627  1.00  0.00    -0.237 OA
ATOM     82  O   UNL A   1      33.263  34.822  30.703  1.00  0.00    -0.744 OA
ENDBRANCH  78  79
ENDBRANCH  50  73
BRANCH  62  83
ATOM     83  C   UNL A   1      44.593  34.801  31.577  1.00  0.00    -0.014 A 
ATOM     84  C   UNL A   1      44.637  36.026  30.885  1.00  0.00     0.010 A 
ATOM     85  C   UNL A   1      45.100  34.742  32.888  1.00  0.00     0.010 A 
ATOM     86  C   UNL A   1      45.221  37.151  31.474  1.00  0.00     0.020 A 
ATOM     87  C   UNL A   1      45.652  35.874  33.495  1.00  0.00     0.020 A 
ATOM     88  C   UNL A   1      45.728  37.067  32.776  1.00  0.00     0.054 A 
BRANCH  88  89
ATOM     89  S   UNL A   1      46.463  38.548  33.524  1.00  0.00     0.124 S 
ATOM     90  O   UNL A   1      47.017  39.234  32.360  1.00  0.00    -0.237 OA
ATOM     91  O   UNL A   1      45.313  39.196  34.148  1.00  0.00    -0.237 OA
ATOM     92  O   UNL A   1      47.451  38.010  34.458  1.00  0.00    -0.744 OA
ENDBRANCH  88  89
ENDBRANCH  62  83
ENDBRANCH  36  37
ENDBRANCH  29  31
ENDBRANCH  28  29
ENDBRANCH  27  28
ENDBRANCH  26  27
ENDBRANCH  25  26
ENDBRANCH  24  25
ENDBRANCH   1  24
TORSDOF 23
ENDMDL
