MODEL 1
REMARK VINA RESULT:     -10.1      0.000      0.000
REMARK SMILES CCOC(=O)C1=NN(c2ccc(F)cc2F)[C@@H](C(=O)OCCOCCOCCOC(=O)c2ccc(-c3c4nc(c(-c5ccc(S(=O)(=O)[O-])cc5)c5ccc([nH]5)c(-c5ccc(S(=O)(=O)[O-])cc5)c5nc(c(-c6ccc(S(=O)(=O)[O-])cc6)c6ccc3[nH]6)C=C5)C=C4)cc2)C1
REMARK SMILES IDX 24 1 23 2 22 3 21 4 20 5 18 6 19 7 17 8 6 9 7 10 92 11 8 12
REMARK SMILES IDX 4 13 5 14 3 15 2 16 1 17 9 18 10 19 15 20 11 21 14 22 16 23
REMARK SMILES IDX 12 24 13 25 25 26 26 27 27 28 28 29 29 30 30 31 31 32 32 33
REMARK SMILES IDX 33 34 91 35 34 36 90 37 35 38 36 39 37 40 84 41 38 42 89 43
REMARK SMILES IDX 83 44 85 45 39 46 88 47 82 48 81 49 40 51 70 52 51 53 69 54
REMARK SMILES IDX 52 55 55 56 68 57 86 58 53 59 54 60 67 62 87 63 56 64 41 65
REMARK SMILES IDX 42 66 50 67 43 68 49 69 44 70 45 71 46 72 47 73 48 74 71 75
REMARK SMILES IDX 72 76 80 77 73 78 79 79 74 80 75 81 76 82 77 83 78 84 57 85
REMARK SMILES IDX 58 86 66 87 59 88 65 89 60 90 61 91 62 92 63 93 64 94
REMARK H PARENT 85 50 55 61
REMARK Flexibility Score: inf
ROOT
ATOM      1  C   UNL A   1      33.565  23.640  25.319  1.00  0.00     0.188 C 
ENDROOT
BRANCH   1   2
ATOM      2  O   UNL A   1      32.183  23.767  25.632  1.00  0.00    -0.376 OA
BRANCH   2   3
ATOM      3  C   UNL A   1      31.213  23.334  24.679  1.00  0.00     0.202 C 
BRANCH   3   4
ATOM      4  C   UNL A   1      30.829  24.257  23.514  1.00  0.00     0.261 C 
BRANCH   4   5
ATOM      5  O   UNL A   1      31.283  25.601  23.725  1.00  0.00    -0.462 OA
BRANCH   5   6
ATOM      6  C   UNL A   1      30.323  26.501  24.091  1.00  0.00     0.331 C 
ATOM      7  O   UNL A   1      29.438  26.263  24.899  1.00  0.00    -0.250 OA
BRANCH   6   8
ATOM      8  C   UNL A   1      30.495  27.787  23.287  1.00  0.00     0.224 C 
ATOM      9  C   UNL A   1      29.068  29.583  23.269  1.00  0.00     0.148 C 
ATOM     10  N   UNL A   1      30.036  29.987  24.026  1.00  0.00    -0.169 NA
ATOM     11  C   UNL A   1      29.164  28.209  22.696  1.00  0.00     0.105 C 
ATOM     12  N   UNL A   1      30.918  28.960  24.061  1.00  0.00    -0.247 N 
BRANCH   9  13
ATOM     13  C   UNL A   1      27.862  30.417  22.969  1.00  0.00     0.354 C 
ATOM     14  O   UNL A   1      27.200  30.976  23.814  1.00  0.00    -0.245 OA
BRANCH  13  15
ATOM     15  O   UNL A   1      27.700  30.413  21.628  1.00  0.00    -0.461 OA
BRANCH  15  16
ATOM     16  C   UNL A   1      28.534  31.328  20.916  1.00  0.00     0.230 C 
ATOM     17  C   UNL A   1      27.843  32.675  20.845  1.00  0.00     0.049 C 
ENDBRANCH  15  16
ENDBRANCH  13  15
ENDBRANCH   9  13
BRANCH  12  18
ATOM     18  C   UNL A   1      31.900  28.930  25.038  1.00  0.00     0.096 A 
ATOM     19  C   UNL A   1      31.604  29.359  26.337  1.00  0.00     0.034 A 
ATOM     20  C   UNL A   1      33.211  28.506  24.757  1.00  0.00     0.151 A 
ATOM     21  C   UNL A   1      32.611  29.430  27.298  1.00  0.00     0.041 A 
ATOM     22  C   UNL A   1      34.223  28.597  25.699  1.00  0.00     0.080 A 
ATOM     23  F   UNL A   1      33.521  28.040  23.539  1.00  0.00    -0.205 F 
ATOM     24  C   UNL A   1      33.915  29.085  26.954  1.00  0.00     0.126 A 
ATOM     25  F   UNL A   1      34.906  29.251  27.832  1.00  0.00    -0.207 F 
ENDBRANCH  12  18
ENDBRANCH   6   8
ENDBRANCH   5   6
ENDBRANCH   4   5
ENDBRANCH   3   4
ENDBRANCH   2   3
ENDBRANCH   1   2
BRANCH   1  26
ATOM     26  C   UNL A   1      34.457  22.746  26.204  1.00  0.00     0.188 C 
BRANCH  26  27
ATOM     27  O   UNL A   1      35.741  23.239  26.497  1.00  0.00    -0.376 OA
BRANCH  27  28
ATOM     28  C   UNL A   1      36.834  22.910  25.654  1.00  0.00     0.202 C 
BRANCH  28  29
ATOM     29  C   UNL A   1      38.262  23.500  25.727  1.00  0.00     0.261 C 
BRANCH  29  30
ATOM     30  O   UNL A   1      38.628  24.294  26.857  1.00  0.00    -0.460 OA
BRANCH  30  31
ATOM     31  C   UNL A   1      39.770  25.016  26.722  1.00  0.00     0.338 C 
ATOM     32  O   UNL A   1      40.486  25.072  25.737  1.00  0.00    -0.246 OA
BRANCH  31  33
ATOM     33  C   UNL A   1      39.923  25.902  27.894  1.00  0.00     0.060 A 
ATOM     34  C   UNL A   1      38.993  25.799  28.937  1.00  0.00     0.016 A 
ATOM     35  C   UNL A   1      40.945  26.853  27.951  1.00  0.00     0.016 A 
ATOM     36  C   UNL A   1      39.075  26.660  30.032  1.00  0.00     0.010 A 
ATOM     37  C   UNL A   1      41.006  27.735  29.036  1.00  0.00     0.010 A 
ATOM     38  C   UNL A   1      40.063  27.659  30.073  1.00  0.00    -0.014 A 
BRANCH  38  39
ATOM     39  C   UNL A   1      40.009  28.699  31.133  1.00  0.00     0.031 A 
ATOM     40  C   UNL A   1      41.037  28.677  32.225  1.00  0.00     0.074 A 
ATOM     41  C   UNL A   1      39.072  29.664  31.126  1.00  0.00     0.049 A 
ATOM     42  N   UNL A   1      41.177  29.491  33.239  1.00  0.00    -0.248 NA
ATOM     43  C   UNL A   1      42.016  27.578  32.188  1.00  0.00     0.031 C 
ATOM     44  C   UNL A   1      38.000  29.775  30.146  1.00  0.00     0.029 A 
ATOM     45  N   UNL A   1      38.885  30.751  31.946  1.00  0.00    -0.354 N 
ATOM     46  C   UNL A   1      42.232  28.984  33.984  1.00  0.00     0.074 A 
ATOM     47  C   UNL A   1      42.710  27.803  33.294  1.00  0.00     0.031 C 
ATOM     48  C   UNL A   1      37.325  30.915  30.366  1.00  0.00     0.029 A 
ATOM     49  C   UNL A   1      37.872  31.589  31.534  1.00  0.00     0.049 A 
ATOM     50  H   UNL A   1      39.425  30.915  32.753  1.00  0.00     0.167 HD
ATOM     51  C   UNL A   1      42.733  29.439  35.156  1.00  0.00     0.031 A 
ATOM     52  C   UNL A   1      37.428  32.759  32.036  1.00  0.00     0.031 A 
ATOM     53  C   UNL A   1      42.224  30.582  35.867  1.00  0.00     0.049 A 
ATOM     54  C   UNL A   1      38.022  33.260  33.325  1.00  0.00     0.074 A 
ATOM     55  C   UNL A   1      42.634  31.087  37.089  1.00  0.00     0.029 A 
ATOM     56  N   UNL A   1      41.191  31.396  35.426  1.00  0.00    -0.354 N 
ATOM     57  N   UNL A   1      39.011  32.757  34.024  1.00  0.00    -0.248 NA
ATOM     58  C   UNL A   1      37.412  34.459  33.917  1.00  0.00     0.031 C 
ATOM     59  C   UNL A   1      41.820  32.179  37.408  1.00  0.00     0.029 A 
ATOM     60  C   UNL A   1      40.943  32.392  36.356  1.00  0.00     0.049 A 
ATOM     61  H   UNL A   1      40.706  31.283  34.577  1.00  0.00     0.167 HD
ATOM     62  C   UNL A   1      39.128  33.567  35.147  1.00  0.00     0.074 A 
ATOM     63  C   UNL A   1      38.147  34.623  35.009  1.00  0.00     0.031 C 
ATOM     64  C   UNL A   1      39.956  33.431  36.211  1.00  0.00     0.031 A 
BRANCH  51  65
ATOM     65  C   UNL A   1      43.845  28.642  35.775  1.00  0.00    -0.014 A 
ATOM     66  C   UNL A   1      45.192  28.953  35.525  1.00  0.00     0.010 A 
ATOM     67  C   UNL A   1      43.533  27.565  36.626  1.00  0.00     0.010 A 
ATOM     68  C   UNL A   1      46.210  28.175  36.083  1.00  0.00     0.020 A 
ATOM     69  C   UNL A   1      44.548  26.801  37.207  1.00  0.00     0.020 A 
ATOM     70  C   UNL A   1      45.880  27.101  36.917  1.00  0.00     0.054 A 
BRANCH  70  71
ATOM     71  S   UNL A   1      47.221  26.114  37.635  1.00  0.00     0.124 S 
ATOM     72  O   UNL A   1      48.390  26.946  37.354  1.00  0.00    -0.237 OA
ATOM     73  O   UNL A   1      46.837  26.026  39.041  1.00  0.00    -0.237 OA
ATOM     74  O   UNL A   1      47.160  24.856  36.895  1.00  0.00    -0.744 OA
ENDBRANCH  70  71
ENDBRANCH  51  65
BRANCH  52  75
ATOM     75  C   UNL A   1      36.349  33.535  31.352  1.00  0.00    -0.014 A 
ATOM     76  C   UNL A   1      35.207  33.945  32.066  1.00  0.00     0.010 A 
ATOM     77  C   UNL A   1      36.436  33.847  29.983  1.00  0.00     0.010 A 
ATOM     78  C   UNL A   1      34.165  34.624  31.421  1.00  0.00     0.020 A 
ATOM     79  C   UNL A   1      35.416  34.559  29.343  1.00  0.00     0.020 A 
ATOM     80  C   UNL A   1      34.277  34.925  30.062  1.00  0.00     0.054 A 
BRANCH  80  81
ATOM     81  S   UNL A   1      32.934  35.832  29.244  1.00  0.00     0.124 S 
ATOM     82  O   UNL A   1      32.411  34.830  28.319  1.00  0.00    -0.237 OA
ATOM     83  O   UNL A   1      32.056  36.183  30.357  1.00  0.00    -0.237 OA
ATOM     84  O   UNL A   1      33.618  36.963  28.620  1.00  0.00    -0.744 OA
ENDBRANCH  80  81
ENDBRANCH  52  75
BRANCH  64  85
ATOM     85  C   UNL A   1      39.839  34.452  37.310  1.00  0.00    -0.014 A 
ATOM     86  C   UNL A   1      38.996  34.233  38.416  1.00  0.00     0.010 A 
ATOM     87  C   UNL A   1      40.620  35.620  37.263  1.00  0.00     0.010 A 
ATOM     88  C   UNL A   1      38.917  35.180  39.441  1.00  0.00     0.020 A 
ATOM     89  C   UNL A   1      40.562  36.556  38.297  1.00  0.00     0.020 A 
ATOM     90  C   UNL A   1      39.701  36.336  39.375  1.00  0.00     0.054 A 
BRANCH  90  91
ATOM     91  S   UNL A   1      39.617  37.527  40.741  1.00  0.00     0.124 S 
ATOM     92  O   UNL A   1      39.020  36.726  41.806  1.00  0.00    -0.237 OA
ATOM     93  O   UNL A   1      41.019  37.888  40.938  1.00  0.00    -0.237 OA
ATOM     94  O   UNL A   1      38.773  38.597  40.216  1.00  0.00    -0.744 OA
ENDBRANCH  90  91
ENDBRANCH  64  85
ENDBRANCH  38  39
ENDBRANCH  31  33
ENDBRANCH  30  31
ENDBRANCH  29  30
ENDBRANCH  28  29
ENDBRANCH  27  28
ENDBRANCH  26  27
ENDBRANCH   1  26
TORSDOF 24
ENDMDL
MODEL 2
REMARK VINA RESULT:     -10.0      3.758      4.451
REMARK SMILES CCOC(=O)C1=NN(c2ccc(F)cc2F)[C@@H](C(=O)OCCOCCOCCOC(=O)c2ccc(-c3c4nc(c(-c5ccc(S(=O)(=O)[O-])cc5)c5ccc([nH]5)c(-c5ccc(S(=O)(=O)[O-])cc5)c5nc(c(-c6ccc(S(=O)(=O)[O-])cc6)c6ccc3[nH]6)C=C5)C=C4)cc2)C1
REMARK SMILES IDX 24 1 23 2 22 3 21 4 20 5 18 6 19 7 17 8 6 9 7 10 92 11 8 12
REMARK SMILES IDX 4 13 5 14 3 15 2 16 1 17 9 18 10 19 15 20 11 21 14 22 16 23
REMARK SMILES IDX 12 24 13 25 25 26 26 27 27 28 28 29 29 30 30 31 31 32 32 33
REMARK SMILES IDX 33 34 91 35 34 36 90 37 35 38 36 39 37 40 84 41 38 42 89 43
REMARK SMILES IDX 83 44 85 45 39 46 88 47 82 48 81 49 40 51 70 52 51 53 69 54
REMARK SMILES IDX 52 55 55 56 68 57 86 58 53 59 54 60 67 62 87 63 56 64 41 65
REMARK SMILES IDX 42 66 50 67 43 68 49 69 44 70 45 71 46 72 47 73 48 74 71 75
REMARK SMILES IDX 72 76 80 77 73 78 79 79 74 80 75 81 76 82 77 83 78 84 57 85
REMARK SMILES IDX 58 86 66 87 59 88 65 89 60 90 61 91 62 92 63 93 64 94
REMARK H PARENT 85 50 55 61
REMARK Flexibility Score: inf
ROOT
ATOM      1  C   UNL A   1      33.350  22.758  25.283  1.00  0.00     0.188 C 
ENDROOT
BRANCH   1   2
ATOM      2  O   UNL A   1      32.127  23.233  25.832  1.00  0.00    -0.376 OA
BRANCH   2   3
ATOM      3  C   UNL A   1      30.971  23.301  24.998  1.00  0.00     0.202 C 
BRANCH   3   4
ATOM      4  C   UNL A   1      30.890  24.368  23.899  1.00  0.00     0.261 C 
BRANCH   4   5
ATOM      5  O   UNL A   1      31.655  25.535  24.229  1.00  0.00    -0.462 OA
BRANCH   5   6
ATOM      6  C   UNL A   1      30.937  26.609  24.674  1.00  0.00     0.331 C 
ATOM      7  O   UNL A   1      30.345  26.637  25.743  1.00  0.00    -0.250 OA
BRANCH   6   8
ATOM      8  C   UNL A   1      30.940  27.702  23.610  1.00  0.00     0.224 C 
ATOM      9  C   UNL A   1      29.265  29.217  23.209  1.00  0.00     0.148 C 
ATOM     10  N   UNL A   1      30.141  29.916  23.855  1.00  0.00    -0.169 NA
ATOM     11  C   UNL A   1      29.578  27.783  22.948  1.00  0.00     0.105 C 
ATOM     12  N   UNL A   1      31.164  29.065  24.108  1.00  0.00    -0.247 N 
BRANCH   9  13
ATOM     13  C   UNL A   1      27.958  29.777  22.742  1.00  0.00     0.354 C 
ATOM     14  O   UNL A   1      26.924  29.690  23.366  1.00  0.00    -0.245 OA
BRANCH  13  15
ATOM     15  O   UNL A   1      28.183  30.369  21.550  1.00  0.00    -0.461 OA
BRANCH  15  16
ATOM     16  C   UNL A   1      27.982  31.784  21.531  1.00  0.00     0.230 C 
ATOM     17  C   UNL A   1      28.053  32.275  20.100  1.00  0.00     0.049 C 
ENDBRANCH  15  16
ENDBRANCH  13  15
ENDBRANCH   9  13
BRANCH  12  18
ATOM     18  C   UNL A   1      32.112  29.394  25.063  1.00  0.00     0.096 A 
ATOM     19  C   UNL A   1      33.293  28.649  25.160  1.00  0.00     0.034 A 
ATOM     20  C   UNL A   1      31.911  30.448  25.973  1.00  0.00     0.151 A 
ATOM     21  C   UNL A   1      34.204  28.908  26.184  1.00  0.00     0.041 A 
ATOM     22  C   UNL A   1      32.798  30.695  27.008  1.00  0.00     0.080 A 
ATOM     23  F   UNL A   1      30.816  31.216  25.880  1.00  0.00    -0.205 F 
ATOM     24  C   UNL A   1      33.924  29.902  27.116  1.00  0.00     0.126 A 
ATOM     25  F   UNL A   1      34.732  30.087  28.162  1.00  0.00    -0.207 F 
ENDBRANCH  12  18
ENDBRANCH   6   8
ENDBRANCH   5   6
ENDBRANCH   4   5
ENDBRANCH   3   4
ENDBRANCH   2   3
ENDBRANCH   1   2
BRANCH   1  26
ATOM     26  C   UNL A   1      33.965  21.455  25.832  1.00  0.00     0.188 C 
BRANCH  26  27
ATOM     27  O   UNL A   1      35.343  21.484  26.112  1.00  0.00    -0.376 OA
BRANCH  27  28
ATOM     28  C   UNL A   1      36.273  21.039  25.136  1.00  0.00     0.202 C 
BRANCH  28  29
ATOM     29  C   UNL A   1      37.738  21.510  24.981  1.00  0.00     0.261 C 
BRANCH  29  30
ATOM     30  O   UNL A   1      38.131  22.758  25.554  1.00  0.00    -0.460 OA
BRANCH  30  31
ATOM     31  C   UNL A   1      39.208  22.712  26.379  1.00  0.00     0.338 C 
ATOM     32  O   UNL A   1      39.982  21.781  26.517  1.00  0.00    -0.246 OA
BRANCH  31  33
ATOM     33  C   UNL A   1      39.435  24.054  26.953  1.00  0.00     0.060 A 
ATOM     34  C   UNL A   1      40.035  25.033  26.149  1.00  0.00     0.016 A 
ATOM     35  C   UNL A   1      39.102  24.337  28.279  1.00  0.00     0.016 A 
ATOM     36  C   UNL A   1      40.316  26.293  26.679  1.00  0.00     0.010 A 
ATOM     37  C   UNL A   1      39.413  25.592  28.816  1.00  0.00     0.010 A 
ATOM     38  C   UNL A   1      40.038  26.571  28.028  1.00  0.00    -0.014 A 
BRANCH  38  39
ATOM     39  C   UNL A   1      40.533  27.835  28.633  1.00  0.00     0.031 A 
ATOM     40  C   UNL A   1      41.997  27.971  28.933  1.00  0.00     0.074 A 
ATOM     41  C   UNL A   1      39.703  28.858  28.904  1.00  0.00     0.049 A 
ATOM     42  N   UNL A   1      42.638  28.985  29.452  1.00  0.00    -0.248 NA
ATOM     43  C   UNL A   1      42.843  26.804  28.637  1.00  0.00     0.031 C 
ATOM     44  C   UNL A   1      38.262  28.838  28.696  1.00  0.00     0.029 A 
ATOM     45  N   UNL A   1      39.952  30.123  29.383  1.00  0.00    -0.354 N 
ATOM     46  C   UNL A   1      43.955  28.569  29.584  1.00  0.00     0.074 A 
ATOM     47  C   UNL A   1      44.025  27.216  29.071  1.00  0.00     0.031 C 
ATOM     48  C   UNL A   1      37.767  30.059  28.958  1.00  0.00     0.029 A 
ATOM     49  C   UNL A   1      38.839  30.934  29.408  1.00  0.00     0.049 A 
ATOM     50  H   UNL A   1      40.842  30.420  29.681  1.00  0.00     0.167 HD
ATOM     51  C   UNL A   1      45.002  29.238  30.119  1.00  0.00     0.031 A 
ATOM     52  C   UNL A   1      38.692  32.229  29.756  1.00  0.00     0.031 A 
ATOM     53  C   UNL A   1      44.920  30.563  30.676  1.00  0.00     0.049 A 
ATOM     54  C   UNL A   1      39.879  32.961  30.320  1.00  0.00     0.074 A 
ATOM     55  C   UNL A   1      45.919  31.301  31.289  1.00  0.00     0.029 A 
ATOM     56  N   UNL A   1      43.776  31.346  30.695  1.00  0.00    -0.354 N 
ATOM     57  N   UNL A   1      41.115  32.544  30.452  1.00  0.00    -0.248 NA
ATOM     58  C   UNL A   1      39.644  34.321  30.826  1.00  0.00     0.031 C 
ATOM     59  C   UNL A   1      45.367  32.513  31.717  1.00  0.00     0.029 A 
ATOM     60  C   UNL A   1      44.040  32.555  31.318  1.00  0.00     0.049 A 
ATOM     61  H   UNL A   1      42.905  31.083  30.321  1.00  0.00     0.167 HD
ATOM     62  C   UNL A   1      41.799  33.582  31.072  1.00  0.00     0.074 A 
ATOM     63  C   UNL A   1      40.855  34.667  31.241  1.00  0.00     0.031 C 
ATOM     64  C   UNL A   1      43.089  33.622  31.489  1.00  0.00     0.031 A 
BRANCH  51  65
ATOM     65  C   UNL A   1      46.311  28.505  30.193  1.00  0.00    -0.014 A 
ATOM     66  C   UNL A   1      46.607  27.649  31.267  1.00  0.00     0.010 A 
ATOM     67  C   UNL A   1      47.258  28.676  29.167  1.00  0.00     0.010 A 
ATOM     68  C   UNL A   1      47.846  27.005  31.334  1.00  0.00     0.020 A 
ATOM     69  C   UNL A   1      48.487  28.014  29.216  1.00  0.00     0.020 A 
ATOM     70  C   UNL A   1      48.779  27.196  30.309  1.00  0.00     0.054 A 
BRANCH  70  71
ATOM     71  S   UNL A   1      50.375  26.341  30.416  1.00  0.00     0.124 S 
ATOM     72  O   UNL A   1      50.274  25.379  29.320  1.00  0.00    -0.237 OA
ATOM     73  O   UNL A   1      51.334  27.424  30.214  1.00  0.00    -0.237 OA
ATOM     74  O   UNL A   1      50.367  25.760  31.756  1.00  0.00    -0.744 OA
ENDBRANCH  70  71
ENDBRANCH  51  65
BRANCH  52  75
ATOM     75  C   UNL A   1      37.375  32.923  29.618  1.00  0.00    -0.014 A 
ATOM     76  C   UNL A   1      36.537  33.087  30.738  1.00  0.00     0.010 A 
ATOM     77  C   UNL A   1      36.934  33.399  28.370  1.00  0.00     0.010 A 
ATOM     78  C   UNL A   1      35.278  33.686  30.608  1.00  0.00     0.020 A 
ATOM     79  C   UNL A   1      35.693  34.032  28.242  1.00  0.00     0.020 A 
ATOM     80  C   UNL A   1      34.864  34.154  29.358  1.00  0.00     0.054 A 
BRANCH  80  81
ATOM     81  S   UNL A   1      33.242  34.956  29.207  1.00  0.00     0.124 S 
ATOM     82  O   UNL A   1      33.604  36.282  28.718  1.00  0.00    -0.237 OA
ATOM     83  O   UNL A   1      32.544  34.098  28.252  1.00  0.00    -0.237 OA
ATOM     84  O   UNL A   1      32.714  34.913  30.570  1.00  0.00    -0.744 OA
ENDBRANCH  80  81
ENDBRANCH  52  75
BRANCH  64  85
ATOM     85  C   UNL A   1      43.554  34.882  32.167  1.00  0.00    -0.014 A 
ATOM     86  C   UNL A   1      44.112  35.941  31.426  1.00  0.00     0.010 A 
ATOM     87  C   UNL A   1      43.384  35.030  33.555  1.00  0.00     0.010 A 
ATOM     88  C   UNL A   1      44.517  37.114  32.067  1.00  0.00     0.020 A 
ATOM     89  C   UNL A   1      43.766  36.212  34.195  1.00  0.00     0.020 A 
ATOM     90  C   UNL A   1      44.341  37.243  33.449  1.00  0.00     0.054 A 
BRANCH  90  91
ATOM     91  S   UNL A   1      44.830  38.794  34.251  1.00  0.00     0.124 S 
ATOM     92  O   UNL A   1      43.537  39.414  34.526  1.00  0.00    -0.237 OA
ATOM     93  O   UNL A   1      45.567  38.331  35.424  1.00  0.00    -0.237 OA
ATOM     94  O   UNL A   1      45.641  39.467  33.239  1.00  0.00    -0.744 OA
ENDBRANCH  90  91
ENDBRANCH  64  85
ENDBRANCH  38  39
ENDBRANCH  31  33
ENDBRANCH  30  31
ENDBRANCH  29  30
ENDBRANCH  28  29
ENDBRANCH  27  28
ENDBRANCH  26  27
ENDBRANCH   1  26
TORSDOF 24
ENDMDL
MODEL 3
REMARK VINA RESULT:      -9.6      5.013      6.065
REMARK SMILES CCOC(=O)C1=NN(c2ccc(F)cc2F)[C@@H](C(=O)OCCOCCOCCOC(=O)c2ccc(-c3c4nc(c(-c5ccc(S(=O)(=O)[O-])cc5)c5ccc([nH]5)c(-c5ccc(S(=O)(=O)[O-])cc5)c5nc(c(-c6ccc(S(=O)(=O)[O-])cc6)c6ccc3[nH]6)C=C5)C=C4)cc2)C1
REMARK SMILES IDX 24 1 23 2 22 3 21 4 20 5 18 6 19 7 17 8 6 9 7 10 92 11 8 12
REMARK SMILES IDX 4 13 5 14 3 15 2 16 1 17 9 18 10 19 15 20 11 21 14 22 16 23
REMARK SMILES IDX 12 24 13 25 25 26 26 27 27 28 28 29 29 30 30 31 31 32 32 33
REMARK SMILES IDX 33 34 91 35 34 36 90 37 35 38 36 39 37 40 84 41 38 42 89 43
REMARK SMILES IDX 83 44 85 45 39 46 88 47 82 48 81 49 40 51 70 52 51 53 69 54
REMARK SMILES IDX 52 55 55 56 68 57 86 58 53 59 54 60 67 62 87 63 56 64 41 65
REMARK SMILES IDX 42 66 50 67 43 68 49 69 44 70 45 71 46 72 47 73 48 74 71 75
REMARK SMILES IDX 72 76 80 77 73 78 79 79 74 80 75 81 76 82 77 83 78 84 57 85
REMARK SMILES IDX 58 86 66 87 59 88 65 89 60 90 61 91 62 92 63 93 64 94
REMARK H PARENT 85 50 55 61
REMARK Flexibility Score: inf
ROOT
ATOM      1  C   UNL A   1      33.489  22.178  24.923  1.00  0.00     0.188 C 
ENDROOT
BRANCH   1   2
ATOM      2  O   UNL A   1      32.429  22.893  25.547  1.00  0.00    -0.376 OA
BRANCH   2   3
ATOM      3  C   UNL A   1      31.125  22.841  24.973  1.00  0.00     0.202 C 
BRANCH   3   4
ATOM      4  C   UNL A   1      30.671  23.954  24.018  1.00  0.00     0.261 C 
BRANCH   4   5
ATOM      5  O   UNL A   1      31.400  25.171  24.230  1.00  0.00    -0.462 OA
BRANCH   5   6
ATOM      6  C   UNL A   1      30.658  26.243  24.637  1.00  0.00     0.331 C 
ATOM      7  O   UNL A   1      29.918  26.230  25.610  1.00  0.00    -0.250 OA
BRANCH   6   8
ATOM      8  C   UNL A   1      30.849  27.398  23.658  1.00  0.00     0.224 C 
ATOM      9  C   UNL A   1      29.410  29.153  23.325  1.00  0.00     0.148 C 
ATOM     10  N   UNL A   1      30.348  29.677  24.046  1.00  0.00    -0.169 NA
ATOM     11  C   UNL A   1      29.536  27.712  22.966  1.00  0.00     0.105 C 
ATOM     12  N   UNL A   1      31.237  28.678  24.262  1.00  0.00    -0.247 N 
BRANCH   9  13
ATOM     13  C   UNL A   1      28.210  29.919  22.864  1.00  0.00     0.354 C 
ATOM     14  O   UNL A   1      27.143  29.911  23.437  1.00  0.00    -0.245 OA
BRANCH  13  15
ATOM     15  O   UNL A   1      28.568  30.584  21.745  1.00  0.00    -0.461 OA
BRANCH  15  16
ATOM     16  C   UNL A   1      27.652  31.596  21.324  1.00  0.00     0.230 C 
ATOM     17  C   UNL A   1      28.236  32.328  20.133  1.00  0.00     0.049 C 
ENDBRANCH  15  16
ENDBRANCH  13  15
ENDBRANCH   9  13
BRANCH  12  18
ATOM     18  C   UNL A   1      32.183  28.805  25.266  1.00  0.00     0.096 A 
ATOM     19  C   UNL A   1      31.789  29.191  26.552  1.00  0.00     0.034 A 
ATOM     20  C   UNL A   1      33.552  28.586  25.024  1.00  0.00     0.151 A 
ATOM     21  C   UNL A   1      32.746  29.423  27.539  1.00  0.00     0.041 A 
ATOM     22  C   UNL A   1      34.510  28.838  25.992  1.00  0.00     0.080 A 
ATOM     23  F   UNL A   1      33.963  28.166  23.819  1.00  0.00    -0.205 F 
ATOM     24  C   UNL A   1      34.096  29.280  27.233  1.00  0.00     0.126 A 
ATOM     25  F   UNL A   1      35.026  29.601  28.135  1.00  0.00    -0.207 F 
ENDBRANCH  12  18
ENDBRANCH   6   8
ENDBRANCH   5   6
ENDBRANCH   4   5
ENDBRANCH   3   4
ENDBRANCH   2   3
ENDBRANCH   1   2
BRANCH   1  26
ATOM     26  C   UNL A   1      34.129  20.985  25.662  1.00  0.00     0.188 C 
BRANCH  26  27
ATOM     27  O   UNL A   1      35.489  21.114  25.997  1.00  0.00    -0.376 OA
BRANCH  27  28
ATOM     28  C   UNL A   1      36.487  20.702  25.076  1.00  0.00     0.202 C 
BRANCH  28  29
ATOM     29  C   UNL A   1      37.976  21.120  25.086  1.00  0.00     0.261 C 
BRANCH  29  30
ATOM     30  O   UNL A   1      38.410  22.121  26.009  1.00  0.00    -0.460 OA
BRANCH  30  31
ATOM     31  C   UNL A   1      39.704  22.027  26.410  1.00  0.00     0.338 C 
ATOM     32  O   UNL A   1      40.474  21.110  26.183  1.00  0.00    -0.246 OA
BRANCH  31  33
ATOM     33  C   UNL A   1      40.119  23.313  27.006  1.00  0.00     0.060 A 
ATOM     34  C   UNL A   1      39.584  24.497  26.481  1.00  0.00     0.016 A 
ATOM     35  C   UNL A   1      41.055  23.359  28.041  1.00  0.00     0.016 A 
ATOM     36  C   UNL A   1      39.999  25.732  26.983  1.00  0.00     0.010 A 
ATOM     37  C   UNL A   1      41.492  24.600  28.522  1.00  0.00     0.010 A 
ATOM     38  C   UNL A   1      40.983  25.793  27.985  1.00  0.00    -0.014 A 
BRANCH  38  39
ATOM     39  C   UNL A   1      41.568  27.107  28.358  1.00  0.00     0.031 A 
ATOM     40  C   UNL A   1      43.026  27.351  28.104  1.00  0.00     0.074 A 
ATOM     41  C   UNL A   1      40.819  28.082  28.905  1.00  0.00     0.049 A 
ATOM     42  N   UNL A   1      43.734  28.423  28.346  1.00  0.00    -0.248 NA
ATOM     43  C   UNL A   1      43.792  26.234  27.529  1.00  0.00     0.031 C 
ATOM     44  C   UNL A   1      39.406  27.958  29.236  1.00  0.00     0.029 A 
ATOM     45  N   UNL A   1      41.129  29.376  29.251  1.00  0.00    -0.354 N 
ATOM     46  C   UNL A   1      45.037  28.100  27.992  1.00  0.00     0.074 A 
ATOM     47  C   UNL A   1      45.017  26.738  27.499  1.00  0.00     0.031 C 
ATOM     48  C   UNL A   1      38.950  29.151  29.650  1.00  0.00     0.029 A 
ATOM     49  C   UNL A   1      40.044  30.111  29.673  1.00  0.00     0.049 A 
ATOM     50  H   UNL A   1      42.041  29.742  29.201  1.00  0.00     0.167 HD
ATOM     51  C   UNL A   1      46.153  28.857  28.104  1.00  0.00     0.031 A 
ATOM     52  C   UNL A   1      39.936  31.404  30.040  1.00  0.00     0.031 A 
ATOM     53  C   UNL A   1      46.180  30.191  28.642  1.00  0.00     0.049 A 
ATOM     54  C   UNL A   1      41.189  32.233  30.127  1.00  0.00     0.074 A 
ATOM     55  C   UNL A   1      47.274  31.015  28.843  1.00  0.00     0.029 A 
ATOM     56  N   UNL A   1      45.066  30.897  29.070  1.00  0.00    -0.354 N 
ATOM     57  N   UNL A   1      42.416  31.904  29.803  1.00  0.00    -0.248 NA
ATOM     58  C   UNL A   1      41.052  33.591  30.673  1.00  0.00     0.031 C 
ATOM     59  C   UNL A   1      46.826  32.202  29.433  1.00  0.00     0.029 A 
ATOM     60  C   UNL A   1      45.446  32.141  29.544  1.00  0.00     0.049 A 
ATOM     61  H   UNL A   1      44.140  30.563  29.041  1.00  0.00     0.167 HD
ATOM     62  C   UNL A   1      43.198  33.007  30.123  1.00  0.00     0.074 A 
ATOM     63  C   UNL A   1      42.301  34.031  30.616  1.00  0.00     0.031 C 
ATOM     64  C   UNL A   1      44.544  33.148  30.042  1.00  0.00     0.031 A 
BRANCH  51  65
ATOM     65  C   UNL A   1      47.451  28.215  27.702  1.00  0.00    -0.014 A 
ATOM     66  C   UNL A   1      47.870  28.196  26.361  1.00  0.00     0.010 A 
ATOM     67  C   UNL A   1      48.265  27.626  28.687  1.00  0.00     0.010 A 
ATOM     68  C   UNL A   1      49.064  27.562  26.005  1.00  0.00     0.020 A 
ATOM     69  C   UNL A   1      49.472  27.015  28.339  1.00  0.00     0.020 A 
ATOM     70  C   UNL A   1      49.854  26.972  26.997  1.00  0.00     0.054 A 
BRANCH  70  71
ATOM     71  S   UNL A   1      51.402  26.164  26.509  1.00  0.00     0.124 S 
ATOM     72  O   UNL A   1      51.594  26.678  25.154  1.00  0.00    -0.237 OA
ATOM     73  O   UNL A   1      52.349  26.656  27.506  1.00  0.00    -0.237 OA
ATOM     74  O   UNL A   1      51.093  24.739  26.596  1.00  0.00    -0.744 OA
ENDBRANCH  70  71
ENDBRANCH  51  65
BRANCH  52  75
ATOM     75  C   UNL A   1      38.611  32.004  30.386  1.00  0.00    -0.014 A 
ATOM     76  C   UNL A   1      38.150  31.991  31.716  1.00  0.00     0.010 A 
ATOM     77  C   UNL A   1      37.788  32.564  29.392  1.00  0.00     0.010 A 
ATOM     78  C   UNL A   1      36.886  32.500  32.040  1.00  0.00     0.020 A 
ATOM     79  C   UNL A   1      36.540  33.109  29.717  1.00  0.00     0.020 A 
ATOM     80  C   UNL A   1      36.088  33.055  31.036  1.00  0.00     0.054 A 
BRANCH  80  81
ATOM     81  S   UNL A   1      34.464  33.738  31.474  1.00  0.00     0.124 S 
ATOM     82  O   UNL A   1      33.825  33.860  30.168  1.00  0.00    -0.237 OA
ATOM     83  O   UNL A   1      33.910  32.715  32.356  1.00  0.00    -0.237 OA
ATOM     84  O   UNL A   1      34.794  35.002  32.130  1.00  0.00    -0.744 OA
ENDBRANCH  80  81
ENDBRANCH  52  75
BRANCH  64  85
ATOM     85  C   UNL A   1      45.128  34.459  30.493  1.00  0.00    -0.014 A 
ATOM     86  C   UNL A   1      45.254  35.542  29.603  1.00  0.00     0.010 A 
ATOM     87  C   UNL A   1      45.508  34.626  31.837  1.00  0.00     0.010 A 
ATOM     88  C   UNL A   1      45.775  36.761  30.045  1.00  0.00     0.020 A 
ATOM     89  C   UNL A   1      46.008  35.851  32.287  1.00  0.00     0.020 A 
ATOM     90  C   UNL A   1      46.150  36.908  31.384  1.00  0.00     0.054 A 
BRANCH  90  91
ATOM     91  S   UNL A   1      46.778  38.514  31.944  1.00  0.00     0.124 S 
ATOM     92  O   UNL A   1      48.107  38.548  31.340  1.00  0.00    -0.237 OA
ATOM     93  O   UNL A   1      45.809  39.452  31.383  1.00  0.00    -0.237 OA
ATOM     94  O   UNL A   1      46.759  38.404  33.401  1.00  0.00    -0.744 OA
ENDBRANCH  90  91
ENDBRANCH  64  85
ENDBRANCH  38  39
ENDBRANCH  31  33
ENDBRANCH  30  31
ENDBRANCH  29  30
ENDBRANCH  28  29
ENDBRANCH  27  28
ENDBRANCH  26  27
ENDBRANCH   1  26
TORSDOF 24
ENDMDL
