MODEL 1
REMARK VINA RESULT:     -10.5      0.000      0.000
REMARK SMILES O=C(OCCOCCOCCOC(=O)[C@H]1[C@H]2CC[C@H](CC2)[C@@H]1C(=O)Nc1ccc(Cc2ccncc2)cc1)c1ccc(-c2c3nc(c(-c4ccc(S(=O)(=O)[O-])cc4)c4ccc([nH]4)c(-c4ccc(S(=O)(=O)[O-])cc4)c4nc(c(-c5ccc(S(=O)(=O)[O-])cc5)c5ccc2[nH]5)C=C4)C=C3)cc1
REMARK SMILES IDX 8 1 7 2 6 3 5 4 4 5 3 6 2 7 1 8 39 9 40 10 98 11 41 12 97 13
REMARK SMILES IDX 42 14 43 15 44 16 91 17 45 18 96 19 90 20 92 21 46 22 95 23
REMARK SMILES IDX 89 24 88 25 47 27 77 28 58 29 76 30 59 31 62 32 75 33 93 34
REMARK SMILES IDX 60 35 61 36 74 38 94 39 63 40 48 41 49 42 57 43 50 44 56 45
REMARK SMILES IDX 51 46 52 47 53 48 54 49 55 50 78 51 79 52 87 53 80 54 86 55
REMARK SMILES IDX 81 56 82 57 83 58 84 59 85 60 64 61 65 62 73 63 66 64 72 65
REMARK SMILES IDX 67 66 68 67 69 68 70 69 71 70 9 71 10 72 11 73 12 74 13 75
REMARK SMILES IDX 14 76 15 77 16 78 22 79 21 80 17 81 19 82 20 83 18 84 23 85
REMARK SMILES IDX 24 86 25 87 26 89 27 90 38 91 28 92 37 93 29 94 30 95 31 96
REMARK SMILES IDX 32 97 36 98 33 99 35 100 34 101
REMARK H PARENT 92 26 62 37 25 88
REMARK Flexibility Score: inf
ROOT
ATOM      1  C   UNL A   1      37.082  23.604  26.215  1.00  0.00     0.188 C 
ENDROOT
BRANCH   1   2
ATOM      2  C   UNL A   1      38.530  24.087  26.284  1.00  0.00     0.188 C 
BRANCH   2   3
ATOM      3  O   UNL A   1      39.514  23.050  26.353  1.00  0.00    -0.376 OA
BRANCH   3   4
ATOM      4  C   UNL A   1      38.936  21.742  26.414  1.00  0.00     0.202 C 
BRANCH   4   5
ATOM      5  C   UNL A   1      39.533  20.696  25.455  1.00  0.00     0.261 C 
BRANCH   5   6
ATOM      6  O   UNL A   1      40.423  19.747  26.064  1.00  0.00    -0.460 OA
BRANCH   6   7
ATOM      7  C   UNL A   1      41.714  19.888  26.457  1.00  0.00     0.338 C 
ATOM      8  O   UNL A   1      42.371  18.860  26.624  1.00  0.00    -0.246 OA
BRANCH   7   9
ATOM      9  C   UNL A   1      42.380  21.203  26.747  1.00  0.00     0.060 A 
ATOM     10  C   UNL A   1      42.478  21.809  28.001  1.00  0.00     0.016 A 
ATOM     11  C   UNL A   1      42.968  21.877  25.662  1.00  0.00     0.016 A 
ATOM     12  C   UNL A   1      43.105  23.035  28.187  1.00  0.00     0.010 A 
ATOM     13  C   UNL A   1      43.627  23.101  25.844  1.00  0.00     0.010 A 
ATOM     14  C   UNL A   1      43.690  23.690  27.118  1.00  0.00    -0.014 A 
BRANCH  14  15
ATOM     15  C   UNL A   1      44.241  25.044  27.318  1.00  0.00     0.031 A 
ATOM     16  C   UNL A   1      43.273  26.173  27.426  1.00  0.00     0.074 A 
ATOM     17  C   UNL A   1      45.542  25.284  27.586  1.00  0.00     0.049 A 
ATOM     18  N   UNL A   1      43.537  27.430  27.636  1.00  0.00    -0.248 NA
ATOM     19  C   UNL A   1      41.838  25.834  27.452  1.00  0.00     0.031 C 
ATOM     20  C   UNL A   1      46.558  24.300  27.938  1.00  0.00     0.029 A 
ATOM     21  N   UNL A   1      46.260  26.452  27.516  1.00  0.00    -0.354 N 
ATOM     22  C   UNL A   1      42.327  27.994  27.987  1.00  0.00     0.074 A 
ATOM     23  C   UNL A   1      41.303  26.992  27.804  1.00  0.00     0.031 C 
ATOM     24  C   UNL A   1      47.779  24.844  27.797  1.00  0.00     0.029 A 
ATOM     25  C   UNL A   1      47.616  26.220  27.391  1.00  0.00     0.049 A 
ATOM     26  H   UNL A   1      45.856  27.350  27.549  1.00  0.00     0.167 HD
ATOM     27  C   UNL A   1      42.129  29.216  28.526  1.00  0.00     0.031 A 
ATOM     28  C   UNL A   1      48.590  27.031  26.942  1.00  0.00     0.031 A 
ATOM     29  C   UNL A   1      43.169  30.198  28.642  1.00  0.00     0.049 A 
ATOM     30  C   UNL A   1      48.276  28.491  27.011  1.00  0.00     0.074 A 
ATOM     31  C   UNL A   1      43.082  31.496  29.105  1.00  0.00     0.029 A 
ATOM     32  N   UNL A   1      44.489  29.994  28.259  1.00  0.00    -0.354 N 
ATOM     33  N   UNL A   1      47.134  29.046  27.334  1.00  0.00    -0.248 NA
ATOM     34  C   UNL A   1      49.391  29.424  26.843  1.00  0.00     0.031 C 
ATOM     35  C   UNL A   1      44.329  32.103  28.917  1.00  0.00     0.029 A 
ATOM     36  C   UNL A   1      45.212  31.164  28.403  1.00  0.00     0.049 A 
ATOM     37  H   UNL A   1      44.856  29.141  27.931  1.00  0.00     0.167 HD
ATOM     38  C   UNL A   1      47.422  30.376  27.565  1.00  0.00     0.074 A 
ATOM     39  C   UNL A   1      48.832  30.553  27.260  1.00  0.00     0.031 C 
ATOM     40  C   UNL A   1      46.605  31.334  28.066  1.00  0.00     0.031 A 
BRANCH  27  41
ATOM     41  C   UNL A   1      40.743  29.517  29.001  1.00  0.00    -0.014 A 
ATOM     42  C   UNL A   1      39.700  29.738  28.081  1.00  0.00     0.010 A 
ATOM     43  C   UNL A   1      40.485  29.606  30.376  1.00  0.00     0.010 A 
ATOM     44  C   UNL A   1      38.421  30.065  28.533  1.00  0.00     0.020 A 
ATOM     45  C   UNL A   1      39.202  29.915  30.832  1.00  0.00     0.020 A 
ATOM     46  C   UNL A   1      38.180  30.151  29.907  1.00  0.00     0.054 A 
BRANCH  46  47
ATOM     47  S   UNL A   1      36.506  30.548  30.473  1.00  0.00     0.124 S 
ATOM     48  O   UNL A   1      36.647  31.945  30.879  1.00  0.00    -0.237 OA
ATOM     49  O   UNL A   1      35.703  30.322  29.271  1.00  0.00    -0.237 OA
ATOM     50  O   UNL A   1      36.273  29.604  31.561  1.00  0.00    -0.744 OA
ENDBRANCH  46  47
ENDBRANCH  27  41
BRANCH  28  51
ATOM     51  C   UNL A   1      49.918  26.533  26.490  1.00  0.00    -0.014 A 
ATOM     52  C   UNL A   1      50.931  26.193  27.398  1.00  0.00     0.010 A 
ATOM     53  C   UNL A   1      50.210  26.502  25.109  1.00  0.00     0.010 A 
ATOM     54  C   UNL A   1      52.222  25.895  26.943  1.00  0.00     0.020 A 
ATOM     55  C   UNL A   1      51.496  26.187  24.647  1.00  0.00     0.020 A 
ATOM     56  C   UNL A   1      52.503  25.910  25.573  1.00  0.00     0.054 A 
BRANCH  56  57
ATOM     57  S   UNL A   1      54.213  25.611  25.032  1.00  0.00     0.124 S 
ATOM     58  O   UNL A   1      54.984  26.274  26.082  1.00  0.00    -0.237 OA
ATOM     59  O   UNL A   1      54.285  24.151  25.026  1.00  0.00    -0.237 OA
ATOM     60  O   UNL A   1      54.281  26.244  23.720  1.00  0.00    -0.744 OA
ENDBRANCH  56  57
ENDBRANCH  28  51
BRANCH  40  61
ATOM     61  C   UNL A   1      47.237  32.660  28.352  1.00  0.00    -0.014 A 
ATOM     62  C   UNL A   1      47.254  33.679  27.387  1.00  0.00     0.010 A 
ATOM     63  C   UNL A   1      47.805  32.890  29.619  1.00  0.00     0.010 A 
ATOM     64  C   UNL A   1      47.864  34.899  27.672  1.00  0.00     0.020 A 
ATOM     65  C   UNL A   1      48.378  34.124  29.921  1.00  0.00     0.020 A 
ATOM     66  C   UNL A   1      48.417  35.114  28.939  1.00  0.00     0.054 A 
BRANCH  66  67
ATOM     67  S   UNL A   1      49.151  36.728  29.299  1.00  0.00     0.124 S 
ATOM     68  O   UNL A   1      50.532  36.535  28.866  1.00  0.00    -0.237 OA
ATOM     69  O   UNL A   1      48.353  37.632  28.471  1.00  0.00    -0.237 OA
ATOM     70  O   UNL A   1      48.962  36.882  30.738  1.00  0.00    -0.744 OA
ENDBRANCH  66  67
ENDBRANCH  40  61
ENDBRANCH  14  15
ENDBRANCH   7   9
ENDBRANCH   6   7
ENDBRANCH   5   6
ENDBRANCH   4   5
ENDBRANCH   3   4
ENDBRANCH   2   3
ENDBRANCH   1   2
BRANCH   1  71
ATOM     71  O   UNL A   1      36.213  24.196  25.260  1.00  0.00    -0.376 OA
BRANCH  71  72
ATOM     72  C   UNL A   1      34.951  23.577  25.049  1.00  0.00     0.202 C 
BRANCH  72  73
ATOM     73  C   UNL A   1      33.754  24.016  25.906  1.00  0.00     0.261 C 
BRANCH  73  74
ATOM     74  O   UNL A   1      33.430  25.414  25.830  1.00  0.00    -0.463 OA
BRANCH  74  75
ATOM     75  C   UNL A   1      32.195  25.746  26.289  1.00  0.00     0.310 C 
ATOM     76  O   UNL A   1      31.469  24.979  26.917  1.00  0.00    -0.252 OA
BRANCH  75  77
ATOM     77  C   UNL A   1      31.803  27.209  26.070  1.00  0.00     0.115 C 
ATOM     78  C   UNL A   1      32.070  28.252  27.179  1.00  0.00     0.004 C 
ATOM     79  C   UNL A   1      32.429  27.668  24.735  1.00  0.00     0.096 C 
ATOM     80  C   UNL A   1      33.563  28.374  27.380  1.00  0.00     0.005 C 
ATOM     81  C   UNL A   1      31.615  29.675  26.757  1.00  0.00     0.005 C 
ATOM     82  C   UNL A   1      33.207  28.983  24.949  1.00  0.00     0.002 C 
ATOM     83  C   UNL A   1      34.239  28.748  26.057  1.00  0.00     0.005 C 
ATOM     84  C   UNL A   1      32.263  30.088  25.427  1.00  0.00     0.005 C 
BRANCH  79  85
ATOM     85  C   UNL A   1      31.619  27.703  23.424  1.00  0.00     0.228 C 
ATOM     86  O   UNL A   1      31.106  28.774  23.074  1.00  0.00    -0.274 OA
ATOM     87  N   UNL A   1      31.481  26.672  22.545  1.00  0.00    -0.326 N 
ATOM     88  H   UNL A   1      31.119  26.921  21.663  1.00  0.00     0.169 HD
BRANCH  87  89
ATOM     89  C   UNL A   1      31.773  25.323  22.700  1.00  0.00     0.041 A 
ATOM     90  C   UNL A   1      30.810  24.492  23.265  1.00  0.00     0.026 A 
ATOM     91  C   UNL A   1      32.946  24.787  22.173  1.00  0.00     0.026 A 
ATOM     92  C   UNL A   1      30.941  23.108  23.129  1.00  0.00     0.006 A 
ATOM     93  C   UNL A   1      33.086  23.403  22.054  1.00  0.00     0.006 A 
ATOM     94  C   UNL A   1      32.055  22.556  22.476  1.00  0.00    -0.043 A 
BRANCH  94  95
ATOM     95  C   UNL A   1      32.138  21.071  22.212  1.00  0.00     0.071 C 
BRANCH  95  96
ATOM     96  C   UNL A   1      32.338  20.248  23.451  1.00  0.00    -0.041 A 
ATOM     97  C   UNL A   1      32.303  18.852  23.383  1.00  0.00     0.024 A 
ATOM     98  C   UNL A   1      32.581  20.852  24.685  1.00  0.00     0.024 A 
ATOM     99  C   UNL A   1      32.489  18.127  24.544  1.00  0.00     0.111 A 
ATOM    100  C   UNL A   1      32.762  20.038  25.790  1.00  0.00     0.111 A 
ATOM    101  N   UNL A   1      32.722  18.687  25.749  1.00  0.00    -0.265 NA
ENDBRANCH  95  96
ENDBRANCH  94  95
ENDBRANCH  87  89
ENDBRANCH  79  85
ENDBRANCH  75  77
ENDBRANCH  74  75
ENDBRANCH  73  74
ENDBRANCH  72  73
ENDBRANCH  71  72
ENDBRANCH   1  71
TORSDOF 24
ENDMDL
MODEL 2
REMARK VINA RESULT:     -10.4      2.264      8.815
REMARK SMILES O=C(OCCOCCOCCOC(=O)[C@H]1[C@H]2CC[C@H](CC2)[C@@H]1C(=O)Nc1ccc(Cc2ccncc2)cc1)c1ccc(-c2c3nc(c(-c4ccc(S(=O)(=O)[O-])cc4)c4ccc([nH]4)c(-c4ccc(S(=O)(=O)[O-])cc4)c4nc(c(-c5ccc(S(=O)(=O)[O-])cc5)c5ccc2[nH]5)C=C4)C=C3)cc1
REMARK SMILES IDX 8 1 7 2 6 3 5 4 4 5 3 6 2 7 1 8 39 9 40 10 98 11 41 12 97 13
REMARK SMILES IDX 42 14 43 15 44 16 91 17 45 18 96 19 90 20 92 21 46 22 95 23
REMARK SMILES IDX 89 24 88 25 47 27 77 28 58 29 76 30 59 31 62 32 75 33 93 34
REMARK SMILES IDX 60 35 61 36 74 38 94 39 63 40 48 41 49 42 57 43 50 44 56 45
REMARK SMILES IDX 51 46 52 47 53 48 54 49 55 50 78 51 79 52 87 53 80 54 86 55
REMARK SMILES IDX 81 56 82 57 83 58 84 59 85 60 64 61 65 62 73 63 66 64 72 65
REMARK SMILES IDX 67 66 68 67 69 68 70 69 71 70 9 71 10 72 11 73 12 74 13 75
REMARK SMILES IDX 14 76 15 77 16 78 22 79 21 80 17 81 19 82 20 83 18 84 23 85
REMARK SMILES IDX 24 86 25 87 26 89 27 90 38 91 28 92 37 93 29 94 30 95 31 96
REMARK SMILES IDX 32 97 36 98 33 99 35 100 34 101
REMARK H PARENT 92 26 62 37 25 88
REMARK Flexibility Score: inf
ROOT
ATOM      1  C   UNL A   1      33.913  31.769  27.639  1.00  0.00     0.188 C 
ENDROOT
BRANCH   1   2
ATOM      2  C   UNL A   1      34.560  32.146  28.971  1.00  0.00     0.188 C 
BRANCH   2   3
ATOM      3  O   UNL A   1      34.423  33.520  29.346  1.00  0.00    -0.376 OA
BRANCH   3   4
ATOM      4  C   UNL A   1      35.029  33.811  30.610  1.00  0.00     0.202 C 
BRANCH   4   5
ATOM      5  C   UNL A   1      35.207  32.616  31.565  1.00  0.00     0.261 C 
BRANCH   5   6
ATOM      6  O   UNL A   1      36.522  32.038  31.579  1.00  0.00    -0.460 OA
BRANCH   6   7
ATOM      7  C   UNL A   1      36.926  30.779  31.273  1.00  0.00     0.338 C 
ATOM      8  O   UNL A   1      36.166  29.854  31.562  1.00  0.00    -0.246 OA
BRANCH   7   9
ATOM      9  C   UNL A   1      38.250  30.433  30.654  1.00  0.00     0.060 A 
ATOM     10  C   UNL A   1      38.454  30.043  29.329  1.00  0.00     0.016 A 
ATOM     11  C   UNL A   1      39.386  30.520  31.479  1.00  0.00     0.016 A 
ATOM     12  C   UNL A   1      39.714  29.730  28.832  1.00  0.00     0.010 A 
ATOM     13  C   UNL A   1      40.665  30.232  30.980  1.00  0.00     0.010 A 
ATOM     14  C   UNL A   1      40.829  29.826  29.645  1.00  0.00    -0.014 A 
BRANCH  14  15
ATOM     15  C   UNL A   1      42.136  29.371  29.130  1.00  0.00     0.031 A 
ATOM     16  C   UNL A   1      43.139  30.416  28.779  1.00  0.00     0.074 A 
ATOM     17  C   UNL A   1      42.526  28.080  29.132  1.00  0.00     0.049 A 
ATOM     18  N   UNL A   1      44.353  30.239  28.345  1.00  0.00    -0.248 NA
ATOM     19  C   UNL A   1      42.797  31.816  29.094  1.00  0.00     0.031 C 
ATOM     20  C   UNL A   1      41.870  26.969  29.813  1.00  0.00     0.029 A 
ATOM     21  N   UNL A   1      43.546  27.460  28.452  1.00  0.00    -0.354 N 
ATOM     22  C   UNL A   1      44.969  31.466  28.497  1.00  0.00     0.074 A 
ATOM     23  C   UNL A   1      43.961  32.418  28.904  1.00  0.00     0.031 C 
ATOM     24  C   UNL A   1      42.329  25.805  29.320  1.00  0.00     0.029 A 
ATOM     25  C   UNL A   1      43.336  26.101  28.329  1.00  0.00     0.049 A 
ATOM     26  H   UNL A   1      44.333  27.931  28.094  1.00  0.00     0.167 HD
ATOM     27  C   UNL A   1      46.290  31.725  28.410  1.00  0.00     0.031 A 
ATOM     28  C   UNL A   1      43.872  25.223  27.463  1.00  0.00     0.031 A 
ATOM     29  C   UNL A   1      47.249  30.761  27.952  1.00  0.00     0.049 A 
ATOM     30  C   UNL A   1      45.174  25.646  26.862  1.00  0.00     0.074 A 
ATOM     31  C   UNL A   1      48.606  30.921  27.752  1.00  0.00     0.029 A 
ATOM     32  N   UNL A   1      46.939  29.455  27.592  1.00  0.00    -0.354 N 
ATOM     33  N   UNL A   1      45.770  26.806  26.987  1.00  0.00    -0.248 NA
ATOM     34  C   UNL A   1      45.957  24.621  26.171  1.00  0.00     0.031 C 
ATOM     35  C   UNL A   1      49.098  29.739  27.186  1.00  0.00     0.029 A 
ATOM     36  C   UNL A   1      48.063  28.819  27.099  1.00  0.00     0.049 A 
ATOM     37  H   UNL A   1      46.048  29.043  27.674  1.00  0.00     0.167 HD
ATOM     38  C   UNL A   1      47.060  26.610  26.534  1.00  0.00     0.074 A 
ATOM     39  C   UNL A   1      47.125  25.239  26.054  1.00  0.00     0.031 C 
ATOM     40  C   UNL A   1      48.107  27.467  26.595  1.00  0.00     0.031 A 
BRANCH  27  41
ATOM     41  C   UNL A   1      46.726  33.099  28.811  1.00  0.00    -0.014 A 
ATOM     42  C   UNL A   1      47.119  33.370  30.136  1.00  0.00     0.010 A 
ATOM     43  C   UNL A   1      46.720  34.133  27.865  1.00  0.00     0.010 A 
ATOM     44  C   UNL A   1      47.480  34.665  30.512  1.00  0.00     0.020 A 
ATOM     45  C   UNL A   1      47.097  35.426  28.233  1.00  0.00     0.020 A 
ATOM     46  C   UNL A   1      47.467  35.685  29.556  1.00  0.00     0.054 A 
BRANCH  46  47
ATOM     47  S   UNL A   1      47.967  37.352  30.058  1.00  0.00     0.124 S 
ATOM     48  O   UNL A   1      47.007  37.648  31.120  1.00  0.00    -0.237 OA
ATOM     49  O   UNL A   1      49.347  37.149  30.499  1.00  0.00    -0.237 OA
ATOM     50  O   UNL A   1      47.813  38.143  28.842  1.00  0.00    -0.744 OA
ENDBRANCH  46  47
ENDBRANCH  27  41
BRANCH  28  51
ATOM     51  C   UNL A   1      43.272  23.890  27.180  1.00  0.00    -0.014 A 
ATOM     52  C   UNL A   1      43.178  22.896  28.164  1.00  0.00     0.010 A 
ATOM     53  C   UNL A   1      42.882  23.575  25.860  1.00  0.00     0.010 A 
ATOM     54  C   UNL A   1      42.770  21.598  27.826  1.00  0.00     0.020 A 
ATOM     55  C   UNL A   1      42.456  22.283  25.520  1.00  0.00     0.020 A 
ATOM     56  C   UNL A   1      42.428  21.294  26.504  1.00  0.00     0.054 A 
BRANCH  56  57
ATOM     57  S   UNL A   1      41.995  19.577  26.091  1.00  0.00     0.124 S 
ATOM     58  O   UNL A   1      42.892  19.300  24.970  1.00  0.00    -0.237 OA
ATOM     59  O   UNL A   1      42.306  18.872  27.333  1.00  0.00    -0.237 OA
ATOM     60  O   UNL A   1      40.580  19.645  25.749  1.00  0.00    -0.744 OA
ENDBRANCH  56  57
ENDBRANCH  28  51
BRANCH  40  61
ATOM     61  C   UNL A   1      49.432  26.924  26.161  1.00  0.00    -0.014 A 
ATOM     62  C   UNL A   1      50.216  26.145  27.028  1.00  0.00     0.010 A 
ATOM     63  C   UNL A   1      49.887  27.184  24.855  1.00  0.00     0.010 A 
ATOM     64  C   UNL A   1      51.454  25.665  26.607  1.00  0.00     0.020 A 
ATOM     65  C   UNL A   1      51.105  26.670  24.417  1.00  0.00     0.020 A 
ATOM     66  C   UNL A   1      51.887  25.927  25.302  1.00  0.00     0.054 A 
BRANCH  66  67
ATOM     67  S   UNL A   1      53.474  25.242  24.765  1.00  0.00     0.124 S 
ATOM     68  O   UNL A   1      54.425  26.099  25.465  1.00  0.00    -0.237 OA
ATOM     69  O   UNL A   1      53.401  23.861  25.242  1.00  0.00    -0.237 OA
ATOM     70  O   UNL A   1      53.443  25.395  23.313  1.00  0.00    -0.744 OA
ENDBRANCH  66  67
ENDBRANCH  40  61
ENDBRANCH  14  15
ENDBRANCH   7   9
ENDBRANCH   6   7
ENDBRANCH   5   6
ENDBRANCH   4   5
ENDBRANCH   3   4
ENDBRANCH   2   3
ENDBRANCH   1   2
BRANCH   1  71
ATOM     71  O   UNL A   1      33.191  30.549  27.556  1.00  0.00    -0.376 OA
BRANCH  71  72
ATOM     72  C   UNL A   1      33.547  29.645  26.518  1.00  0.00     0.202 C 
BRANCH  72  73
ATOM     73  C   UNL A   1      32.737  28.351  26.347  1.00  0.00     0.261 C 
BRANCH  73  74
ATOM     74  O   UNL A   1      33.499  27.205  25.933  1.00  0.00    -0.463 OA
BRANCH  74  75
ATOM     75  C   UNL A   1      32.875  26.009  26.091  1.00  0.00     0.310 C 
ATOM     76  O   UNL A   1      32.014  25.793  26.940  1.00  0.00    -0.252 OA
BRANCH  75  77
ATOM     77  C   UNL A   1      33.239  24.954  25.043  1.00  0.00     0.115 C 
ATOM     78  C   UNL A   1      34.691  24.852  24.526  1.00  0.00     0.004 C 
ATOM     79  C   UNL A   1      32.755  23.584  25.568  1.00  0.00     0.096 C 
ATOM     80  C   UNL A   1      35.587  24.449  25.675  1.00  0.00     0.005 C 
ATOM     81  C   UNL A   1      34.857  23.714  23.483  1.00  0.00     0.005 C 
ATOM     82  C   UNL A   1      33.909  22.563  25.497  1.00  0.00     0.002 C 
ATOM     83  C   UNL A   1      35.095  23.132  26.283  1.00  0.00     0.005 C 
ATOM     84  C   UNL A   1      34.365  22.374  24.049  1.00  0.00     0.005 C 
BRANCH  79  85
ATOM     85  C   UNL A   1      31.423  22.959  25.108  1.00  0.00     0.228 C 
ATOM     86  O   UNL A   1      31.203  21.771  25.379  1.00  0.00    -0.274 OA
ATOM     87  N   UNL A   1      30.402  23.620  24.496  1.00  0.00    -0.326 N 
ATOM     88  H   UNL A   1      29.548  23.131  24.466  1.00  0.00     0.169 HD
BRANCH  87  89
ATOM     89  C   UNL A   1      30.380  24.878  23.907  1.00  0.00     0.041 A 
ATOM     90  C   UNL A   1      29.666  25.896  24.533  1.00  0.00     0.026 A 
ATOM     91  C   UNL A   1      31.169  25.151  22.792  1.00  0.00     0.026 A 
ATOM     92  C   UNL A   1      29.896  27.220  24.153  1.00  0.00     0.006 A 
ATOM     93  C   UNL A   1      31.384  26.475  22.400  1.00  0.00     0.006 A 
ATOM     94  C   UNL A   1      30.797  27.522  23.119  1.00  0.00    -0.043 A 
BRANCH  94  95
ATOM     95  C   UNL A   1      31.146  28.955  22.792  1.00  0.00     0.071 C 
BRANCH  95  96
ATOM     96  C   UNL A   1      29.951  29.851  22.651  1.00  0.00    -0.041 A 
ATOM     97  C   UNL A   1      29.532  30.641  23.725  1.00  0.00     0.024 A 
ATOM     98  C   UNL A   1      29.248  29.929  21.448  1.00  0.00     0.024 A 
ATOM     99  C   UNL A   1      28.426  31.453  23.559  1.00  0.00     0.111 A 
ATOM    100  C   UNL A   1      28.156  30.777  21.380  1.00  0.00     0.111 A 
ATOM    101  N   UNL A   1      27.728  31.543  22.408  1.00  0.00    -0.265 NA
ENDBRANCH  95  96
ENDBRANCH  94  95
ENDBRANCH  87  89
ENDBRANCH  79  85
ENDBRANCH  75  77
ENDBRANCH  74  75
ENDBRANCH  73  74
ENDBRANCH  72  73
ENDBRANCH  71  72
ENDBRANCH   1  71
TORSDOF 24
ENDMDL
MODEL 3
REMARK VINA RESULT:     -10.4      0.678      7.709
REMARK SMILES O=C(OCCOCCOCCOC(=O)[C@H]1[C@H]2CC[C@H](CC2)[C@@H]1C(=O)Nc1ccc(Cc2ccncc2)cc1)c1ccc(-c2c3nc(c(-c4ccc(S(=O)(=O)[O-])cc4)c4ccc([nH]4)c(-c4ccc(S(=O)(=O)[O-])cc4)c4nc(c(-c5ccc(S(=O)(=O)[O-])cc5)c5ccc2[nH]5)C=C4)C=C3)cc1
REMARK SMILES IDX 8 1 7 2 6 3 5 4 4 5 3 6 2 7 1 8 39 9 40 10 98 11 41 12 97 13
REMARK SMILES IDX 42 14 43 15 44 16 91 17 45 18 96 19 90 20 92 21 46 22 95 23
REMARK SMILES IDX 89 24 88 25 47 27 77 28 58 29 76 30 59 31 62 32 75 33 93 34
REMARK SMILES IDX 60 35 61 36 74 38 94 39 63 40 48 41 49 42 57 43 50 44 56 45
REMARK SMILES IDX 51 46 52 47 53 48 54 49 55 50 78 51 79 52 87 53 80 54 86 55
REMARK SMILES IDX 81 56 82 57 83 58 84 59 85 60 64 61 65 62 73 63 66 64 72 65
REMARK SMILES IDX 67 66 68 67 69 68 70 69 71 70 9 71 10 72 11 73 12 74 13 75
REMARK SMILES IDX 14 76 15 77 16 78 22 79 21 80 17 81 19 82 20 83 18 84 23 85
REMARK SMILES IDX 24 86 25 87 26 89 27 90 38 91 28 92 37 93 29 94 30 95 31 96
REMARK SMILES IDX 32 97 36 98 33 99 35 100 34 101
REMARK H PARENT 92 26 62 37 25 88
REMARK Flexibility Score: inf
ROOT
ATOM      1  C   UNL A   1      36.578  22.827  26.062  1.00  0.00     0.188 C 
ENDROOT
BRANCH   1   2
ATOM      2  C   UNL A   1      37.458  21.806  25.342  1.00  0.00     0.188 C 
BRANCH   2   3
ATOM      3  O   UNL A   1      38.865  22.049  25.428  1.00  0.00    -0.376 OA
BRANCH   3   4
ATOM      4  C   UNL A   1      39.537  21.118  26.283  1.00  0.00     0.202 C 
BRANCH   4   5
ATOM      5  C   UNL A   1      39.829  19.733  25.676  1.00  0.00     0.261 C 
BRANCH   5   6
ATOM      6  O   UNL A   1      41.102  19.168  26.031  1.00  0.00    -0.460 OA
BRANCH   6   7
ATOM      7  C   UNL A   1      42.357  19.625  25.793  1.00  0.00     0.338 C 
ATOM      8  O   UNL A   1      43.146  18.854  25.246  1.00  0.00    -0.246 OA
BRANCH   7   9
ATOM      9  C   UNL A   1      42.862  20.982  26.190  1.00  0.00     0.060 A 
ATOM     10  C   UNL A   1      42.814  21.527  27.474  1.00  0.00     0.016 A 
ATOM     11  C   UNL A   1      43.446  21.769  25.181  1.00  0.00     0.016 A 
ATOM     12  C   UNL A   1      43.297  22.798  27.762  1.00  0.00     0.010 A 
ATOM     13  C   UNL A   1      43.961  23.043  25.466  1.00  0.00     0.010 A 
ATOM     14  C   UNL A   1      43.879  23.565  26.767  1.00  0.00    -0.014 A 
BRANCH  14  15
ATOM     15  C   UNL A   1      44.272  24.956  27.069  1.00  0.00     0.031 A 
ATOM     16  C   UNL A   1      45.726  25.239  27.234  1.00  0.00     0.074 A 
ATOM     17  C   UNL A   1      43.415  25.996  27.025  1.00  0.00     0.049 A 
ATOM     18  N   UNL A   1      46.291  26.388  27.467  1.00  0.00    -0.248 NA
ATOM     19  C   UNL A   1      46.667  24.138  26.957  1.00  0.00     0.031 C 
ATOM     20  C   UNL A   1      42.063  25.992  26.478  1.00  0.00     0.029 A 
ATOM     21  N   UNL A   1      43.532  27.264  27.539  1.00  0.00    -0.354 N 
ATOM     22  C   UNL A   1      47.630  26.189  27.196  1.00  0.00     0.074 A 
ATOM     23  C   UNL A   1      47.825  24.780  26.944  1.00  0.00     0.031 C 
ATOM     24  C   UNL A   1      41.400  27.080  26.909  1.00  0.00     0.029 A 
ATOM     25  C   UNL A   1      42.302  27.867  27.718  1.00  0.00     0.049 A 
ATOM     26  H   UNL A   1      44.391  27.692  27.756  1.00  0.00     0.167 HD
ATOM     27  C   UNL A   1      48.579  27.139  27.062  1.00  0.00     0.031 A 
ATOM     28  C   UNL A   1      41.958  28.905  28.498  1.00  0.00     0.031 A 
ATOM     29  C   UNL A   1      48.353  28.522  27.372  1.00  0.00     0.049 A 
ATOM     30  C   UNL A   1      43.086  29.813  28.872  1.00  0.00     0.074 A 
ATOM     31  C   UNL A   1      49.251  29.570  27.346  1.00  0.00     0.029 A 
ATOM     32  N   UNL A   1      47.137  29.042  27.800  1.00  0.00    -0.354 N 
ATOM     33  N   UNL A   1      44.362  29.639  28.631  1.00  0.00    -0.248 NA
ATOM     34  C   UNL A   1      42.737  31.115  29.442  1.00  0.00     0.031 C 
ATOM     35  C   UNL A   1      48.600  30.706  27.842  1.00  0.00     0.029 A 
ATOM     36  C   UNL A   1      47.278  30.382  28.112  1.00  0.00     0.049 A 
ATOM     37  H   UNL A   1      46.299  28.531  27.871  1.00  0.00     0.167 HD
ATOM     38  C   UNL A   1      44.954  30.863  28.870  1.00  0.00     0.074 A 
ATOM     39  C   UNL A   1      43.903  31.742  29.355  1.00  0.00     0.031 C 
ATOM     40  C   UNL A   1      46.233  31.236  28.625  1.00  0.00     0.031 A 
BRANCH  27  41
ATOM     41  C   UNL A   1      49.916  26.680  26.572  1.00  0.00    -0.014 A 
ATOM     42  C   UNL A   1      50.189  26.605  25.193  1.00  0.00     0.010 A 
ATOM     43  C   UNL A   1      50.898  26.295  27.495  1.00  0.00     0.010 A 
ATOM     44  C   UNL A   1      51.423  26.131  24.745  1.00  0.00     0.020 A 
ATOM     45  C   UNL A   1      52.140  25.837  27.051  1.00  0.00     0.020 A 
ATOM     46  C   UNL A   1      52.391  25.750  25.678  1.00  0.00     0.054 A 
BRANCH  46  47
ATOM     47  S   UNL A   1      53.997  25.165  25.076  1.00  0.00     0.124 S 
ATOM     48  O   UNL A   1      53.737  23.743  24.858  1.00  0.00    -0.237 OA
ATOM     49  O   UNL A   1      54.189  25.960  23.863  1.00  0.00    -0.237 OA
ATOM     50  O   UNL A   1      54.912  25.471  26.170  1.00  0.00    -0.744 OA
ENDBRANCH  46  47
ENDBRANCH  27  41
BRANCH  28  51
ATOM     51  C   UNL A   1      40.553  29.193  28.897  1.00  0.00    -0.014 A 
ATOM     52  C   UNL A   1      39.642  29.798  28.020  1.00  0.00     0.010 A 
ATOM     53  C   UNL A   1      40.150  28.950  30.229  1.00  0.00     0.010 A 
ATOM     54  C   UNL A   1      38.384  30.213  28.476  1.00  0.00     0.020 A 
ATOM     55  C   UNL A   1      38.885  29.347  30.686  1.00  0.00     0.020 A 
ATOM     56  C   UNL A   1      38.019  30.001  29.810  1.00  0.00     0.054 A 
BRANCH  56  57
ATOM     57  S   UNL A   1      36.416  30.640  30.385  1.00  0.00     0.124 S 
ATOM     58  O   UNL A   1      36.763  31.997  30.803  1.00  0.00    -0.237 OA
ATOM     59  O   UNL A   1      35.595  30.545  29.179  1.00  0.00    -0.237 OA
ATOM     60  O   UNL A   1      36.045  29.734  31.465  1.00  0.00    -0.744 OA
ENDBRANCH  56  57
ENDBRANCH  28  51
BRANCH  40  61
ATOM     61  C   UNL A   1      46.555  32.681  28.845  1.00  0.00    -0.014 A 
ATOM     62  C   UNL A   1      47.083  33.128  30.066  1.00  0.00     0.010 A 
ATOM     63  C   UNL A   1      46.342  33.599  27.799  1.00  0.00     0.010 A 
ATOM     64  C   UNL A   1      47.358  34.481  30.253  1.00  0.00     0.020 A 
ATOM     65  C   UNL A   1      46.657  34.945  27.968  1.00  0.00     0.020 A 
ATOM     66  C   UNL A   1      47.148  35.379  29.200  1.00  0.00     0.054 A 
BRANCH  66  67
ATOM     67  S   UNL A   1      47.570  37.121  29.453  1.00  0.00     0.124 S 
ATOM     68  O   UNL A   1      46.603  37.794  28.591  1.00  0.00    -0.237 OA
ATOM     69  O   UNL A   1      47.359  37.293  30.889  1.00  0.00    -0.237 OA
ATOM     70  O   UNL A   1      48.961  37.206  29.019  1.00  0.00    -0.744 OA
ENDBRANCH  66  67
ENDBRANCH  40  61
ENDBRANCH  14  15
ENDBRANCH   7   9
ENDBRANCH   6   7
ENDBRANCH   5   6
ENDBRANCH   4   5
ENDBRANCH   3   4
ENDBRANCH   2   3
ENDBRANCH   1   2
BRANCH   1  71
ATOM     71  O   UNL A   1      35.906  23.810  25.287  1.00  0.00    -0.376 OA
BRANCH  71  72
ATOM     72  C   UNL A   1      34.534  23.585  24.989  1.00  0.00     0.202 C 
BRANCH  72  73
ATOM     73  C   UNL A   1      33.469  24.040  25.999  1.00  0.00     0.261 C 
BRANCH  73  74
ATOM     74  O   UNL A   1      33.257  25.460  26.062  1.00  0.00    -0.463 OA
BRANCH  74  75
ATOM     75  C   UNL A   1      31.987  25.841  26.361  1.00  0.00     0.310 C 
ATOM     76  O   UNL A   1      31.152  25.099  26.873  1.00  0.00    -0.252 OA
BRANCH  75  77
ATOM     77  C   UNL A   1      31.690  27.322  26.120  1.00  0.00     0.115 C 
ATOM     78  C   UNL A   1      31.987  28.357  27.228  1.00  0.00     0.004 C 
ATOM     79  C   UNL A   1      32.380  27.731  24.800  1.00  0.00     0.096 C 
ATOM     80  C   UNL A   1      33.479  28.392  27.471  1.00  0.00     0.005 C 
ATOM     81  C   UNL A   1      31.630  29.801  26.782  1.00  0.00     0.005 C 
ATOM     82  C   UNL A   1      33.229  28.999  25.027  1.00  0.00     0.002 C 
ATOM     83  C   UNL A   1      34.213  28.712  26.166  1.00  0.00     0.005 C 
ATOM     84  C   UNL A   1      32.340  30.163  25.469  1.00  0.00     0.005 C 
BRANCH  79  85
ATOM     85  C   UNL A   1      31.611  27.802  23.466  1.00  0.00     0.228 C 
ATOM     86  O   UNL A   1      31.126  28.888  23.119  1.00  0.00    -0.274 OA
ATOM     87  N   UNL A   1      31.482  26.789  22.565  1.00  0.00    -0.326 N 
ATOM     88  H   UNL A   1      31.151  27.059  21.678  1.00  0.00     0.169 HD
BRANCH  87  89
ATOM     89  C   UNL A   1      31.745  25.432  22.705  1.00  0.00     0.041 A 
ATOM     90  C   UNL A   1      30.777  24.620  23.290  1.00  0.00     0.026 A 
ATOM     91  C   UNL A   1      32.893  24.873  22.146  1.00  0.00     0.026 A 
ATOM     92  C   UNL A   1      30.873  23.235  23.142  1.00  0.00     0.006 A 
ATOM     93  C   UNL A   1      32.997  23.486  22.017  1.00  0.00     0.006 A 
ATOM     94  C   UNL A   1      31.957  22.661  22.459  1.00  0.00    -0.043 A 
BRANCH  94  95
ATOM     95  C   UNL A   1      31.998  21.176  22.185  1.00  0.00     0.071 C 
BRANCH  95  96
ATOM     96  C   UNL A   1      32.278  20.345  23.402  1.00  0.00    -0.041 A 
ATOM     97  C   UNL A   1      32.302  20.936  24.669  1.00  0.00     0.024 A 
ATOM     98  C   UNL A   1      32.500  18.970  23.301  1.00  0.00     0.024 A 
ATOM     99  C   UNL A   1      32.565  20.140  25.767  1.00  0.00     0.111 A 
ATOM    100  C   UNL A   1      32.748  18.258  24.462  1.00  0.00     0.111 A 
ATOM    101  N   UNL A   1      32.786  18.811  25.695  1.00  0.00    -0.265 NA
ENDBRANCH  95  96
ENDBRANCH  94  95
ENDBRANCH  87  89
ENDBRANCH  79  85
ENDBRANCH  75  77
ENDBRANCH  74  75
ENDBRANCH  73  74
ENDBRANCH  72  73
ENDBRANCH  71  72
ENDBRANCH   1  71
TORSDOF 24
ENDMDL
