MODEL 1
REMARK VINA RESULT:     -11.9      0.000      0.000
REMARK SMILES Cc1c(NC(=O)[C@@H]2CC=CC[C@@H]2C(=O)OCCOCCOCCOC(=O)c2ccc(-c3c4nc(c(-c5ccc(S(=O)(=O)[O-])cc5)c5ccc([nH]5)c(-c5ccc(S(=O)(=O)[O-])cc5)c5nc(c(-c6ccc(S(=O)(=O)[O-])cc6)c6ccc3[nH]6)C=C5)C=C4)cc2)cccc1C(=O)N1CCOCC1
REMARK SMILES IDX 19 1 18 2 17 3 16 4 15 5 13 6 14 7 12 8 7 9 8 10 9 11 11 12
REMARK SMILES IDX 10 13 5 14 4 15 6 17 3 18 1 19 2 20 90 21 87 22 89 23 88 24
REMARK SMILES IDX 91 25 92 26 93 27 94 28 98 29 95 30 97 31 96 32 20 33 21 34
REMARK SMILES IDX 22 35 23 36 24 37 25 38 26 39 27 40 28 41 86 42 29 43 85 44
REMARK SMILES IDX 30 45 31 46 32 47 79 48 33 49 84 50 78 51 80 52 34 53 83 54
REMARK SMILES IDX 77 55 76 56 35 58 65 59 46 60 64 61 47 62 50 63 63 64 81 65
REMARK SMILES IDX 48 66 49 67 62 69 82 70 51 71 36 72 37 73 45 74 38 75 44 76
REMARK SMILES IDX 39 77 40 78 41 79 42 80 43 81 66 82 67 83 75 84 68 85 74 86
REMARK SMILES IDX 69 87 70 88 71 89 72 90 73 91 52 92 53 93 61 94 54 95 60 96
REMARK SMILES IDX 55 97 56 98 57 99 58 100 59 101
REMARK H PARENT 4 16 80 57 50 68
REMARK Flexibility Score: inf
ROOT
ATOM      1  C   UNL A   1      38.093  23.015  26.411  1.00  0.00     0.188 C 
ENDROOT
BRANCH   1   2
ATOM      2  O   UNL A   1      37.254  22.027  25.770  1.00  0.00    -0.376 OA
BRANCH   2   3
ATOM      3  C   UNL A   1      37.145  21.851  24.342  1.00  0.00     0.202 C 
BRANCH   3   4
ATOM      4  C   UNL A   1      36.408  22.948  23.302  1.00  0.00     0.261 C 
BRANCH   4   5
ATOM      5  O   UNL A   1      34.771  22.991  22.595  1.00  0.00    -0.463 OA
BRANCH   5   6
ATOM      6  C   UNL A   1      33.501  23.678  22.693  1.00  0.00     0.310 C 
ATOM      7  O   UNL A   1      32.956  24.407  21.856  1.00  0.00    -0.252 OA
BRANCH   6   8
ATOM      8  C   UNL A   1      32.576  23.627  23.890  1.00  0.00     0.116 C 
ATOM      9  C   UNL A   1      33.010  24.337  25.132  1.00  0.00     0.097 C 
ATOM     10  C   UNL A   1      33.963  23.469  25.920  1.00  0.00     0.041 C 
ATOM     11  C   UNL A   1      33.337  22.109  26.149  1.00  0.00    -0.030 C 
ATOM     12  C   UNL A   1      31.872  22.290  24.138  1.00  0.00     0.043 C 
ATOM     13  C   UNL A   1      32.383  21.592  25.358  1.00  0.00    -0.030 C 
BRANCH   9  14
ATOM     14  C   UNL A   1      33.477  25.670  24.613  1.00  0.00     0.228 C 
ATOM     15  N   UNL A   1      32.420  26.512  24.262  1.00  0.00    -0.326 N 
ATOM     16  H   UNL A   1      32.062  26.566  23.346  1.00  0.00     0.169 HD
ATOM     17  O   UNL A   1      34.641  25.933  24.336  1.00  0.00    -0.274 OA
BRANCH  15  18
ATOM     18  C   UNL A   1      31.906  27.278  25.328  1.00  0.00     0.044 A 
ATOM     19  C   UNL A   1      33.028  29.221  24.210  1.00  0.00     0.047 C 
ATOM     20  C   UNL A   1      32.297  28.623  25.387  1.00  0.00    -0.015 A 
ATOM     21  C   UNL A   1      32.056  29.311  26.587  1.00  0.00     0.045 A 
ATOM     22  C   UNL A   1      31.246  26.650  26.391  1.00  0.00     0.026 A 
ATOM     23  C   UNL A   1      31.508  28.647  27.699  1.00  0.00     0.014 A 
ATOM     24  C   UNL A   1      31.078  27.326  27.592  1.00  0.00     0.003 A 
BRANCH  21  25
ATOM     25  C   UNL A   1      32.549  30.689  26.785  1.00  0.00     0.254 C 
ATOM     26  O   UNL A   1      31.782  31.611  26.514  1.00  0.00    -0.269 OA
ATOM     27  N   UNL A   1      33.807  30.874  27.337  1.00  0.00    -0.334 N 
ATOM     28  C   UNL A   1      34.942  29.935  27.263  1.00  0.00     0.148 C 
ATOM     29  C   UNL A   1      34.104  32.152  27.977  1.00  0.00     0.148 C 
ATOM     30  C   UNL A   1      35.737  29.873  28.580  1.00  0.00     0.181 C 
ATOM     31  C   UNL A   1      34.831  31.922  29.304  1.00  0.00     0.181 C 
ATOM     32  O   UNL A   1      36.040  31.188  29.066  1.00  0.00    -0.378 OA
ENDBRANCH  21  25
ENDBRANCH  15  18
ENDBRANCH   9  14
ENDBRANCH   6   8
ENDBRANCH   5   6
ENDBRANCH   4   5
ENDBRANCH   3   4
ENDBRANCH   2   3
ENDBRANCH   1   2
BRANCH   1  33
ATOM     33  C   UNL A   1      39.591  22.799  26.669  1.00  0.00     0.188 C 
BRANCH  33  34
ATOM     34  O   UNL A   1      39.908  21.421  26.635  1.00  0.00    -0.376 OA
BRANCH  34  35
ATOM     35  C   UNL A   1      40.985  21.026  25.809  1.00  0.00     0.202 C 
BRANCH  35  36
ATOM     36  C   UNL A   1      42.211  20.499  26.579  1.00  0.00     0.261 C 
BRANCH  36  37
ATOM     37  O   UNL A   1      43.028  21.535  27.186  1.00  0.00    -0.460 OA
BRANCH  37  38
ATOM     38  C   UNL A   1      43.561  22.531  26.385  1.00  0.00     0.338 C 
ATOM     39  O   UNL A   1      44.036  22.282  25.285  1.00  0.00    -0.246 OA
BRANCH  38  40
ATOM     40  C   UNL A   1      43.166  23.896  26.853  1.00  0.00     0.060 A 
ATOM     41  C   UNL A   1      43.238  25.157  26.252  1.00  0.00     0.016 A 
ATOM     42  C   UNL A   1      42.620  23.905  28.079  1.00  0.00     0.016 A 
ATOM     43  C   UNL A   1      42.955  26.417  26.972  1.00  0.00     0.010 A 
ATOM     44  C   UNL A   1      42.506  25.116  28.747  1.00  0.00     0.010 A 
ATOM     45  C   UNL A   1      42.613  26.474  28.328  1.00  0.00    -0.014 A 
BRANCH  45  46
ATOM     46  C   UNL A   1      42.461  27.888  29.298  1.00  0.00     0.031 A 
ATOM     47  C   UNL A   1      41.130  28.999  29.679  1.00  0.00     0.074 A 
ATOM     48  C   UNL A   1      43.633  28.379  29.759  1.00  0.00     0.049 A 
ATOM     49  N   UNL A   1      41.246  30.314  29.776  1.00  0.00    -0.248 NA
ATOM     50  C   UNL A   1      39.633  28.727  29.860  1.00  0.00     0.031 C 
ATOM     51  C   UNL A   1      43.842  29.497  30.673  1.00  0.00     0.029 A 
ATOM     52  N   UNL A   1      44.917  28.050  29.325  1.00  0.00    -0.354 N 
ATOM     53  C   UNL A   1      39.998  30.882  30.114  1.00  0.00     0.074 A 
ATOM     54  C   UNL A   1      39.027  29.869  30.084  1.00  0.00     0.031 C 
ATOM     55  C   UNL A   1      45.097  29.946  30.517  1.00  0.00     0.029 A 
ATOM     56  C   UNL A   1      45.691  29.209  29.415  1.00  0.00     0.049 A 
ATOM     57  H   UNL A   1      45.221  27.167  29.014  1.00  0.00     0.167 HD
ATOM     58  C   UNL A   1      39.780  32.141  30.571  1.00  0.00     0.031 A 
ATOM     59  C   UNL A   1      46.299  29.740  28.319  1.00  0.00     0.031 A 
ATOM     60  C   UNL A   1      41.020  32.841  30.661  1.00  0.00     0.049 A 
ATOM     61  C   UNL A   1      45.911  31.179  28.080  1.00  0.00     0.074 A 
ATOM     62  C   UNL A   1      41.955  32.915  31.674  1.00  0.00     0.029 A 
ATOM     63  N   UNL A   1      41.647  33.189  29.484  1.00  0.00    -0.354 N 
ATOM     64  N   UNL A   1      44.863  31.751  28.609  1.00  0.00    -0.248 NA
ATOM     65  C   UNL A   1      46.674  32.100  27.241  1.00  0.00     0.031 C 
ATOM     66  C   UNL A   1      43.196  33.236  31.075  1.00  0.00     0.029 A 
ATOM     67  C   UNL A   1      42.982  33.422  29.721  1.00  0.00     0.049 A 
ATOM     68  H   UNL A   1      41.206  33.261  28.607  1.00  0.00     0.167 HD
ATOM     69  C   UNL A   1      44.801  33.062  28.217  1.00  0.00     0.074 A 
ATOM     70  C   UNL A   1      45.960  33.234  27.364  1.00  0.00     0.031 C 
ATOM     71  C   UNL A   1      43.809  33.899  28.631  1.00  0.00     0.031 A 
BRANCH  58  72
ATOM     72  C   UNL A   1      38.480  32.484  31.282  1.00  0.00    -0.014 A 
ATOM     73  C   UNL A   1      37.935  33.768  31.104  1.00  0.00     0.010 A 
ATOM     74  C   UNL A   1      37.857  31.660  32.252  1.00  0.00     0.010 A 
ATOM     75  C   UNL A   1      36.902  34.254  31.919  1.00  0.00     0.020 A 
ATOM     76  C   UNL A   1      36.843  32.151  33.102  1.00  0.00     0.020 A 
ATOM     77  C   UNL A   1      36.382  33.456  32.936  1.00  0.00     0.054 A 
BRANCH  77  78
ATOM     78  S   UNL A   1      35.164  34.182  34.076  1.00  0.00     0.124 S 
ATOM     79  O   UNL A   1      33.933  33.474  33.727  1.00  0.00    -0.237 OA
ATOM     80  O   UNL A   1      35.726  33.854  35.382  1.00  0.00    -0.237 OA
ATOM     81  O   UNL A   1      35.170  35.601  33.728  1.00  0.00    -0.744 OA
ENDBRANCH  77  78
ENDBRANCH  58  72
BRANCH  59  82
ATOM     82  C   UNL A   1      46.749  28.738  27.300  1.00  0.00    -0.014 A 
ATOM     83  C   UNL A   1      45.970  28.620  26.123  1.00  0.00     0.010 A 
ATOM     84  C   UNL A   1      48.030  28.158  27.297  1.00  0.00     0.010 A 
ATOM     85  C   UNL A   1      46.490  28.068  24.949  1.00  0.00     0.020 A 
ATOM     86  C   UNL A   1      48.554  27.579  26.118  1.00  0.00     0.020 A 
ATOM     87  C   UNL A   1      47.793  27.578  24.941  1.00  0.00     0.054 A 
BRANCH  87  88
ATOM     88  S   UNL A   1      48.508  27.124  23.324  1.00  0.00     0.124 S 
ATOM     89  O   UNL A   1      48.206  25.699  23.236  1.00  0.00    -0.237 OA
ATOM     90  O   UNL A   1      47.753  27.979  22.408  1.00  0.00    -0.237 OA
ATOM     91  O   UNL A   1      49.920  27.460  23.473  1.00  0.00    -0.744 OA
ENDBRANCH  87  88
ENDBRANCH  59  82
BRANCH  71  92
ATOM     92  C   UNL A   1      43.496  35.283  28.114  1.00  0.00    -0.014 A 
ATOM     93  C   UNL A   1      42.694  35.542  26.997  1.00  0.00     0.010 A 
ATOM     94  C   UNL A   1      43.896  36.403  28.893  1.00  0.00     0.010 A 
ATOM     95  C   UNL A   1      42.348  36.856  26.649  1.00  0.00     0.020 A 
ATOM     96  C   UNL A   1      43.509  37.705  28.590  1.00  0.00     0.020 A 
ATOM     97  C   UNL A   1      42.756  37.927  27.448  1.00  0.00     0.054 A 
BRANCH  97  98
ATOM     98  S   UNL A   1      42.251  39.614  27.038  1.00  0.00     0.124 S 
ATOM     99  O   UNL A   1      41.963  40.167  28.358  1.00  0.00    -0.237 OA
ATOM    100  O   UNL A   1      43.432  40.161  26.372  1.00  0.00    -0.237 OA
ATOM    101  O   UNL A   1      41.092  39.419  26.170  1.00  0.00    -0.744 OA
ENDBRANCH  97  98
ENDBRANCH  71  92
ENDBRANCH  45  46
ENDBRANCH  38  40
ENDBRANCH  37  38
ENDBRANCH  36  37
ENDBRANCH  35  36
ENDBRANCH  34  35
ENDBRANCH  33  34
ENDBRANCH   1  33
TORSDOF 23
ENDMDL
MODEL 2
REMARK VINA RESULT:     -11.8      4.051     11.704
REMARK SMILES Cc1c(NC(=O)[C@@H]2CC=CC[C@@H]2C(=O)OCCOCCOCCOC(=O)c2ccc(-c3c4nc(c(-c5ccc(S(=O)(=O)[O-])cc5)c5ccc([nH]5)c(-c5ccc(S(=O)(=O)[O-])cc5)c5nc(c(-c6ccc(S(=O)(=O)[O-])cc6)c6ccc3[nH]6)C=C5)C=C4)cc2)cccc1C(=O)N1CCOCC1
REMARK SMILES IDX 19 1 18 2 17 3 16 4 15 5 13 6 14 7 12 8 7 9 8 10 9 11 11 12
REMARK SMILES IDX 10 13 5 14 4 15 6 17 3 18 1 19 2 20 90 21 87 22 89 23 88 24
REMARK SMILES IDX 91 25 92 26 93 27 94 28 98 29 95 30 97 31 96 32 20 33 21 34
REMARK SMILES IDX 22 35 23 36 24 37 25 38 26 39 27 40 28 41 86 42 29 43 85 44
REMARK SMILES IDX 30 45 31 46 32 47 79 48 33 49 84 50 78 51 80 52 34 53 83 54
REMARK SMILES IDX 77 55 76 56 35 58 65 59 46 60 64 61 47 62 50 63 63 64 81 65
REMARK SMILES IDX 48 66 49 67 62 69 82 70 51 71 36 72 37 73 45 74 38 75 44 76
REMARK SMILES IDX 39 77 40 78 41 79 42 80 43 81 66 82 67 83 75 84 68 85 74 86
REMARK SMILES IDX 69 87 70 88 71 89 72 90 73 91 52 92 53 93 61 94 54 95 60 96
REMARK SMILES IDX 55 97 56 98 57 99 58 100 59 101
REMARK H PARENT 4 16 80 57 50 68
REMARK Flexibility Score: inf
ROOT
ATOM      1  C   UNL A   1      32.556  33.178  27.686  1.00  0.00     0.188 C 
ENDROOT
BRANCH   1   2
ATOM      2  O   UNL A   1      33.286  32.035  27.184  1.00  0.00    -0.376 OA
BRANCH   2   3
ATOM      3  C   UNL A   1      34.245  31.278  27.950  1.00  0.00     0.202 C 
BRANCH   3   4
ATOM      4  C   UNL A   1      34.739  29.714  27.578  1.00  0.00     0.261 C 
BRANCH   4   5
ATOM      5  O   UNL A   1      34.347  28.645  26.205  1.00  0.00    -0.463 OA
BRANCH   5   6
ATOM      6  C   UNL A   1      33.327  28.385  25.212  1.00  0.00     0.310 C 
ATOM      7  O   UNL A   1      33.465  27.926  24.072  1.00  0.00    -0.252 OA
BRANCH   6   8
ATOM      8  C   UNL A   1      31.847  28.647  25.398  1.00  0.00     0.116 C 
ATOM      9  C   UNL A   1      30.960  27.468  25.636  1.00  0.00     0.097 C 
ATOM     10  C   UNL A   1      30.606  26.811  24.323  1.00  0.00     0.041 C 
ATOM     11  C   UNL A   1      30.047  27.848  23.372  1.00  0.00    -0.030 C 
ATOM     12  C   UNL A   1      31.240  29.727  24.498  1.00  0.00     0.043 C 
ATOM     13  C   UNL A   1      30.317  29.160  23.467  1.00  0.00    -0.030 C 
BRANCH   9  14
ATOM     14  C   UNL A   1      31.710  26.686  26.679  1.00  0.00     0.228 C 
ATOM     15  N   UNL A   1      31.580  25.304  26.515  1.00  0.00    -0.326 N 
ATOM     16  H   UNL A   1      30.890  24.775  26.977  1.00  0.00     0.169 HD
ATOM     17  O   UNL A   1      32.216  27.179  27.680  1.00  0.00    -0.274 OA
BRANCH  15  18
ATOM     18  C   UNL A   1      32.517  24.733  25.631  1.00  0.00     0.044 A 
ATOM     19  C   UNL A   1      30.551  23.535  24.638  1.00  0.00     0.047 C 
ATOM     20  C   UNL A   1      32.041  23.750  24.753  1.00  0.00    -0.015 A 
ATOM     21  C   UNL A   1      32.995  22.960  24.092  1.00  0.00     0.045 A 
ATOM     22  C   UNL A   1      33.886  24.971  25.807  1.00  0.00     0.026 A 
ATOM     23  C   UNL A   1      34.367  23.114  24.362  1.00  0.00     0.014 A 
ATOM     24  C   UNL A   1      34.813  24.136  25.198  1.00  0.00     0.003 A 
BRANCH  21  25
ATOM     25  C   UNL A   1      32.585  21.819  23.249  1.00  0.00     0.254 C 
ATOM     26  O   UNL A   1      32.452  22.021  22.044  1.00  0.00    -0.269 OA
ATOM     27  N   UNL A   1      32.451  20.571  23.837  1.00  0.00    -0.334 N 
ATOM     28  C   UNL A   1      32.130  20.298  25.251  1.00  0.00     0.148 C 
ATOM     29  C   UNL A   1      32.533  19.388  22.985  1.00  0.00     0.148 C 
ATOM     30  C   UNL A   1      32.921  19.104  25.812  1.00  0.00     0.181 C 
ATOM     31  C   UNL A   1      33.408  18.320  23.646  1.00  0.00     0.181 C 
ATOM     32  O   UNL A   1      32.859  17.978  24.926  1.00  0.00    -0.378 OA
ENDBRANCH  21  25
ENDBRANCH  15  18
ENDBRANCH   9  14
ENDBRANCH   6   8
ENDBRANCH   5   6
ENDBRANCH   4   5
ENDBRANCH   3   4
ENDBRANCH   2   3
ENDBRANCH   1   2
BRANCH   1  33
ATOM     33  C   UNL A   1      33.245  34.449  28.203  1.00  0.00     0.188 C 
BRANCH  33  34
ATOM     34  O   UNL A   1      32.549  34.974  29.317  1.00  0.00    -0.376 OA
BRANCH  34  35
ATOM     35  C   UNL A   1      33.263  35.084  30.532  1.00  0.00     0.202 C 
BRANCH  35  36
ATOM     36  C   UNL A   1      34.562  34.255  30.577  1.00  0.00     0.261 C 
BRANCH  36  37
ATOM     37  O   UNL A   1      34.416  32.946  31.189  1.00  0.00    -0.460 OA
BRANCH  37  38
ATOM     38  C   UNL A   1      35.314  32.553  32.166  1.00  0.00     0.338 C 
ATOM     39  O   UNL A   1      35.083  32.728  33.355  1.00  0.00    -0.246 OA
BRANCH  38  40
ATOM     40  C   UNL A   1      36.355  31.622  31.629  1.00  0.00     0.060 A 
ATOM     41  C   UNL A   1      36.511  30.235  31.708  1.00  0.00     0.016 A 
ATOM     42  C   UNL A   1      37.309  32.240  30.916  1.00  0.00     0.016 A 
ATOM     43  C   UNL A   1      37.726  29.527  31.252  1.00  0.00     0.010 A 
ATOM     44  C   UNL A   1      38.481  31.550  30.637  1.00  0.00     0.010 A 
ATOM     45  C   UNL A   1      38.847  30.176  30.720  1.00  0.00    -0.014 A 
BRANCH  45  46
ATOM     46  C   UNL A   1      40.371  29.469  30.349  1.00  0.00     0.031 A 
ATOM     47  C   UNL A   1      40.893  28.050  29.417  1.00  0.00     0.074 A 
ATOM     48  C   UNL A   1      41.413  29.994  31.032  1.00  0.00     0.049 A 
ATOM     49  N   UNL A   1      41.868  27.228  29.772  1.00  0.00    -0.248 NA
ATOM     50  C   UNL A   1      40.307  27.432  28.144  1.00  0.00     0.031 C 
ATOM     51  C   UNL A   1      42.832  29.686  30.884  1.00  0.00     0.029 A 
ATOM     52  N   UNL A   1      41.358  30.811  32.161  1.00  0.00    -0.354 N 
ATOM     53  C   UNL A   1      42.029  26.225  28.792  1.00  0.00     0.074 A 
ATOM     54  C   UNL A   1      40.999  26.356  27.848  1.00  0.00     0.031 C 
ATOM     55  C   UNL A   1      43.465  30.047  32.011  1.00  0.00     0.029 A 
ATOM     56  C   UNL A   1      42.455  30.485  32.959  1.00  0.00     0.049 A 
ATOM     57  H   UNL A   1      40.673  31.492  32.357  1.00  0.00     0.167 HD
ATOM     58  C   UNL A   1      43.089  25.387  28.660  1.00  0.00     0.031 A 
ATOM     59  C   UNL A   1      42.293  30.037  34.235  1.00  0.00     0.031 A 
ATOM     60  C   UNL A   1      44.047  25.659  29.682  1.00  0.00     0.049 A 
ATOM     61  C   UNL A   1      42.951  28.698  34.468  1.00  0.00     0.074 A 
ATOM     62  C   UNL A   1      45.094  26.556  29.736  1.00  0.00     0.029 A 
ATOM     63  N   UNL A   1      43.716  25.319  30.977  1.00  0.00    -0.354 N 
ATOM     64  N   UNL A   1      43.313  27.886  33.512  1.00  0.00    -0.248 NA
ATOM     65  C   UNL A   1      43.271  28.168  35.791  1.00  0.00     0.031 C 
ATOM     66  C   UNL A   1      45.345  26.824  31.103  1.00  0.00     0.029 A 
ATOM     67  C   UNL A   1      44.496  26.035  31.857  1.00  0.00     0.049 A 
ATOM     68  H   UNL A   1      43.027  24.664  31.233  1.00  0.00     0.167 HD
ATOM     69  C   UNL A   1      43.898  26.769  34.048  1.00  0.00     0.074 A 
ATOM     70  C   UNL A   1      43.853  26.995  35.480  1.00  0.00     0.031 C 
ATOM     71  C   UNL A   1      44.379  25.756  33.273  1.00  0.00     0.031 A 
BRANCH  58  72
ATOM     72  C   UNL A   1      43.332  24.659  27.346  1.00  0.00    -0.014 A 
ATOM     73  C   UNL A   1      42.927  23.317  27.237  1.00  0.00     0.010 A 
ATOM     74  C   UNL A   1      44.092  25.182  26.271  1.00  0.00     0.010 A 
ATOM     75  C   UNL A   1      43.345  22.501  26.176  1.00  0.00     0.020 A 
ATOM     76  C   UNL A   1      44.550  24.360  25.218  1.00  0.00     0.020 A 
ATOM     77  C   UNL A   1      44.181  23.016  25.188  1.00  0.00     0.054 A 
BRANCH  77  78
ATOM     78  S   UNL A   1      44.837  21.884  23.924  1.00  0.00     0.124 S 
ATOM     79  O   UNL A   1      46.274  22.155  23.963  1.00  0.00    -0.237 OA
ATOM     80  O   UNL A   1      44.432  20.579  24.435  1.00  0.00    -0.237 OA
ATOM     81  O   UNL A   1      44.170  22.314  22.697  1.00  0.00    -0.744 OA
ENDBRANCH  77  78
ENDBRANCH  58  72
BRANCH  59  82
ATOM     82  C   UNL A   1      41.112  30.609  34.959  1.00  0.00    -0.014 A 
ATOM     83  C   UNL A   1      41.364  31.655  35.879  1.00  0.00     0.010 A 
ATOM     84  C   UNL A   1      39.781  30.396  34.557  1.00  0.00     0.010 A 
ATOM     85  C   UNL A   1      40.358  32.539  36.281  1.00  0.00     0.020 A 
ATOM     86  C   UNL A   1      38.756  31.274  34.978  1.00  0.00     0.020 A 
ATOM     87  C   UNL A   1      39.062  32.365  35.803  1.00  0.00     0.054 A 
BRANCH  87  88
ATOM     88  S   UNL A   1      37.860  33.697  36.138  1.00  0.00     0.124 S 
ATOM     89  O   UNL A   1      36.606  32.962  36.265  1.00  0.00    -0.237 OA
ATOM     90  O   UNL A   1      38.378  34.266  37.383  1.00  0.00    -0.237 OA
ATOM     91  O   UNL A   1      37.971  34.555  34.963  1.00  0.00    -0.744 OA
ENDBRANCH  87  88
ENDBRANCH  59  82
BRANCH  71  92
ATOM     92  C   UNL A   1      44.841  24.391  33.725  1.00  0.00    -0.014 A 
ATOM     93  C   UNL A   1      46.136  24.109  34.173  1.00  0.00     0.010 A 
ATOM     94  C   UNL A   1      43.871  23.362  33.868  1.00  0.00     0.010 A 
ATOM     95  C   UNL A   1      46.458  22.847  34.694  1.00  0.00     0.020 A 
ATOM     96  C   UNL A   1      44.167  22.126  34.436  1.00  0.00     0.020 A 
ATOM     97  C   UNL A   1      45.472  21.865  34.823  1.00  0.00     0.054 A 
BRANCH  97  98
ATOM     98  S   UNL A   1      45.872  20.263  35.558  1.00  0.00     0.124 S 
ATOM     99  O   UNL A   1      45.871  20.581  36.983  1.00  0.00    -0.237 OA
ATOM    100  O   UNL A   1      44.776  19.408  35.106  1.00  0.00    -0.237 OA
ATOM    101  O   UNL A   1      47.177  19.943  34.985  1.00  0.00    -0.744 OA
ENDBRANCH  97  98
ENDBRANCH  71  92
ENDBRANCH  45  46
ENDBRANCH  38  40
ENDBRANCH  37  38
ENDBRANCH  36  37
ENDBRANCH  35  36
ENDBRANCH  34  35
ENDBRANCH  33  34
ENDBRANCH   1  33
TORSDOF 23
ENDMDL
MODEL 3
REMARK VINA RESULT:     -11.2      4.499     11.785
REMARK SMILES Cc1c(NC(=O)[C@@H]2CC=CC[C@@H]2C(=O)OCCOCCOCCOC(=O)c2ccc(-c3c4nc(c(-c5ccc(S(=O)(=O)[O-])cc5)c5ccc([nH]5)c(-c5ccc(S(=O)(=O)[O-])cc5)c5nc(c(-c6ccc(S(=O)(=O)[O-])cc6)c6ccc3[nH]6)C=C5)C=C4)cc2)cccc1C(=O)N1CCOCC1
REMARK SMILES IDX 19 1 18 2 17 3 16 4 15 5 13 6 14 7 12 8 7 9 8 10 9 11 11 12
REMARK SMILES IDX 10 13 5 14 4 15 6 17 3 18 1 19 2 20 90 21 87 22 89 23 88 24
REMARK SMILES IDX 91 25 92 26 93 27 94 28 98 29 95 30 97 31 96 32 20 33 21 34
REMARK SMILES IDX 22 35 23 36 24 37 25 38 26 39 27 40 28 41 86 42 29 43 85 44
REMARK SMILES IDX 30 45 31 46 32 47 79 48 33 49 84 50 78 51 80 52 34 53 83 54
REMARK SMILES IDX 77 55 76 56 35 58 65 59 46 60 64 61 47 62 50 63 63 64 81 65
REMARK SMILES IDX 48 66 49 67 62 69 82 70 51 71 36 72 37 73 45 74 38 75 44 76
REMARK SMILES IDX 39 77 40 78 41 79 42 80 43 81 66 82 67 83 75 84 68 85 74 86
REMARK SMILES IDX 69 87 70 88 71 89 72 90 73 91 52 92 53 93 61 94 54 95 60 96
REMARK SMILES IDX 55 97 56 98 57 99 58 100 59 101
REMARK H PARENT 4 16 80 57 50 68
REMARK Flexibility Score: inf
ROOT
ATOM      1  C   UNL A   1      33.827  31.905  27.545  1.00  0.00     0.188 C 
ENDROOT
BRANCH   1   2
ATOM      2  O   UNL A   1      33.321  30.596  27.198  1.00  0.00    -0.376 OA
BRANCH   2   3
ATOM      3  C   UNL A   1      31.935  30.304  26.922  1.00  0.00     0.202 C 
BRANCH   3   4
ATOM      4  C   UNL A   1      31.299  30.076  25.382  1.00  0.00     0.261 C 
BRANCH   4   5
ATOM      5  O   UNL A   1      30.441  28.695  24.650  1.00  0.00    -0.463 OA
BRANCH   5   6
ATOM      6  C   UNL A   1      30.661  27.484  23.887  1.00  0.00     0.310 C 
ATOM      7  O   UNL A   1      29.822  26.751  23.351  1.00  0.00    -0.252 OA
BRANCH   6   8
ATOM      8  C   UNL A   1      32.016  26.871  23.604  1.00  0.00     0.116 C 
ATOM      9  C   UNL A   1      32.782  26.318  24.762  1.00  0.00     0.097 C 
ATOM     10  C   UNL A   1      33.514  27.429  25.478  1.00  0.00     0.041 C 
ATOM     11  C   UNL A   1      34.342  28.215  24.483  1.00  0.00    -0.030 C 
ATOM     12  C   UNL A   1      32.875  27.595  22.563  1.00  0.00     0.043 C 
ATOM     13  C   UNL A   1      34.063  28.270  23.170  1.00  0.00    -0.030 C 
BRANCH   9  14
ATOM     14  C   UNL A   1      31.747  25.515  25.500  1.00  0.00     0.228 C 
ATOM     15  N   UNL A   1      31.728  24.173  25.112  1.00  0.00    -0.326 N 
ATOM     16  H   UNL A   1      31.129  23.828  24.410  1.00  0.00     0.169 HD
ATOM     17  O   UNL A   1      30.878  25.999  26.215  1.00  0.00    -0.274 OA
BRANCH  15  18
ATOM     18  C   UNL A   1      32.640  23.353  25.807  1.00  0.00     0.044 A 
ATOM     19  C   UNL A   1      33.403  22.616  23.536  1.00  0.00     0.047 C 
ATOM     20  C   UNL A   1      33.414  22.474  25.038  1.00  0.00    -0.015 A 
ATOM     21  C   UNL A   1      34.090  21.448  25.719  1.00  0.00     0.045 A 
ATOM     22  C   UNL A   1      32.582  23.265  27.204  1.00  0.00     0.026 A 
ATOM     23  C   UNL A   1      33.934  21.281  27.106  1.00  0.00     0.014 A 
ATOM     24  C   UNL A   1      33.202  22.204  27.851  1.00  0.00     0.003 A 
BRANCH  21  25
ATOM     25  C   UNL A   1      34.824  20.400  24.980  1.00  0.00     0.254 C 
ATOM     26  O   UNL A   1      36.018  20.592  24.757  1.00  0.00    -0.269 OA
ATOM     27  N   UNL A   1      34.159  19.230  24.648  1.00  0.00    -0.334 N 
ATOM     28  C   UNL A   1      32.707  19.077  24.438  1.00  0.00     0.148 C 
ATOM     29  C   UNL A   1      34.951  18.034  24.376  1.00  0.00     0.148 C 
ATOM     30  C   UNL A   1      32.169  17.755  25.012  1.00  0.00     0.181 C 
ATOM     31  C   UNL A   1      34.329  16.820  25.070  1.00  0.00     0.181 C 
ATOM     32  O   UNL A   1      32.982  16.645  24.608  1.00  0.00    -0.378 OA
ENDBRANCH  21  25
ENDBRANCH  15  18
ENDBRANCH   9  14
ENDBRANCH   6   8
ENDBRANCH   5   6
ENDBRANCH   4   5
ENDBRANCH   3   4
ENDBRANCH   2   3
ENDBRANCH   1   2
BRANCH   1  33
ATOM     33  C   UNL A   1      35.173  32.120  28.252  1.00  0.00     0.188 C 
BRANCH  33  34
ATOM     34  O   UNL A   1      35.054  31.862  29.637  1.00  0.00    -0.376 OA
BRANCH  34  35
ATOM     35  C   UNL A   1      34.649  32.936  30.463  1.00  0.00     0.202 C 
BRANCH  35  36
ATOM     36  C   UNL A   1      34.733  32.638  31.972  1.00  0.00     0.261 C 
BRANCH  36  37
ATOM     37  O   UNL A   1      36.087  32.553  32.492  1.00  0.00    -0.460 OA
BRANCH  37  38
ATOM     38  C   UNL A   1      37.144  32.939  31.686  1.00  0.00     0.338 C 
ATOM     39  O   UNL A   1      37.312  34.107  31.366  1.00  0.00    -0.246 OA
BRANCH  38  40
ATOM     40  C   UNL A   1      38.184  31.868  31.577  1.00  0.00     0.060 A 
ATOM     41  C   UNL A   1      38.440  30.720  32.335  1.00  0.00     0.016 A 
ATOM     42  C   UNL A   1      39.018  32.034  30.539  1.00  0.00     0.016 A 
ATOM     43  C   UNL A   1      39.646  29.884  32.160  1.00  0.00     0.010 A 
ATOM     44  C   UNL A   1      40.198  31.304  30.511  1.00  0.00     0.010 A 
ATOM     45  C   UNL A   1      40.661  30.171  31.240  1.00  0.00    -0.014 A 
BRANCH  45  46
ATOM     46  C   UNL A   1      42.183  29.380  31.099  1.00  0.00     0.031 A 
ATOM     47  C   UNL A   1      42.754  27.915  30.275  1.00  0.00     0.074 A 
ATOM     48  C   UNL A   1      43.146  29.869  31.913  1.00  0.00     0.049 A 
ATOM     49  N   UNL A   1      43.625  27.054  30.778  1.00  0.00    -0.248 NA
ATOM     50  C   UNL A   1      42.320  27.294  28.943  1.00  0.00     0.031 C 
ATOM     51  C   UNL A   1      44.553  29.488  31.971  1.00  0.00     0.029 A 
ATOM     52  N   UNL A   1      42.976  30.717  33.008  1.00  0.00    -0.354 N 
ATOM     53  C   UNL A   1      43.869  26.020  29.849  1.00  0.00     0.074 A 
ATOM     54  C   UNL A   1      42.989  26.179  28.766  1.00  0.00     0.031 C 
ATOM     55  C   UNL A   1      45.041  29.845  33.169  1.00  0.00     0.029 A 
ATOM     56  C   UNL A   1      43.933  30.356  33.958  1.00  0.00     0.049 A 
ATOM     57  H   UNL A   1      42.308  31.435  33.094  1.00  0.00     0.167 HD
ATOM     58  C   UNL A   1      44.891  25.127  29.881  1.00  0.00     0.031 A 
ATOM     59  C   UNL A   1      43.571  29.949  35.206  1.00  0.00     0.031 A 
ATOM     60  C   UNL A   1      45.710  25.377  31.023  1.00  0.00     0.049 A 
ATOM     61  C   UNL A   1      44.119  28.585  35.553  1.00  0.00     0.074 A 
ATOM     62  C   UNL A   1      46.786  26.222  31.208  1.00  0.00     0.029 A 
ATOM     63  N   UNL A   1      45.185  25.087  32.264  1.00  0.00    -0.354 N 
ATOM     64  N   UNL A   1      44.567  27.732  34.672  1.00  0.00    -0.248 NA
ATOM     65  C   UNL A   1      44.223  28.073  36.917  1.00  0.00     0.031 C 
ATOM     66  C   UNL A   1      46.857  26.511  32.591  1.00  0.00     0.029 A 
ATOM     67  C   UNL A   1      45.871  25.784  33.232  1.00  0.00     0.049 A 
ATOM     68  H   UNL A   1      44.434  24.473  32.432  1.00  0.00     0.167 HD
ATOM     69  C   UNL A   1      45.013  26.602  35.305  1.00  0.00     0.074 A 
ATOM     70  C   UNL A   1      44.780  26.865  36.711  1.00  0.00     0.031 C 
ATOM     71  C   UNL A   1      45.543  25.547  34.623  1.00  0.00     0.031 A 
BRANCH  58  72
ATOM     72  C   UNL A   1      45.276  24.356  28.628  1.00  0.00    -0.014 A 
ATOM     73  C   UNL A   1      46.405  24.774  27.903  1.00  0.00     0.010 A 
ATOM     74  C   UNL A   1      44.483  23.341  28.038  1.00  0.00     0.010 A 
ATOM     75  C   UNL A   1      46.674  24.298  26.611  1.00  0.00     0.020 A 
ATOM     76  C   UNL A   1      44.722  22.883  26.725  1.00  0.00     0.020 A 
ATOM     77  C   UNL A   1      45.814  23.378  26.014  1.00  0.00     0.054 A 
BRANCH  77  78
ATOM     78  S   UNL A   1      46.103  22.914  24.279  1.00  0.00     0.124 S 
ATOM     79  O   UNL A   1      47.007  23.964  23.810  1.00  0.00    -0.237 OA
ATOM     80  O   UNL A   1      46.695  21.587  24.405  1.00  0.00    -0.237 OA
ATOM     81  O   UNL A   1      44.767  22.953  23.686  1.00  0.00    -0.744 OA
ENDBRANCH  77  78
ENDBRANCH  58  72
BRANCH  59  82
ATOM     82  C   UNL A   1      42.333  30.596  35.746  1.00  0.00    -0.014 A 
ATOM     83  C   UNL A   1      42.325  32.011  35.825  1.00  0.00     0.010 A 
ATOM     84  C   UNL A   1      41.102  29.927  35.874  1.00  0.00     0.010 A 
ATOM     85  C   UNL A   1      41.133  32.737  35.893  1.00  0.00     0.020 A 
ATOM     86  C   UNL A   1      39.895  30.657  35.964  1.00  0.00     0.020 A 
ATOM     87  C   UNL A   1      39.918  32.058  35.930  1.00  0.00     0.054 A 
BRANCH  87  88
ATOM     88  S   UNL A   1      38.398  33.050  35.742  1.00  0.00     0.124 S 
ATOM     89  O   UNL A   1      37.379  32.027  35.533  1.00  0.00    -0.237 OA
ATOM     90  O   UNL A   1      38.330  33.746  37.028  1.00  0.00    -0.237 OA
ATOM     91  O   UNL A   1      38.687  33.896  34.588  1.00  0.00    -0.744 OA
ENDBRANCH  87  88
ENDBRANCH  59  82
BRANCH  71  92
ATOM     92  C   UNL A   1      45.865  24.173  35.160  1.00  0.00    -0.014 A 
ATOM     93  C   UNL A   1      47.121  23.564  35.057  1.00  0.00     0.010 A 
ATOM     94  C   UNL A   1      44.895  23.517  35.966  1.00  0.00     0.010 A 
ATOM     95  C   UNL A   1      47.379  22.338  35.688  1.00  0.00     0.020 A 
ATOM     96  C   UNL A   1      45.160  22.330  36.643  1.00  0.00     0.020 A 
ATOM     97  C   UNL A   1      46.399  21.731  36.476  1.00  0.00     0.054 A 
BRANCH  97  98
ATOM     98  S   UNL A   1      46.756  20.186  37.346  1.00  0.00     0.124 S 
ATOM     99  O   UNL A   1      46.081  20.401  38.623  1.00  0.00    -0.237 OA
ATOM    100  O   UNL A   1      46.153  19.173  36.481  1.00  0.00    -0.237 OA
ATOM    101  O   UNL A   1      48.215  20.158  37.401  1.00  0.00    -0.744 OA
ENDBRANCH  97  98
ENDBRANCH  71  92
ENDBRANCH  45  46
ENDBRANCH  38  40
ENDBRANCH  37  38
ENDBRANCH  36  37
ENDBRANCH  35  36
ENDBRANCH  34  35
ENDBRANCH  33  34
ENDBRANCH   1  33
TORSDOF 23
ENDMDL
