MODEL 1
REMARK VINA RESULT:     -12.1      0.000      0.000
REMARK SMILES Cc1ccc(C2=NN(C(=O)CCC(=O)OCCOCCOCCOC(=O)c3ccc(-c4c5nc(c(-c6ccc(S(=O)(=O)[O-])cc6)c6ccc([nH]6)c(-c6ccc(S(=O)(=O)[O-])cc6)c6nc(c(-c7ccc(S(=O)(=O)[O-])cc7)c7ccc4[nH]7)C=C6)C=C5)cc3)[C@H](C[C@@H]3C=c4cccc(C)c4=NC3=O)C2)cc1
REMARK SMILES IDX 19 1 18 2 17 3 16 4 15 5 13 6 14 7 12 8 11 9 9 10 10 11 8 12
REMARK SMILES IDX 6 13 7 14 101 15 87 16 5 17 1 18 2 19 3 20 103 21 4 22
REMARK SMILES IDX 102 23 88 24 89 25 90 26 99 27 91 28 98 29 100 30 92 31
REMARK SMILES IDX 97 32 93 33 95 34 94 35 96 36 20 37 21 38 22 39 23 40 24 41
REMARK SMILES IDX 25 42 26 43 27 44 28 45 86 46 29 47 85 48 30 49 31 50 32 51
REMARK SMILES IDX 79 52 33 53 84 54 78 55 80 56 34 57 83 58 77 59 76 60 35 62
REMARK SMILES IDX 65 63 46 64 64 65 47 66 50 67 63 68 81 69 48 70 49 71 62 73
REMARK SMILES IDX 82 74 51 75 36 76 37 77 45 78 38 79 44 80 39 81 40 82 41 83
REMARK SMILES IDX 42 84 43 85 66 86 67 87 75 88 68 89 74 90 69 91 70 92 71 93
REMARK SMILES IDX 72 94 73 95 52 96 53 97 61 98 54 99 60 100 55 101 56 102
REMARK SMILES IDX 57 103 58 104 59 105
REMARK H PARENT 80 61 50 72
REMARK Flexibility Score: inf
ROOT
ATOM      1  C   UNL A   1      42.887  20.903  26.083  1.00  0.00     0.188 C 
ENDROOT
BRANCH   1   2
ATOM      2  O   UNL A   1      43.311  22.274  25.749  1.00  0.00    -0.376 OA
BRANCH   2   3
ATOM      3  C   UNL A   1      42.491  23.413  25.380  1.00  0.00     0.202 C 
BRANCH   3   4
ATOM      4  C   UNL A   1      41.376  24.301  26.362  1.00  0.00     0.261 C 
BRANCH   4   5
ATOM      5  O   UNL A   1      40.212  23.805  27.286  1.00  0.00    -0.463 OA
BRANCH   5   6
ATOM      6  C   UNL A   1      39.619  22.698  26.827  1.00  0.00     0.306 C 
ATOM      7  O   UNL A   1      40.039  21.736  27.463  1.00  0.00    -0.252 OA
BRANCH   6   8
ATOM      8  C   UNL A   1      38.230  22.520  25.718  1.00  0.00     0.132 C 
BRANCH   8   9
ATOM      9  C   UNL A   1      36.827  22.022  25.809  1.00  0.00     0.114 C 
BRANCH   9  10
ATOM     10  C   UNL A   1      35.928  22.271  24.661  1.00  0.00     0.243 C 
ATOM     11  O   UNL A   1      36.374  23.124  23.875  1.00  0.00    -0.273 OA
BRANCH  10  12
ATOM     12  N   UNL A   1      34.663  21.696  24.492  1.00  0.00    -0.230 N 
ATOM     13  C   UNL A   1      33.796  19.746  24.597  1.00  0.00     0.070 C 
ATOM     14  N   UNL A   1      34.814  20.431  24.944  1.00  0.00    -0.174 NA
ATOM     15  C   UNL A   1      32.589  20.413  24.041  1.00  0.00     0.086 C 
ATOM     16  C   UNL A   1      33.241  21.706  23.616  1.00  0.00     0.118 C 
BRANCH  13  17
ATOM     17  C   UNL A   1      33.754  18.360  24.901  1.00  0.00    -0.002 A 
ATOM     18  C   UNL A   1      32.964  14.288  25.426  1.00  0.00     0.044 C 
ATOM     19  C   UNL A   1      33.279  15.732  25.238  1.00  0.00    -0.051 A 
ATOM     20  C   UNL A   1      32.358  16.667  25.736  1.00  0.00     0.004 A 
ATOM     21  C   UNL A   1      34.469  16.139  24.605  1.00  0.00     0.004 A 
ATOM     22  C   UNL A   1      32.609  18.002  25.589  1.00  0.00     0.010 A 
ATOM     23  C   UNL A   1      34.724  17.485  24.434  1.00  0.00     0.010 A 
ENDBRANCH  13  17
BRANCH  16  24
ATOM     24  C   UNL A   1      32.243  23.034  22.867  1.00  0.00     0.045 C 
BRANCH  24  25
ATOM     25  C   UNL A   1      30.929  24.292  23.519  1.00  0.00     0.106 C 
ATOM     26  C   UNL A   1      31.120  26.402  22.915  1.00  0.00    -0.003 C 
ATOM     27  C   UNL A   1      30.525  24.349  25.528  1.00  0.00     0.253 C 
ATOM     28  C   UNL A   1      31.262  27.501  23.871  1.00  0.00    -0.003 A 
ATOM     29  N   UNL A   1      30.676  25.936  26.289  1.00  0.00    -0.212 NA
ATOM     30  O   UNL A   1      30.231  23.404  26.244  1.00  0.00    -0.272 OA
ATOM     31  C   UNL A   1      32.112  28.606  23.462  1.00  0.00     0.010 A 
ATOM     32  C   UNL A   1      31.035  27.177  25.644  1.00  0.00     0.077 A 
ATOM     33  C   UNL A   1      32.663  29.413  24.365  1.00  0.00     0.001 A 
ATOM     34  C   UNL A   1      31.616  28.377  26.390  1.00  0.00    -0.025 A 
ATOM     35  C   UNL A   1      32.352  29.329  25.770  1.00  0.00     0.005 A 
ATOM     36  C   UNL A   1      31.536  28.350  27.875  1.00  0.00     0.047 C 
ENDBRANCH  24  25
ENDBRANCH  16  24
ENDBRANCH  10  12
ENDBRANCH   9  10
ENDBRANCH   8   9
ENDBRANCH   6   8
ENDBRANCH   5   6
ENDBRANCH   4   5
ENDBRANCH   3   4
ENDBRANCH   2   3
ENDBRANCH   1   2
BRANCH   1  37
ATOM     37  C   UNL A   1      43.368  19.460  25.563  1.00  0.00     0.188 C 
BRANCH  37  38
ATOM     38  O   UNL A   1      44.698  19.211  25.069  1.00  0.00    -0.376 OA
BRANCH  38  39
ATOM     39  C   UNL A   1      45.854  19.905  25.514  1.00  0.00     0.202 C 
BRANCH  39  40
ATOM     40  C   UNL A   1      46.311  20.784  24.380  1.00  0.00     0.261 C 
BRANCH  40  41
ATOM     41  O   UNL A   1      46.575  22.248  24.686  1.00  0.00    -0.460 OA
BRANCH  41  42
ATOM     42  C   UNL A   1      46.487  23.478  25.262  1.00  0.00     0.338 C 
ATOM     43  O   UNL A   1      46.477  24.421  24.468  1.00  0.00    -0.246 OA
BRANCH  42  44
ATOM     44  C   UNL A   1      46.220  23.823  26.889  1.00  0.00     0.060 A 
ATOM     45  C   UNL A   1      44.889  23.311  28.331  1.00  0.00     0.016 A 
ATOM     46  C   UNL A   1      47.073  25.179  27.180  1.00  0.00     0.016 A 
ATOM     47  C   UNL A   1      44.535  24.411  29.745  1.00  0.00     0.010 A 
ATOM     48  C   UNL A   1      46.454  26.109  28.610  1.00  0.00     0.010 A 
ATOM     49  C   UNL A   1      45.241  25.925  29.923  1.00  0.00    -0.014 A 
BRANCH  49  50
ATOM     50  C   UNL A   1      44.836  27.339  31.111  1.00  0.00     0.031 A 
ATOM     51  C   UNL A   1      43.773  28.866  30.860  1.00  0.00     0.074 A 
ATOM     52  C   UNL A   1      44.622  26.962  32.458  1.00  0.00     0.049 A 
ATOM     53  N   UNL A   1      42.630  29.067  31.512  1.00  0.00    -0.248 NA
ATOM     54  C   UNL A   1      43.617  29.889  29.652  1.00  0.00     0.031 C 
ATOM     55  C   UNL A   1      43.486  27.348  33.390  1.00  0.00     0.029 A 
ATOM     56  N   UNL A   1      45.187  25.969  33.281  1.00  0.00    -0.354 N 
ATOM     57  C   UNL A   1      41.656  29.809  30.790  1.00  0.00     0.074 A 
ATOM     58  C   UNL A   1      42.278  30.119  29.560  1.00  0.00     0.031 C 
ATOM     59  C   UNL A   1      43.631  26.858  34.637  1.00  0.00     0.029 A 
ATOM     60  C   UNL A   1      44.972  26.369  34.649  1.00  0.00     0.049 A 
ATOM     61  H   UNL A   1      45.644  25.151  32.979  1.00  0.00     0.167 HD
ATOM     62  C   UNL A   1      40.418  30.162  31.291  1.00  0.00     0.031 A 
ATOM     63  C   UNL A   1      45.961  27.018  35.340  1.00  0.00     0.031 A 
ATOM     64  C   UNL A   1      40.558  30.126  32.733  1.00  0.00     0.049 A 
ATOM     65  C   UNL A   1      45.627  28.515  35.506  1.00  0.00     0.074 A 
ATOM     66  C   UNL A   1      40.152  29.324  33.771  1.00  0.00     0.029 A 
ATOM     67  N   UNL A   1      41.624  30.866  33.206  1.00  0.00    -0.354 N 
ATOM     68  N   UNL A   1      44.750  29.144  34.756  1.00  0.00    -0.248 NA
ATOM     69  C   UNL A   1      46.065  29.366  36.611  1.00  0.00     0.031 C 
ATOM     70  C   UNL A   1      41.142  29.476  34.813  1.00  0.00     0.029 A 
ATOM     71  C   UNL A   1      42.084  30.429  34.422  1.00  0.00     0.049 A 
ATOM     72  H   UNL A   1      42.013  31.630  32.721  1.00  0.00     0.167 HD
ATOM     73  C   UNL A   1      44.373  30.324  35.322  1.00  0.00     0.074 A 
ATOM     74  C   UNL A   1      45.282  30.453  36.449  1.00  0.00     0.031 C 
ATOM     75  C   UNL A   1      43.294  31.082  34.944  1.00  0.00     0.031 A 
BRANCH  62  76
ATOM     76  C   UNL A   1      39.151  30.736  30.581  1.00  0.00    -0.014 A 
ATOM     77  C   UNL A   1      38.294  29.869  29.849  1.00  0.00     0.010 A 
ATOM     78  C   UNL A   1      38.791  32.105  30.496  1.00  0.00     0.010 A 
ATOM     79  C   UNL A   1      37.156  30.317  29.127  1.00  0.00     0.020 A 
ATOM     80  C   UNL A   1      37.636  32.568  29.789  1.00  0.00     0.020 A 
ATOM     81  C   UNL A   1      36.820  31.666  29.111  1.00  0.00     0.054 A 
BRANCH  81  82
ATOM     82  S   UNL A   1      35.318  32.193  28.211  1.00  0.00     0.124 S 
ATOM     83  O   UNL A   1      35.020  31.031  27.376  1.00  0.00    -0.237 OA
ATOM     84  O   UNL A   1      34.370  32.441  29.294  1.00  0.00    -0.237 OA
ATOM     85  O   UNL A   1      35.742  33.384  27.478  1.00  0.00    -0.744 OA
ENDBRANCH  81  82
ENDBRANCH  62  76
BRANCH  63  86
ATOM     86  C   UNL A   1      47.240  26.277  35.071  1.00  0.00    -0.014 A 
ATOM     87  C   UNL A   1      48.324  26.657  35.918  1.00  0.00     0.010 A 
ATOM     88  C   UNL A   1      47.141  24.924  34.688  1.00  0.00     0.010 A 
ATOM     89  C   UNL A   1      49.104  25.686  36.562  1.00  0.00     0.020 A 
ATOM     90  C   UNL A   1      47.934  23.956  35.334  1.00  0.00     0.020 A 
ATOM     91  C   UNL A   1      48.876  24.337  36.295  1.00  0.00     0.054 A 
BRANCH  91  92
ATOM     92  S   UNL A   1      49.698  23.118  37.365  1.00  0.00     0.124 S 
ATOM     93  O   UNL A   1      50.688  22.542  36.461  1.00  0.00    -0.237 OA
ATOM     94  O   UNL A   1      50.225  23.964  38.434  1.00  0.00    -0.237 OA
ATOM     95  O   UNL A   1      48.622  22.215  37.753  1.00  0.00    -0.744 OA
ENDBRANCH  91  92
ENDBRANCH  63  86
BRANCH  75  96
ATOM     96  C   UNL A   1      43.393  32.611  34.902  1.00  0.00    -0.014 A 
ATOM     97  C   UNL A   1      44.192  33.295  33.979  1.00  0.00     0.010 A 
ATOM     98  C   UNL A   1      42.562  33.430  35.718  1.00  0.00     0.010 A 
ATOM     99  C   UNL A   1      44.268  34.689  33.967  1.00  0.00     0.020 A 
ATOM    100  C   UNL A   1      42.537  34.822  35.632  1.00  0.00     0.020 A 
ATOM    101  C   UNL A   1      43.448  35.442  34.801  1.00  0.00     0.054 A 
BRANCH 101 102
ATOM    102  S   UNL A   1      43.638  37.230  34.826  1.00  0.00     0.124 S 
ATOM    103  O   UNL A   1      44.838  37.405  34.012  1.00  0.00    -0.237 OA
ATOM    104  O   UNL A   1      42.391  37.687  34.219  1.00  0.00    -0.237 OA
ATOM    105  O   UNL A   1      43.791  37.546  36.243  1.00  0.00    -0.744 OA
ENDBRANCH 101 102
ENDBRANCH  75  96
ENDBRANCH  49  50
ENDBRANCH  42  44
ENDBRANCH  41  42
ENDBRANCH  40  41
ENDBRANCH  39  40
ENDBRANCH  38  39
ENDBRANCH  37  38
ENDBRANCH   1  37
TORSDOF 26
ENDMDL
MODEL 2
REMARK VINA RESULT:     -11.9      2.751      3.790
REMARK SMILES Cc1ccc(C2=NN(C(=O)CCC(=O)OCCOCCOCCOC(=O)c3ccc(-c4c5nc(c(-c6ccc(S(=O)(=O)[O-])cc6)c6ccc([nH]6)c(-c6ccc(S(=O)(=O)[O-])cc6)c6nc(c(-c7ccc(S(=O)(=O)[O-])cc7)c7ccc4[nH]7)C=C6)C=C5)cc3)[C@H](C[C@@H]3C=c4cccc(C)c4=NC3=O)C2)cc1
REMARK SMILES IDX 19 1 18 2 17 3 16 4 15 5 13 6 14 7 12 8 11 9 9 10 10 11 8 12
REMARK SMILES IDX 6 13 7 14 101 15 87 16 5 17 1 18 2 19 3 20 103 21 4 22
REMARK SMILES IDX 102 23 88 24 89 25 90 26 99 27 91 28 98 29 100 30 92 31
REMARK SMILES IDX 97 32 93 33 95 34 94 35 96 36 20 37 21 38 22 39 23 40 24 41
REMARK SMILES IDX 25 42 26 43 27 44 28 45 86 46 29 47 85 48 30 49 31 50 32 51
REMARK SMILES IDX 79 52 33 53 84 54 78 55 80 56 34 57 83 58 77 59 76 60 35 62
REMARK SMILES IDX 65 63 46 64 64 65 47 66 50 67 63 68 81 69 48 70 49 71 62 73
REMARK SMILES IDX 82 74 51 75 36 76 37 77 45 78 38 79 44 80 39 81 40 82 41 83
REMARK SMILES IDX 42 84 43 85 66 86 67 87 75 88 68 89 74 90 69 91 70 92 71 93
REMARK SMILES IDX 72 94 73 95 52 96 53 97 61 98 54 99 60 100 55 101 56 102
REMARK SMILES IDX 57 103 58 104 59 105
REMARK H PARENT 80 61 50 72
REMARK Flexibility Score: inf
ROOT
ATOM      1  C   UNL A   1      43.144  21.704  26.342  1.00  0.00     0.188 C 
ENDROOT
BRANCH   1   2
ATOM      2  O   UNL A   1      43.142  23.177  26.300  1.00  0.00    -0.376 OA
BRANCH   2   3
ATOM      3  C   UNL A   1      42.041  24.075  26.005  1.00  0.00     0.202 C 
BRANCH   3   4
ATOM      4  C   UNL A   1      40.630  24.397  26.954  1.00  0.00     0.261 C 
BRANCH   4   5
ATOM      5  O   UNL A   1      39.499  23.437  27.457  1.00  0.00    -0.463 OA
BRANCH   5   6
ATOM      6  C   UNL A   1      39.236  22.448  26.597  1.00  0.00     0.306 C 
ATOM      7  O   UNL A   1      39.779  21.424  26.999  1.00  0.00    -0.252 OA
BRANCH   6   8
ATOM      8  C   UNL A   1      38.075  22.389  25.241  1.00  0.00     0.132 C 
BRANCH   8   9
ATOM      9  C   UNL A   1      36.903  21.552  24.852  1.00  0.00     0.114 C 
BRANCH   9  10
ATOM     10  C   UNL A   1      35.650  22.245  24.479  1.00  0.00     0.243 C 
ATOM     11  O   UNL A   1      35.803  23.468  24.325  1.00  0.00    -0.273 OA
BRANCH  10  12
ATOM     12  N   UNL A   1      34.392  21.637  24.390  1.00  0.00    -0.230 N 
ATOM     13  C   UNL A   1      33.583  19.666  24.557  1.00  0.00     0.070 C 
ATOM     14  N   UNL A   1      34.603  20.379  24.838  1.00  0.00    -0.174 NA
ATOM     15  C   UNL A   1      32.328  20.300  24.071  1.00  0.00     0.086 C 
ATOM     16  C   UNL A   1      32.920  21.605  23.601  1.00  0.00     0.118 C 
BRANCH  13  17
ATOM     17  C   UNL A   1      33.595  18.282  24.870  1.00  0.00    -0.002 A 
ATOM     18  C   UNL A   1      32.941  14.195  25.461  1.00  0.00     0.044 C 
ATOM     19  C   UNL A   1      33.208  15.645  25.247  1.00  0.00    -0.051 A 
ATOM     20  C   UNL A   1      32.295  16.560  25.795  1.00  0.00     0.004 A 
ATOM     21  C   UNL A   1      34.347  16.078  24.542  1.00  0.00     0.004 A 
ATOM     22  C   UNL A   1      32.502  17.900  25.627  1.00  0.00     0.010 A 
ATOM     23  C   UNL A   1      34.557  17.428  24.350  1.00  0.00     0.010 A 
ENDBRANCH  13  17
BRANCH  16  24
ATOM     24  C   UNL A   1      31.846  22.903  22.907  1.00  0.00     0.045 C 
BRANCH  24  25
ATOM     25  C   UNL A   1      30.669  24.246  23.646  1.00  0.00     0.106 C 
ATOM     26  C   UNL A   1      30.892  26.324  22.947  1.00  0.00    -0.003 C 
ATOM     27  C   UNL A   1      30.487  24.389  25.684  1.00  0.00     0.253 C 
ATOM     28  C   UNL A   1      31.187  27.444  23.840  1.00  0.00    -0.003 A 
ATOM     29  N   UNL A   1      30.793  25.991  26.364  1.00  0.00    -0.212 NA
ATOM     30  O   UNL A   1      30.228  23.483  26.462  1.00  0.00    -0.272 OA
ATOM     31  C   UNL A   1      32.038  28.491  23.302  1.00  0.00     0.010 A 
ATOM     32  C   UNL A   1      31.138  27.190  25.638  1.00  0.00     0.077 A 
ATOM     33  C   UNL A   1      32.721  29.299  24.111  1.00  0.00     0.001 A 
ATOM     34  C   UNL A   1      31.850  28.383  26.273  1.00  0.00    -0.025 A 
ATOM     35  C   UNL A   1      32.559  29.276  25.543  1.00  0.00     0.005 A 
ATOM     36  C   UNL A   1      31.930  28.408  27.757  1.00  0.00     0.047 C 
ENDBRANCH  24  25
ENDBRANCH  16  24
ENDBRANCH  10  12
ENDBRANCH   9  10
ENDBRANCH   8   9
ENDBRANCH   6   8
ENDBRANCH   5   6
ENDBRANCH   4   5
ENDBRANCH   3   4
ENDBRANCH   2   3
ENDBRANCH   1   2
BRANCH   1  37
ATOM     37  C   UNL A   1      43.497  20.585  25.241  1.00  0.00     0.188 C 
BRANCH  37  38
ATOM     38  O   UNL A   1      44.441  20.809  24.177  1.00  0.00    -0.376 OA
BRANCH  38  39
ATOM     39  C   UNL A   1      45.624  21.582  24.311  1.00  0.00     0.202 C 
BRANCH  39  40
ATOM     40  C   UNL A   1      45.314  22.966  23.806  1.00  0.00     0.261 C 
BRANCH  40  41
ATOM     41  O   UNL A   1      45.808  24.143  24.626  1.00  0.00    -0.460 OA
BRANCH  41  42
ATOM     42  C   UNL A   1      46.094  24.939  25.693  1.00  0.00     0.338 C 
ATOM     43  O   UNL A   1      46.272  26.128  25.419  1.00  0.00    -0.246 OA
BRANCH  42  44
ATOM     44  C   UNL A   1      46.056  24.510  27.322  1.00  0.00     0.060 A 
ATOM     45  C   UNL A   1      44.806  23.531  28.584  1.00  0.00     0.016 A 
ATOM     46  C   UNL A   1      47.156  25.470  28.040  1.00  0.00     0.016 A 
ATOM     47  C   UNL A   1      44.792  23.873  30.378  1.00  0.00     0.010 A 
ATOM     48  C   UNL A   1      46.855  25.685  29.816  1.00  0.00     0.010 A 
ATOM     49  C   UNL A   1      45.766  25.041  31.092  1.00  0.00    -0.014 A 
BRANCH  49  50
ATOM     50  C   UNL A   1      45.735  25.771  32.836  1.00  0.00     0.031 A 
ATOM     51  C   UNL A   1      44.963  27.360  33.472  1.00  0.00     0.074 A 
ATOM     52  C   UNL A   1      45.563  24.836  33.885  1.00  0.00     0.049 A 
ATOM     53  N   UNL A   1      43.936  27.378  34.318  1.00  0.00    -0.248 NA
ATOM     54  C   UNL A   1      44.906  28.841  32.894  1.00  0.00     0.031 C 
ATOM     55  C   UNL A   1      44.600  24.883  35.060  1.00  0.00     0.029 A 
ATOM     56  N   UNL A   1      45.994  23.509  34.072  1.00  0.00    -0.354 N 
ATOM     57  C   UNL A   1      43.064  28.491  34.172  1.00  0.00     0.074 A 
ATOM     58  C   UNL A   1      43.632  29.259  33.131  1.00  0.00     0.031 C 
ATOM     59  C   UNL A   1      44.750  23.850  35.912  1.00  0.00     0.029 A 
ATOM     60  C   UNL A   1      45.971  23.244  35.488  1.00  0.00     0.049 A 
ATOM     61  H   UNL A   1      46.261  22.878  33.365  1.00  0.00     0.167 HD
ATOM     62  C   UNL A   1      41.962  28.726  34.970  1.00  0.00     0.031 A 
ATOM     63  C   UNL A   1      47.118  23.357  36.229  1.00  0.00     0.031 A 
ATOM     64  C   UNL A   1      42.209  27.999  36.198  1.00  0.00     0.049 A 
ATOM     65  C   UNL A   1      47.088  24.629  37.100  1.00  0.00     0.074 A 
ATOM     66  C   UNL A   1      41.743  26.863  36.815  1.00  0.00     0.029 A 
ATOM     67  N   UNL A   1      43.430  28.283  36.777  1.00  0.00    -0.354 N 
ATOM     68  N   UNL A   1      46.288  25.645  36.864  1.00  0.00    -0.248 NA
ATOM     69  C   UNL A   1      47.768  24.796  38.384  1.00  0.00     0.031 C 
ATOM     70  C   UNL A   1      42.825  26.377  37.641  1.00  0.00     0.029 A 
ATOM     71  C   UNL A   1      43.896  27.271  37.575  1.00  0.00     0.049 A 
ATOM     72  H   UNL A   1      43.917  29.128  36.631  1.00  0.00     0.167 HD
ATOM     73  C   UNL A   1      46.190  26.458  37.953  1.00  0.00     0.074 A 
ATOM     74  C   UNL A   1      47.195  25.922  38.856  1.00  0.00     0.031 C 
ATOM     75  C   UNL A   1      45.247  27.437  38.134  1.00  0.00     0.031 A 
BRANCH  62  76
ATOM     76  C   UNL A   1      40.773  29.725  34.806  1.00  0.00    -0.014 A 
ATOM     77  C   UNL A   1      39.838  29.549  33.749  1.00  0.00     0.010 A 
ATOM     78  C   UNL A   1      40.562  30.902  35.568  1.00  0.00     0.010 A 
ATOM     79  C   UNL A   1      38.765  30.443  33.494  1.00  0.00     0.020 A 
ATOM     80  C   UNL A   1      39.473  31.801  35.336  1.00  0.00     0.020 A 
ATOM     81  C   UNL A   1      38.574  31.561  34.299  1.00  0.00     0.054 A 
BRANCH  81  82
ATOM     82  S   UNL A   1      37.149  32.659  33.968  1.00  0.00     0.124 S 
ATOM     83  O   UNL A   1      36.294  31.827  33.123  1.00  0.00    -0.237 OA
ATOM     84  O   UNL A   1      36.634  32.922  35.308  1.00  0.00    -0.237 OA
ATOM     85  O   UNL A   1      37.740  33.815  33.296  1.00  0.00    -0.744 OA
ENDBRANCH  81  82
ENDBRANCH  62  76
BRANCH  63  86
ATOM     86  C   UNL A   1      48.207  22.669  35.455  1.00  0.00    -0.014 A 
ATOM     87  C   UNL A   1      49.521  23.135  35.757  1.00  0.00     0.010 A 
ATOM     88  C   UNL A   1      48.039  21.299  35.170  1.00  0.00     0.010 A 
ATOM     89  C   UNL A   1      50.558  22.231  36.025  1.00  0.00     0.020 A 
ATOM     90  C   UNL A   1      49.089  20.397  35.435  1.00  0.00     0.020 A 
ATOM     91  C   UNL A   1      50.323  20.862  35.900  1.00  0.00     0.054 A 
BRANCH  91  92
ATOM     92  S   UNL A   1      51.593  19.729  36.540  1.00  0.00     0.124 S 
ATOM     93  O   UNL A   1      52.823  20.452  36.235  1.00  0.00    -0.237 OA
ATOM     94  O   UNL A   1      51.235  19.645  37.954  1.00  0.00    -0.237 OA
ATOM     95  O   UNL A   1      51.390  18.509  35.768  1.00  0.00    -0.744 OA
ENDBRANCH  91  92
ENDBRANCH  63  86
BRANCH  75  96
ATOM     96  C   UNL A   1      45.630  28.780  38.768  1.00  0.00    -0.014 A 
ATOM     97  C   UNL A   1      45.218  29.159  40.050  1.00  0.00     0.010 A 
ATOM     98  C   UNL A   1      46.548  29.663  38.134  1.00  0.00     0.010 A 
ATOM     99  C   UNL A   1      45.576  30.391  40.601  1.00  0.00     0.020 A 
ATOM    100  C   UNL A   1      47.012  30.838  38.723  1.00  0.00     0.020 A 
ATOM    101  C   UNL A   1      46.462  31.226  39.929  1.00  0.00     0.054 A 
BRANCH 101 102
ATOM    102  S   UNL A   1      46.830  32.845  40.622  1.00  0.00     0.124 S 
ATOM    103  O   UNL A   1      45.763  32.984  41.611  1.00  0.00    -0.237 OA
ATOM    104  O   UNL A   1      48.172  32.656  41.165  1.00  0.00    -0.237 OA
ATOM    105  O   UNL A   1      46.743  33.745  39.476  1.00  0.00    -0.744 OA
ENDBRANCH 101 102
ENDBRANCH  75  96
ENDBRANCH  49  50
ENDBRANCH  42  44
ENDBRANCH  41  42
ENDBRANCH  40  41
ENDBRANCH  39  40
ENDBRANCH  38  39
ENDBRANCH  37  38
ENDBRANCH   1  37
TORSDOF 26
ENDMDL
MODEL 3
REMARK VINA RESULT:     -11.2      5.889      8.121
REMARK SMILES Cc1ccc(C2=NN(C(=O)CCC(=O)OCCOCCOCCOC(=O)c3ccc(-c4c5nc(c(-c6ccc(S(=O)(=O)[O-])cc6)c6ccc([nH]6)c(-c6ccc(S(=O)(=O)[O-])cc6)c6nc(c(-c7ccc(S(=O)(=O)[O-])cc7)c7ccc4[nH]7)C=C6)C=C5)cc3)[C@H](C[C@@H]3C=c4cccc(C)c4=NC3=O)C2)cc1
REMARK SMILES IDX 19 1 18 2 17 3 16 4 15 5 13 6 14 7 12 8 11 9 9 10 10 11 8 12
REMARK SMILES IDX 6 13 7 14 101 15 87 16 5 17 1 18 2 19 3 20 103 21 4 22
REMARK SMILES IDX 102 23 88 24 89 25 90 26 99 27 91 28 98 29 100 30 92 31
REMARK SMILES IDX 97 32 93 33 95 34 94 35 96 36 20 37 21 38 22 39 23 40 24 41
REMARK SMILES IDX 25 42 26 43 27 44 28 45 86 46 29 47 85 48 30 49 31 50 32 51
REMARK SMILES IDX 79 52 33 53 84 54 78 55 80 56 34 57 83 58 77 59 76 60 35 62
REMARK SMILES IDX 65 63 46 64 64 65 47 66 50 67 63 68 81 69 48 70 49 71 62 73
REMARK SMILES IDX 82 74 51 75 36 76 37 77 45 78 38 79 44 80 39 81 40 82 41 83
REMARK SMILES IDX 42 84 43 85 66 86 67 87 75 88 68 89 74 90 69 91 70 92 71 93
REMARK SMILES IDX 72 94 73 95 52 96 53 97 61 98 54 99 60 100 55 101 56 102
REMARK SMILES IDX 57 103 58 104 59 105
REMARK H PARENT 80 61 50 72
REMARK Flexibility Score: inf
ROOT
ATOM      1  C   UNL A   1      51.927  29.042  26.675  1.00  0.00     0.188 C 
ENDROOT
BRANCH   1   2
ATOM      2  O   UNL A   1      50.861  29.916  27.196  1.00  0.00    -0.376 OA
BRANCH   2   3
ATOM      3  C   UNL A   1      49.438  29.650  27.296  1.00  0.00     0.202 C 
BRANCH   3   4
ATOM      4  C   UNL A   1      48.124  30.773  27.220  1.00  0.00     0.261 C 
BRANCH   4   5
ATOM      5  O   UNL A   1      47.070  31.033  26.091  1.00  0.00    -0.463 OA
BRANCH   5   6
ATOM      6  C   UNL A   1      45.996  30.244  26.191  1.00  0.00     0.306 C 
ATOM      7  O   UNL A   1      46.135  29.295  25.426  1.00  0.00    -0.252 OA
BRANCH   6   8
ATOM      8  C   UNL A   1      44.669  30.261  27.387  1.00  0.00     0.132 C 
BRANCH   8   9
ATOM      9  C   UNL A   1      43.229  29.870  27.415  1.00  0.00     0.114 C 
BRANCH   9  10
ATOM     10  C   UNL A   1      42.821  28.678  26.640  1.00  0.00     0.243 C 
ATOM     11  O   UNL A   1      42.879  28.857  25.412  1.00  0.00    -0.273 OA
BRANCH  10  12
ATOM     12  N   UNL A   1      42.329  27.490  27.195  1.00  0.00    -0.230 N 
ATOM     13  C   UNL A   1      42.781  25.404  27.097  1.00  0.00     0.070 C 
ATOM     14  N   UNL A   1      43.257  26.564  26.865  1.00  0.00    -0.174 NA
ATOM     15  C   UNL A   1      41.517  25.245  27.866  1.00  0.00     0.086 C 
ATOM     16  C   UNL A   1      40.972  26.636  27.662  1.00  0.00     0.118 C 
BRANCH  13  17
ATOM     17  C   UNL A   1      43.550  24.258  26.767  1.00  0.00    -0.002 A 
ATOM     18  C   UNL A   1      45.869  21.203  25.102  1.00  0.00     0.044 C 
ATOM     19  C   UNL A   1      45.058  22.286  25.726  1.00  0.00    -0.051 A 
ATOM     20  C   UNL A   1      43.820  22.589  25.137  1.00  0.00     0.004 A 
ATOM     21  C   UNL A   1      45.509  22.960  26.876  1.00  0.00     0.004 A 
ATOM     22  C   UNL A   1      43.041  23.573  25.679  1.00  0.00     0.010 A 
ATOM     23  C   UNL A   1      44.739  23.968  27.420  1.00  0.00     0.010 A 
ENDBRANCH  13  17
BRANCH  16  24
ATOM     24  C   UNL A   1      39.391  27.123  28.427  1.00  0.00     0.045 C 
BRANCH  24  25
ATOM     25  C   UNL A   1      38.858  28.405  29.772  1.00  0.00     0.106 C 
ATOM     26  C   UNL A   1      36.867  29.332  29.593  1.00  0.00    -0.003 C 
ATOM     27  C   UNL A   1      40.126  29.952  30.221  1.00  0.00     0.253 C 
ATOM     28  C   UNL A   1      36.662  30.777  29.486  1.00  0.00    -0.003 A 
ATOM     29  N   UNL A   1      39.423  31.569  30.106  1.00  0.00    -0.212 NA
ATOM     30  O   UNL A   1      41.308  29.868  30.519  1.00  0.00    -0.272 OA
ATOM     31  C   UNL A   1      35.563  31.211  28.641  1.00  0.00     0.010 A 
ATOM     32  C   UNL A   1      38.065  31.901  29.748  1.00  0.00     0.077 A 
ATOM     33  C   UNL A   1      35.545  32.436  28.120  1.00  0.00     0.001 A 
ATOM     34  C   UNL A   1      37.647  33.264  29.200  1.00  0.00    -0.025 A 
ATOM     35  C   UNL A   1      36.526  33.435  28.461  1.00  0.00     0.005 A 
ATOM     36  C   UNL A   1      38.638  34.367  29.312  1.00  0.00     0.047 C 
ENDBRANCH  24  25
ENDBRANCH  16  24
ENDBRANCH  10  12
ENDBRANCH   9  10
ENDBRANCH   8   9
ENDBRANCH   6   8
ENDBRANCH   5   6
ENDBRANCH   4   5
ENDBRANCH   3   4
ENDBRANCH   2   3
ENDBRANCH   1   2
BRANCH   1  37
ATOM     37  C   UNL A   1      52.261  28.496  25.199  1.00  0.00     0.188 C 
BRANCH  37  38
ATOM     38  O   UNL A   1      51.445  27.519  24.525  1.00  0.00    -0.376 OA
BRANCH  38  39
ATOM     39  C   UNL A   1      50.548  27.824  23.468  1.00  0.00     0.202 C 
BRANCH  39  40
ATOM     40  C   UNL A   1      49.198  27.282  23.857  1.00  0.00     0.261 C 
BRANCH  40  41
ATOM     41  O   UNL A   1      48.969  26.944  25.319  1.00  0.00    -0.460 OA
BRANCH  41  42
ATOM     42  C   UNL A   1      49.057  26.316  26.524  1.00  0.00     0.338 C 
ATOM     43  O   UNL A   1      50.196  25.968  26.843  1.00  0.00    -0.246 OA
BRANCH  42  44
ATOM     44  C   UNL A   1      47.834  26.130  27.667  1.00  0.00     0.060 A 
ATOM     45  C   UNL A   1      46.098  27.053  28.168  1.00  0.00     0.016 A 
ATOM     46  C   UNL A   1      48.475  25.180  28.823  1.00  0.00     0.016 A 
ATOM     47  C   UNL A   1      45.427  26.978  29.865  1.00  0.00     0.010 A 
ATOM     48  C   UNL A   1      47.647  25.364  30.428  1.00  0.00     0.010 A 
ATOM     49  C   UNL A   1      46.213  26.193  31.125  1.00  0.00    -0.014 A 
BRANCH  49  50
ATOM     50  C   UNL A   1      45.883  26.216  32.986  1.00  0.00     0.031 A 
ATOM     51  C   UNL A   1      45.186  27.576  34.077  1.00  0.00     0.074 A 
ATOM     52  C   UNL A   1      45.371  25.013  33.529  1.00  0.00     0.049 A 
ATOM     53  N   UNL A   1      44.007  27.481  34.687  1.00  0.00    -0.248 NA
ATOM     54  C   UNL A   1      45.438  29.145  34.144  1.00  0.00     0.031 C 
ATOM     55  C   UNL A   1      44.184  24.811  34.456  1.00  0.00     0.029 A 
ATOM     56  N   UNL A   1      45.587  23.654  33.231  1.00  0.00    -0.354 N 
ATOM     57  C   UNL A   1      43.329  28.719  34.866  1.00  0.00     0.074 A 
ATOM     58  C   UNL A   1      44.203  29.689  34.325  1.00  0.00     0.031 C 
ATOM     59  C   UNL A   1      44.016  23.529  34.833  1.00  0.00     0.029 A 
ATOM     60  C   UNL A   1      45.218  22.893  34.399  1.00  0.00     0.049 A 
ATOM     61  H   UNL A   1      45.927  23.290  32.382  1.00  0.00     0.167 HD
ATOM     62  C   UNL A   1      42.113  28.854  35.506  1.00  0.00     0.031 A 
ATOM     63  C   UNL A   1      46.177  22.495  35.292  1.00  0.00     0.031 A 
ATOM     64  C   UNL A   1      41.992  27.690  36.360  1.00  0.00     0.049 A 
ATOM     65  C   UNL A   1      46.107  23.332  36.585  1.00  0.00     0.074 A 
ATOM     66  C   UNL A   1      41.268  26.523  36.387  1.00  0.00     0.029 A 
ATOM     67  N   UNL A   1      43.079  27.493  37.189  1.00  0.00    -0.354 N 
ATOM     68  N   UNL A   1      45.508  24.500  36.656  1.00  0.00    -0.248 NA
ATOM     69  C   UNL A   1      46.500  22.874  37.917  1.00  0.00     0.031 C 
ATOM     70  C   UNL A   1      42.073  25.562  37.106  1.00  0.00     0.029 A 
ATOM     71  C   UNL A   1      43.231  26.186  37.574  1.00  0.00     0.049 A 
ATOM     72  H   UNL A   1      43.684  28.217  37.473  1.00  0.00     0.167 HD
ATOM     73  C   UNL A   1      45.268  24.854  37.949  1.00  0.00     0.074 A 
ATOM     74  C   UNL A   1      45.976  23.835  38.706  1.00  0.00     0.031 C 
ATOM     75  C   UNL A   1      44.433  25.863  38.358  1.00  0.00     0.031 A 
BRANCH  62  76
ATOM     76  C   UNL A   1      41.120  30.057  35.573  1.00  0.00    -0.014 A 
ATOM     77  C   UNL A   1      39.841  29.957  34.960  1.00  0.00     0.010 A 
ATOM     78  C   UNL A   1      41.395  31.337  36.120  1.00  0.00     0.010 A 
ATOM     79  C   UNL A   1      38.902  31.022  34.924  1.00  0.00     0.020 A 
ATOM     80  C   UNL A   1      40.451  32.412  36.109  1.00  0.00     0.020 A 
ATOM     81  C   UNL A   1      39.203  32.244  35.514  1.00  0.00     0.054 A 
BRANCH  81  82
ATOM     82  S   UNL A   1      37.946  33.572  35.490  1.00  0.00     0.124 S 
ATOM     83  O   UNL A   1      36.715  32.842  35.196  1.00  0.00    -0.237 OA
ATOM     84  O   UNL A   1      38.038  34.120  36.840  1.00  0.00    -0.237 OA
ATOM     85  O   UNL A   1      38.397  34.470  34.428  1.00  0.00    -0.744 OA
ENDBRANCH  81  82
ENDBRANCH  62  76
BRANCH  63  86
ATOM     86  C   UNL A   1      47.320  21.942  34.489  1.00  0.00    -0.014 A 
ATOM     87  C   UNL A   1      48.479  22.775  34.473  1.00  0.00     0.010 A 
ATOM     88  C   UNL A   1      47.508  20.546  34.499  1.00  0.00     0.010 A 
ATOM     89  C   UNL A   1      49.749  22.239  34.727  1.00  0.00     0.020 A 
ATOM     90  C   UNL A   1      48.790  20.015  34.747  1.00  0.00     0.020 A 
ATOM     91  C   UNL A   1      49.890  20.864  34.903  1.00  0.00     0.054 A 
BRANCH  91  92
ATOM     92  S   UNL A   1      51.489  20.254  35.521  1.00  0.00     0.124 S 
ATOM     93  O   UNL A   1      52.401  21.306  35.083  1.00  0.00    -0.237 OA
ATOM     94  O   UNL A   1      51.244  20.178  36.959  1.00  0.00    -0.237 OA
ATOM     95  O   UNL A   1      51.657  18.975  34.844  1.00  0.00    -0.744 OA
ENDBRANCH  91  92
ENDBRANCH  63  86
BRANCH  75  96
ATOM     96  C   UNL A   1      44.825  26.771  39.530  1.00  0.00    -0.014 A 
ATOM     97  C   UNL A   1      44.461  26.500  40.854  1.00  0.00     0.010 A 
ATOM     98  C   UNL A   1      45.705  27.875  39.350  1.00  0.00     0.010 A 
ATOM     99  C   UNL A   1      44.825  27.348  41.902  1.00  0.00     0.020 A 
ATOM    100  C   UNL A   1      46.177  28.657  40.403  1.00  0.00     0.020 A 
ATOM    101  C   UNL A   1      45.672  28.426  41.667  1.00  0.00     0.054 A 
BRANCH 101 102
ATOM    102  S   UNL A   1      46.046  29.551  43.020  1.00  0.00     0.124 S 
ATOM    103  O   UNL A   1      45.681  30.839  42.435  1.00  0.00    -0.237 OA
ATOM    104  O   UNL A   1      45.167  29.068  44.081  1.00  0.00    -0.237 OA
ATOM    105  O   UNL A   1      47.473  29.352  43.256  1.00  0.00    -0.744 OA
ENDBRANCH 101 102
ENDBRANCH  75  96
ENDBRANCH  49  50
ENDBRANCH  42  44
ENDBRANCH  41  42
ENDBRANCH  40  41
ENDBRANCH  39  40
ENDBRANCH  38  39
ENDBRANCH  37  38
ENDBRANCH   1  37
TORSDOF 26
ENDMDL
