MODEL 1
REMARK VINA RESULT:      -9.0      0.000      0.000
REMARK SMILES O=C(Cc1ccc(NC(=O)C2CCCC2)cc1)OCCOCCOCCOC(=O)c1ccc(-c2c3nc(c(-c4ccc(S(=O)(=O)[O-])cc4)c4ccc([nH]4)c(-c4ccc(S(=O)(=O)[O-])cc4)c4nc(c(-c5ccc(S(=O)(=O)[O-])cc5)c5ccc2[nH]5)C=C4)C=C3)cc1
REMARK SMILES IDX 22 1 21 2 20 3 19 4 18 5 2 6 1 7 3 8 4 9 5 10 17 11 6 12
REMARK SMILES IDX 16 13 7 14 8 15 9 16 10 18 11 19 12 20 15 21 13 22 14 23
REMARK SMILES IDX 23 24 24 25 25 26 26 27 27 28 28 29 29 30 30 31 31 32 89 33
REMARK SMILES IDX 32 34 88 35 33 36 34 37 35 38 82 39 36 40 87 41 81 42 83 43
REMARK SMILES IDX 37 44 86 45 80 46 79 47 38 49 68 50 49 51 67 52 50 53 53 54
REMARK SMILES IDX 66 55 84 56 51 57 52 58 65 60 85 61 54 62 39 63 40 64 48 65
REMARK SMILES IDX 41 66 47 67 42 68 43 69 44 70 45 71 46 72 69 73 70 74 78 75
REMARK SMILES IDX 71 76 77 77 72 78 73 79 74 80 75 81 76 82 55 83 56 84 64 85
REMARK SMILES IDX 57 86 63 87 58 88 59 89 60 90 61 91 62 92
REMARK H PARENT 8 17 83 48 53 59
REMARK Flexibility Score: inf
ROOT
ATOM      1  C   UNL A   1      34.131  29.250  26.706  1.00  0.00     0.188 C 
ENDROOT
BRANCH   1   2
ATOM      2  O   UNL A   1      32.731  29.472  26.623  1.00  0.00    -0.376 OA
BRANCH   2   3
ATOM      3  C   UNL A   1      32.262  29.960  25.381  1.00  0.00     0.202 C 
BRANCH   3   4
ATOM      4  C   UNL A   1      31.283  28.971  24.764  1.00  0.00     0.261 C 
BRANCH   4   5
ATOM      5  O   UNL A   1      31.632  27.573  24.903  1.00  0.00    -0.463 OA
BRANCH   5   6
ATOM      6  C   UNL A   1      31.098  26.628  25.707  1.00  0.00     0.310 C 
ATOM      7  O   UNL A   1      31.457  26.578  26.883  1.00  0.00    -0.252 OA
BRANCH   6   8
ATOM      8  C   UNL A   1      30.146  25.587  25.153  1.00  0.00     0.158 C 
BRANCH   8   9
ATOM      9  C   UNL A   1      30.723  24.213  24.973  1.00  0.00    -0.037 A 
ATOM     10  C   UNL A   1      31.273  23.847  23.745  1.00  0.00     0.006 A 
ATOM     11  C   UNL A   1      30.692  23.272  26.012  1.00  0.00     0.006 A 
ATOM     12  C   UNL A   1      31.914  22.621  23.610  1.00  0.00     0.026 A 
ATOM     13  C   UNL A   1      31.346  22.046  25.872  1.00  0.00     0.026 A 
ATOM     14  C   UNL A   1      32.044  21.762  24.697  1.00  0.00     0.041 A 
BRANCH  14  15
ATOM     15  N   UNL A   1      32.859  20.620  24.672  1.00  0.00    -0.326 N 
ATOM     16  C   UNL A   1      34.227  20.518  24.743  1.00  0.00     0.227 C 
ATOM     17  H   UNL A   1      32.379  19.765  24.590  1.00  0.00     0.169 HD
ATOM     18  O   UNL A   1      34.743  19.406  24.600  1.00  0.00    -0.274 OA
BRANCH  16  19
ATOM     19  C   UNL A   1      35.065  21.743  25.099  1.00  0.00     0.079 C 
ATOM     20  C   UNL A   1      36.421  21.380  25.705  1.00  0.00     0.013 C 
ATOM     21  C   UNL A   1      35.491  22.602  23.912  1.00  0.00     0.013 C 
ATOM     22  C   UNL A   1      37.192  22.692  25.664  1.00  0.00     0.001 C 
ATOM     23  C   UNL A   1      36.618  23.468  24.478  1.00  0.00     0.001 C 
ENDBRANCH  16  19
ENDBRANCH  14  15
ENDBRANCH   8   9
ENDBRANCH   6   8
ENDBRANCH   5   6
ENDBRANCH   4   5
ENDBRANCH   3   4
ENDBRANCH   2   3
ENDBRANCH   1   2
BRANCH   1  24
ATOM     24  C   UNL A   1      34.781  30.100  27.805  1.00  0.00     0.188 C 
BRANCH  24  25
ATOM     25  O   UNL A   1      35.372  31.355  27.485  1.00  0.00    -0.376 OA
BRANCH  25  26
ATOM     26  C   UNL A   1      34.980  32.524  28.190  1.00  0.00     0.202 C 
BRANCH  26  27
ATOM     27  C   UNL A   1      35.295  32.565  29.690  1.00  0.00     0.261 C 
BRANCH  27  28
ATOM     28  O   UNL A   1      36.700  32.602  30.010  1.00  0.00    -0.460 OA
BRANCH  28  29
ATOM     29  C   UNL A   1      37.114  31.680  30.917  1.00  0.00     0.338 C 
ATOM     30  O   UNL A   1      36.582  31.413  31.979  1.00  0.00    -0.246 OA
BRANCH  29  31
ATOM     31  C   UNL A   1      38.256  30.893  30.388  1.00  0.00     0.060 A 
ATOM     32  C   UNL A   1      39.243  30.486  31.295  1.00  0.00     0.016 A 
ATOM     33  C   UNL A   1      38.420  30.649  29.023  1.00  0.00     0.016 A 
ATOM     34  C   UNL A   1      40.420  29.886  30.837  1.00  0.00     0.010 A 
ATOM     35  C   UNL A   1      39.611  30.061  28.563  1.00  0.00     0.010 A 
ATOM     36  C   UNL A   1      40.636  29.712  29.463  1.00  0.00    -0.014 A 
BRANCH  36  37
ATOM     37  C   UNL A   1      41.994  29.339  28.974  1.00  0.00     0.031 A 
ATOM     38  C   UNL A   1      42.254  27.912  28.558  1.00  0.00     0.074 A 
ATOM     39  C   UNL A   1      42.974  30.253  28.846  1.00  0.00     0.049 A 
ATOM     40  N   UNL A   1      43.355  27.368  28.103  1.00  0.00    -0.248 NA
ATOM     41  C   UNL A   1      41.123  26.976  28.668  1.00  0.00     0.031 C 
ATOM     42  C   UNL A   1      42.857  31.676  29.162  1.00  0.00     0.029 A 
ATOM     43  N   UNL A   1      44.272  30.113  28.412  1.00  0.00    -0.354 N 
ATOM     44  C   UNL A   1      43.049  26.032  27.865  1.00  0.00     0.074 A 
ATOM     45  C   UNL A   1      41.669  25.839  28.260  1.00  0.00     0.031 C 
ATOM     46  C   UNL A   1      44.037  32.276  28.922  1.00  0.00     0.029 A 
ATOM     47  C   UNL A   1      45.002  31.278  28.458  1.00  0.00     0.049 A 
ATOM     48  H   UNL A   1      44.644  29.258  28.097  1.00  0.00     0.167 HD
ATOM     49  C   UNL A   1      43.835  25.052  27.357  1.00  0.00     0.031 A 
ATOM     50  C   UNL A   1      46.300  31.513  28.177  1.00  0.00     0.031 A 
ATOM     51  C   UNL A   1      45.212  25.225  26.975  1.00  0.00     0.049 A 
ATOM     52  C   UNL A   1      47.179  30.387  27.690  1.00  0.00     0.074 A 
ATOM     53  C   UNL A   1      46.083  24.284  26.451  1.00  0.00     0.029 A 
ATOM     54  N   UNL A   1      45.923  26.410  27.078  1.00  0.00    -0.354 N 
ATOM     55  N   UNL A   1      46.864  29.135  27.455  1.00  0.00    -0.248 NA
ATOM     56  C   UNL A   1      48.588  30.712  27.418  1.00  0.00     0.031 C 
ATOM     57  C   UNL A   1      47.335  24.887  26.286  1.00  0.00     0.029 A 
ATOM     58  C   UNL A   1      47.227  26.218  26.651  1.00  0.00     0.049 A 
ATOM     59  H   UNL A   1      45.555  27.262  27.408  1.00  0.00     0.167 HD
ATOM     60  C   UNL A   1      48.030  28.533  26.985  1.00  0.00     0.074 A 
ATOM     61  C   UNL A   1      49.047  29.561  26.947  1.00  0.00     0.031 C 
ATOM     62  C   UNL A   1      48.237  27.244  26.619  1.00  0.00     0.031 A 
BRANCH  49  63
ATOM     63  C   UNL A   1      43.228  23.684  27.195  1.00  0.00    -0.014 A 
ATOM     64  C   UNL A   1      42.602  23.307  25.993  1.00  0.00     0.010 A 
ATOM     65  C   UNL A   1      43.343  22.742  28.233  1.00  0.00     0.010 A 
ATOM     66  C   UNL A   1      42.083  22.019  25.841  1.00  0.00     0.020 A 
ATOM     67  C   UNL A   1      42.847  21.444  28.076  1.00  0.00     0.020 A 
ATOM     68  C   UNL A   1      42.210  21.095  26.882  1.00  0.00     0.054 A 
BRANCH  68  69
ATOM     69  S   UNL A   1      41.567  19.416  26.639  1.00  0.00     0.124 S 
ATOM     70  O   UNL A   1      42.748  18.600  26.912  1.00  0.00    -0.237 OA
ATOM     71  O   UNL A   1      40.503  19.333  27.636  1.00  0.00    -0.237 OA
ATOM     72  O   UNL A   1      41.117  19.415  25.249  1.00  0.00    -0.744 OA
ENDBRANCH  68  69
ENDBRANCH  49  63
BRANCH  50  73
ATOM     73  C   UNL A   1      46.879  32.871  28.383  1.00  0.00    -0.014 A 
ATOM     74  C   UNL A   1      46.892  33.819  27.344  1.00  0.00     0.010 A 
ATOM     75  C   UNL A   1      47.469  33.203  29.616  1.00  0.00     0.010 A 
ATOM     76  C   UNL A   1      47.511  35.060  27.523  1.00  0.00     0.020 A 
ATOM     77  C   UNL A   1      48.061  34.453  29.810  1.00  0.00     0.020 A 
ATOM     78  C   UNL A   1      48.094  35.369  28.757  1.00  0.00     0.054 A 
BRANCH  78  79
ATOM     79  S   UNL A   1      48.867  36.995  28.983  1.00  0.00     0.124 S 
ATOM     80  O   UNL A   1      50.250  36.728  28.601  1.00  0.00    -0.237 OA
ATOM     81  O   UNL A   1      48.106  37.838  28.065  1.00  0.00    -0.237 OA
ATOM     82  O   UNL A   1      48.650  37.278  30.401  1.00  0.00    -0.744 OA
ENDBRANCH  78  79
ENDBRANCH  50  73
BRANCH  62  83
ATOM     83  C   UNL A   1      49.609  26.876  26.113  1.00  0.00    -0.014 A 
ATOM     84  C   UNL A   1      50.006  27.171  24.795  1.00  0.00     0.010 A 
ATOM     85  C   UNL A   1      50.527  26.249  26.977  1.00  0.00     0.010 A 
ATOM     86  C   UNL A   1      51.275  26.803  24.339  1.00  0.00     0.020 A 
ATOM     87  C   UNL A   1      51.807  25.906  26.532  1.00  0.00     0.020 A 
ATOM     88  C   UNL A   1      52.166  26.167  25.209  1.00  0.00     0.054 A 
BRANCH  88  89
ATOM     89  S   UNL A   1      53.812  25.710  24.596  1.00  0.00     0.124 S 
ATOM     90  O   UNL A   1      53.750  24.251  24.618  1.00  0.00    -0.237 OA
ATOM     91  O   UNL A   1      53.842  26.318  23.268  1.00  0.00    -0.237 OA
ATOM     92  O   UNL A   1      54.722  26.311  25.569  1.00  0.00    -0.744 OA
ENDBRANCH  88  89
ENDBRANCH  62  83
ENDBRANCH  36  37
ENDBRANCH  29  31
ENDBRANCH  28  29
ENDBRANCH  27  28
ENDBRANCH  26  27
ENDBRANCH  25  26
ENDBRANCH  24  25
ENDBRANCH   1  24
TORSDOF 23
ENDMDL
MODEL 2
REMARK VINA RESULT:      -8.9      5.806     10.382
REMARK SMILES O=C(Cc1ccc(NC(=O)C2CCCC2)cc1)OCCOCCOCCOC(=O)c1ccc(-c2c3nc(c(-c4ccc(S(=O)(=O)[O-])cc4)c4ccc([nH]4)c(-c4ccc(S(=O)(=O)[O-])cc4)c4nc(c(-c5ccc(S(=O)(=O)[O-])cc5)c5ccc2[nH]5)C=C4)C=C3)cc1
REMARK SMILES IDX 22 1 21 2 20 3 19 4 18 5 2 6 1 7 3 8 4 9 5 10 17 11 6 12
REMARK SMILES IDX 16 13 7 14 8 15 9 16 10 18 11 19 12 20 15 21 13 22 14 23
REMARK SMILES IDX 23 24 24 25 25 26 26 27 27 28 28 29 29 30 30 31 31 32 89 33
REMARK SMILES IDX 32 34 88 35 33 36 34 37 35 38 82 39 36 40 87 41 81 42 83 43
REMARK SMILES IDX 37 44 86 45 80 46 79 47 38 49 68 50 49 51 67 52 50 53 53 54
REMARK SMILES IDX 66 55 84 56 51 57 52 58 65 60 85 61 54 62 39 63 40 64 48 65
REMARK SMILES IDX 41 66 47 67 42 68 43 69 44 70 45 71 46 72 69 73 70 74 78 75
REMARK SMILES IDX 71 76 77 77 72 78 73 79 74 80 75 81 76 82 55 83 56 84 64 85
REMARK SMILES IDX 57 86 63 87 58 88 59 89 60 90 61 91 62 92
REMARK H PARENT 8 17 83 48 53 59
REMARK Flexibility Score: inf
ROOT
ATOM      1  C   UNL A   1      33.243  28.626  26.312  1.00  0.00     0.188 C 
ENDROOT
BRANCH   1   2
ATOM      2  O   UNL A   1      31.846  28.861  26.214  1.00  0.00    -0.376 OA
BRANCH   2   3
ATOM      3  C   UNL A   1      31.466  29.958  25.406  1.00  0.00     0.202 C 
BRANCH   3   4
ATOM      4  C   UNL A   1      30.861  29.464  24.099  1.00  0.00     0.261 C 
BRANCH   4   5
ATOM      5  O   UNL A   1      31.801  28.922  23.140  1.00  0.00    -0.463 OA
BRANCH   5   6
ATOM      6  C   UNL A   1      31.722  27.795  22.400  1.00  0.00     0.310 C 
ATOM      7  O   UNL A   1      30.628  27.456  21.951  1.00  0.00    -0.252 OA
BRANCH   6   8
ATOM      8  C   UNL A   1      32.937  26.910  22.203  1.00  0.00     0.158 C 
BRANCH   8   9
ATOM      9  C   UNL A   1      32.771  25.480  22.629  1.00  0.00    -0.037 A 
ATOM     10  C   UNL A   1      32.960  24.454  21.704  1.00  0.00     0.006 A 
ATOM     11  C   UNL A   1      32.398  25.154  23.941  1.00  0.00     0.006 A 
ATOM     12  C   UNL A   1      32.926  23.129  22.122  1.00  0.00     0.026 A 
ATOM     13  C   UNL A   1      32.375  23.820  24.356  1.00  0.00     0.026 A 
ATOM     14  C   UNL A   1      32.736  22.810  23.464  1.00  0.00     0.041 A 
BRANCH  14  15
ATOM     15  N   UNL A   1      32.904  21.511  23.968  1.00  0.00    -0.326 N 
ATOM     16  C   UNL A   1      34.010  20.928  24.538  1.00  0.00     0.227 C 
ATOM     17  H   UNL A   1      32.112  20.931  23.903  1.00  0.00     0.169 HD
ATOM     18  O   UNL A   1      33.963  19.729  24.823  1.00  0.00    -0.274 OA
BRANCH  16  19
ATOM     19  C   UNL A   1      35.221  21.785  24.901  1.00  0.00     0.079 C 
ATOM     20  C   UNL A   1      36.413  20.955  25.377  1.00  0.00     0.013 C 
ATOM     21  C   UNL A   1      35.840  22.554  23.738  1.00  0.00     0.013 C 
ATOM     22  C   UNL A   1      37.568  21.947  25.355  1.00  0.00     0.001 C 
ATOM     23  C   UNL A   1      37.216  22.962  24.266  1.00  0.00     0.001 C 
ENDBRANCH  16  19
ENDBRANCH  14  15
ENDBRANCH   8   9
ENDBRANCH   6   8
ENDBRANCH   5   6
ENDBRANCH   4   5
ENDBRANCH   3   4
ENDBRANCH   2   3
ENDBRANCH   1   2
BRANCH   1  24
ATOM     24  C   UNL A   1      33.780  28.937  27.714  1.00  0.00     0.188 C 
BRANCH  24  25
ATOM     25  O   UNL A   1      34.740  29.972  27.900  1.00  0.00    -0.376 OA
BRANCH  25  26
ATOM     26  C   UNL A   1      34.548  31.236  27.284  1.00  0.00     0.202 C 
BRANCH  26  27
ATOM     27  C   UNL A   1      33.390  32.093  27.810  1.00  0.00     0.261 C 
BRANCH  27  28
ATOM     28  O   UNL A   1      33.513  33.504  27.540  1.00  0.00    -0.460 OA
BRANCH  28  29
ATOM     29  C   UNL A   1      33.465  34.311  28.631  1.00  0.00     0.338 C 
ATOM     30  O   UNL A   1      32.579  35.094  28.920  1.00  0.00    -0.246 OA
BRANCH  29  31
ATOM     31  C   UNL A   1      34.594  34.022  29.551  1.00  0.00     0.060 A 
ATOM     32  C   UNL A   1      35.894  34.250  29.082  1.00  0.00     0.016 A 
ATOM     33  C   UNL A   1      34.397  33.442  30.807  1.00  0.00     0.016 A 
ATOM     34  C   UNL A   1      36.999  33.848  29.838  1.00  0.00     0.010 A 
ATOM     35  C   UNL A   1      35.509  33.023  31.557  1.00  0.00     0.010 A 
ATOM     36  C   UNL A   1      36.816  33.187  31.060  1.00  0.00    -0.014 A 
BRANCH  36  37
ATOM     37  C   UNL A   1      37.976  32.517  31.713  1.00  0.00     0.031 A 
ATOM     38  C   UNL A   1      38.472  33.041  33.039  1.00  0.00     0.074 A 
ATOM     39  C   UNL A   1      38.556  31.426  31.176  1.00  0.00     0.049 A 
ATOM     40  N   UNL A   1      39.462  32.613  33.783  1.00  0.00    -0.248 NA
ATOM     41  C   UNL A   1      37.757  34.199  33.599  1.00  0.00     0.031 C 
ATOM     42  C   UNL A   1      38.157  30.778  29.928  1.00  0.00     0.029 A 
ATOM     43  N   UNL A   1      39.615  30.670  31.622  1.00  0.00    -0.354 N 
ATOM     44  C   UNL A   1      39.483  33.442  34.900  1.00  0.00     0.074 A 
ATOM     45  C   UNL A   1      38.430  34.420  34.719  1.00  0.00     0.031 C 
ATOM     46  C   UNL A   1      38.967  29.728  29.702  1.00  0.00     0.029 A 
ATOM     47  C   UNL A   1      39.958  29.642  30.775  1.00  0.00     0.049 A 
ATOM     48  H   UNL A   1      40.085  30.847  32.469  1.00  0.00     0.167 HD
ATOM     49  C   UNL A   1      40.293  33.394  35.985  1.00  0.00     0.031 A 
ATOM     50  C   UNL A   1      40.964  28.745  30.844  1.00  0.00     0.031 A 
ATOM     51  C   UNL A   1      41.353  32.438  36.171  1.00  0.00     0.049 A 
ATOM     52  C   UNL A   1      41.906  28.762  32.023  1.00  0.00     0.074 A 
ATOM     53  C   UNL A   1      42.225  32.318  37.242  1.00  0.00     0.029 A 
ATOM     54  N   UNL A   1      41.693  31.442  35.270  1.00  0.00    -0.354 N 
ATOM     55  N   UNL A   1      41.897  29.544  33.077  1.00  0.00    -0.248 NA
ATOM     56  C   UNL A   1      42.989  27.766  32.024  1.00  0.00     0.031 C 
ATOM     57  C   UNL A   1      43.123  31.283  36.963  1.00  0.00     0.029 A 
ATOM     58  C   UNL A   1      42.774  30.720  35.747  1.00  0.00     0.049 A 
ATOM     59  H   UNL A   1      41.233  31.274  34.415  1.00  0.00     0.167 HD
ATOM     60  C   UNL A   1      42.955  29.115  33.875  1.00  0.00     0.074 A 
ATOM     61  C   UNL A   1      43.567  27.994  33.195  1.00  0.00     0.031 C 
ATOM     62  C   UNL A   1      43.382  29.607  35.064  1.00  0.00     0.031 A 
BRANCH  49  63
ATOM     63  C   UNL A   1      40.079  34.424  37.062  1.00  0.00    -0.014 A 
ATOM     64  C   UNL A   1      40.651  35.705  36.964  1.00  0.00     0.010 A 
ATOM     65  C   UNL A   1      39.239  34.130  38.152  1.00  0.00     0.010 A 
ATOM     66  C   UNL A   1      40.407  36.665  37.948  1.00  0.00     0.020 A 
ATOM     67  C   UNL A   1      38.973  35.096  39.126  1.00  0.00     0.020 A 
ATOM     68  C   UNL A   1      39.567  36.355  39.022  1.00  0.00     0.054 A 
BRANCH  68  69
ATOM     69  S   UNL A   1      39.231  37.637  40.261  1.00  0.00     0.124 S 
ATOM     70  O   UNL A   1      40.530  38.296  40.372  1.00  0.00    -0.237 OA
ATOM     71  O   UNL A   1      38.178  38.427  39.627  1.00  0.00    -0.237 OA
ATOM     72  O   UNL A   1      38.813  36.881  41.439  1.00  0.00    -0.744 OA
ENDBRANCH  68  69
ENDBRANCH  49  63
BRANCH  50  73
ATOM     73  C   UNL A   1      41.170  27.762  29.742  1.00  0.00    -0.014 A 
ATOM     74  C   UNL A   1      42.293  27.845  28.898  1.00  0.00     0.010 A 
ATOM     75  C   UNL A   1      40.210  26.763  29.503  1.00  0.00     0.010 A 
ATOM     76  C   UNL A   1      42.434  26.969  27.817  1.00  0.00     0.020 A 
ATOM     77  C   UNL A   1      40.362  25.865  28.443  1.00  0.00     0.020 A 
ATOM     78  C   UNL A   1      41.465  25.984  27.596  1.00  0.00     0.054 A 
BRANCH  78  79
ATOM     79  S   UNL A   1      41.678  24.836  26.208  1.00  0.00     0.124 S 
ATOM     80  O   UNL A   1      40.611  23.869  26.449  1.00  0.00    -0.237 OA
ATOM     81  O   UNL A   1      41.497  25.704  25.048  1.00  0.00    -0.237 OA
ATOM     82  O   UNL A   1      43.037  24.330  26.392  1.00  0.00    -0.744 OA
ENDBRANCH  78  79
ENDBRANCH  50  73
BRANCH  62  83
ATOM     83  C   UNL A   1      44.548  28.917  35.727  1.00  0.00    -0.014 A 
ATOM     84  C   UNL A   1      45.875  29.197  35.348  1.00  0.00     0.010 A 
ATOM     85  C   UNL A   1      44.315  27.994  36.763  1.00  0.00     0.010 A 
ATOM     86  C   UNL A   1      46.940  28.531  35.960  1.00  0.00     0.020 A 
ATOM     87  C   UNL A   1      45.380  27.349  37.397  1.00  0.00     0.020 A 
ATOM     88  C   UNL A   1      46.686  27.606  36.977  1.00  0.00     0.054 A 
BRANCH  88  89
ATOM     89  S   UNL A   1      48.088  26.765  37.765  1.00  0.00     0.124 S 
ATOM     90  O   UNL A   1      47.416  25.841  38.674  1.00  0.00    -0.237 OA
ATOM     91  O   UNL A   1      48.772  26.146  36.631  1.00  0.00    -0.237 OA
ATOM     92  O   UNL A   1      48.824  27.850  38.410  1.00  0.00    -0.744 OA
ENDBRANCH  88  89
ENDBRANCH  62  83
ENDBRANCH  36  37
ENDBRANCH  29  31
ENDBRANCH  28  29
ENDBRANCH  27  28
ENDBRANCH  26  27
ENDBRANCH  25  26
ENDBRANCH  24  25
ENDBRANCH   1  24
TORSDOF 23
ENDMDL
MODEL 3
REMARK VINA RESULT:      -8.8      1.676      2.096
REMARK SMILES O=C(Cc1ccc(NC(=O)C2CCCC2)cc1)OCCOCCOCCOC(=O)c1ccc(-c2c3nc(c(-c4ccc(S(=O)(=O)[O-])cc4)c4ccc([nH]4)c(-c4ccc(S(=O)(=O)[O-])cc4)c4nc(c(-c5ccc(S(=O)(=O)[O-])cc5)c5ccc2[nH]5)C=C4)C=C3)cc1
REMARK SMILES IDX 22 1 21 2 20 3 19 4 18 5 2 6 1 7 3 8 4 9 5 10 17 11 6 12
REMARK SMILES IDX 16 13 7 14 8 15 9 16 10 18 11 19 12 20 15 21 13 22 14 23
REMARK SMILES IDX 23 24 24 25 25 26 26 27 27 28 28 29 29 30 30 31 31 32 89 33
REMARK SMILES IDX 32 34 88 35 33 36 34 37 35 38 82 39 36 40 87 41 81 42 83 43
REMARK SMILES IDX 37 44 86 45 80 46 79 47 38 49 68 50 49 51 67 52 50 53 53 54
REMARK SMILES IDX 66 55 84 56 51 57 52 58 65 60 85 61 54 62 39 63 40 64 48 65
REMARK SMILES IDX 41 66 47 67 42 68 43 69 44 70 45 71 46 72 69 73 70 74 78 75
REMARK SMILES IDX 71 76 77 77 72 78 73 79 74 80 75 81 76 82 55 83 56 84 64 85
REMARK SMILES IDX 57 86 63 87 58 88 59 89 60 90 61 91 62 92
REMARK H PARENT 8 17 83 48 53 59
REMARK Flexibility Score: inf
ROOT
ATOM      1  C   UNL A   1      33.817  27.693  26.067  1.00  0.00     0.188 C 
ENDROOT
BRANCH   1   2
ATOM      2  O   UNL A   1      33.600  27.248  24.737  1.00  0.00    -0.376 OA
BRANCH   2   3
ATOM      3  C   UNL A   1      33.619  28.256  23.744  1.00  0.00     0.202 C 
BRANCH   3   4
ATOM      4  C   UNL A   1      33.206  27.676  22.398  1.00  0.00     0.261 C 
BRANCH   4   5
ATOM      5  O   UNL A   1      31.905  27.040  22.363  1.00  0.00    -0.463 OA
BRANCH   5   6
ATOM      6  C   UNL A   1      30.697  27.532  22.713  1.00  0.00     0.310 C 
ATOM      7  O   UNL A   1      30.175  28.386  21.998  1.00  0.00    -0.252 OA
BRANCH   6   8
ATOM      8  C   UNL A   1      30.035  27.113  24.010  1.00  0.00     0.158 C 
BRANCH   8   9
ATOM      9  C   UNL A   1      30.303  25.701  24.446  1.00  0.00    -0.037 A 
ATOM     10  C   UNL A   1      30.431  24.692  23.492  1.00  0.00     0.006 A 
ATOM     11  C   UNL A   1      30.397  25.368  25.805  1.00  0.00     0.006 A 
ATOM     12  C   UNL A   1      30.797  23.410  23.884  1.00  0.00     0.026 A 
ATOM     13  C   UNL A   1      30.773  24.080  26.191  1.00  0.00     0.026 A 
ATOM     14  C   UNL A   1      31.069  23.123  25.219  1.00  0.00     0.041 A 
BRANCH  14  15
ATOM     15  N   UNL A   1      31.643  21.913  25.635  1.00  0.00    -0.326 N 
ATOM     16  C   UNL A   1      32.963  21.529  25.655  1.00  0.00     0.227 C 
ATOM     17  H   UNL A   1      31.006  21.238  25.960  1.00  0.00     0.169 HD
ATOM     18  O   UNL A   1      33.234  20.368  25.972  1.00  0.00    -0.274 OA
BRANCH  16  19
ATOM     19  C   UNL A   1      34.059  22.558  25.393  1.00  0.00     0.079 C 
ATOM     20  C   UNL A   1      35.315  22.313  26.229  1.00  0.00     0.013 C 
ATOM     21  C   UNL A   1      34.636  22.543  23.980  1.00  0.00     0.013 C 
ATOM     22  C   UNL A   1      36.357  23.215  25.580  1.00  0.00     0.001 C 
ATOM     23  C   UNL A   1      35.940  23.332  24.113  1.00  0.00     0.001 C 
ENDBRANCH  16  19
ENDBRANCH  14  15
ENDBRANCH   8   9
ENDBRANCH   6   8
ENDBRANCH   5   6
ENDBRANCH   4   5
ENDBRANCH   3   4
ENDBRANCH   2   3
ENDBRANCH   1   2
BRANCH   1  24
ATOM     24  C   UNL A   1      32.826  28.792  26.473  1.00  0.00     0.188 C 
BRANCH  24  25
ATOM     25  O   UNL A   1      33.243  30.153  26.513  1.00  0.00    -0.376 OA
BRANCH  25  26
ATOM     26  C   UNL A   1      34.028  30.622  27.597  1.00  0.00     0.202 C 
BRANCH  26  27
ATOM     27  C   UNL A   1      35.213  29.747  28.023  1.00  0.00     0.261 C 
BRANCH  27  28
ATOM     28  O   UNL A   1      36.228  30.433  28.782  1.00  0.00    -0.460 OA
BRANCH  28  29
ATOM     29  C   UNL A   1      36.862  29.681  29.718  1.00  0.00     0.338 C 
ATOM     30  O   UNL A   1      36.405  29.306  30.783  1.00  0.00    -0.246 OA
BRANCH  29  31
ATOM     31  C   UNL A   1      38.183  29.221  29.222  1.00  0.00     0.060 A 
ATOM     32  C   UNL A   1      39.107  28.752  30.165  1.00  0.00     0.016 A 
ATOM     33  C   UNL A   1      38.556  29.344  27.882  1.00  0.00     0.016 A 
ATOM     34  C   UNL A   1      40.420  28.459  29.784  1.00  0.00     0.010 A 
ATOM     35  C   UNL A   1      39.881  29.065  27.503  1.00  0.00     0.010 A 
ATOM     36  C   UNL A   1      40.832  28.659  28.459  1.00  0.00    -0.014 A 
BRANCH  36  37
ATOM     37  C   UNL A   1      42.284  28.617  28.128  1.00  0.00     0.031 A 
ATOM     38  C   UNL A   1      42.871  27.342  27.572  1.00  0.00     0.074 A 
ATOM     39  C   UNL A   1      43.071  29.702  28.262  1.00  0.00     0.049 A 
ATOM     40  N   UNL A   1      44.104  27.083  27.214  1.00  0.00    -0.248 NA
ATOM     41  C   UNL A   1      41.944  26.213  27.394  1.00  0.00     0.031 C 
ATOM     42  C   UNL A   1      42.637  31.014  28.740  1.00  0.00     0.029 A 
ATOM     43  N   UNL A   1      44.412  29.867  28.006  1.00  0.00    -0.354 N 
ATOM     44  C   UNL A   1      44.100  25.767  26.763  1.00  0.00     0.074 A 
ATOM     45  C   UNL A   1      42.750  25.270  26.926  1.00  0.00     0.031 C 
ATOM     46  C   UNL A   1      43.693  31.846  28.753  1.00  0.00     0.029 A 
ATOM     47  C   UNL A   1      44.885  31.123  28.307  1.00  0.00     0.049 A 
ATOM     48  H   UNL A   1      44.982  29.153  27.640  1.00  0.00     0.167 HD
ATOM     49  C   UNL A   1      45.120  25.036  26.251  1.00  0.00     0.031 A 
ATOM     50  C   UNL A   1      46.134  31.629  28.250  1.00  0.00     0.031 A 
ATOM     51  C   UNL A   1      46.470  25.512  26.098  1.00  0.00     0.049 A 
ATOM     52  C   UNL A   1      47.271  30.769  27.753  1.00  0.00     0.074 A 
ATOM     53  C   UNL A   1      47.567  24.836  25.588  1.00  0.00     0.029 A 
ATOM     54  N   UNL A   1      46.913  26.775  26.456  1.00  0.00    -0.354 N 
ATOM     55  N   UNL A   1      47.241  29.533  27.315  1.00  0.00    -0.248 NA
ATOM     56  C   UNL A   1      48.609  31.382  27.733  1.00  0.00     0.031 C 
ATOM     57  C   UNL A   1      48.683  25.673  25.686  1.00  0.00     0.029 A 
ATOM     58  C   UNL A   1      48.270  26.890  26.201  1.00  0.00     0.049 A 
ATOM     59  H   UNL A   1      46.347  27.485  26.836  1.00  0.00     0.167 HD
ATOM     60  C   UNL A   1      48.551  29.232  26.945  1.00  0.00     0.074 A 
ATOM     61  C   UNL A   1      49.340  30.419  27.188  1.00  0.00     0.031 C 
ATOM     62  C   UNL A   1      49.052  28.074  26.449  1.00  0.00     0.031 A 
BRANCH  49  63
ATOM     63  C   UNL A   1      44.820  23.623  25.827  1.00  0.00    -0.014 A 
ATOM     64  C   UNL A   1      45.307  23.113  24.610  1.00  0.00     0.010 A 
ATOM     65  C   UNL A   1      44.101  22.774  26.687  1.00  0.00     0.010 A 
ATOM     66  C   UNL A   1      45.060  21.787  24.250  1.00  0.00     0.020 A 
ATOM     67  C   UNL A   1      43.872  21.438  26.342  1.00  0.00     0.020 A 
ATOM     68  C   UNL A   1      44.346  20.957  25.120  1.00  0.00     0.054 A 
BRANCH  68  69
ATOM     69  S   UNL A   1      44.080  19.225  24.647  1.00  0.00     0.124 S 
ATOM     70  O   UNL A   1      45.155  18.548  25.369  1.00  0.00    -0.237 OA
ATOM     71  O   UNL A   1      42.730  18.963  25.140  1.00  0.00    -0.237 OA
ATOM     72  O   UNL A   1      44.218  19.237  23.193  1.00  0.00    -0.744 OA
ENDBRANCH  68  69
ENDBRANCH  49  63
BRANCH  50  73
ATOM     73  C   UNL A   1      46.403  33.021  28.713  1.00  0.00    -0.014 A 
ATOM     74  C   UNL A   1      46.355  34.104  27.816  1.00  0.00     0.010 A 
ATOM     75  C   UNL A   1      46.759  33.260  30.052  1.00  0.00     0.010 A 
ATOM     76  C   UNL A   1      46.688  35.394  28.243  1.00  0.00     0.020 A 
ATOM     77  C   UNL A   1      47.064  34.550  30.491  1.00  0.00     0.020 A 
ATOM     78  C   UNL A   1      47.043  35.608  29.579  1.00  0.00     0.054 A 
BRANCH  78  79
ATOM     79  S   UNL A   1      47.444  37.291  30.125  1.00  0.00     0.124 S 
ATOM     80  O   UNL A   1      47.827  37.075  31.517  1.00  0.00    -0.237 OA
ATOM     81  O   UNL A   1      48.527  37.667  29.220  1.00  0.00    -0.237 OA
ATOM     82  O   UNL A   1      46.193  38.020  29.923  1.00  0.00    -0.744 OA
ENDBRANCH  78  79
ENDBRANCH  50  73
BRANCH  62  83
ATOM     83  C   UNL A   1      50.520  28.042  26.103  1.00  0.00    -0.014 A 
ATOM     84  C   UNL A   1      50.977  28.406  24.822  1.00  0.00     0.010 A 
ATOM     85  C   UNL A   1      51.460  27.668  27.081  1.00  0.00     0.010 A 
ATOM     86  C   UNL A   1      52.340  28.350  24.516  1.00  0.00     0.020 A 
ATOM     87  C   UNL A   1      52.825  27.639  26.786  1.00  0.00     0.020 A 
ATOM     88  C   UNL A   1      53.255  27.961  25.498  1.00  0.00     0.054 A 
BRANCH  88  89
ATOM     89  S   UNL A   1      55.020  27.908  25.078  1.00  0.00     0.124 S 
ATOM     90  O   UNL A   1      54.982  27.697  23.634  1.00  0.00    -0.237 OA
ATOM     91  O   UNL A   1      55.494  29.222  25.509  1.00  0.00    -0.237 OA
ATOM     92  O   UNL A   1      55.528  26.784  25.860  1.00  0.00    -0.744 OA
ENDBRANCH  88  89
ENDBRANCH  62  83
ENDBRANCH  36  37
ENDBRANCH  29  31
ENDBRANCH  28  29
ENDBRANCH  27  28
ENDBRANCH  26  27
ENDBRANCH  25  26
ENDBRANCH  24  25
ENDBRANCH   1  24
TORSDOF 23
ENDMDL
