MODEL 1
REMARK VINA RESULT:      -7.6      0.000      0.000
REMARK SMILES CCC[NH2+][C@]1(C(=O)OCCOCCOCCOC(=O)c2ccc(-c3c4nc(c(-c5ccc(S(=O)(=O)[O-])cc5)c5ccc([nH]5)c(-c5ccc(S(=O)(=O)[O-])cc5)c5nc(c(-c6ccc(S(=O)(=O)[O-])cc6)c6ccc3[nH]6)C=C5)C=C4)cc2)CC[C@@H](Sc2nnc(C)n2C)C1
REMARK SMILES IDX 12 1 11 2 10 3 9 4 8 5 6 6 7 7 5 8 80 9 91 10 81 11 82 12
REMARK SMILES IDX 4 13 3 16 2 17 1 18 83 19 84 20 85 21 89 22 86 23 87 24
REMARK SMILES IDX 90 25 88 26 13 27 14 28 15 29 16 30 17 31 18 32 19 33 20 34
REMARK SMILES IDX 21 35 79 36 22 37 78 38 23 39 24 40 25 41 72 42 26 43 77 44
REMARK SMILES IDX 71 45 73 46 27 47 76 48 70 49 69 50 28 52 58 53 39 54 57 55
REMARK SMILES IDX 40 56 43 57 56 58 74 59 41 60 42 61 55 63 75 64 44 65 29 66
REMARK SMILES IDX 30 67 38 68 31 69 37 70 32 71 33 72 34 73 35 74 36 75 59 76
REMARK SMILES IDX 60 77 68 78 61 79 67 80 62 81 63 82 64 83 65 84 66 85 45 86
REMARK SMILES IDX 46 87 54 88 47 89 53 90 48 91 49 92 50 93 51 94 52 95
REMARK H PARENT 4 14 4 15 73 51 43 62
REMARK Flexibility Score: inf
ROOT
ATOM      1  C   UNL A   1      43.258  21.818  26.436  1.00  0.00     0.188 C 
ENDROOT
BRANCH   1   2
ATOM      2  O   UNL A   1      42.203  21.251  25.695  1.00  0.00    -0.376 OA
BRANCH   2   3
ATOM      3  C   UNL A   1      41.506  20.153  26.244  1.00  0.00     0.202 C 
BRANCH   3   4
ATOM      4  C   UNL A   1      40.026  19.918  25.899  1.00  0.00     0.261 C 
BRANCH   4   5
ATOM      5  O   UNL A   1      39.151  21.057  25.862  1.00  0.00    -0.459 OA
BRANCH   5   6
ATOM      6  C   UNL A   1      37.996  20.939  25.144  1.00  0.00     0.368 C 
ATOM      7  O   UNL A   1      37.547  19.857  24.786  1.00  0.00    -0.245 OA
BRANCH   6   8
ATOM      8  C   UNL A   1      37.309  22.325  24.917  1.00  0.00     0.195 C 
ATOM      9  C   UNL A   1      36.778  22.419  23.476  1.00  0.00     0.082 C 
ATOM     10  C   UNL A   1      36.022  22.457  25.767  1.00  0.00     0.096 C 
ATOM     11  C   UNL A   1      35.569  23.341  23.525  1.00  0.00     0.022 C 
ATOM     12  C   UNL A   1      34.944  23.110  24.897  1.00  0.00     0.062 C 
BRANCH   8  13
ATOM     13  N   UNL A   1      38.160  23.467  25.354  1.00  0.00    -0.332 N 
ATOM     14  H   UNL A   1      39.110  23.119  25.480  1.00  0.00     0.347 HD
ATOM     15  H   UNL A   1      38.068  24.172  24.623  1.00  0.00     0.347 HD
BRANCH  13  16
ATOM     16  C   UNL A   1      37.756  24.129  26.592  1.00  0.00     0.261 C 
BRANCH  16  17
ATOM     17  C   UNL A   1      38.980  24.728  27.303  1.00  0.00     0.058 C 
ATOM     18  C   UNL A   1      40.142  23.753  27.493  1.00  0.00     0.010 C 
ENDBRANCH  16  17
ENDBRANCH  13  16
ENDBRANCH   8  13
BRANCH  12  19
ATOM     19  S   UNL A   1      33.346  22.232  24.971  1.00  0.00    -0.082 SA
BRANCH  19  20
ATOM     20  C   UNL A   1      32.175  23.364  24.398  1.00  0.00     0.191 A 
ATOM     21  N   UNL A   1      31.860  23.555  23.141  1.00  0.00    -0.123 NA
ATOM     22  N   UNL A   1      31.513  24.275  25.172  1.00  0.00    -0.309 N 
ATOM     23  N   UNL A   1      30.953  24.592  23.088  1.00  0.00    -0.135 NA
ATOM     24  C   UNL A   1      30.733  25.013  24.315  1.00  0.00     0.130 A 
ATOM     25  C   UNL A   1      31.472  24.385  26.597  1.00  0.00     0.154 C 
ATOM     26  C   UNL A   1      29.805  26.088  24.745  1.00  0.00     0.090 C 
ENDBRANCH  19  20
ENDBRANCH  12  19
ENDBRANCH   6   8
ENDBRANCH   5   6
ENDBRANCH   4   5
ENDBRANCH   3   4
ENDBRANCH   2   3
ENDBRANCH   1   2
BRANCH   1  27
ATOM     27  C   UNL A   1      44.610  21.772  25.704  1.00  0.00     0.188 C 
BRANCH  27  28
ATOM     28  O   UNL A   1      45.738  22.409  26.285  1.00  0.00    -0.376 OA
BRANCH  28  29
ATOM     29  C   UNL A   1      45.984  23.775  25.986  1.00  0.00     0.202 C 
BRANCH  29  30
ATOM     30  C   UNL A   1      45.312  24.383  24.747  1.00  0.00     0.261 C 
BRANCH  30  31
ATOM     31  O   UNL A   1      44.853  25.746  24.875  1.00  0.00    -0.460 OA
BRANCH  31  32
ATOM     32  C   UNL A   1      43.751  25.929  25.647  1.00  0.00     0.338 C 
ATOM     33  O   UNL A   1      42.821  25.143  25.774  1.00  0.00    -0.246 OA
BRANCH  32  34
ATOM     34  C   UNL A   1      43.867  27.156  26.479  1.00  0.00     0.060 A 
ATOM     35  C   UNL A   1      43.128  28.286  26.104  1.00  0.00     0.016 A 
ATOM     36  C   UNL A   1      44.742  27.238  27.566  1.00  0.00     0.016 A 
ATOM     37  C   UNL A   1      43.281  29.499  26.793  1.00  0.00     0.010 A 
ATOM     38  C   UNL A   1      44.909  28.462  28.243  1.00  0.00     0.010 A 
ATOM     39  C   UNL A   1      44.196  29.610  27.852  1.00  0.00    -0.014 A 
BRANCH  39  40
ATOM     40  C   UNL A   1      44.524  30.952  28.422  1.00  0.00     0.031 A 
ATOM     41  C   UNL A   1      43.686  31.484  29.547  1.00  0.00     0.074 A 
ATOM     42  C   UNL A   1      45.553  31.703  27.982  1.00  0.00     0.049 A 
ATOM     43  N   UNL A   1      43.792  32.623  30.181  1.00  0.00    -0.248 NA
ATOM     44  C   UNL A   1      42.574  30.634  30.000  1.00  0.00     0.031 C 
ATOM     45  C   UNL A   1      46.436  31.325  26.898  1.00  0.00     0.029 A 
ATOM     46  N   UNL A   1      46.048  32.920  28.391  1.00  0.00    -0.354 N 
ATOM     47  C   UNL A   1      42.752  32.639  31.098  1.00  0.00     0.074 A 
ATOM     48  C   UNL A   1      42.023  31.399  30.931  1.00  0.00     0.031 C 
ATOM     49  C   UNL A   1      47.420  32.228  26.778  1.00  0.00     0.029 A 
ATOM     50  C   UNL A   1      47.176  33.320  27.705  1.00  0.00     0.049 A 
ATOM     51  H   UNL A   1      45.636  33.455  29.107  1.00  0.00     0.167 HD
ATOM     52  C   UNL A   1      42.424  33.607  31.985  1.00  0.00     0.031 A 
ATOM     53  C   UNL A   1      47.919  34.444  27.767  1.00  0.00     0.031 A 
ATOM     54  C   UNL A   1      43.115  34.863  32.116  1.00  0.00     0.049 A 
ATOM     55  C   UNL A   1      47.498  35.528  28.718  1.00  0.00     0.074 A 
ATOM     56  C   UNL A   1      42.831  35.910  32.976  1.00  0.00     0.029 A 
ATOM     57  N   UNL A   1      44.214  35.253  31.364  1.00  0.00    -0.354 N 
ATOM     58  N   UNL A   1      46.505  35.523  29.575  1.00  0.00    -0.248 NA
ATOM     59  C   UNL A   1      48.277  36.774  28.699  1.00  0.00     0.031 C 
ATOM     60  C   UNL A   1      43.720  36.955  32.705  1.00  0.00     0.029 A 
ATOM     61  C   UNL A   1      44.603  36.535  31.724  1.00  0.00     0.049 A 
ATOM     62  H   UNL A   1      44.652  34.702  30.677  1.00  0.00     0.167 HD
ATOM     63  C   UNL A   1      46.550  36.759  30.207  1.00  0.00     0.074 A 
ATOM     64  C   UNL A   1      47.677  37.476  29.651  1.00  0.00     0.031 C 
ATOM     65  C   UNL A   1      45.721  37.250  31.160  1.00  0.00     0.031 A 
BRANCH  52  66
ATOM     66  C   UNL A   1      41.214  33.356  32.841  1.00  0.00    -0.014 A 
ATOM     67  C   UNL A   1      39.942  33.817  32.457  1.00  0.00     0.010 A 
ATOM     68  C   UNL A   1      41.355  32.647  34.048  1.00  0.00     0.010 A 
ATOM     69  C   UNL A   1      38.839  33.612  33.289  1.00  0.00     0.020 A 
ATOM     70  C   UNL A   1      40.249  32.416  34.867  1.00  0.00     0.020 A 
ATOM     71  C   UNL A   1      39.001  32.917  34.491  1.00  0.00     0.054 A 
BRANCH  71  72
ATOM     72  S   UNL A   1      37.551  32.663  35.548  1.00  0.00     0.124 S 
ATOM     73  O   UNL A   1      37.776  31.308  36.046  1.00  0.00    -0.237 OA
ATOM     74  O   UNL A   1      37.686  33.727  36.539  1.00  0.00    -0.237 OA
ATOM     75  O   UNL A   1      36.423  32.808  34.630  1.00  0.00    -0.744 OA
ENDBRANCH  71  72
ENDBRANCH  52  66
BRANCH  53  76
ATOM     76  C   UNL A   1      49.099  34.637  26.868  1.00  0.00    -0.014 A 
ATOM     77  C   UNL A   1      48.967  35.295  25.632  1.00  0.00     0.010 A 
ATOM     78  C   UNL A   1      50.368  34.149  27.239  1.00  0.00     0.010 A 
ATOM     79  C   UNL A   1      50.066  35.441  24.777  1.00  0.00     0.020 A 
ATOM     80  C   UNL A   1      51.477  34.325  26.405  1.00  0.00     0.020 A 
ATOM     81  C   UNL A   1      51.317  34.955  25.170  1.00  0.00     0.054 A 
BRANCH  81  82
ATOM     82  S   UNL A   1      52.741  35.170  24.062  1.00  0.00     0.124 S 
ATOM     83  O   UNL A   1      52.452  36.461  23.443  1.00  0.00    -0.237 OA
ATOM     84  O   UNL A   1      53.875  35.152  24.983  1.00  0.00    -0.237 OA
ATOM     85  O   UNL A   1      52.654  34.017  23.168  1.00  0.00    -0.744 OA
ENDBRANCH  81  82
ENDBRANCH  53  76
BRANCH  65  86
ATOM     86  C   UNL A   1      46.021  38.627  31.691  1.00  0.00    -0.014 A 
ATOM     87  C   UNL A   1      45.441  39.775  31.124  1.00  0.00     0.010 A 
ATOM     88  C   UNL A   1      46.863  38.766  32.810  1.00  0.00     0.010 A 
ATOM     89  C   UNL A   1      45.719  41.040  31.649  1.00  0.00     0.020 A 
ATOM     90  C   UNL A   1      47.120  40.025  33.356  1.00  0.00     0.020 A 
ATOM     91  C   UNL A   1      46.555  41.156  32.764  1.00  0.00     0.054 A 
BRANCH  91  92
ATOM     92  S   UNL A   1      46.858  42.804  33.459  1.00  0.00     0.124 S 
ATOM     93  O   UNL A   1      47.857  43.343  32.542  1.00  0.00    -0.237 OA
ATOM     94  O   UNL A   1      45.539  43.427  33.389  1.00  0.00    -0.237 OA
ATOM     95  O   UNL A   1      47.339  42.527  34.811  1.00  0.00    -0.744 OA
ENDBRANCH  91  92
ENDBRANCH  65  86
ENDBRANCH  39  40
ENDBRANCH  32  34
ENDBRANCH  31  32
ENDBRANCH  30  31
ENDBRANCH  29  30
ENDBRANCH  28  29
ENDBRANCH  27  28
ENDBRANCH   1  27
TORSDOF 25
ENDMDL
MODEL 2
REMARK VINA RESULT:      -7.4      6.220     14.991
REMARK SMILES CCC[NH2+][C@]1(C(=O)OCCOCCOCCOC(=O)c2ccc(-c3c4nc(c(-c5ccc(S(=O)(=O)[O-])cc5)c5ccc([nH]5)c(-c5ccc(S(=O)(=O)[O-])cc5)c5nc(c(-c6ccc(S(=O)(=O)[O-])cc6)c6ccc3[nH]6)C=C5)C=C4)cc2)CC[C@@H](Sc2nnc(C)n2C)C1
REMARK SMILES IDX 12 1 11 2 10 3 9 4 8 5 6 6 7 7 5 8 80 9 91 10 81 11 82 12
REMARK SMILES IDX 4 13 3 16 2 17 1 18 83 19 84 20 85 21 89 22 86 23 87 24
REMARK SMILES IDX 90 25 88 26 13 27 14 28 15 29 16 30 17 31 18 32 19 33 20 34
REMARK SMILES IDX 21 35 79 36 22 37 78 38 23 39 24 40 25 41 72 42 26 43 77 44
REMARK SMILES IDX 71 45 73 46 27 47 76 48 70 49 69 50 28 52 58 53 39 54 57 55
REMARK SMILES IDX 40 56 43 57 56 58 74 59 41 60 42 61 55 63 75 64 44 65 29 66
REMARK SMILES IDX 30 67 38 68 31 69 37 70 32 71 33 72 34 73 35 74 36 75 59 76
REMARK SMILES IDX 60 77 68 78 61 79 67 80 62 81 63 82 64 83 65 84 66 85 45 86
REMARK SMILES IDX 46 87 54 88 47 89 53 90 48 91 49 92 50 93 51 94 52 95
REMARK H PARENT 4 14 4 15 73 51 43 62
REMARK Flexibility Score: inf
ROOT
ATOM      1  C   UNL A   1      43.452  40.817  29.886  1.00  0.00     0.188 C 
ENDROOT
BRANCH   1   2
ATOM      2  O   UNL A   1      42.859  40.808  28.609  1.00  0.00    -0.376 OA
BRANCH   2   3
ATOM      3  C   UNL A   1      43.542  40.168  27.552  1.00  0.00     0.202 C 
BRANCH   3   4
ATOM      4  C   UNL A   1      44.570  40.940  26.709  1.00  0.00     0.261 C 
BRANCH   4   5
ATOM      5  O   UNL A   1      44.347  41.039  25.293  1.00  0.00    -0.459 OA
BRANCH   5   6
ATOM      6  C   UNL A   1      43.344  41.865  24.872  1.00  0.00     0.368 C 
ATOM      7  O   UNL A   1      42.181  41.729  25.229  1.00  0.00    -0.245 OA
BRANCH   6   8
ATOM      8  C   UNL A   1      43.884  43.015  23.961  1.00  0.00     0.195 C 
ATOM      9  C   UNL A   1      45.057  42.504  23.108  1.00  0.00     0.082 C 
ATOM     10  C   UNL A   1      42.837  43.424  22.896  1.00  0.00     0.096 C 
ATOM     11  C   UNL A   1      45.039  43.320  21.824  1.00  0.00     0.022 C 
ATOM     12  C   UNL A   1      43.569  43.630  21.567  1.00  0.00     0.062 C 
BRANCH   8  13
ATOM     13  N   UNL A   1      44.151  44.271  24.717  1.00  0.00    -0.332 N 
ATOM     14  H   UNL A   1      43.938  45.057  24.103  1.00  0.00     0.347 HD
ATOM     15  H   UNL A   1      43.563  44.221  25.549  1.00  0.00     0.347 HD
BRANCH  13  16
ATOM     16  C   UNL A   1      45.515  44.443  25.209  1.00  0.00     0.261 C 
BRANCH  16  17
ATOM     17  C   UNL A   1      45.523  44.546  26.743  1.00  0.00     0.058 C 
ATOM     18  C   UNL A   1      46.365  45.695  27.297  1.00  0.00     0.010 C 
ENDBRANCH  16  17
ENDBRANCH  13  16
ENDBRANCH   8  13
BRANCH  12  19
ATOM     19  S   UNL A   1      42.749  42.790  20.169  1.00  0.00    -0.082 SA
BRANCH  19  20
ATOM     20  C   UNL A   1      42.084  44.056  19.202  1.00  0.00     0.191 A 
ATOM     21  N   UNL A   1      40.809  44.345  19.105  1.00  0.00    -0.123 NA
ATOM     22  N   UNL A   1      42.790  44.842  18.336  1.00  0.00    -0.309 N 
ATOM     23  N   UNL A   1      40.677  45.358  18.180  1.00  0.00    -0.135 NA
ATOM     24  C   UNL A   1      41.874  45.667  17.730  1.00  0.00     0.130 A 
ATOM     25  C   UNL A   1      44.207  44.948  18.167  1.00  0.00     0.154 C 
ATOM     26  C   UNL A   1      42.221  46.723  16.747  1.00  0.00     0.090 C 
ENDBRANCH  19  20
ENDBRANCH  12  19
ENDBRANCH   6   8
ENDBRANCH   5   6
ENDBRANCH   4   5
ENDBRANCH   3   4
ENDBRANCH   2   3
ENDBRANCH   1   2
BRANCH   1  27
ATOM     27  C   UNL A   1      42.456  40.533  31.023  1.00  0.00     0.188 C 
BRANCH  27  28
ATOM     28  O   UNL A   1      42.662  41.130  32.294  1.00  0.00    -0.376 OA
BRANCH  28  29
ATOM     29  C   UNL A   1      43.848  41.878  32.517  1.00  0.00     0.202 C 
BRANCH  29  30
ATOM     30  C   UNL A   1      44.904  41.302  33.471  1.00  0.00     0.261 C 
BRANCH  30  31
ATOM     31  O   UNL A   1      45.359  39.962  33.183  1.00  0.00    -0.460 OA
BRANCH  31  32
ATOM     32  C   UNL A   1      45.032  39.017  34.102  1.00  0.00     0.338 C 
ATOM     33  O   UNL A   1      44.648  39.224  35.246  1.00  0.00    -0.246 OA
BRANCH  32  34
ATOM     34  C   UNL A   1      45.034  37.654  33.505  1.00  0.00     0.060 A 
ATOM     35  C   UNL A   1      44.977  37.540  32.109  1.00  0.00     0.016 A 
ATOM     36  C   UNL A   1      45.012  36.497  34.289  1.00  0.00     0.016 A 
ATOM     37  C   UNL A   1      44.872  36.280  31.500  1.00  0.00     0.010 A 
ATOM     38  C   UNL A   1      44.886  35.236  33.677  1.00  0.00     0.010 A 
ATOM     39  C   UNL A   1      44.794  35.114  32.279  1.00  0.00    -0.014 A 
BRANCH  39  40
ATOM     40  C   UNL A   1      44.447  33.808  31.639  1.00  0.00     0.031 A 
ATOM     41  C   UNL A   1      43.004  33.489  31.384  1.00  0.00     0.074 A 
ATOM     42  C   UNL A   1      45.377  32.909  31.261  1.00  0.00     0.049 A 
ATOM     43  N   UNL A   1      42.484  32.415  30.849  1.00  0.00    -0.248 NA
ATOM     44  C   UNL A   1      42.021  34.497  31.809  1.00  0.00     0.031 C 
ATOM     45  C   UNL A   1      46.803  33.076  31.454  1.00  0.00     0.029 A 
ATOM     46  N   UNL A   1      45.278  31.692  30.625  1.00  0.00    -0.354 N 
ATOM     47  C   UNL A   1      41.111  32.606  30.885  1.00  0.00     0.074 A 
ATOM     48  C   UNL A   1      40.880  33.896  31.502  1.00  0.00     0.031 C 
ATOM     49  C   UNL A   1      47.461  32.063  30.873  1.00  0.00     0.029 A 
ATOM     50  C   UNL A   1      46.497  31.104  30.360  1.00  0.00     0.049 A 
ATOM     51  H   UNL A   1      44.418  31.281  30.381  1.00  0.00     0.167 HD
ATOM     52  C   UNL A   1      40.132  31.775  30.458  1.00  0.00     0.031 A 
ATOM     53  C   UNL A   1      46.826  29.917  29.810  1.00  0.00     0.031 A 
ATOM     54  C   UNL A   1      40.356  30.471  29.893  1.00  0.00     0.049 A 
ATOM     55  C   UNL A   1      45.719  28.988  29.400  1.00  0.00     0.074 A 
ATOM     56  C   UNL A   1      39.415  29.554  29.456  1.00  0.00     0.029 A 
ATOM     57  N   UNL A   1      41.600  29.888  29.696  1.00  0.00    -0.354 N 
ATOM     58  N   UNL A   1      44.424  29.189  29.447  1.00  0.00    -0.248 NA
ATOM     59  C   UNL A   1      46.110  27.669  28.884  1.00  0.00     0.031 C 
ATOM     60  C   UNL A   1      40.086  28.395  29.051  1.00  0.00     0.029 A 
ATOM     61  C   UNL A   1      41.448  28.615  29.168  1.00  0.00     0.049 A 
ATOM     62  H   UNL A   1      42.463  30.315  29.901  1.00  0.00     0.167 HD
ATOM     63  C   UNL A   1      43.846  28.026  28.955  1.00  0.00     0.074 A 
ATOM     64  C   UNL A   1      44.930  27.137  28.595  1.00  0.00     0.031 C 
ATOM     65  C   UNL A   1      42.531  27.727  28.821  1.00  0.00     0.031 A 
BRANCH  52  66
ATOM     66  C   UNL A   1      38.717  32.243  30.654  1.00  0.00    -0.014 A 
ATOM     67  C   UNL A   1      38.029  32.929  29.637  1.00  0.00     0.010 A 
ATOM     68  C   UNL A   1      38.067  31.992  31.876  1.00  0.00     0.010 A 
ATOM     69  C   UNL A   1      36.732  33.396  29.855  1.00  0.00     0.020 A 
ATOM     70  C   UNL A   1      36.759  32.431  32.087  1.00  0.00     0.020 A 
ATOM     71  C   UNL A   1      36.107  33.148  31.082  1.00  0.00     0.054 A 
BRANCH  71  72
ATOM     72  S   UNL A   1      34.420  33.761  31.336  1.00  0.00     0.124 S 
ATOM     73  O   UNL A   1      33.888  33.746  29.976  1.00  0.00    -0.237 OA
ATOM     74  O   UNL A   1      33.852  32.768  32.245  1.00  0.00    -0.237 OA
ATOM     75  O   UNL A   1      34.617  35.090  31.912  1.00  0.00    -0.744 OA
ENDBRANCH  71  72
ENDBRANCH  52  66
BRANCH  53  76
ATOM     76  C   UNL A   1      48.257  29.505  29.665  1.00  0.00    -0.014 A 
ATOM     77  C   UNL A   1      48.974  29.786  28.488  1.00  0.00     0.010 A 
ATOM     78  C   UNL A   1      48.911  28.814  30.703  1.00  0.00     0.010 A 
ATOM     79  C   UNL A   1      50.302  29.367  28.341  1.00  0.00     0.020 A 
ATOM     80  C   UNL A   1      50.249  28.425  30.576  1.00  0.00     0.020 A 
ATOM     81  C   UNL A   1      50.933  28.688  29.388  1.00  0.00     0.054 A 
BRANCH  81  82
ATOM     82  S   UNL A   1      52.663  28.169  29.195  1.00  0.00     0.124 S 
ATOM     83  O   UNL A   1      52.534  26.996  28.336  1.00  0.00    -0.237 OA
ATOM     84  O   UNL A   1      53.286  29.337  28.578  1.00  0.00    -0.237 OA
ATOM     85  O   UNL A   1      53.092  27.895  30.566  1.00  0.00    -0.744 OA
ENDBRANCH  81  82
ENDBRANCH  53  76
BRANCH  65  86
ATOM     86  C   UNL A   1      42.185  26.387  28.228  1.00  0.00    -0.014 A 
ATOM     87  C   UNL A   1      41.565  26.279  26.971  1.00  0.00     0.010 A 
ATOM     88  C   UNL A   1      42.531  25.215  28.925  1.00  0.00     0.010 A 
ATOM     89  C   UNL A   1      41.273  25.022  26.433  1.00  0.00     0.020 A 
ATOM     90  C   UNL A   1      42.268  23.957  28.378  1.00  0.00     0.020 A 
ATOM     91  C   UNL A   1      41.629  23.869  27.140  1.00  0.00     0.054 A 
BRANCH  91  92
ATOM     92  S   UNL A   1      41.287  22.250  26.397  1.00  0.00     0.124 S 
ATOM     93  O   UNL A   1      41.494  21.346  27.525  1.00  0.00    -0.237 OA
ATOM     94  O   UNL A   1      39.903  22.391  25.949  1.00  0.00    -0.237 OA
ATOM     95  O   UNL A   1      42.275  22.145  25.325  1.00  0.00    -0.744 OA
ENDBRANCH  91  92
ENDBRANCH  65  86
ENDBRANCH  39  40
ENDBRANCH  32  34
ENDBRANCH  31  32
ENDBRANCH  30  31
ENDBRANCH  29  30
ENDBRANCH  28  29
ENDBRANCH  27  28
ENDBRANCH   1  27
TORSDOF 25
ENDMDL
MODEL 3
REMARK VINA RESULT:      -7.2      1.546      2.242
REMARK SMILES CCC[NH2+][C@]1(C(=O)OCCOCCOCCOC(=O)c2ccc(-c3c4nc(c(-c5ccc(S(=O)(=O)[O-])cc5)c5ccc([nH]5)c(-c5ccc(S(=O)(=O)[O-])cc5)c5nc(c(-c6ccc(S(=O)(=O)[O-])cc6)c6ccc3[nH]6)C=C5)C=C4)cc2)CC[C@@H](Sc2nnc(C)n2C)C1
REMARK SMILES IDX 12 1 11 2 10 3 9 4 8 5 6 6 7 7 5 8 80 9 91 10 81 11 82 12
REMARK SMILES IDX 4 13 3 16 2 17 1 18 83 19 84 20 85 21 89 22 86 23 87 24
REMARK SMILES IDX 90 25 88 26 13 27 14 28 15 29 16 30 17 31 18 32 19 33 20 34
REMARK SMILES IDX 21 35 79 36 22 37 78 38 23 39 24 40 25 41 72 42 26 43 77 44
REMARK SMILES IDX 71 45 73 46 27 47 76 48 70 49 69 50 28 52 58 53 39 54 57 55
REMARK SMILES IDX 40 56 43 57 56 58 74 59 41 60 42 61 55 63 75 64 44 65 29 66
REMARK SMILES IDX 30 67 38 68 31 69 37 70 32 71 33 72 34 73 35 74 36 75 59 76
REMARK SMILES IDX 60 77 68 78 61 79 67 80 62 81 63 82 64 83 65 84 66 85 45 86
REMARK SMILES IDX 46 87 54 88 47 89 53 90 48 91 49 92 50 93 51 94 52 95
REMARK H PARENT 4 14 4 15 73 51 43 62
REMARK Flexibility Score: inf
ROOT
ATOM      1  C   UNL A   1      43.189  22.683  27.320  1.00  0.00     0.188 C 
ENDROOT
BRANCH   1   2
ATOM      2  O   UNL A   1      41.886  22.236  27.025  1.00  0.00    -0.376 OA
BRANCH   2   3
ATOM      3  C   UNL A   1      41.686  20.862  26.769  1.00  0.00     0.202 C 
BRANCH   3   4
ATOM      4  C   UNL A   1      40.433  20.384  26.018  1.00  0.00     0.261 C 
BRANCH   4   5
ATOM      5  O   UNL A   1      39.195  21.073  26.259  1.00  0.00    -0.459 OA
BRANCH   5   6
ATOM      6  C   UNL A   1      38.206  20.932  25.328  1.00  0.00     0.368 C 
ATOM      7  O   UNL A   1      37.920  19.854  24.823  1.00  0.00    -0.245 OA
BRANCH   6   8
ATOM      8  C   UNL A   1      37.463  22.282  25.063  1.00  0.00     0.195 C 
ATOM      9  C   UNL A   1      36.842  22.272  23.656  1.00  0.00     0.082 C 
ATOM     10  C   UNL A   1      36.227  22.431  25.984  1.00  0.00     0.096 C 
ATOM     11  C   UNL A   1      35.610  23.162  23.726  1.00  0.00     0.022 C 
ATOM     12  C   UNL A   1      35.078  22.999  25.146  1.00  0.00     0.062 C 
BRANCH   8  13
ATOM     13  N   UNL A   1      38.303  23.472  25.375  1.00  0.00    -0.332 N 
ATOM     14  H   UNL A   1      39.275  23.227  25.190  1.00  0.00     0.347 HD
ATOM     15  H   UNL A   1      37.943  24.224  24.787  1.00  0.00     0.347 HD
BRANCH  13  16
ATOM     16  C   UNL A   1      38.220  23.971  26.746  1.00  0.00     0.261 C 
BRANCH  16  17
ATOM     17  C   UNL A   1      39.488  24.764  27.104  1.00  0.00     0.058 C 
ATOM     18  C   UNL A   1      39.478  25.375  28.505  1.00  0.00     0.010 C 
ENDBRANCH  16  17
ENDBRANCH  13  16
ENDBRANCH   8  13
BRANCH  12  19
ATOM     19  S   UNL A   1      33.516  22.082  25.374  1.00  0.00    -0.082 SA
BRANCH  19  20
ATOM     20  C   UNL A   1      32.380  23.251  25.943  1.00  0.00     0.191 A 
ATOM     21  N   UNL A   1      31.790  23.226  27.113  1.00  0.00    -0.123 NA
ATOM     22  N   UNL A   1      31.874  24.285  25.206  1.00  0.00    -0.309 N 
ATOM     23  N   UNL A   1      30.900  24.278  27.157  1.00  0.00    -0.135 NA
ATOM     24  C   UNL A   1      30.965  24.924  26.013  1.00  0.00     0.130 A 
ATOM     25  C   UNL A   1      32.281  24.756  23.918  1.00  0.00     0.154 C 
ATOM     26  C   UNL A   1      30.212  26.143  25.624  1.00  0.00     0.090 C 
ENDBRANCH  19  20
ENDBRANCH  12  19
ENDBRANCH   6   8
ENDBRANCH   5   6
ENDBRANCH   4   5
ENDBRANCH   3   4
ENDBRANCH   2   3
ENDBRANCH   1   2
BRANCH   1  27
ATOM     27  C   UNL A   1      44.122  22.691  26.098  1.00  0.00     0.188 C 
BRANCH  27  28
ATOM     28  O   UNL A   1      45.519  22.855  26.289  1.00  0.00    -0.376 OA
BRANCH  28  29
ATOM     29  C   UNL A   1      46.052  24.168  26.368  1.00  0.00     0.202 C 
BRANCH  29  30
ATOM     30  C   UNL A   1      45.168  25.341  25.921  1.00  0.00     0.261 C 
BRANCH  30  31
ATOM     31  O   UNL A   1      45.447  26.619  26.533  1.00  0.00    -0.460 OA
BRANCH  31  32
ATOM     32  C   UNL A   1      44.698  27.663  26.091  1.00  0.00     0.338 C 
ATOM     33  O   UNL A   1      43.986  27.669  25.095  1.00  0.00    -0.246 OA
BRANCH  32  34
ATOM     34  C   UNL A   1      44.705  28.788  27.064  1.00  0.00     0.060 A 
ATOM     35  C   UNL A   1      43.874  29.888  26.813  1.00  0.00     0.016 A 
ATOM     36  C   UNL A   1      45.565  28.813  28.166  1.00  0.00     0.016 A 
ATOM     37  C   UNL A   1      43.919  31.020  27.644  1.00  0.00     0.010 A 
ATOM     38  C   UNL A   1      45.623  29.958  28.985  1.00  0.00     0.010 A 
ATOM     39  C   UNL A   1      44.817  31.080  28.721  1.00  0.00    -0.014 A 
BRANCH  39  40
ATOM     40  C   UNL A   1      45.026  32.368  29.451  1.00  0.00     0.031 A 
ATOM     41  C   UNL A   1      44.118  32.706  30.597  1.00  0.00     0.074 A 
ATOM     42  C   UNL A   1      46.008  33.236  29.137  1.00  0.00     0.049 A 
ATOM     43  N   UNL A   1      44.119  33.769  31.357  1.00  0.00    -0.248 NA
ATOM     44  C   UNL A   1      43.060  31.733  30.908  1.00  0.00     0.031 C 
ATOM     45  C   UNL A   1      46.949  33.049  28.051  1.00  0.00     0.029 A 
ATOM     46  N   UNL A   1      46.399  34.430  29.699  1.00  0.00    -0.354 N 
ATOM     47  C   UNL A   1      43.055  33.605  32.231  1.00  0.00     0.074 A 
ATOM     48  C   UNL A   1      42.426  32.344  31.898  1.00  0.00     0.031 C 
ATOM     49  C   UNL A   1      47.865  34.027  28.071  1.00  0.00     0.029 A 
ATOM     50  C   UNL A   1      47.513  34.985  29.105  1.00  0.00     0.049 A 
ATOM     51  H   UNL A   1      45.926  34.848  30.455  1.00  0.00     0.167 HD
ATOM     52  C   UNL A   1      42.629  34.439  33.209  1.00  0.00     0.031 A 
ATOM     53  C   UNL A   1      48.167  36.145  29.322  1.00  0.00     0.031 A 
ATOM     54  C   UNL A   1      43.220  35.717  33.506  1.00  0.00     0.049 A 
ATOM     55  C   UNL A   1      47.639  37.079  30.372  1.00  0.00     0.074 A 
ATOM     56  C   UNL A   1      42.832  36.636  34.467  1.00  0.00     0.029 A 
ATOM     57  N   UNL A   1      44.308  36.269  32.845  1.00  0.00    -0.354 N 
ATOM     58  N   UNL A   1      46.624  36.905  31.185  1.00  0.00    -0.248 NA
ATOM     59  C   UNL A   1      48.322  38.371  30.523  1.00  0.00     0.031 C 
ATOM     60  C   UNL A   1      43.648  37.766  34.349  1.00  0.00     0.029 A 
ATOM     61  C   UNL A   1      44.589  37.525  33.361  1.00  0.00     0.049 A 
ATOM     62  H   UNL A   1      44.806  35.833  32.117  1.00  0.00     0.167 HD
ATOM     63  C   UNL A   1      46.557  38.060  31.954  1.00  0.00     0.074 A 
ATOM     64  C   UNL A   1      47.644  38.915  31.525  1.00  0.00     0.031 C 
ATOM     65  C   UNL A   1      45.666  38.378  32.924  1.00  0.00     0.031 A 
BRANCH  52  66
ATOM     66  C   UNL A   1      41.417  34.005  33.985  1.00  0.00    -0.014 A 
ATOM     67  C   UNL A   1      41.529  33.133  35.082  1.00  0.00     0.010 A 
ATOM     68  C   UNL A   1      40.148  34.479  33.608  1.00  0.00     0.010 A 
ATOM     69  C   UNL A   1      40.386  32.706  35.761  1.00  0.00     0.020 A 
ATOM     70  C   UNL A   1      39.006  34.077  34.303  1.00  0.00     0.020 A 
ATOM     71  C   UNL A   1      39.131  33.177  35.363  1.00  0.00     0.054 A 
BRANCH  71  72
ATOM     72  S   UNL A   1      37.666  32.610  36.266  1.00  0.00     0.124 S 
ATOM     73  O   UNL A   1      37.929  33.112  37.612  1.00  0.00    -0.237 OA
ATOM     74  O   UNL A   1      36.575  33.269  35.552  1.00  0.00    -0.237 OA
ATOM     75  O   UNL A   1      37.712  31.156  36.125  1.00  0.00    -0.744 OA
ENDBRANCH  71  72
ENDBRANCH  52  66
BRANCH  53  76
ATOM     76  C   UNL A   1      49.356  36.523  28.496  1.00  0.00    -0.014 A 
ATOM     77  C   UNL A   1      50.649  36.102  28.855  1.00  0.00     0.010 A 
ATOM     78  C   UNL A   1      49.203  37.324  27.346  1.00  0.00     0.010 A 
ATOM     79  C   UNL A   1      51.763  36.489  28.100  1.00  0.00     0.020 A 
ATOM     80  C   UNL A   1      50.308  37.683  26.568  1.00  0.00     0.020 A 
ATOM     81  C   UNL A   1      51.586  37.278  26.959  1.00  0.00     0.054 A 
BRANCH  81  82
ATOM     82  S   UNL A   1      53.036  37.755  25.975  1.00  0.00     0.124 S 
ATOM     83  O   UNL A   1      54.004  36.725  26.341  1.00  0.00    -0.237 OA
ATOM     84  O   UNL A   1      52.535  37.693  24.605  1.00  0.00    -0.237 OA
ATOM     85  O   UNL A   1      53.347  39.101  26.456  1.00  0.00    -0.744 OA
ENDBRANCH  81  82
ENDBRANCH  53  76
BRANCH  65  86
ATOM     86  C   UNL A   1      45.846  39.702  33.617  1.00  0.00    -0.014 A 
ATOM     87  C   UNL A   1      45.199  40.864  33.161  1.00  0.00     0.010 A 
ATOM     88  C   UNL A   1      46.642  39.771  34.776  1.00  0.00     0.010 A 
ATOM     89  C   UNL A   1      45.365  42.077  33.835  1.00  0.00     0.020 A 
ATOM     90  C   UNL A   1      46.787  40.974  35.469  1.00  0.00     0.020 A 
ATOM     91  C   UNL A   1      46.157  42.123  34.987  1.00  0.00     0.054 A 
BRANCH  91  92
ATOM     92  S   UNL A   1      46.316  43.698  35.874  1.00  0.00     0.124 S 
ATOM     93  O   UNL A   1      45.494  43.466  37.058  1.00  0.00    -0.237 OA
ATOM     94  O   UNL A   1      47.754  43.786  36.114  1.00  0.00    -0.237 OA
ATOM     95  O   UNL A   1      45.786  44.681  34.931  1.00  0.00    -0.744 OA
ENDBRANCH  91  92
ENDBRANCH  65  86
ENDBRANCH  39  40
ENDBRANCH  32  34
ENDBRANCH  31  32
ENDBRANCH  30  31
ENDBRANCH  29  30
ENDBRANCH  28  29
ENDBRANCH  27  28
ENDBRANCH   1  27
TORSDOF 25
ENDMDL
