MODEL 1
REMARK VINA RESULT:      -8.0      0.000      0.000
REMARK SMILES COc1ccc(-c2ccc(S(=O)(=O)NC(C)(C)C)cc2)c(C(=O)OCCOCCOCCOC(=O)c2ccc(-c3c4nc(c(-c5ccc(S(=O)(=O)[O-])cc5)c5ccc([nH]5)c(-c5ccc(S(=O)(=O)[O-])cc5)c5nc(c(-c6ccc(S(=O)(=O)[O-])cc6)c6ccc3[nH]6)C=C5)C=C4)cc2)c1
REMARK SMILES IDX 28 1 27 2 26 3 25 4 24 5 22 6 23 7 21 8 3 9 4 10 96 11 5 12
REMARK SMILES IDX 6 13 2 14 1 15 7 16 8 17 20 18 9 19 19 20 10 21 11 22 12 23
REMARK SMILES IDX 13 24 14 25 15 27 16 28 17 29 18 30 29 31 30 32 31 33 32 34
REMARK SMILES IDX 33 35 34 36 35 37 36 38 37 39 95 40 38 41 94 42 39 43 40 44
REMARK SMILES IDX 41 45 88 46 42 47 93 48 87 49 89 50 43 51 92 52 86 53 85 54
REMARK SMILES IDX 44 56 74 57 55 58 73 59 56 60 59 61 72 62 90 63 57 64 58 65
REMARK SMILES IDX 71 67 91 68 60 69 45 70 46 71 54 72 47 73 53 74 48 75 49 76
REMARK SMILES IDX 50 77 51 78 52 79 75 80 76 81 84 82 77 83 83 84 78 85 79 86
REMARK SMILES IDX 80 87 81 88 82 89 61 90 62 91 70 92 63 93 69 94 64 95 65 96
REMARK SMILES IDX 66 97 67 98 68 99
REMARK H PARENT 14 26 89 55 59 66
REMARK Flexibility Score: inf
ROOT
ATOM      1  C   UNL A   1      32.888  35.676  31.291  1.00  0.00     0.188 C 
ENDROOT
BRANCH   1   2
ATOM      2  O   UNL A   1      32.887  35.793  29.870  1.00  0.00    -0.376 OA
BRANCH   2   3
ATOM      3  C   UNL A   1      33.334  34.607  29.210  1.00  0.00     0.202 C 
BRANCH   3   4
ATOM      4  C   UNL A   1      34.581  34.024  29.878  1.00  0.00     0.261 C 
BRANCH   4   5
ATOM      5  O   UNL A   1      34.856  32.662  29.500  1.00  0.00    -0.460 OA
BRANCH   5   6
ATOM      6  C   UNL A   1      35.330  32.421  28.252  1.00  0.00     0.338 C 
ATOM      7  O   UNL A   1      36.173  33.082  27.678  1.00  0.00    -0.246 OA
BRANCH   6   8
ATOM      8  C   UNL A   1      34.658  31.188  27.726  1.00  0.00     0.071 A 
ATOM      9  C   UNL A   1      32.633  30.199  26.795  1.00  0.00     0.119 A 
ATOM     10  C   UNL A   1      33.283  28.966  26.747  1.00  0.00     0.047 A 
ATOM     11  C   UNL A   1      33.326  31.310  27.271  1.00  0.00     0.062 A 
ATOM     12  C   UNL A   1      34.605  28.832  27.187  1.00  0.00     0.013 A 
ATOM     13  C   UNL A   1      35.313  29.930  27.706  1.00  0.00    -0.004 A 
BRANCH   9  14
ATOM     14  O   UNL A   1      31.332  30.180  26.374  1.00  0.00    -0.497 OA
ATOM     15  C   UNL A   1      31.102  30.154  24.971  1.00  0.00     0.278 C 
ENDBRANCH   9  14
BRANCH  13  16
ATOM     16  C   UNL A   1      36.621  29.699  28.345  1.00  0.00    -0.017 A 
ATOM     17  C   UNL A   1      37.843  29.759  27.665  1.00  0.00     0.010 A 
ATOM     18  C   UNL A   1      36.653  29.397  29.712  1.00  0.00     0.010 A 
ATOM     19  C   UNL A   1      39.054  29.566  28.356  1.00  0.00     0.022 A 
ATOM     20  C   UNL A   1      37.846  29.313  30.423  1.00  0.00     0.022 A 
ATOM     21  C   UNL A   1      39.051  29.355  29.743  1.00  0.00     0.082 A 
BRANCH  21  22
ATOM     22  S   UNL A   1      40.592  29.126  30.593  1.00  0.00     0.241 S 
ATOM     23  O   UNL A   1      41.474  30.207  30.222  1.00  0.00    -0.207 OA
ATOM     24  O   UNL A   1      40.249  28.864  31.968  1.00  0.00    -0.207 OA
BRANCH  22  25
ATOM     25  N   UNL A   1      41.286  27.680  30.074  1.00  0.00    -0.206 NA
ATOM     26  H   UNL A   1      40.517  27.009  30.078  1.00  0.00     0.141 HD
BRANCH  25  27
ATOM     27  C   UNL A   1      42.008  27.411  28.807  1.00  0.00     0.025 C 
ATOM     28  C   UNL A   1      42.712  28.614  28.182  1.00  0.00     0.028 C 
ATOM     29  C   UNL A   1      43.080  26.344  29.115  1.00  0.00     0.028 C 
ATOM     30  C   UNL A   1      41.066  26.781  27.799  1.00  0.00     0.028 C 
ENDBRANCH  25  27
ENDBRANCH  22  25
ENDBRANCH  21  22
ENDBRANCH  13  16
ENDBRANCH   6   8
ENDBRANCH   5   6
ENDBRANCH   4   5
ENDBRANCH   3   4
ENDBRANCH   2   3
ENDBRANCH   1   2
BRANCH   1  31
ATOM     31  C   UNL A   1      33.467  36.912  31.998  1.00  0.00     0.188 C 
BRANCH  31  32
ATOM     32  O   UNL A   1      34.467  36.748  32.998  1.00  0.00    -0.376 OA
BRANCH  32  33
ATOM     33  C   UNL A   1      35.047  35.468  33.159  1.00  0.00     0.202 C 
BRANCH  33  34
ATOM     34  C   UNL A   1      34.899  34.800  34.533  1.00  0.00     0.261 C 
BRANCH  34  35
ATOM     35  O   UNL A   1      35.505  33.506  34.665  1.00  0.00    -0.460 OA
BRANCH  35  36
ATOM     36  C   UNL A   1      36.419  33.395  35.663  1.00  0.00     0.338 C 
ATOM     37  O   UNL A   1      36.224  33.520  36.860  1.00  0.00    -0.246 OA
BRANCH  36  38
ATOM     38  C   UNL A   1      37.728  33.040  35.072  1.00  0.00     0.060 A 
ATOM     39  C   UNL A   1      38.913  33.552  35.617  1.00  0.00     0.016 A 
ATOM     40  C   UNL A   1      37.779  32.244  33.934  1.00  0.00     0.016 A 
ATOM     41  C   UNL A   1      40.156  33.257  35.028  1.00  0.00     0.010 A 
ATOM     42  C   UNL A   1      39.018  31.975  33.343  1.00  0.00     0.010 A 
ATOM     43  C   UNL A   1      40.234  32.464  33.875  1.00  0.00    -0.014 A 
BRANCH  43  44
ATOM     44  C   UNL A   1      41.525  32.186  33.150  1.00  0.00     0.031 A 
ATOM     45  C   UNL A   1      41.934  33.096  32.010  1.00  0.00     0.074 A 
ATOM     46  C   UNL A   1      42.311  31.112  33.406  1.00  0.00     0.049 A 
ATOM     47  N   UNL A   1      42.913  32.962  31.149  1.00  0.00    -0.248 NA
ATOM     48  C   UNL A   1      41.124  34.309  31.805  1.00  0.00     0.031 C 
ATOM     49  C   UNL A   1      42.113  30.123  34.466  1.00  0.00     0.029 A 
ATOM     50  N   UNL A   1      43.419  30.634  32.730  1.00  0.00    -0.354 N 
ATOM     51  C   UNL A   1      42.848  34.079  30.325  1.00  0.00     0.074 A 
ATOM     52  C   UNL A   1      41.661  34.813  30.706  1.00  0.00     0.031 C 
ATOM     53  C   UNL A   1      42.997  29.120  34.311  1.00  0.00     0.029 A 
ATOM     54  C   UNL A   1      43.833  29.384  33.147  1.00  0.00     0.049 A 
ATOM     55  H   UNL A   1      43.872  31.139  32.016  1.00  0.00     0.167 HD
ATOM     56  C   UNL A   1      43.729  34.515  29.393  1.00  0.00     0.031 A 
ATOM     57  C   UNL A   1      44.746  28.527  32.640  1.00  0.00     0.031 A 
ATOM     58  C   UNL A   1      44.940  33.834  29.026  1.00  0.00     0.049 A 
ATOM     59  C   UNL A   1      45.612  28.943  31.484  1.00  0.00     0.074 A 
ATOM     60  C   UNL A   1      45.960  34.281  28.203  1.00  0.00     0.029 A 
ATOM     61  N   UNL A   1      45.291  32.564  29.444  1.00  0.00    -0.354 N 
ATOM     62  N   UNL A   1      45.586  30.053  30.791  1.00  0.00    -0.248 NA
ATOM     63  C   UNL A   1      46.674  28.004  31.086  1.00  0.00     0.031 C 
ATOM     64  C   UNL A   1      46.907  33.258  28.083  1.00  0.00     0.029 A 
ATOM     65  C   UNL A   1      46.499  32.195  28.871  1.00  0.00     0.049 A 
ATOM     66  H   UNL A   1      44.764  32.005  30.057  1.00  0.00     0.167 HD
ATOM     67  C   UNL A   1      46.683  29.982  29.938  1.00  0.00     0.074 A 
ATOM     68  C   UNL A   1      47.319  28.704  30.165  1.00  0.00     0.031 C 
ATOM     69  C   UNL A   1      47.143  30.927  29.082  1.00  0.00     0.031 A 
BRANCH  56  70
ATOM     70  C   UNL A   1      43.441  35.844  28.750  1.00  0.00    -0.014 A 
ATOM     71  C   UNL A   1      42.581  35.924  27.637  1.00  0.00     0.010 A 
ATOM     72  C   UNL A   1      44.001  37.023  29.272  1.00  0.00     0.010 A 
ATOM     73  C   UNL A   1      42.330  37.151  27.023  1.00  0.00     0.020 A 
ATOM     74  C   UNL A   1      43.726  38.258  28.678  1.00  0.00     0.020 A 
ATOM     75  C   UNL A   1      42.909  38.310  27.546  1.00  0.00     0.054 A 
BRANCH  75  76
ATOM     76  S   UNL A   1      42.551  39.892  26.737  1.00  0.00     0.124 S 
ATOM     77  O   UNL A   1      41.461  39.527  25.835  1.00  0.00    -0.237 OA
ATOM     78  O   UNL A   1      42.176  40.750  27.859  1.00  0.00    -0.237 OA
ATOM     79  O   UNL A   1      43.810  40.240  26.084  1.00  0.00    -0.744 OA
ENDBRANCH  75  76
ENDBRANCH  56  70
BRANCH  57  80
ATOM     80  C   UNL A   1      44.924  27.153  33.194  1.00  0.00    -0.014 A 
ATOM     81  C   UNL A   1      44.295  26.043  32.609  1.00  0.00     0.010 A 
ATOM     82  C   UNL A   1      45.645  26.975  34.387  1.00  0.00     0.010 A 
ATOM     83  C   UNL A   1      44.394  24.778  33.204  1.00  0.00     0.020 A 
ATOM     84  C   UNL A   1      45.769  25.709  34.971  1.00  0.00     0.020 A 
ATOM     85  C   UNL A   1      45.134  24.619  34.381  1.00  0.00     0.054 A 
BRANCH  85  86
ATOM     86  S   UNL A   1      45.295  22.962  35.108  1.00  0.00     0.124 S 
ATOM     87  O   UNL A   1      43.997  22.367  34.806  1.00  0.00    -0.237 OA
ATOM     88  O   UNL A   1      46.430  22.402  34.374  1.00  0.00    -0.237 OA
ATOM     89  O   UNL A   1      45.551  23.227  36.521  1.00  0.00    -0.744 OA
ENDBRANCH  85  86
ENDBRANCH  57  80
BRANCH  69  90
ATOM     90  C   UNL A   1      48.457  30.663  28.399  1.00  0.00    -0.014 A 
ATOM     91  C   UNL A   1      48.554  29.835  27.267  1.00  0.00     0.010 A 
ATOM     92  C   UNL A   1      49.621  31.275  28.903  1.00  0.00     0.010 A 
ATOM     93  C   UNL A   1      49.798  29.596  26.674  1.00  0.00     0.020 A 
ATOM     94  C   UNL A   1      50.860  31.060  28.297  1.00  0.00     0.020 A 
ATOM     95  C   UNL A   1      50.944  30.207  27.196  1.00  0.00     0.054 A 
BRANCH  95  96
ATOM     96  S   UNL A   1      52.543  29.907  26.394  1.00  0.00     0.124 S 
ATOM     97  O   UNL A   1      53.466  29.971  27.523  1.00  0.00    -0.237 OA
ATOM     98  O   UNL A   1      52.364  28.584  25.801  1.00  0.00    -0.237 OA
ATOM     99  O   UNL A   1      52.657  31.002  25.432  1.00  0.00    -0.744 OA
ENDBRANCH  95  96
ENDBRANCH  69  90
ENDBRANCH  43  44
ENDBRANCH  36  38
ENDBRANCH  35  36
ENDBRANCH  34  35
ENDBRANCH  33  34
ENDBRANCH  32  33
ENDBRANCH  31  32
ENDBRANCH   1  31
TORSDOF 25
ENDMDL
MODEL 2
REMARK VINA RESULT:      -7.2      3.722     10.189
REMARK SMILES COc1ccc(-c2ccc(S(=O)(=O)NC(C)(C)C)cc2)c(C(=O)OCCOCCOCCOC(=O)c2ccc(-c3c4nc(c(-c5ccc(S(=O)(=O)[O-])cc5)c5ccc([nH]5)c(-c5ccc(S(=O)(=O)[O-])cc5)c5nc(c(-c6ccc(S(=O)(=O)[O-])cc6)c6ccc3[nH]6)C=C5)C=C4)cc2)c1
REMARK SMILES IDX 28 1 27 2 26 3 25 4 24 5 22 6 23 7 21 8 3 9 4 10 96 11 5 12
REMARK SMILES IDX 6 13 2 14 1 15 7 16 8 17 20 18 9 19 19 20 10 21 11 22 12 23
REMARK SMILES IDX 13 24 14 25 15 27 16 28 17 29 18 30 29 31 30 32 31 33 32 34
REMARK SMILES IDX 33 35 34 36 35 37 36 38 37 39 95 40 38 41 94 42 39 43 40 44
REMARK SMILES IDX 41 45 88 46 42 47 93 48 87 49 89 50 43 51 92 52 86 53 85 54
REMARK SMILES IDX 44 56 74 57 55 58 73 59 56 60 59 61 72 62 90 63 57 64 58 65
REMARK SMILES IDX 71 67 91 68 60 69 45 70 46 71 54 72 47 73 53 74 48 75 49 76
REMARK SMILES IDX 50 77 51 78 52 79 75 80 76 81 84 82 77 83 83 84 78 85 79 86
REMARK SMILES IDX 80 87 81 88 82 89 61 90 62 91 70 92 63 93 69 94 64 95 65 96
REMARK SMILES IDX 66 97 67 98 68 99
REMARK H PARENT 14 26 89 55 59 66
REMARK Flexibility Score: inf
ROOT
ATOM      1  C   UNL A   1      41.813  27.449  34.723  1.00  0.00     0.188 C 
ENDROOT
BRANCH   1   2
ATOM      2  O   UNL A   1      40.596  28.063  34.308  1.00  0.00    -0.376 OA
BRANCH   2   3
ATOM      3  C   UNL A   1      40.408  28.034  32.891  1.00  0.00     0.202 C 
BRANCH   3   4
ATOM      4  C   UNL A   1      40.313  29.444  32.304  1.00  0.00     0.261 C 
BRANCH   4   5
ATOM      5  O   UNL A   1      39.313  29.576  31.277  1.00  0.00    -0.460 OA
BRANCH   5   6
ATOM      6  C   UNL A   1      39.482  30.534  30.331  1.00  0.00     0.338 C 
ATOM      7  O   UNL A   1      40.493  31.188  30.162  1.00  0.00    -0.246 OA
BRANCH   6   8
ATOM      8  C   UNL A   1      38.224  30.618  29.519  1.00  0.00     0.071 A 
ATOM      9  C   UNL A   1      36.004  31.598  29.280  1.00  0.00     0.119 A 
ATOM     10  C   UNL A   1      35.823  30.851  28.117  1.00  0.00     0.047 A 
ATOM     11  C   UNL A   1      37.209  31.492  29.971  1.00  0.00     0.062 A 
ATOM     12  C   UNL A   1      36.823  29.989  27.654  1.00  0.00     0.013 A 
ATOM     13  C   UNL A   1      38.033  29.835  28.353  1.00  0.00    -0.004 A 
BRANCH   9  14
ATOM     14  O   UNL A   1      34.933  32.368  29.643  1.00  0.00    -0.497 OA
ATOM     15  C   UNL A   1      34.760  32.631  31.030  1.00  0.00     0.278 C 
ENDBRANCH   9  14
BRANCH  13  16
ATOM     16  C   UNL A   1      38.964  28.769  27.943  1.00  0.00    -0.017 A 
ATOM     17  C   UNL A   1      38.896  27.451  28.410  1.00  0.00     0.010 A 
ATOM     18  C   UNL A   1      39.982  29.084  27.035  1.00  0.00     0.010 A 
ATOM     19  C   UNL A   1      39.799  26.480  27.939  1.00  0.00     0.022 A 
ATOM     20  C   UNL A   1      40.808  28.110  26.482  1.00  0.00     0.022 A 
ATOM     21  C   UNL A   1      40.749  26.813  26.961  1.00  0.00     0.082 A 
BRANCH  21  22
ATOM     22  S   UNL A   1      41.869  25.568  26.374  1.00  0.00     0.241 S 
ATOM     23  O   UNL A   1      42.154  25.839  24.985  1.00  0.00    -0.207 OA
ATOM     24  O   UNL A   1      42.916  25.481  27.361  1.00  0.00    -0.207 OA
BRANCH  22  25
ATOM     25  N   UNL A   1      41.107  24.066  26.471  1.00  0.00    -0.206 NA
ATOM     26  H   UNL A   1      40.495  24.035  25.655  1.00  0.00     0.141 HD
BRANCH  25  27
ATOM     27  C   UNL A   1      41.732  22.722  26.521  1.00  0.00     0.025 C 
ATOM     28  C   UNL A   1      42.287  22.304  27.881  1.00  0.00     0.028 C 
ATOM     29  C   UNL A   1      40.645  21.703  26.120  1.00  0.00     0.028 C 
ATOM     30  C   UNL A   1      42.816  22.617  25.466  1.00  0.00     0.028 C 
ENDBRANCH  25  27
ENDBRANCH  22  25
ENDBRANCH  21  22
ENDBRANCH  13  16
ENDBRANCH   6   8
ENDBRANCH   5   6
ENDBRANCH   4   5
ENDBRANCH   3   4
ENDBRANCH   2   3
ENDBRANCH   1   2
BRANCH   1  31
ATOM     31  C   UNL A   1      41.672  25.939  34.977  1.00  0.00     0.188 C 
BRANCH  31  32
ATOM     32  O   UNL A   1      42.762  25.212  35.532  1.00  0.00    -0.376 OA
BRANCH  32  33
ATOM     33  C   UNL A   1      42.925  23.860  35.152  1.00  0.00     0.202 C 
BRANCH  33  34
ATOM     34  C   UNL A   1      43.750  23.582  33.887  1.00  0.00     0.261 C 
BRANCH  34  35
ATOM     35  O   UNL A   1      44.690  24.602  33.519  1.00  0.00    -0.460 OA
BRANCH  35  36
ATOM     36  C   UNL A   1      44.520  25.124  32.277  1.00  0.00     0.338 C 
ATOM     37  O   UNL A   1      44.267  24.519  31.250  1.00  0.00    -0.246 OA
BRANCH  36  38
ATOM     38  C   UNL A   1      44.645  26.596  32.358  1.00  0.00     0.060 A 
ATOM     39  C   UNL A   1      45.447  27.184  33.345  1.00  0.00     0.016 A 
ATOM     40  C   UNL A   1      43.914  27.400  31.492  1.00  0.00     0.016 A 
ATOM     41  C   UNL A   1      45.530  28.585  33.457  1.00  0.00     0.010 A 
ATOM     42  C   UNL A   1      43.986  28.791  31.626  1.00  0.00     0.010 A 
ATOM     43  C   UNL A   1      44.796  29.418  32.602  1.00  0.00    -0.014 A 
BRANCH  43  44
ATOM     44  C   UNL A   1      44.776  30.919  32.729  1.00  0.00     0.031 A 
ATOM     45  C   UNL A   1      43.704  31.566  33.583  1.00  0.00     0.074 A 
ATOM     46  C   UNL A   1      45.617  31.739  32.053  1.00  0.00     0.049 A 
ATOM     47  N   UNL A   1      43.397  32.833  33.713  1.00  0.00    -0.248 NA
ATOM     48  C   UNL A   1      42.858  30.663  34.383  1.00  0.00     0.031 C 
ATOM     49  C   UNL A   1      46.728  31.328  31.194  1.00  0.00     0.029 A 
ATOM     50  N   UNL A   1      45.618  33.117  31.935  1.00  0.00    -0.354 N 
ATOM     51  C   UNL A   1      42.348  32.876  34.623  1.00  0.00     0.074 A 
ATOM     52  C   UNL A   1      41.987  31.505  34.913  1.00  0.00     0.031 C 
ATOM     53  C   UNL A   1      47.234  32.409  30.572  1.00  0.00     0.029 A 
ATOM     54  C   UNL A   1      46.494  33.597  30.981  1.00  0.00     0.049 A 
ATOM     55  H   UNL A   1      45.046  33.704  32.482  1.00  0.00     0.167 HD
ATOM     56  C   UNL A   1      41.782  33.943  35.235  1.00  0.00     0.031 A 
ATOM     57  C   UNL A   1      46.666  34.832  30.462  1.00  0.00     0.031 A 
ATOM     58  C   UNL A   1      42.149  35.313  35.005  1.00  0.00     0.049 A 
ATOM     59  C   UNL A   1      45.904  36.000  31.024  1.00  0.00     0.074 A 
ATOM     60  C   UNL A   1      41.732  36.441  35.691  1.00  0.00     0.029 A 
ATOM     61  N   UNL A   1      43.006  35.745  34.009  1.00  0.00    -0.354 N 
ATOM     62  N   UNL A   1      44.988  36.014  31.957  1.00  0.00    -0.248 NA
ATOM     63  C   UNL A   1      46.255  37.329  30.496  1.00  0.00     0.031 C 
ATOM     64  C   UNL A   1      42.300  37.563  35.077  1.00  0.00     0.029 A 
ATOM     65  C   UNL A   1      43.107  37.127  34.040  1.00  0.00     0.049 A 
ATOM     66  H   UNL A   1      43.475  35.159  33.373  1.00  0.00     0.167 HD
ATOM     67  C   UNL A   1      44.718  37.360  32.190  1.00  0.00     0.074 A 
ATOM     68  C   UNL A   1      45.528  38.124  31.268  1.00  0.00     0.031 C 
ATOM     69  C   UNL A   1      43.905  37.903  33.129  1.00  0.00     0.031 A 
BRANCH  56  70
ATOM     70  C   UNL A   1      40.739  33.657  36.282  1.00  0.00    -0.014 A 
ATOM     71  C   UNL A   1      41.101  33.572  37.641  1.00  0.00     0.010 A 
ATOM     72  C   UNL A   1      39.390  33.505  35.919  1.00  0.00     0.010 A 
ATOM     73  C   UNL A   1      40.143  33.284  38.611  1.00  0.00     0.020 A 
ATOM     74  C   UNL A   1      38.422  33.247  36.894  1.00  0.00     0.020 A 
ATOM     75  C   UNL A   1      38.808  33.119  38.230  1.00  0.00     0.054 A 
BRANCH  75  76
ATOM     76  S   UNL A   1      37.582  32.762  39.517  1.00  0.00     0.124 S 
ATOM     77  O   UNL A   1      37.752  33.901  40.416  1.00  0.00    -0.237 OA
ATOM     78  O   UNL A   1      36.328  32.737  38.767  1.00  0.00    -0.237 OA
ATOM     79  O   UNL A   1      38.010  31.474  40.054  1.00  0.00    -0.744 OA
ENDBRANCH  75  76
ENDBRANCH  56  70
BRANCH  57  80
ATOM     80  C   UNL A   1      47.598  35.081  29.324  1.00  0.00    -0.014 A 
ATOM     81  C   UNL A   1      48.930  35.465  29.542  1.00  0.00     0.010 A 
ATOM     82  C   UNL A   1      47.109  35.040  28.007  1.00  0.00     0.010 A 
ATOM     83  C   UNL A   1      49.758  35.792  28.459  1.00  0.00     0.020 A 
ATOM     84  C   UNL A   1      47.939  35.340  26.921  1.00  0.00     0.020 A 
ATOM     85  C   UNL A   1      49.258  35.725  27.154  1.00  0.00     0.054 A 
BRANCH  85  86
ATOM     86  S   UNL A   1      50.362  36.100  25.762  1.00  0.00     0.124 S 
ATOM     87  O   UNL A   1      50.864  37.424  26.117  1.00  0.00    -0.237 OA
ATOM     88  O   UNL A   1      51.341  35.016  25.831  1.00  0.00    -0.237 OA
ATOM     89  O   UNL A   1      49.480  36.054  24.599  1.00  0.00    -0.744 OA
ENDBRANCH  85  86
ENDBRANCH  57  80
BRANCH  69  90
ATOM     90  C   UNL A   1      43.925  39.399  33.283  1.00  0.00    -0.014 A 
ATOM     91  C   UNL A   1      43.065  40.234  32.550  1.00  0.00     0.010 A 
ATOM     92  C   UNL A   1      44.827  39.976  34.197  1.00  0.00     0.010 A 
ATOM     93  C   UNL A   1      43.131  41.623  32.704  1.00  0.00     0.020 A 
ATOM     94  C   UNL A   1      44.877  41.361  34.373  1.00  0.00     0.020 A 
ATOM     95  C   UNL A   1      44.040  42.177  33.612  1.00  0.00     0.054 A 
BRANCH  95  96
ATOM     96  S   UNL A   1      44.089  43.979  33.819  1.00  0.00     0.124 S 
ATOM     97  O   UNL A   1      44.580  44.421  32.518  1.00  0.00    -0.237 OA
ATOM     98  O   UNL A   1      42.696  44.308  34.112  1.00  0.00    -0.237 OA
ATOM     99  O   UNL A   1      45.014  44.173  34.933  1.00  0.00    -0.744 OA
ENDBRANCH  95  96
ENDBRANCH  69  90
ENDBRANCH  43  44
ENDBRANCH  36  38
ENDBRANCH  35  36
ENDBRANCH  34  35
ENDBRANCH  33  34
ENDBRANCH  32  33
ENDBRANCH  31  32
ENDBRANCH   1  31
TORSDOF 25
ENDMDL
MODEL 3
REMARK VINA RESULT:      -6.8      5.233     12.113
REMARK SMILES COc1ccc(-c2ccc(S(=O)(=O)NC(C)(C)C)cc2)c(C(=O)OCCOCCOCCOC(=O)c2ccc(-c3c4nc(c(-c5ccc(S(=O)(=O)[O-])cc5)c5ccc([nH]5)c(-c5ccc(S(=O)(=O)[O-])cc5)c5nc(c(-c6ccc(S(=O)(=O)[O-])cc6)c6ccc3[nH]6)C=C5)C=C4)cc2)c1
REMARK SMILES IDX 28 1 27 2 26 3 25 4 24 5 22 6 23 7 21 8 3 9 4 10 96 11 5 12
REMARK SMILES IDX 6 13 2 14 1 15 7 16 8 17 20 18 9 19 19 20 10 21 11 22 12 23
REMARK SMILES IDX 13 24 14 25 15 27 16 28 17 29 18 30 29 31 30 32 31 33 32 34
REMARK SMILES IDX 33 35 34 36 35 37 36 38 37 39 95 40 38 41 94 42 39 43 40 44
REMARK SMILES IDX 41 45 88 46 42 47 93 48 87 49 89 50 43 51 92 52 86 53 85 54
REMARK SMILES IDX 44 56 74 57 55 58 73 59 56 60 59 61 72 62 90 63 57 64 58 65
REMARK SMILES IDX 71 67 91 68 60 69 45 70 46 71 54 72 47 73 53 74 48 75 49 76
REMARK SMILES IDX 50 77 51 78 52 79 75 80 76 81 84 82 77 83 83 84 78 85 79 86
REMARK SMILES IDX 80 87 81 88 82 89 61 90 62 91 70 92 63 93 69 94 64 95 65 96
REMARK SMILES IDX 66 97 67 98 68 99
REMARK H PARENT 14 26 89 55 59 66
REMARK Flexibility Score: inf
ROOT
ATOM      1  C   UNL A   1      46.773  43.329  28.712  1.00  0.00     0.188 C 
ENDROOT
BRANCH   1   2
ATOM      2  O   UNL A   1      47.835  44.230  28.412  1.00  0.00    -0.376 OA
BRANCH   2   3
ATOM      3  C   UNL A   1      48.413  44.005  27.124  1.00  0.00     0.202 C 
BRANCH   3   4
ATOM      4  C   UNL A   1      48.065  45.128  26.144  1.00  0.00     0.261 C 
BRANCH   4   5
ATOM      5  O   UNL A   1      47.347  44.678  24.981  1.00  0.00    -0.460 OA
BRANCH   5   6
ATOM      6  C   UNL A   1      46.008  44.894  24.925  1.00  0.00     0.338 C 
ATOM      7  O   UNL A   1      45.312  45.252  25.855  1.00  0.00    -0.246 OA
BRANCH   6   8
ATOM      8  C   UNL A   1      45.553  44.648  23.518  1.00  0.00     0.071 A 
ATOM      9  C   UNL A   1      45.371  45.512  21.244  1.00  0.00     0.119 A 
ATOM     10  C   UNL A   1      44.734  44.329  20.869  1.00  0.00     0.047 A 
ATOM     11  C   UNL A   1      45.792  45.663  22.564  1.00  0.00     0.062 A 
ATOM     12  C   UNL A   1      44.498  43.313  21.801  1.00  0.00     0.013 A 
ATOM     13  C   UNL A   1      44.880  43.457  23.147  1.00  0.00    -0.004 A 
BRANCH   9  14
ATOM     14  O   UNL A   1      45.501  46.437  20.246  1.00  0.00    -0.497 OA
ATOM     15  C   UNL A   1      45.331  47.804  20.599  1.00  0.00     0.278 C 
ENDBRANCH   9  14
BRANCH  13  16
ATOM     16  C   UNL A   1      44.428  42.454  24.129  1.00  0.00    -0.017 A 
ATOM     17  C   UNL A   1      45.295  41.655  24.882  1.00  0.00     0.010 A 
ATOM     18  C   UNL A   1      43.052  42.283  24.323  1.00  0.00     0.010 A 
ATOM     19  C   UNL A   1      44.785  40.748  25.830  1.00  0.00     0.022 A 
ATOM     20  C   UNL A   1      42.543  41.470  25.332  1.00  0.00     0.022 A 
ATOM     21  C   UNL A   1      43.404  40.668  26.062  1.00  0.00     0.082 A 
BRANCH  21  22
ATOM     22  S   UNL A   1      42.787  39.525  27.271  1.00  0.00     0.241 S 
ATOM     23  O   UNL A   1      43.739  39.461  28.355  1.00  0.00    -0.207 OA
ATOM     24  O   UNL A   1      41.409  39.889  27.492  1.00  0.00    -0.207 OA
BRANCH  22  25
ATOM     25  N   UNL A   1      42.686  37.996  26.568  1.00  0.00    -0.206 NA
ATOM     26  H   UNL A   1      43.166  38.092  25.673  1.00  0.00     0.141 HD
BRANCH  25  27
ATOM     27  C   UNL A   1      43.165  36.702  27.112  1.00  0.00     0.025 C 
ATOM     28  C   UNL A   1      42.796  36.423  28.567  1.00  0.00     0.028 C 
ATOM     29  C   UNL A   1      42.543  35.589  26.243  1.00  0.00     0.028 C 
ATOM     30  C   UNL A   1      44.666  36.589  26.927  1.00  0.00     0.028 C 
ENDBRANCH  25  27
ENDBRANCH  22  25
ENDBRANCH  21  22
ENDBRANCH  13  16
ENDBRANCH   6   8
ENDBRANCH   5   6
ENDBRANCH   4   5
ENDBRANCH   3   4
ENDBRANCH   2   3
ENDBRANCH   1   2
BRANCH   1  31
ATOM     31  C   UNL A   1      45.509  44.035  29.228  1.00  0.00     0.188 C 
BRANCH  31  32
ATOM     32  O   UNL A   1      45.102  43.854  30.580  1.00  0.00    -0.376 OA
BRANCH  32  33
ATOM     33  C   UNL A   1      44.056  44.668  31.077  1.00  0.00     0.202 C 
BRANCH  33  34
ATOM     34  C   UNL A   1      44.008  44.899  32.594  1.00  0.00     0.261 C 
BRANCH  34  35
ATOM     35  O   UNL A   1      44.763  43.973  33.389  1.00  0.00    -0.460 OA
BRANCH  35  36
ATOM     36  C   UNL A   1      44.022  43.084  34.100  1.00  0.00     0.338 C 
ATOM     37  O   UNL A   1      43.281  43.322  35.037  1.00  0.00    -0.246 OA
BRANCH  36  38
ATOM     38  C   UNL A   1      44.215  41.736  33.522  1.00  0.00     0.060 A 
ATOM     39  C   UNL A   1      45.273  40.925  33.954  1.00  0.00     0.016 A 
ATOM     40  C   UNL A   1      43.380  41.295  32.502  1.00  0.00     0.016 A 
ATOM     41  C   UNL A   1      45.491  39.663  33.373  1.00  0.00     0.010 A 
ATOM     42  C   UNL A   1      43.618  40.047  31.915  1.00  0.00     0.010 A 
ATOM     43  C   UNL A   1      44.669  39.198  32.336  1.00  0.00    -0.014 A 
BRANCH  43  44
ATOM     44  C   UNL A   1      44.903  37.897  31.616  1.00  0.00     0.031 A 
ATOM     45  C   UNL A   1      44.176  36.656  32.094  1.00  0.00     0.074 A 
ATOM     46  C   UNL A   1      45.795  37.749  30.607  1.00  0.00     0.049 A 
ATOM     47  N   UNL A   1      44.338  35.407  31.732  1.00  0.00    -0.248 NA
ATOM     48  C   UNL A   1      43.143  36.848  33.127  1.00  0.00     0.031 C 
ATOM     49  C   UNL A   1      46.585  38.811  29.983  1.00  0.00     0.029 A 
ATOM     50  N   UNL A   1      46.239  36.606  29.966  1.00  0.00    -0.354 N 
ATOM     51  C   UNL A   1      43.413  34.677  32.471  1.00  0.00     0.074 A 
ATOM     52  C   UNL A   1      42.787  35.601  33.390  1.00  0.00     0.031 C 
ATOM     53  C   UNL A   1      47.472  38.265  29.130  1.00  0.00     0.029 A 
ATOM     54  C   UNL A   1      47.322  36.815  29.135  1.00  0.00     0.049 A 
ATOM     55  H   UNL A   1      45.821  35.723  30.091  1.00  0.00     0.167 HD
ATOM     56  C   UNL A   1      43.047  33.379  32.350  1.00  0.00     0.031 A 
ATOM     57  C   UNL A   1      48.128  35.952  28.480  1.00  0.00     0.031 A 
ATOM     58  C   UNL A   1      43.616  32.447  31.415  1.00  0.00     0.049 A 
ATOM     59  C   UNL A   1      47.826  34.480  28.488  1.00  0.00     0.074 A 
ATOM     60  C   UNL A   1      43.199  31.159  31.125  1.00  0.00     0.029 A 
ATOM     61  N   UNL A   1      44.727  32.695  30.630  1.00  0.00    -0.354 N 
ATOM     62  N   UNL A   1      46.878  33.837  29.122  1.00  0.00    -0.248 NA
ATOM     63  C   UNL A   1      48.672  33.629  27.636  1.00  0.00     0.031 C 
ATOM     64  C   UNL A   1      44.090  30.608  30.198  1.00  0.00     0.029 A 
ATOM     65  C   UNL A   1      45.031  31.572  29.877  1.00  0.00     0.049 A 
ATOM     66  H   UNL A   1      45.227  33.542  30.608  1.00  0.00     0.167 HD
ATOM     67  C   UNL A   1      46.961  32.522  28.674  1.00  0.00     0.074 A 
ATOM     68  C   UNL A   1      48.077  32.451  27.758  1.00  0.00     0.031 C 
ATOM     69  C   UNL A   1      46.140  31.483  28.964  1.00  0.00     0.031 A 
BRANCH  56  70
ATOM     70  C   UNL A   1      41.912  32.906  33.218  1.00  0.00    -0.014 A 
ATOM     71  C   UNL A   1      42.146  32.543  34.559  1.00  0.00     0.010 A 
ATOM     72  C   UNL A   1      40.603  32.853  32.710  1.00  0.00     0.010 A 
ATOM     73  C   UNL A   1      41.102  32.082  35.360  1.00  0.00     0.020 A 
ATOM     74  C   UNL A   1      39.549  32.421  33.520  1.00  0.00     0.020 A 
ATOM     75  C   UNL A   1      39.809  32.020  34.833  1.00  0.00     0.054 A 
BRANCH  75  76
ATOM     76  S   UNL A   1      38.469  31.433  35.903  1.00  0.00     0.124 S 
ATOM     77  O   UNL A   1      39.034  31.647  37.234  1.00  0.00    -0.237 OA
ATOM     78  O   UNL A   1      37.361  32.313  35.543  1.00  0.00    -0.237 OA
ATOM     79  O   UNL A   1      38.304  30.035  35.514  1.00  0.00    -0.744 OA
ENDBRANCH  75  76
ENDBRANCH  56  70
BRANCH  57  80
ATOM     80  C   UNL A   1      49.338  36.417  27.740  1.00  0.00    -0.014 A 
ATOM     81  C   UNL A   1      49.296  36.676  26.361  1.00  0.00     0.010 A 
ATOM     82  C   UNL A   1      50.572  36.495  28.409  1.00  0.00     0.010 A 
ATOM     83  C   UNL A   1      50.467  37.014  25.669  1.00  0.00     0.020 A 
ATOM     84  C   UNL A   1      51.739  36.857  27.727  1.00  0.00     0.020 A 
ATOM     85  C   UNL A   1      51.682  37.105  26.357  1.00  0.00     0.054 A 
BRANCH  85  86
ATOM     86  S   UNL A   1      53.178  37.597  25.452  1.00  0.00     0.124 S 
ATOM     87  O   UNL A   1      53.275  39.017  25.772  1.00  0.00    -0.237 OA
ATOM     88  O   UNL A   1      54.205  36.744  26.048  1.00  0.00    -0.237 OA
ATOM     89  O   UNL A   1      52.857  37.287  24.061  1.00  0.00    -0.744 OA
ENDBRANCH  85  86
ENDBRANCH  57  80
BRANCH  69  90
ATOM     90  C   UNL A   1      46.349  30.201  28.207  1.00  0.00    -0.014 A 
ATOM     91  C   UNL A   1      47.139  29.156  28.716  1.00  0.00     0.010 A 
ATOM     92  C   UNL A   1      45.724  30.041  26.955  1.00  0.00     0.010 A 
ATOM     93  C   UNL A   1      47.329  27.988  27.969  1.00  0.00     0.020 A 
ATOM     94  C   UNL A   1      45.889  28.865  26.220  1.00  0.00     0.020 A 
ATOM     95  C   UNL A   1      46.705  27.852  26.724  1.00  0.00     0.054 A 
BRANCH  95  96
ATOM     96  S   UNL A   1      46.940  26.317  25.786  1.00  0.00     0.124 S 
ATOM     97  O   UNL A   1      47.364  25.386  26.826  1.00  0.00    -0.237 OA
ATOM     98  O   UNL A   1      45.611  26.074  25.228  1.00  0.00    -0.237 OA
ATOM     99  O   UNL A   1      47.965  26.666  24.804  1.00  0.00    -0.744 OA
ENDBRANCH  95  96
ENDBRANCH  69  90
ENDBRANCH  43  44
ENDBRANCH  36  38
ENDBRANCH  35  36
ENDBRANCH  34  35
ENDBRANCH  33  34
ENDBRANCH  32  33
ENDBRANCH  31  32
ENDBRANCH   1  31
TORSDOF 25
ENDMDL
