MODEL 1
REMARK VINA RESULT:      -9.4      0.000      0.000
REMARK SMILES O=C(CN1C(=O)COc2ccccc21)Nc1ccc(C(=O)OCCOCCOCCOC(=O)c2ccc(-c3c4nc(c(-c5ccc(S(=O)(=O)[O-])cc5)c5ccc([nH]5)c(-c5ccc(S(=O)(=O)[O-])cc5)c5nc(c(-c6ccc(S(=O)(=O)[O-])cc6)c6ccc3[nH]6)C=C5)C=C4)cc2)cc1
REMARK SMILES IDX 26 1 25 2 24 3 23 4 22 5 20 6 21 7 19 8 16 9 17 10 95 11
REMARK SMILES IDX 18 12 94 13 15 14 1 15 2 16 3 18 4 19 5 20 14 21 6 22 7 23
REMARK SMILES IDX 9 24 13 25 8 26 10 27 12 28 11 29 27 30 28 31 29 32 30 33
REMARK SMILES IDX 31 34 32 35 33 36 34 37 35 38 93 39 36 40 92 41 37 42 38 43
REMARK SMILES IDX 39 44 86 45 40 46 91 47 85 48 87 49 41 50 90 51 84 52 83 53
REMARK SMILES IDX 42 55 72 56 53 57 71 58 54 59 57 60 70 61 88 62 55 63 56 64
REMARK SMILES IDX 69 66 89 67 58 68 43 69 44 70 52 71 45 72 51 73 46 74 47 75
REMARK SMILES IDX 48 76 49 77 50 78 73 79 74 80 82 81 75 82 81 83 76 84 77 85
REMARK SMILES IDX 78 86 79 87 80 88 59 89 60 90 68 91 61 92 67 93 62 94 63 95
REMARK SMILES IDX 64 96 65 97 66 98
REMARK H PARENT 15 17 87 54 57 65
REMARK Flexibility Score: inf
ROOT
ATOM      1  C   UNL A   1      40.772  28.678  33.518  1.00  0.00     0.188 C 
ENDROOT
BRANCH   1   2
ATOM      2  O   UNL A   1      41.256  28.468  34.829  1.00  0.00    -0.376 OA
BRANCH   2   3
ATOM      3  C   UNL A   1      40.938  29.385  35.866  1.00  0.00     0.202 C 
BRANCH   3   4
ATOM      4  C   UNL A   1      41.726  30.679  36.120  1.00  0.00     0.261 C 
BRANCH   4   5
ATOM      5  O   UNL A   1      40.930  31.839  36.393  1.00  0.00    -0.460 OA
BRANCH   5   6
ATOM      6  C   UNL A   1      40.989  32.801  35.441  1.00  0.00     0.338 C 
ATOM      7  O   UNL A   1      41.989  33.233  34.888  1.00  0.00    -0.246 OA
BRANCH   6   8
ATOM      8  C   UNL A   1      39.631  33.127  34.980  1.00  0.00     0.060 A 
ATOM      9  C   UNL A   1      37.012  33.541  34.146  1.00  0.00     0.041 A 
ATOM     10  C   UNL A   1      37.263  33.087  35.444  1.00  0.00     0.027 A 
ATOM     11  C   UNL A   1      38.073  33.891  33.308  1.00  0.00     0.027 A 
ATOM     12  C   UNL A   1      38.568  32.808  35.833  1.00  0.00     0.018 A 
ATOM     13  C   UNL A   1      39.392  33.727  33.742  1.00  0.00     0.018 A 
BRANCH   9  14
ATOM     14  N   UNL A   1      35.680  33.520  33.688  1.00  0.00    -0.325 N 
ATOM     15  O   UNL A   1      35.224  35.725  34.282  1.00  0.00    -0.273 OA
ATOM     16  C   UNL A   1      34.906  34.687  33.705  1.00  0.00     0.244 C 
ATOM     17  H   UNL A   1      35.291  32.679  33.354  1.00  0.00     0.169 HD
BRANCH  16  18
ATOM     18  C   UNL A   1      33.658  34.603  32.809  1.00  0.00     0.226 C 
BRANCH  18  19
ATOM     19  N   UNL A   1      33.657  35.231  31.474  1.00  0.00    -0.297 N 
ATOM     20  C   UNL A   1      33.111  36.509  31.342  1.00  0.00     0.265 C 
ATOM     21  C   UNL A   1      33.861  34.465  30.284  1.00  0.00     0.087 A 
ATOM     22  O   UNL A   1      32.778  37.223  32.287  1.00  0.00    -0.270 OA
ATOM     23  C   UNL A   1      32.994  36.988  29.896  1.00  0.00     0.330 C 
ATOM     24  C   UNL A   1      33.213  34.843  29.100  1.00  0.00     0.143 A 
ATOM     25  C   UNL A   1      34.656  33.326  30.241  1.00  0.00     0.030 A 
ATOM     26  O   UNL A   1      32.503  36.009  28.988  1.00  0.00    -0.482 OA
ATOM     27  C   UNL A   1      33.221  34.009  27.977  1.00  0.00     0.049 A 
ATOM     28  C   UNL A   1      34.684  32.489  29.123  1.00  0.00     0.002 A 
ATOM     29  C   UNL A   1      33.937  32.814  27.999  1.00  0.00     0.004 A 
ENDBRANCH  18  19
ENDBRANCH  16  18
ENDBRANCH   9  14
ENDBRANCH   6   8
ENDBRANCH   5   6
ENDBRANCH   4   5
ENDBRANCH   3   4
ENDBRANCH   2   3
ENDBRANCH   1   2
BRANCH   1  30
ATOM     30  C   UNL A   1      39.654  29.711  33.271  1.00  0.00     0.188 C 
BRANCH  30  31
ATOM     31  O   UNL A   1      38.310  29.298  33.320  1.00  0.00    -0.376 OA
BRANCH  31  32
ATOM     32  C   UNL A   1      37.270  30.184  32.947  1.00  0.00     0.202 C 
BRANCH  32  33
ATOM     33  C   UNL A   1      36.519  30.185  31.601  1.00  0.00     0.261 C 
BRANCH  33  34
ATOM     34  O   UNL A   1      37.241  30.544  30.423  1.00  0.00    -0.460 OA
BRANCH  34  35
ATOM     35  C   UNL A   1      37.132  29.677  29.391  1.00  0.00     0.338 C 
ATOM     36  O   UNL A   1      36.115  29.389  28.769  1.00  0.00    -0.246 OA
BRANCH  35  37
ATOM     37  C   UNL A   1      38.475  29.238  28.983  1.00  0.00     0.060 A 
ATOM     38  C   UNL A   1      39.330  28.695  29.953  1.00  0.00     0.016 A 
ATOM     39  C   UNL A   1      38.906  29.408  27.667  1.00  0.00     0.016 A 
ATOM     40  C   UNL A   1      40.632  28.336  29.609  1.00  0.00     0.010 A 
ATOM     41  C   UNL A   1      40.218  29.064  27.330  1.00  0.00     0.010 A 
ATOM     42  C   UNL A   1      41.094  28.552  28.305  1.00  0.00    -0.014 A 
BRANCH  42  43
ATOM     43  C   UNL A   1      42.536  28.396  27.996  1.00  0.00     0.031 A 
ATOM     44  C   UNL A   1      43.455  29.564  28.231  1.00  0.00     0.074 A 
ATOM     45  C   UNL A   1      43.025  27.237  27.521  1.00  0.00     0.049 A 
ATOM     46  N   UNL A   1      44.734  29.675  27.984  1.00  0.00    -0.248 NA
ATOM     47  C   UNL A   1      42.848  30.769  28.820  1.00  0.00     0.031 C 
ATOM     48  C   UNL A   1      42.246  26.021  27.291  1.00  0.00     0.029 A 
ATOM     49  N   UNL A   1      44.298  26.901  27.134  1.00  0.00    -0.354 N 
ATOM     50  C   UNL A   1      45.083  30.963  28.374  1.00  0.00     0.074 A 
ATOM     51  C   UNL A   1      43.876  31.604  28.850  1.00  0.00     0.031 C 
ATOM     52  C   UNL A   1      43.059  25.074  26.790  1.00  0.00     0.029 A 
ATOM     53  C   UNL A   1      44.401  25.628  26.627  1.00  0.00     0.049 A 
ATOM     54  H   UNL A   1      45.065  27.513  27.214  1.00  0.00     0.167 HD
ATOM     55  C   UNL A   1      46.299  31.559  28.338  1.00  0.00     0.031 A 
ATOM     56  C   UNL A   1      45.451  24.992  26.068  1.00  0.00     0.031 A 
ATOM     57  C   UNL A   1      47.492  30.928  27.841  1.00  0.00     0.049 A 
ATOM     58  C   UNL A   1      46.777  25.703  25.965  1.00  0.00     0.074 A 
ATOM     59  C   UNL A   1      48.775  31.443  27.779  1.00  0.00     0.029 A 
ATOM     60  N   UNL A   1      47.548  29.650  27.305  1.00  0.00    -0.354 N 
ATOM     61  N   UNL A   1      47.100  26.910  26.367  1.00  0.00    -0.248 NA
ATOM     62  C   UNL A   1      47.881  24.962  25.339  1.00  0.00     0.031 C 
ATOM     63  C   UNL A   1      49.594  30.502  27.148  1.00  0.00     0.029 A 
ATOM     64  C   UNL A   1      48.838  29.371  26.882  1.00  0.00     0.049 A 
ATOM     65  H   UNL A   1      46.785  29.032  27.236  1.00  0.00     0.167 HD
ATOM     66  C   UNL A   1      48.452  27.061  26.069  1.00  0.00     0.074 A 
ATOM     67  C   UNL A   1      48.888  25.817  25.466  1.00  0.00     0.031 C 
ATOM     68  C   UNL A   1      49.260  28.130  26.281  1.00  0.00     0.031 A 
BRANCH  55  69
ATOM     69  C   UNL A   1      46.383  32.987  28.809  1.00  0.00    -0.014 A 
ATOM     70  C   UNL A   1      46.568  33.301  30.169  1.00  0.00     0.010 A 
ATOM     71  C   UNL A   1      46.302  34.034  27.872  1.00  0.00     0.010 A 
ATOM     72  C   UNL A   1      46.623  34.633  30.586  1.00  0.00     0.020 A 
ATOM     73  C   UNL A   1      46.388  35.367  28.281  1.00  0.00     0.020 A 
ATOM     74  C   UNL A   1      46.529  35.658  29.639  1.00  0.00     0.054 A 
BRANCH  74  75
ATOM     75  S   UNL A   1      46.614  37.378  30.209  1.00  0.00     0.124 S 
ATOM     76  O   UNL A   1      48.056  37.604  30.266  1.00  0.00    -0.237 OA
ATOM     77  O   UNL A   1      45.908  38.099  29.154  1.00  0.00    -0.237 OA
ATOM     78  O   UNL A   1      45.937  37.349  31.503  1.00  0.00    -0.744 OA
ENDBRANCH  74  75
ENDBRANCH  55  69
BRANCH  56  79
ATOM     79  C   UNL A   1      45.286  23.609  25.544  1.00  0.00    -0.014 A 
ATOM     80  C   UNL A   1      45.704  22.500  26.299  1.00  0.00     0.010 A 
ATOM     81  C   UNL A   1      44.700  23.394  24.283  1.00  0.00     0.010 A 
ATOM     82  C   UNL A   1      45.546  21.203  25.801  1.00  0.00     0.020 A 
ATOM     83  C   UNL A   1      44.514  22.098  23.793  1.00  0.00     0.020 A 
ATOM     84  C   UNL A   1      44.946  21.010  24.553  1.00  0.00     0.054 A 
BRANCH  84  85
ATOM     85  S   UNL A   1      44.695  19.315  23.957  1.00  0.00     0.124 S 
ATOM     86  O   UNL A   1      43.454  18.939  24.626  1.00  0.00    -0.237 OA
ATOM     87  O   UNL A   1      44.604  19.502  22.511  1.00  0.00    -0.237 OA
ATOM     88  O   UNL A   1      45.891  18.612  24.414  1.00  0.00    -0.744 OA
ENDBRANCH  84  85
ENDBRANCH  56  79
BRANCH  68  89
ATOM     89  C   UNL A   1      50.713  27.997  25.899  1.00  0.00    -0.014 A 
ATOM     90  C   UNL A   1      51.223  28.587  24.729  1.00  0.00     0.010 A 
ATOM     91  C   UNL A   1      51.595  27.320  26.763  1.00  0.00     0.010 A 
ATOM     92  C   UNL A   1      52.580  28.476  24.414  1.00  0.00     0.020 A 
ATOM     93  C   UNL A   1      52.958  27.234  26.468  1.00  0.00     0.020 A 
ATOM     94  C   UNL A   1      53.441  27.801  25.287  1.00  0.00     0.054 A 
BRANCH  94  95
ATOM     95  S   UNL A   1      55.205  27.709  24.878  1.00  0.00     0.124 S 
ATOM     96  O   UNL A   1      55.654  29.070  25.159  1.00  0.00    -0.237 OA
ATOM     97  O   UNL A   1      55.693  26.683  25.798  1.00  0.00    -0.237 OA
ATOM     98  O   UNL A   1      55.217  27.327  23.468  1.00  0.00    -0.744 OA
ENDBRANCH  94  95
ENDBRANCH  68  89
ENDBRANCH  42  43
ENDBRANCH  35  37
ENDBRANCH  34  35
ENDBRANCH  33  34
ENDBRANCH  32  33
ENDBRANCH  31  32
ENDBRANCH  30  31
ENDBRANCH   1  30
TORSDOF 23
ENDMDL
MODEL 2
REMARK VINA RESULT:      -8.7      4.280      7.947
REMARK SMILES O=C(CN1C(=O)COc2ccccc21)Nc1ccc(C(=O)OCCOCCOCCOC(=O)c2ccc(-c3c4nc(c(-c5ccc(S(=O)(=O)[O-])cc5)c5ccc([nH]5)c(-c5ccc(S(=O)(=O)[O-])cc5)c5nc(c(-c6ccc(S(=O)(=O)[O-])cc6)c6ccc3[nH]6)C=C5)C=C4)cc2)cc1
REMARK SMILES IDX 26 1 25 2 24 3 23 4 22 5 20 6 21 7 19 8 16 9 17 10 95 11
REMARK SMILES IDX 18 12 94 13 15 14 1 15 2 16 3 18 4 19 5 20 14 21 6 22 7 23
REMARK SMILES IDX 9 24 13 25 8 26 10 27 12 28 11 29 27 30 28 31 29 32 30 33
REMARK SMILES IDX 31 34 32 35 33 36 34 37 35 38 93 39 36 40 92 41 37 42 38 43
REMARK SMILES IDX 39 44 86 45 40 46 91 47 85 48 87 49 41 50 90 51 84 52 83 53
REMARK SMILES IDX 42 55 72 56 53 57 71 58 54 59 57 60 70 61 88 62 55 63 56 64
REMARK SMILES IDX 69 66 89 67 58 68 43 69 44 70 52 71 45 72 51 73 46 74 47 75
REMARK SMILES IDX 48 76 49 77 50 78 73 79 74 80 82 81 75 82 81 83 76 84 77 85
REMARK SMILES IDX 78 86 79 87 80 88 59 89 60 90 68 91 61 92 67 93 62 94 63 95
REMARK SMILES IDX 64 96 65 97 66 98
REMARK H PARENT 15 17 87 54 57 65
REMARK Flexibility Score: inf
ROOT
ATOM      1  C   UNL A   1      32.958  35.918  32.437  1.00  0.00     0.188 C 
ENDROOT
BRANCH   1   2
ATOM      2  O   UNL A   1      33.441  34.610  32.671  1.00  0.00    -0.376 OA
BRANCH   2   3
ATOM      3  C   UNL A   1      34.823  34.388  32.904  1.00  0.00     0.202 C 
BRANCH   3   4
ATOM      4  C   UNL A   1      35.461  32.991  32.934  1.00  0.00     0.261 C 
BRANCH   4   5
ATOM      5  O   UNL A   1      35.850  32.519  34.230  1.00  0.00    -0.460 OA
BRANCH   5   6
ATOM      6  C   UNL A   1      36.951  33.121  34.743  1.00  0.00     0.338 C 
ATOM      7  O   UNL A   1      37.054  34.279  35.116  1.00  0.00    -0.246 OA
BRANCH   6   8
ATOM      8  C   UNL A   1      37.990  32.113  35.004  1.00  0.00     0.060 A 
ATOM      9  C   UNL A   1      40.096  30.355  35.449  1.00  0.00     0.041 A 
ATOM     10  C   UNL A   1      40.017  31.542  36.182  1.00  0.00     0.027 A 
ATOM     11  C   UNL A   1      39.065  29.999  34.577  1.00  0.00     0.027 A 
ATOM     12  C   UNL A   1      39.005  32.455  35.904  1.00  0.00     0.018 A 
ATOM     13  C   UNL A   1      37.980  30.861  34.386  1.00  0.00     0.018 A 
BRANCH   9  14
ATOM     14  N   UNL A   1      41.286  29.606  35.535  1.00  0.00    -0.325 N 
ATOM     15  O   UNL A   1      40.712  28.113  33.843  1.00  0.00    -0.273 OA
ATOM     16  C   UNL A   1      41.543  28.574  34.623  1.00  0.00     0.244 C 
ATOM     17  H   UNL A   1      41.941  29.809  36.242  1.00  0.00     0.169 HD
BRANCH  16  18
ATOM     18  C   UNL A   1      43.020  28.149  34.585  1.00  0.00     0.226 C 
BRANCH  18  19
ATOM     19  N   UNL A   1      43.493  27.025  35.414  1.00  0.00    -0.297 N 
ATOM     20  C   UNL A   1      43.667  27.235  36.783  1.00  0.00     0.265 C 
ATOM     21  C   UNL A   1      44.101  25.867  34.834  1.00  0.00     0.087 A 
ATOM     22  O   UNL A   1      43.298  28.244  37.382  1.00  0.00    -0.270 OA
ATOM     23  C   UNL A   1      44.330  26.068  37.512  1.00  0.00     0.330 C 
ATOM     24  C   UNL A   1      45.108  25.191  35.535  1.00  0.00     0.143 A 
ATOM     25  C   UNL A   1      43.766  25.384  33.574  1.00  0.00     0.030 A 
ATOM     26  O   UNL A   1      45.439  25.498  36.828  1.00  0.00    -0.482 OA
ATOM     27  C   UNL A   1      45.866  24.189  34.920  1.00  0.00     0.049 A 
ATOM     28  C   UNL A   1      44.506  24.376  32.951  1.00  0.00     0.002 A 
ATOM     29  C   UNL A   1      45.580  23.800  33.613  1.00  0.00     0.004 A 
ENDBRANCH  18  19
ENDBRANCH  16  18
ENDBRANCH   9  14
ENDBRANCH   6   8
ENDBRANCH   5   6
ENDBRANCH   4   5
ENDBRANCH   3   4
ENDBRANCH   2   3
ENDBRANCH   1   2
BRANCH   1  30
ATOM     30  C   UNL A   1      32.589  36.353  31.004  1.00  0.00     0.188 C 
BRANCH  30  31
ATOM     31  O   UNL A   1      33.434  35.998  29.937  1.00  0.00    -0.376 OA
BRANCH  31  32
ATOM     32  C   UNL A   1      33.165  34.848  29.156  1.00  0.00     0.202 C 
BRANCH  32  33
ATOM     33  C   UNL A   1      34.215  33.875  28.584  1.00  0.00     0.261 C 
BRANCH  33  34
ATOM     34  O   UNL A   1      34.596  32.749  29.375  1.00  0.00    -0.460 OA
BRANCH  34  35
ATOM     35  C   UNL A   1      35.187  31.740  28.695  1.00  0.00     0.338 C 
ATOM     36  O   UNL A   1      34.807  31.232  27.644  1.00  0.00    -0.246 OA
BRANCH  35  37
ATOM     37  C   UNL A   1      36.488  31.437  29.309  1.00  0.00     0.060 A 
ATOM     38  C   UNL A   1      37.627  32.102  28.835  1.00  0.00     0.016 A 
ATOM     39  C   UNL A   1      36.590  30.470  30.310  1.00  0.00     0.016 A 
ATOM     40  C   UNL A   1      38.882  31.785  29.352  1.00  0.00     0.010 A 
ATOM     41  C   UNL A   1      37.852  30.142  30.812  1.00  0.00     0.010 A 
ATOM     42  C   UNL A   1      39.006  30.777  30.317  1.00  0.00    -0.014 A 
BRANCH  42  43
ATOM     43  C   UNL A   1      40.349  30.273  30.692  1.00  0.00     0.031 A 
ATOM     44  C   UNL A   1      41.153  31.044  31.702  1.00  0.00     0.074 A 
ATOM     45  C   UNL A   1      40.844  29.146  30.153  1.00  0.00     0.049 A 
ATOM     46  N   UNL A   1      42.365  30.823  32.141  1.00  0.00    -0.248 NA
ATOM     47  C   UNL A   1      40.504  32.226  32.295  1.00  0.00     0.031 C 
ATOM     48  C   UNL A   1      40.146  28.287  29.197  1.00  0.00     0.029 A 
ATOM     49  N   UNL A   1      42.062  28.538  30.326  1.00  0.00    -0.354 N 
ATOM     50  C   UNL A   1      42.630  31.842  33.048  1.00  0.00     0.074 A 
ATOM     51  C   UNL A   1      41.462  32.696  33.079  1.00  0.00     0.031 C 
ATOM     52  C   UNL A   1      40.955  27.268  28.858  1.00  0.00     0.029 A 
ATOM     53  C   UNL A   1      42.239  27.424  29.540  1.00  0.00     0.049 A 
ATOM     54  H   UNL A   1      42.744  28.867  30.954  1.00  0.00     0.167 HD
ATOM     55  C   UNL A   1      43.745  32.049  33.789  1.00  0.00     0.031 A 
ATOM     56  C   UNL A   1      43.321  26.638  29.369  1.00  0.00     0.031 A 
ATOM     57  C   UNL A   1      44.914  31.212  33.737  1.00  0.00     0.049 A 
ATOM     58  C   UNL A   1      44.580  26.933  30.143  1.00  0.00     0.074 A 
ATOM     59  C   UNL A   1      46.087  31.328  34.461  1.00  0.00     0.029 A 
ATOM     60  N   UNL A   1      45.066  30.113  32.904  1.00  0.00    -0.354 N 
ATOM     61  N   UNL A   1      44.806  27.882  31.022  1.00  0.00    -0.248 NA
ATOM     62  C   UNL A   1      45.728  26.047  29.908  1.00  0.00     0.031 C 
ATOM     63  C   UNL A   1      46.973  30.340  34.020  1.00  0.00     0.029 A 
ATOM     64  C   UNL A   1      46.325  29.561  33.074  1.00  0.00     0.049 A 
ATOM     65  H   UNL A   1      44.380  29.775  32.284  1.00  0.00     0.167 HD
ATOM     66  C   UNL A   1      46.111  27.687  31.466  1.00  0.00     0.074 A 
ATOM     67  C   UNL A   1      46.619  26.523  30.769  1.00  0.00     0.031 C 
ATOM     68  C   UNL A   1      46.822  28.403  32.372  1.00  0.00     0.031 A 
BRANCH  55  69
ATOM     69  C   UNL A   1      43.766  33.259  34.685  1.00  0.00    -0.014 A 
ATOM     70  C   UNL A   1      44.249  34.500  34.230  1.00  0.00     0.010 A 
ATOM     71  C   UNL A   1      43.272  33.159  35.999  1.00  0.00     0.010 A 
ATOM     72  C   UNL A   1      44.277  35.604  35.086  1.00  0.00     0.020 A 
ATOM     73  C   UNL A   1      43.270  34.268  36.847  1.00  0.00     0.020 A 
ATOM     74  C   UNL A   1      43.791  35.480  36.391  1.00  0.00     0.054 A 
BRANCH  74  75
ATOM     75  S   UNL A   1      43.832  36.933  37.475  1.00  0.00     0.124 S 
ATOM     76  O   UNL A   1      44.518  37.914  36.637  1.00  0.00    -0.237 OA
ATOM     77  O   UNL A   1      42.416  37.193  37.715  1.00  0.00    -0.237 OA
ATOM     78  O   UNL A   1      44.586  36.476  38.640  1.00  0.00    -0.744 OA
ENDBRANCH  74  75
ENDBRANCH  55  69
BRANCH  56  79
ATOM     79  C   UNL A   1      43.268  25.504  28.406  1.00  0.00    -0.014 A 
ATOM     80  C   UNL A   1      43.747  25.652  27.093  1.00  0.00     0.010 A 
ATOM     81  C   UNL A   1      42.742  24.260  28.804  1.00  0.00     0.010 A 
ATOM     82  C   UNL A   1      43.694  24.583  26.194  1.00  0.00     0.020 A 
ATOM     83  C   UNL A   1      42.713  23.180  27.917  1.00  0.00     0.020 A 
ATOM     84  C   UNL A   1      43.182  23.351  26.614  1.00  0.00     0.054 A 
BRANCH  84  85
ATOM     85  S   UNL A   1      43.184  21.961  25.447  1.00  0.00     0.124 S 
ATOM     86  O   UNL A   1      43.176  22.646  24.159  1.00  0.00    -0.237 OA
ATOM     87  O   UNL A   1      44.424  21.268  25.789  1.00  0.00    -0.237 OA
ATOM     88  O   UNL A   1      41.960  21.236  25.779  1.00  0.00    -0.744 OA
ENDBRANCH  84  85
ENDBRANCH  56  79
BRANCH  68  89
ATOM     89  C   UNL A   1      48.216  27.931  32.701  1.00  0.00    -0.014 A 
ATOM     90  C   UNL A   1      48.451  26.976  33.706  1.00  0.00     0.010 A 
ATOM     91  C   UNL A   1      49.303  28.408  31.945  1.00  0.00     0.010 A 
ATOM     92  C   UNL A   1      49.749  26.531  33.970  1.00  0.00     0.020 A 
ATOM     93  C   UNL A   1      50.599  27.942  32.184  1.00  0.00     0.020 A 
ATOM     94  C   UNL A   1      50.816  27.016  33.206  1.00  0.00     0.054 A 
BRANCH  94  95
ATOM     95  S   UNL A   1      52.486  26.390  33.538  1.00  0.00     0.124 S 
ATOM     96  O   UNL A   1      52.281  25.606  34.752  1.00  0.00    -0.237 OA
ATOM     97  O   UNL A   1      52.783  25.619  32.333  1.00  0.00    -0.237 OA
ATOM     98  O   UNL A   1      53.285  27.603  33.706  1.00  0.00    -0.744 OA
ENDBRANCH  94  95
ENDBRANCH  68  89
ENDBRANCH  42  43
ENDBRANCH  35  37
ENDBRANCH  34  35
ENDBRANCH  33  34
ENDBRANCH  32  33
ENDBRANCH  31  32
ENDBRANCH  30  31
ENDBRANCH   1  30
TORSDOF 23
ENDMDL
MODEL 3
REMARK VINA RESULT:      -8.6      4.631     11.056
REMARK SMILES O=C(CN1C(=O)COc2ccccc21)Nc1ccc(C(=O)OCCOCCOCCOC(=O)c2ccc(-c3c4nc(c(-c5ccc(S(=O)(=O)[O-])cc5)c5ccc([nH]5)c(-c5ccc(S(=O)(=O)[O-])cc5)c5nc(c(-c6ccc(S(=O)(=O)[O-])cc6)c6ccc3[nH]6)C=C5)C=C4)cc2)cc1
REMARK SMILES IDX 26 1 25 2 24 3 23 4 22 5 20 6 21 7 19 8 16 9 17 10 95 11
REMARK SMILES IDX 18 12 94 13 15 14 1 15 2 16 3 18 4 19 5 20 14 21 6 22 7 23
REMARK SMILES IDX 9 24 13 25 8 26 10 27 12 28 11 29 27 30 28 31 29 32 30 33
REMARK SMILES IDX 31 34 32 35 33 36 34 37 35 38 93 39 36 40 92 41 37 42 38 43
REMARK SMILES IDX 39 44 86 45 40 46 91 47 85 48 87 49 41 50 90 51 84 52 83 53
REMARK SMILES IDX 42 55 72 56 53 57 71 58 54 59 57 60 70 61 88 62 55 63 56 64
REMARK SMILES IDX 69 66 89 67 58 68 43 69 44 70 52 71 45 72 51 73 46 74 47 75
REMARK SMILES IDX 48 76 49 77 50 78 73 79 74 80 82 81 75 82 81 83 76 84 77 85
REMARK SMILES IDX 78 86 79 87 80 88 59 89 60 90 68 91 61 92 67 93 62 94 63 95
REMARK SMILES IDX 64 96 65 97 66 98
REMARK H PARENT 15 17 87 54 57 65
REMARK Flexibility Score: inf
ROOT
ATOM      1  C   UNL A   1      32.939  36.013  32.076  1.00  0.00     0.188 C 
ENDROOT
BRANCH   1   2
ATOM      2  O   UNL A   1      33.412  34.759  32.526  1.00  0.00    -0.376 OA
BRANCH   2   3
ATOM      3  C   UNL A   1      34.794  34.567  32.790  1.00  0.00     0.202 C 
BRANCH   3   4
ATOM      4  C   UNL A   1      35.443  33.181  32.922  1.00  0.00     0.261 C 
BRANCH   4   5
ATOM      5  O   UNL A   1      35.970  32.869  34.218  1.00  0.00    -0.460 OA
BRANCH   5   6
ATOM      6  C   UNL A   1      37.198  33.383  34.466  1.00  0.00     0.338 C 
ATOM      7  O   UNL A   1      37.497  34.562  34.581  1.00  0.00    -0.246 OA
BRANCH   6   8
ATOM      8  C   UNL A   1      38.131  32.298  34.807  1.00  0.00     0.060 A 
ATOM      9  C   UNL A   1      40.049  30.376  35.399  1.00  0.00     0.041 A 
ATOM     10  C   UNL A   1      40.064  31.601  36.073  1.00  0.00     0.027 A 
ATOM     11  C   UNL A   1      39.012  30.074  34.514  1.00  0.00     0.027 A 
ATOM     12  C   UNL A   1      39.150  32.589  35.720  1.00  0.00     0.018 A 
ATOM     13  C   UNL A   1      38.019  31.023  34.249  1.00  0.00     0.018 A 
BRANCH   9  14
ATOM     14  N   UNL A   1      41.161  29.525  35.557  1.00  0.00    -0.325 N 
ATOM     15  O   UNL A   1      40.518  28.034  33.888  1.00  0.00    -0.273 OA
ATOM     16  C   UNL A   1      41.356  28.444  34.688  1.00  0.00     0.244 C 
ATOM     17  H   UNL A   1      41.804  29.691  36.285  1.00  0.00     0.169 HD
BRANCH  16  18
ATOM     18  C   UNL A   1      42.789  27.885  34.724  1.00  0.00     0.226 C 
BRANCH  18  19
ATOM     19  N   UNL A   1      43.239  27.064  35.863  1.00  0.00    -0.297 N 
ATOM     20  C   UNL A   1      43.837  27.705  36.950  1.00  0.00     0.265 C 
ATOM     21  C   UNL A   1      43.405  25.648  35.749  1.00  0.00     0.087 A 
ATOM     22  O   UNL A   1      43.869  28.925  37.103  1.00  0.00    -0.270 OA
ATOM     23  C   UNL A   1      44.427  26.751  37.986  1.00  0.00     0.330 C 
ATOM     24  C   UNL A   1      44.410  25.008  36.487  1.00  0.00     0.143 A 
ATOM     25  C   UNL A   1      42.631  24.858  34.906  1.00  0.00     0.030 A 
ATOM     26  O   UNL A   1      45.153  25.658  37.437  1.00  0.00    -0.482 OA
ATOM     27  C   UNL A   1      44.738  23.670  36.248  1.00  0.00     0.049 A 
ATOM     28  C   UNL A   1      42.939  23.516  34.666  1.00  0.00     0.002 A 
ATOM     29  C   UNL A   1      44.017  22.929  35.314  1.00  0.00     0.004 A 
ENDBRANCH  18  19
ENDBRANCH  16  18
ENDBRANCH   9  14
ENDBRANCH   6   8
ENDBRANCH   5   6
ENDBRANCH   4   5
ENDBRANCH   3   4
ENDBRANCH   2   3
ENDBRANCH   1   2
BRANCH   1  30
ATOM     30  C   UNL A   1      32.775  36.271  30.565  1.00  0.00     0.188 C 
BRANCH  30  31
ATOM     31  O   UNL A   1      33.654  35.651  29.659  1.00  0.00    -0.376 OA
BRANCH  31  32
ATOM     32  C   UNL A   1      33.353  34.377  29.119  1.00  0.00     0.202 C 
BRANCH  32  33
ATOM     33  C   UNL A   1      34.375  33.348  28.597  1.00  0.00     0.261 C 
BRANCH  33  34
ATOM     34  O   UNL A   1      34.530  32.123  29.314  1.00  0.00    -0.460 OA
BRANCH  34  35
ATOM     35  C   UNL A   1      35.224  31.160  28.667  1.00  0.00     0.338 C 
ATOM     36  O   UNL A   1      34.916  30.600  27.619  1.00  0.00    -0.246 OA
BRANCH  35  37
ATOM     37  C   UNL A   1      36.533  30.987  29.315  1.00  0.00     0.060 A 
ATOM     38  C   UNL A   1      37.626  31.717  28.829  1.00  0.00     0.016 A 
ATOM     39  C   UNL A   1      36.691  30.077  30.360  1.00  0.00     0.016 A 
ATOM     40  C   UNL A   1      38.892  31.523  29.378  1.00  0.00     0.010 A 
ATOM     41  C   UNL A   1      37.965  29.870  30.896  1.00  0.00     0.010 A 
ATOM     42  C   UNL A   1      39.075  30.572  30.390  1.00  0.00    -0.014 A 
BRANCH  42  43
ATOM     43  C   UNL A   1      40.445  30.191  30.809  1.00  0.00     0.031 A 
ATOM     44  C   UNL A   1      41.034  28.913  30.277  1.00  0.00     0.074 A 
ATOM     45  C   UNL A   1      41.159  30.969  31.641  1.00  0.00     0.049 A 
ATOM     46  N   UNL A   1      42.186  28.356  30.546  1.00  0.00    -0.248 NA
ATOM     47  C   UNL A   1      40.211  28.161  29.315  1.00  0.00     0.031 C 
ATOM     48  C   UNL A   1      40.718  32.250  32.191  1.00  0.00     0.029 A 
ATOM     49  N   UNL A   1      42.407  30.782  32.181  1.00  0.00    -0.354 N 
ATOM     50  C   UNL A   1      42.222  27.184  29.800  1.00  0.00     0.074 A 
ATOM     51  C   UNL A   1      40.966  27.097  29.086  1.00  0.00     0.031 C 
ATOM     52  C   UNL A   1      41.678  32.729  33.001  1.00  0.00     0.029 A 
ATOM     53  C   UNL A   1      42.781  31.771  33.059  1.00  0.00     0.049 A 
ATOM     54  H   UNL A   1      42.981  30.014  31.959  1.00  0.00     0.167 HD
ATOM     55  C   UNL A   1      43.211  26.262  29.717  1.00  0.00     0.031 A 
ATOM     56  C   UNL A   1      43.875  31.878  33.841  1.00  0.00     0.031 A 
ATOM     57  C   UNL A   1      44.448  26.339  30.446  1.00  0.00     0.049 A 
ATOM     58  C   UNL A   1      44.927  30.800  33.793  1.00  0.00     0.074 A 
ATOM     59  C   UNL A   1      45.519  25.464  30.417  1.00  0.00     0.029 A 
ATOM     60  N   UNL A   1      44.775  27.339  31.351  1.00  0.00    -0.354 N 
ATOM     61  N   UNL A   1      44.962  29.713  33.058  1.00  0.00    -0.248 NA
ATOM     62  C   UNL A   1      46.091  30.968  34.674  1.00  0.00     0.031 C 
ATOM     63  C   UNL A   1      46.466  25.899  31.349  1.00  0.00     0.029 A 
ATOM     64  C   UNL A   1      46.018  27.086  31.907  1.00  0.00     0.049 A 
ATOM     65  H   UNL A   1      44.207  28.114  31.565  1.00  0.00     0.167 HD
ATOM     66  C   UNL A   1      46.166  29.084  33.368  1.00  0.00     0.074 A 
ATOM     67  C   UNL A   1      46.834  29.919  34.345  1.00  0.00     0.031 C 
ATOM     68  C   UNL A   1      46.673  27.923  32.882  1.00  0.00     0.031 A 
BRANCH  55  69
ATOM     69  C   UNL A   1      42.969  25.065  28.835  1.00  0.00    -0.014 A 
ATOM     70  C   UNL A   1      42.672  23.801  29.379  1.00  0.00     0.010 A 
ATOM     71  C   UNL A   1      43.015  25.212  27.436  1.00  0.00     0.010 A 
ATOM     72  C   UNL A   1      42.471  22.701  28.542  1.00  0.00     0.020 A 
ATOM     73  C   UNL A   1      42.783  24.121  26.596  1.00  0.00     0.020 A 
ATOM     74  C   UNL A   1      42.532  22.867  27.156  1.00  0.00     0.054 A 
BRANCH  74  75
ATOM     75  S   UNL A   1      42.257  21.422  26.094  1.00  0.00     0.124 S 
ATOM     76  O   UNL A   1      43.342  21.552  25.124  1.00  0.00    -0.237 OA
ATOM     77  O   UNL A   1      42.383  20.309  27.030  1.00  0.00    -0.237 OA
ATOM     78  O   UNL A   1      40.915  21.635  25.558  1.00  0.00    -0.744 OA
ENDBRANCH  74  75
ENDBRANCH  55  69
BRANCH  56  79
ATOM     79  C   UNL A   1      44.021  33.044  34.754  1.00  0.00    -0.014 A 
ATOM     80  C   UNL A   1      43.467  33.020  36.046  1.00  0.00     0.010 A 
ATOM     81  C   UNL A   1      44.726  34.189  34.337  1.00  0.00     0.010 A 
ATOM     82  C   UNL A   1      43.607  34.118  36.899  1.00  0.00     0.020 A 
ATOM     83  C   UNL A   1      44.894  35.278  35.197  1.00  0.00     0.020 A 
ATOM     84  C   UNL A   1      44.326  35.239  36.471  1.00  0.00     0.054 A 
BRANCH  84  85
ATOM     85  S   UNL A   1      44.548  36.625  37.620  1.00  0.00     0.124 S 
ATOM     86  O   UNL A   1      45.220  35.982  38.744  1.00  0.00    -0.237 OA
ATOM     87  O   UNL A   1      45.366  37.550  36.839  1.00  0.00    -0.237 OA
ATOM     88  O   UNL A   1      43.184  37.076  37.879  1.00  0.00    -0.744 OA
ENDBRANCH  84  85
ENDBRANCH  56  79
BRANCH  68  89
ATOM     89  C   UNL A   1      48.037  27.499  33.364  1.00  0.00    -0.014 A 
ATOM     90  C   UNL A   1      49.212  27.948  32.735  1.00  0.00     0.010 A 
ATOM     91  C   UNL A   1      48.144  26.686  34.508  1.00  0.00     0.010 A 
ATOM     92  C   UNL A   1      50.465  27.565  33.221  1.00  0.00     0.020 A 
ATOM     93  C   UNL A   1      49.395  26.326  35.016  1.00  0.00     0.020 A 
ATOM     94  C   UNL A   1      50.550  26.758  34.360  1.00  0.00     0.054 A 
BRANCH  94  95
ATOM     95  S   UNL A   1      52.188  26.312  34.997  1.00  0.00     0.124 S 
ATOM     96  O   UNL A   1      52.951  26.121  33.766  1.00  0.00    -0.237 OA
ATOM     97  O   UNL A   1      52.554  27.485  35.788  1.00  0.00    -0.237 OA
ATOM     98  O   UNL A   1      51.942  25.098  35.772  1.00  0.00    -0.744 OA
ENDBRANCH  94  95
ENDBRANCH  68  89
ENDBRANCH  42  43
ENDBRANCH  35  37
ENDBRANCH  34  35
ENDBRANCH  33  34
ENDBRANCH  32  33
ENDBRANCH  31  32
ENDBRANCH  30  31
ENDBRANCH   1  30
TORSDOF 23
ENDMDL
