MODEL 1
REMARK VINA RESULT:     -10.3      0.000      0.000
REMARK SMILES C/C(=N/[NH+]=C1\NC(=O)[C@H](CC(=O)OCCOCCOCCOC(=O)c2ccc(-c3c4nc(c(-c5ccc(S(=O)(=O)[O-])cc5)c5ccc([nH]5)c(-c5ccc(S(=O)(=O)[O-])cc5)c5nc(c(-c6ccc(S(=O)(=O)[O-])cc6)c6ccc3[nH]6)C=C5)C=C4)cc2)S1)c1ccc(OC(C)C)cc1
REMARK SMILES IDX 17 1 16 2 15 3 14 4 13 5 11 6 12 7 10 8 9 9 4 10 5 11 6 13
REMARK SMILES IDX 85 14 7 15 8 17 3 18 1 19 2 20 86 21 87 22 95 23 88 24 94 25
REMARK SMILES IDX 89 26 90 27 91 28 92 29 93 30 18 31 19 32 20 33 21 34 22 35
REMARK SMILES IDX 23 36 24 37 25 38 26 39 84 40 27 41 83 42 28 43 29 44 30 45
REMARK SMILES IDX 77 46 31 47 82 48 76 49 78 50 32 51 81 52 75 53 74 54 33 56
REMARK SMILES IDX 63 57 44 58 62 59 45 60 48 61 61 62 79 63 46 64 47 65 60 67
REMARK SMILES IDX 80 68 49 69 34 70 35 71 43 72 36 73 42 74 37 75 38 76 39 77
REMARK SMILES IDX 40 78 41 79 64 80 65 81 73 82 66 83 72 84 67 85 68 86 69 87
REMARK SMILES IDX 70 88 71 89 50 90 51 91 59 92 52 93 58 94 53 95 54 96 55 97
REMARK SMILES IDX 56 98 57 99
REMARK H PARENT 4 12 6 16 78 55 48 66
REMARK Flexibility Score: inf
ROOT
ATOM      1  C   UNL A   1      33.360  28.293  22.339  1.00  0.00     0.188 C 
ENDROOT
BRANCH   1   2
ATOM      2  O   UNL A   1      33.788  26.940  22.225  1.00  0.00    -0.376 OA
BRANCH   2   3
ATOM      3  C   UNL A   1      32.789  26.010  21.810  1.00  0.00     0.202 C 
BRANCH   3   4
ATOM      4  C   UNL A   1      31.364  26.299  22.299  1.00  0.00     0.261 C 
BRANCH   4   5
ATOM      5  O   UNL A   1      30.919  25.516  23.437  1.00  0.00    -0.463 OA
BRANCH   5   6
ATOM      6  C   UNL A   1      30.190  26.162  24.375  1.00  0.00     0.307 C 
ATOM      7  O   UNL A   1      28.976  26.340  24.298  1.00  0.00    -0.252 OA
BRANCH   6   8
ATOM      8  C   UNL A   1      30.942  26.618  25.606  1.00  0.00     0.150 C 
BRANCH   8   9
ATOM      9  C   UNL A   1      31.725  25.652  26.480  1.00  0.00     0.184 C 
ATOM     10  N   UNL A   1      33.841  22.963  24.732  1.00  0.00    -0.142 N 
ATOM     11  C   UNL A   1      33.175  23.707  25.551  1.00  0.00     0.337 C 
ATOM     12  H   UNL A   1      34.581  23.324  24.192  1.00  0.00     0.343 HD
ATOM     13  N   UNL A   1      32.143  23.297  26.314  1.00  0.00    -0.202 N 
ATOM     14  S   UNL A   1      33.393  25.420  25.693  1.00  0.00    -0.020 SA
ATOM     15  C   UNL A   1      31.203  24.230  26.638  1.00  0.00     0.322 C 
ATOM     16  H   UNL A   1      32.071  22.366  26.624  1.00  0.00     0.316 HD
ATOM     17  O   UNL A   1      30.073  23.899  26.971  1.00  0.00    -0.246 OA
BRANCH  10  18
ATOM     18  N   UNL A   1      33.461  21.607  24.648  1.00  0.00    -0.090 NA
ATOM     19  C   UNL A   1      33.933  19.245  24.732  1.00  0.00     0.071 C 
ATOM     20  C   UNL A   1      34.385  20.689  24.769  1.00  0.00     0.088 C 
BRANCH  20  21
ATOM     21  C   UNL A   1      35.857  20.918  24.791  1.00  0.00    -0.000 A 
ATOM     22  C   UNL A   1      36.763  19.871  24.939  1.00  0.00     0.014 A 
ATOM     23  C   UNL A   1      36.306  22.242  24.878  1.00  0.00     0.014 A 
ATOM     24  C   UNL A   1      38.101  20.158  25.228  1.00  0.00     0.047 A 
ATOM     25  C   UNL A   1      37.644  22.517  25.172  1.00  0.00     0.047 A 
ATOM     26  C   UNL A   1      38.550  21.479  25.358  1.00  0.00     0.119 A 
BRANCH  26  27
ATOM     27  O   UNL A   1      39.853  21.598  25.736  1.00  0.00    -0.491 OA
BRANCH  27  28
ATOM     28  C   UNL A   1      40.490  20.714  26.665  1.00  0.00     0.167 C 
ATOM     29  C   UNL A   1      41.616  19.880  26.069  1.00  0.00     0.052 C 
ATOM     30  C   UNL A   1      40.865  21.363  27.989  1.00  0.00     0.052 C 
ENDBRANCH  27  28
ENDBRANCH  26  27
ENDBRANCH  20  21
ENDBRANCH  10  18
ENDBRANCH   8   9
ENDBRANCH   6   8
ENDBRANCH   5   6
ENDBRANCH   4   5
ENDBRANCH   3   4
ENDBRANCH   2   3
ENDBRANCH   1   2
BRANCH   1  31
ATOM     31  C   UNL A   1      33.404  28.850  23.762  1.00  0.00     0.188 C 
BRANCH  31  32
ATOM     32  O   UNL A   1      32.204  29.442  24.229  1.00  0.00    -0.376 OA
BRANCH  32  33
ATOM     33  C   UNL A   1      32.160  29.915  25.576  1.00  0.00     0.202 C 
BRANCH  33  34
ATOM     34  C   UNL A   1      33.457  29.820  26.412  1.00  0.00     0.261 C 
BRANCH  34  35
ATOM     35  O   UNL A   1      33.489  30.575  27.645  1.00  0.00    -0.460 OA
BRANCH  35  36
ATOM     36  C   UNL A   1      34.369  31.601  27.728  1.00  0.00     0.338 C 
ATOM     37  O   UNL A   1      34.083  32.788  27.707  1.00  0.00    -0.246 OA
BRANCH  36  38
ATOM     38  C   UNL A   1      35.696  31.071  28.167  1.00  0.00     0.060 A 
ATOM     39  C   UNL A   1      35.802  29.686  28.377  1.00  0.00     0.016 A 
ATOM     40  C   UNL A   1      36.845  31.867  28.259  1.00  0.00     0.016 A 
ATOM     41  C   UNL A   1      37.023  29.109  28.735  1.00  0.00     0.010 A 
ATOM     42  C   UNL A   1      38.068  31.289  28.640  1.00  0.00     0.010 A 
ATOM     43  C   UNL A   1      38.152  29.914  28.927  1.00  0.00    -0.014 A 
BRANCH  43  44
ATOM     44  C   UNL A   1      39.307  29.358  29.688  1.00  0.00     0.031 A 
ATOM     45  C   UNL A   1      39.443  29.757  31.138  1.00  0.00     0.074 A 
ATOM     46  C   UNL A   1      40.171  28.468  29.162  1.00  0.00     0.049 A 
ATOM     47  N   UNL A   1      40.321  29.375  32.030  1.00  0.00    -0.248 NA
ATOM     48  C   UNL A   1      38.446  30.712  31.649  1.00  0.00     0.031 C 
ATOM     49  C   UNL A   1      40.139  27.953  27.795  1.00  0.00     0.029 A 
ATOM     50  N   UNL A   1      41.249  27.832  29.734  1.00  0.00    -0.354 N 
ATOM     51  C   UNL A   1      39.982  30.045  33.202  1.00  0.00     0.074 A 
ATOM     52  C   UNL A   1      38.848  30.886  32.897  1.00  0.00     0.031 C 
ATOM     53  C   UNL A   1      41.149  27.077  27.636  1.00  0.00     0.029 A 
ATOM     54  C   UNL A   1      41.916  26.986  28.879  1.00  0.00     0.049 A 
ATOM     55  H   UNL A   1      41.518  27.969  30.671  1.00  0.00     0.167 HD
ATOM     56  C   UNL A   1      40.552  29.965  34.428  1.00  0.00     0.031 A 
ATOM     57  C   UNL A   1      43.020  26.232  29.072  1.00  0.00     0.031 A 
ATOM     58  C   UNL A   1      41.693  29.146  34.739  1.00  0.00     0.049 A 
ATOM     59  C   UNL A   1      43.688  26.218  30.427  1.00  0.00     0.074 A 
ATOM     60  C   UNL A   1      42.336  28.996  35.955  1.00  0.00     0.029 A 
ATOM     61  N   UNL A   1      42.368  28.349  33.829  1.00  0.00    -0.354 N 
ATOM     62  N   UNL A   1      43.338  26.837  31.530  1.00  0.00    -0.248 NA
ATOM     63  C   UNL A   1      44.892  25.386  30.564  1.00  0.00     0.031 C 
ATOM     64  C   UNL A   1      43.440  28.158  35.766  1.00  0.00     0.029 A 
ATOM     65  C   UNL A   1      43.439  27.726  34.449  1.00  0.00     0.049 A 
ATOM     66  H   UNL A   1      42.123  28.240  32.881  1.00  0.00     0.167 HD
ATOM     67  C   UNL A   1      44.261  26.444  32.498  1.00  0.00     0.074 A 
ATOM     68  C   UNL A   1      45.169  25.518  31.854  1.00  0.00     0.031 C 
ATOM     69  C   UNL A   1      44.347  26.813  33.801  1.00  0.00     0.031 A 
BRANCH  56  70
ATOM     70  C   UNL A   1      39.967  30.823  35.519  1.00  0.00    -0.014 A 
ATOM     71  C   UNL A   1      38.646  30.636  35.969  1.00  0.00     0.010 A 
ATOM     72  C   UNL A   1      40.759  31.819  36.118  1.00  0.00     0.010 A 
ATOM     73  C   UNL A   1      38.119  31.456  36.970  1.00  0.00     0.020 A 
ATOM     74  C   UNL A   1      40.245  32.619  37.142  1.00  0.00     0.020 A 
ATOM     75  C   UNL A   1      38.922  32.442  37.550  1.00  0.00     0.054 A 
BRANCH  75  76
ATOM     76  S   UNL A   1      38.217  33.477  38.862  1.00  0.00     0.124 S 
ATOM     77  O   UNL A   1      36.801  33.121  38.798  1.00  0.00    -0.237 OA
ATOM     78  O   UNL A   1      38.929  33.015  40.050  1.00  0.00    -0.237 OA
ATOM     79  O   UNL A   1      38.534  34.839  38.438  1.00  0.00    -0.744 OA
ENDBRANCH  75  76
ENDBRANCH  56  70
BRANCH  57  80
ATOM     80  C   UNL A   1      43.589  25.429  27.948  1.00  0.00    -0.014 A 
ATOM     81  C   UNL A   1      43.168  24.107  27.717  1.00  0.00     0.010 A 
ATOM     82  C   UNL A   1      44.585  25.978  27.121  1.00  0.00     0.010 A 
ATOM     83  C   UNL A   1      43.744  23.346  26.694  1.00  0.00     0.020 A 
ATOM     84  C   UNL A   1      45.142  25.232  26.077  1.00  0.00     0.020 A 
ATOM     85  C   UNL A   1      44.725  23.915  25.877  1.00  0.00     0.054 A 
BRANCH  85  86
ATOM     86  S   UNL A   1      45.422  22.927  24.523  1.00  0.00     0.124 S 
ATOM     87  O   UNL A   1      46.260  23.902  23.833  1.00  0.00    -0.237 OA
ATOM     88  O   UNL A   1      46.136  21.873  25.239  1.00  0.00    -0.237 OA
ATOM     89  O   UNL A   1      44.244  22.480  23.783  1.00  0.00    -0.744 OA
ENDBRANCH  85  86
ENDBRANCH  57  80
BRANCH  69  90
ATOM     90  C   UNL A   1      45.438  26.185  34.635  1.00  0.00    -0.014 A 
ATOM     91  C   UNL A   1      45.222  24.999  35.360  1.00  0.00     0.010 A 
ATOM     92  C   UNL A   1      46.713  26.783  34.674  1.00  0.00     0.010 A 
ATOM     93  C   UNL A   1      46.238  24.458  36.155  1.00  0.00     0.020 A 
ATOM     94  C   UNL A   1      47.741  26.225  35.438  1.00  0.00     0.020 A 
ATOM     95  C   UNL A   1      47.491  25.079  36.193  1.00  0.00     0.054 A 
BRANCH  95  96
ATOM     96  S   UNL A   1      48.792  24.360  37.232  1.00  0.00     0.124 S 
ATOM     97  O   UNL A   1      49.981  25.065  36.760  1.00  0.00    -0.237 OA
ATOM     98  O   UNL A   1      48.353  24.703  38.582  1.00  0.00    -0.237 OA
ATOM     99  O   UNL A   1      48.745  22.936  36.911  1.00  0.00    -0.744 OA
ENDBRANCH  95  96
ENDBRANCH  69  90
ENDBRANCH  43  44
ENDBRANCH  36  38
ENDBRANCH  35  36
ENDBRANCH  34  35
ENDBRANCH  33  34
ENDBRANCH  32  33
ENDBRANCH  31  32
ENDBRANCH   1  31
TORSDOF 25
ENDMDL
MODEL 2
REMARK VINA RESULT:     -10.0      5.319      9.419
REMARK SMILES C/C(=N/[NH+]=C1\NC(=O)[C@H](CC(=O)OCCOCCOCCOC(=O)c2ccc(-c3c4nc(c(-c5ccc(S(=O)(=O)[O-])cc5)c5ccc([nH]5)c(-c5ccc(S(=O)(=O)[O-])cc5)c5nc(c(-c6ccc(S(=O)(=O)[O-])cc6)c6ccc3[nH]6)C=C5)C=C4)cc2)S1)c1ccc(OC(C)C)cc1
REMARK SMILES IDX 17 1 16 2 15 3 14 4 13 5 11 6 12 7 10 8 9 9 4 10 5 11 6 13
REMARK SMILES IDX 85 14 7 15 8 17 3 18 1 19 2 20 86 21 87 22 95 23 88 24 94 25
REMARK SMILES IDX 89 26 90 27 91 28 92 29 93 30 18 31 19 32 20 33 21 34 22 35
REMARK SMILES IDX 23 36 24 37 25 38 26 39 84 40 27 41 83 42 28 43 29 44 30 45
REMARK SMILES IDX 77 46 31 47 82 48 76 49 78 50 32 51 81 52 75 53 74 54 33 56
REMARK SMILES IDX 63 57 44 58 62 59 45 60 48 61 61 62 79 63 46 64 47 65 60 67
REMARK SMILES IDX 80 68 49 69 34 70 35 71 43 72 36 73 42 74 37 75 38 76 39 77
REMARK SMILES IDX 40 78 41 79 64 80 65 81 73 82 66 83 72 84 67 85 68 86 69 87
REMARK SMILES IDX 70 88 71 89 50 90 51 91 59 92 52 93 58 94 53 95 54 96 55 97
REMARK SMILES IDX 56 98 57 99
REMARK H PARENT 4 12 6 16 78 55 48 66
REMARK Flexibility Score: inf
ROOT
ATOM      1  C   UNL A   1      33.140  28.923  23.613  1.00  0.00     0.188 C 
ENDROOT
BRANCH   1   2
ATOM      2  O   UNL A   1      33.785  28.013  22.727  1.00  0.00    -0.376 OA
BRANCH   2   3
ATOM      3  C   UNL A   1      32.925  27.091  22.058  1.00  0.00     0.202 C 
BRANCH   3   4
ATOM      4  C   UNL A   1      31.443  27.159  22.446  1.00  0.00     0.261 C 
BRANCH   4   5
ATOM      5  O   UNL A   1      30.929  26.009  23.168  1.00  0.00    -0.463 OA
BRANCH   5   6
ATOM      6  C   UNL A   1      30.126  26.262  24.227  1.00  0.00     0.307 C 
ATOM      7  O   UNL A   1      28.910  26.085  24.221  1.00  0.00    -0.252 OA
BRANCH   6   8
ATOM      8  C   UNL A   1      30.814  26.727  25.490  1.00  0.00     0.150 C 
BRANCH   8   9
ATOM      9  C   UNL A   1      31.636  25.787  26.357  1.00  0.00     0.184 C 
ATOM     10  N   UNL A   1      33.660  23.034  24.598  1.00  0.00    -0.142 N 
ATOM     11  C   UNL A   1      33.035  23.807  25.424  1.00  0.00     0.337 C 
ATOM     12  H   UNL A   1      34.374  23.375  24.013  1.00  0.00     0.343 HD
ATOM     13  N   UNL A   1      32.040  23.426  26.248  1.00  0.00    -0.202 N 
ATOM     14  S   UNL A   1      33.264  25.523  25.500  1.00  0.00    -0.020 SA
ATOM     15  C   UNL A   1      31.119  24.372  26.586  1.00  0.00     0.322 C 
ATOM     16  H   UNL A   1      31.981  22.505  26.591  1.00  0.00     0.316 HD
ATOM     17  O   UNL A   1      30.005  24.057  26.983  1.00  0.00    -0.246 OA
BRANCH  10  18
ATOM     18  N   UNL A   1      33.274  21.678  24.577  1.00  0.00    -0.090 NA
ATOM     19  C   UNL A   1      33.644  19.341  25.037  1.00  0.00     0.071 C 
ATOM     20  C   UNL A   1      34.114  20.780  25.021  1.00  0.00     0.088 C 
BRANCH  20  21
ATOM     21  C   UNL A   1      35.542  21.010  25.376  1.00  0.00    -0.000 A 
ATOM     22  C   UNL A   1      35.932  22.042  26.226  1.00  0.00     0.014 A 
ATOM     23  C   UNL A   1      36.512  20.295  24.662  1.00  0.00     0.014 A 
ATOM     24  C   UNL A   1      37.286  22.386  26.310  1.00  0.00     0.047 A 
ATOM     25  C   UNL A   1      37.861  20.650  24.749  1.00  0.00     0.047 A 
ATOM     26  C   UNL A   1      38.258  21.703  25.566  1.00  0.00     0.119 A 
BRANCH  26  27
ATOM     27  O   UNL A   1      39.515  22.212  25.677  1.00  0.00    -0.491 OA
BRANCH  27  28
ATOM     28  C   UNL A   1      40.554  21.591  26.442  1.00  0.00     0.167 C 
ATOM     29  C   UNL A   1      40.842  22.265  27.777  1.00  0.00     0.052 C 
ATOM     30  C   UNL A   1      40.430  20.079  26.554  1.00  0.00     0.052 C 
ENDBRANCH  27  28
ENDBRANCH  26  27
ENDBRANCH  20  21
ENDBRANCH  10  18
ENDBRANCH   8   9
ENDBRANCH   6   8
ENDBRANCH   5   6
ENDBRANCH   4   5
ENDBRANCH   3   4
ENDBRANCH   2   3
ENDBRANCH   1   2
BRANCH   1  31
ATOM     31  C   UNL A   1      33.830  29.075  24.969  1.00  0.00     0.188 C 
BRANCH  31  32
ATOM     32  O   UNL A   1      33.015  29.555  26.024  1.00  0.00    -0.376 OA
BRANCH  32  33
ATOM     33  C   UNL A   1      33.611  29.755  27.306  1.00  0.00     0.202 C 
BRANCH  33  34
ATOM     34  C   UNL A   1      35.105  30.153  27.348  1.00  0.00     0.261 C 
BRANCH  34  35
ATOM     35  O   UNL A   1      36.039  29.119  27.734  1.00  0.00    -0.460 OA
BRANCH  35  36
ATOM     36  C   UNL A   1      36.815  29.350  28.819  1.00  0.00     0.338 C 
ATOM     37  O   UNL A   1      36.414  29.488  29.965  1.00  0.00    -0.246 OA
BRANCH  36  38
ATOM     38  C   UNL A   1      38.244  29.097  28.462  1.00  0.00     0.060 A 
ATOM     39  C   UNL A   1      39.067  28.529  29.448  1.00  0.00     0.016 A 
ATOM     40  C   UNL A   1      38.756  29.289  27.172  1.00  0.00     0.016 A 
ATOM     41  C   UNL A   1      40.399  28.213  29.173  1.00  0.00     0.010 A 
ATOM     42  C   UNL A   1      40.102  28.991  26.901  1.00  0.00     0.010 A 
ATOM     43  C   UNL A   1      40.944  28.497  27.915  1.00  0.00    -0.014 A 
BRANCH  43  44
ATOM     44  C   UNL A   1      42.427  28.538  27.769  1.00  0.00     0.031 A 
ATOM     45  C   UNL A   1      43.109  27.303  27.230  1.00  0.00     0.074 A 
ATOM     46  C   UNL A   1      43.158  29.642  28.018  1.00  0.00     0.049 A 
ATOM     47  N   UNL A   1      44.372  27.098  26.959  1.00  0.00    -0.248 NA
ATOM     48  C   UNL A   1      42.240  26.146  26.955  1.00  0.00     0.031 C 
ATOM     49  C   UNL A   1      42.636  30.921  28.495  1.00  0.00     0.029 A 
ATOM     50  N   UNL A   1      44.511  29.859  27.892  1.00  0.00    -0.354 N 
ATOM     51  C   UNL A   1      44.448  25.791  26.486  1.00  0.00     0.074 A 
ATOM     52  C   UNL A   1      43.114  25.240  26.546  1.00  0.00     0.031 C 
ATOM     53  C   UNL A   1      43.658  31.789  28.618  1.00  0.00     0.029 A 
ATOM     54  C   UNL A   1      44.909  31.125  28.255  1.00  0.00     0.049 A 
ATOM     55  H   UNL A   1      45.137  29.170  27.572  1.00  0.00     0.167 HD
ATOM     56  C   UNL A   1      45.525  25.108  26.031  1.00  0.00     0.031 A 
ATOM     57  C   UNL A   1      46.139  31.681  28.295  1.00  0.00     0.031 A 
ATOM     58  C   UNL A   1      46.861  25.639  25.983  1.00  0.00     0.049 A 
ATOM     59  C   UNL A   1      47.339  30.874  27.856  1.00  0.00     0.074 A 
ATOM     60  C   UNL A   1      48.014  25.022  25.532  1.00  0.00     0.029 A 
ATOM     61  N   UNL A   1      47.225  26.906  26.411  1.00  0.00    -0.354 N 
ATOM     62  N   UNL A   1      47.388  29.649  27.388  1.00  0.00    -0.248 NA
ATOM     63  C   UNL A   1      48.650  31.536  27.938  1.00  0.00     0.031 C 
ATOM     64  C   UNL A   1      49.088  25.893  25.746  1.00  0.00     0.029 A 
ATOM     65  C   UNL A   1      48.592  27.080  26.261  1.00  0.00     0.049 A 
ATOM     66  H   UNL A   1      46.606  27.583  26.767  1.00  0.00     0.167 HD
ATOM     67  C   UNL A   1      48.729  29.408  27.090  1.00  0.00     0.074 A 
ATOM     68  C   UNL A   1      49.451  30.621  27.412  1.00  0.00     0.031 C 
ATOM     69  C   UNL A   1      49.308  28.286  26.593  1.00  0.00     0.031 A 
BRANCH  56  70
ATOM     70  C   UNL A   1      45.302  23.687  25.582  1.00  0.00    -0.014 A 
ATOM     71  C   UNL A   1      45.325  22.618  26.497  1.00  0.00     0.010 A 
ATOM     72  C   UNL A   1      45.046  23.421  24.225  1.00  0.00     0.010 A 
ATOM     73  C   UNL A   1      45.134  21.306  26.055  1.00  0.00     0.020 A 
ATOM     74  C   UNL A   1      44.823  22.113  23.785  1.00  0.00     0.020 A 
ATOM     75  C   UNL A   1      44.884  21.063  24.701  1.00  0.00     0.054 A 
BRANCH  75  76
ATOM     76  S   UNL A   1      44.619  19.352  24.160  1.00  0.00     0.124 S 
ATOM     77  O   UNL A   1      44.580  19.498  22.707  1.00  0.00    -0.237 OA
ATOM     78  O   UNL A   1      45.791  18.663  24.692  1.00  0.00    -0.237 OA
ATOM     79  O   UNL A   1      43.348  18.984  24.781  1.00  0.00    -0.744 OA
ENDBRANCH  75  76
ENDBRANCH  56  70
BRANCH  57  80
ATOM     80  C   UNL A   1      46.317  33.080  28.786  1.00  0.00    -0.014 A 
ATOM     81  C   UNL A   1      46.264  34.171  27.900  1.00  0.00     0.010 A 
ATOM     82  C   UNL A   1      46.574  33.324  30.148  1.00  0.00     0.010 A 
ATOM     83  C   UNL A   1      46.483  35.474  28.362  1.00  0.00     0.020 A 
ATOM     84  C   UNL A   1      46.762  34.628  30.619  1.00  0.00     0.020 A 
ATOM     85  C   UNL A   1      46.726  35.695  29.720  1.00  0.00     0.054 A 
BRANCH  85  86
ATOM     86  S   UNL A   1      46.955  37.397  30.306  1.00  0.00     0.124 S 
ATOM     87  O   UNL A   1      45.932  38.119  29.555  1.00  0.00    -0.237 OA
ATOM     88  O   UNL A   1      46.717  37.271  31.741  1.00  0.00    -0.237 OA
ATOM     89  O   UNL A   1      48.335  37.704  29.935  1.00  0.00    -0.744 OA
ENDBRANCH  85  86
ENDBRANCH  57  80
BRANCH  69  90
ATOM     90  C   UNL A   1      50.793  28.325  26.326  1.00  0.00    -0.014 A 
ATOM     91  C   UNL A   1      51.311  28.797  25.105  1.00  0.00     0.010 A 
ATOM     92  C   UNL A   1      51.690  27.905  27.326  1.00  0.00     0.010 A 
ATOM     93  C   UNL A   1      52.690  28.788  24.868  1.00  0.00     0.020 A 
ATOM     94  C   UNL A   1      53.070  27.929  27.107  1.00  0.00     0.020 A 
ATOM     95  C   UNL A   1      53.561  28.348  25.870  1.00  0.00     0.054 A 
BRANCH  95  96
ATOM     96  S   UNL A   1      55.344  28.345  25.540  1.00  0.00     0.124 S 
ATOM     97  O   UNL A   1      55.388  28.042  24.112  1.00  0.00    -0.237 OA
ATOM     98  O   UNL A   1      55.741  29.702  25.907  1.00  0.00    -0.237 OA
ATOM     99  O   UNL A   1      55.858  27.294  26.415  1.00  0.00    -0.744 OA
ENDBRANCH  95  96
ENDBRANCH  69  90
ENDBRANCH  43  44
ENDBRANCH  36  38
ENDBRANCH  35  36
ENDBRANCH  34  35
ENDBRANCH  33  34
ENDBRANCH  32  33
ENDBRANCH  31  32
ENDBRANCH   1  31
TORSDOF 25
ENDMDL
MODEL 3
REMARK VINA RESULT:      -9.9      5.057      7.551
REMARK SMILES C/C(=N/[NH+]=C1\NC(=O)[C@H](CC(=O)OCCOCCOCCOC(=O)c2ccc(-c3c4nc(c(-c5ccc(S(=O)(=O)[O-])cc5)c5ccc([nH]5)c(-c5ccc(S(=O)(=O)[O-])cc5)c5nc(c(-c6ccc(S(=O)(=O)[O-])cc6)c6ccc3[nH]6)C=C5)C=C4)cc2)S1)c1ccc(OC(C)C)cc1
REMARK SMILES IDX 17 1 16 2 15 3 14 4 13 5 11 6 12 7 10 8 9 9 4 10 5 11 6 13
REMARK SMILES IDX 85 14 7 15 8 17 3 18 1 19 2 20 86 21 87 22 95 23 88 24 94 25
REMARK SMILES IDX 89 26 90 27 91 28 92 29 93 30 18 31 19 32 20 33 21 34 22 35
REMARK SMILES IDX 23 36 24 37 25 38 26 39 84 40 27 41 83 42 28 43 29 44 30 45
REMARK SMILES IDX 77 46 31 47 82 48 76 49 78 50 32 51 81 52 75 53 74 54 33 56
REMARK SMILES IDX 63 57 44 58 62 59 45 60 48 61 61 62 79 63 46 64 47 65 60 67
REMARK SMILES IDX 80 68 49 69 34 70 35 71 43 72 36 73 42 74 37 75 38 76 39 77
REMARK SMILES IDX 40 78 41 79 64 80 65 81 73 82 66 83 72 84 67 85 68 86 69 87
REMARK SMILES IDX 70 88 71 89 50 90 51 91 59 92 52 93 58 94 53 95 54 96 55 97
REMARK SMILES IDX 56 98 57 99
REMARK H PARENT 4 12 6 16 78 55 48 66
REMARK Flexibility Score: inf
ROOT
ATOM      1  C   UNL A   1      35.085  34.120  28.995  1.00  0.00     0.188 C 
ENDROOT
BRANCH   1   2
ATOM      2  O   UNL A   1      35.182  33.524  27.706  1.00  0.00    -0.376 OA
BRANCH   2   3
ATOM      3  C   UNL A   1      35.501  32.133  27.692  1.00  0.00     0.202 C 
BRANCH   3   4
ATOM      4  C   UNL A   1      34.315  31.176  27.865  1.00  0.00     0.261 C 
BRANCH   4   5
ATOM      5  O   UNL A   1      34.628  29.762  27.757  1.00  0.00    -0.463 OA
BRANCH   5   6
ATOM      6  C   UNL A   1      34.157  29.114  26.667  1.00  0.00     0.307 C 
ATOM      7  O   UNL A   1      34.472  27.964  26.366  1.00  0.00    -0.252 OA
BRANCH   6   8
ATOM      8  C   UNL A   1      33.139  29.860  25.836  1.00  0.00     0.150 C 
BRANCH   8   9
ATOM      9  C   UNL A   1      31.710  29.366  25.672  1.00  0.00     0.184 C 
ATOM     10  N   UNL A   1      31.065  25.593  26.015  1.00  0.00    -0.142 N 
ATOM     11  C   UNL A   1      31.019  26.865  25.790  1.00  0.00     0.337 C 
ATOM     12  H   UNL A   1      31.255  25.235  26.912  1.00  0.00     0.343 HD
ATOM     13  N   UNL A   1      30.780  27.437  24.595  1.00  0.00    -0.202 N 
ATOM     14  S   UNL A   1      31.420  28.067  26.970  1.00  0.00    -0.020 SA
ATOM     15  C   UNL A   1      31.328  28.666  24.374  1.00  0.00     0.322 C 
ATOM     16  H   UNL A   1      30.233  26.988  23.910  1.00  0.00     0.316 HD
ATOM     17  O   UNL A   1      31.506  29.084  23.238  1.00  0.00    -0.246 OA
BRANCH  10  18
ATOM     18  N   UNL A   1      30.828  24.741  24.916  1.00  0.00    -0.090 NA
ATOM     19  C   UNL A   1      31.421  22.916  23.458  1.00  0.00     0.071 C 
ATOM     20  C   UNL A   1      31.734  23.851  24.606  1.00  0.00     0.088 C 
BRANCH  20  21
ATOM     21  C   UNL A   1      33.108  23.759  25.174  1.00  0.00    -0.000 A 
ATOM     22  C   UNL A   1      34.239  24.067  24.420  1.00  0.00     0.014 A 
ATOM     23  C   UNL A   1      33.254  23.144  26.424  1.00  0.00     0.014 A 
ATOM     24  C   UNL A   1      35.501  23.706  24.901  1.00  0.00     0.047 A 
ATOM     25  C   UNL A   1      34.521  22.783  26.892  1.00  0.00     0.047 A 
ATOM     26  C   UNL A   1      35.653  23.052  26.132  1.00  0.00     0.119 A 
BRANCH  26  27
ATOM     27  O   UNL A   1      36.930  22.679  26.420  1.00  0.00    -0.491 OA
BRANCH  27  28
ATOM     28  C   UNL A   1      37.813  22.082  25.463  1.00  0.00     0.167 C 
ATOM     29  C   UNL A   1      39.265  21.999  25.914  1.00  0.00     0.052 C 
ATOM     30  C   UNL A   1      37.300  20.780  24.866  1.00  0.00     0.052 C 
ENDBRANCH  27  28
ENDBRANCH  26  27
ENDBRANCH  20  21
ENDBRANCH  10  18
ENDBRANCH   8   9
ENDBRANCH   6   8
ENDBRANCH   5   6
ENDBRANCH   4   5
ENDBRANCH   3   4
ENDBRANCH   2   3
ENDBRANCH   1   2
BRANCH   1  31
ATOM     31  C   UNL A   1      36.307  33.893  29.887  1.00  0.00     0.188 C 
BRANCH  31  32
ATOM     32  O   UNL A   1      36.061  33.897  31.282  1.00  0.00    -0.376 OA
BRANCH  32  33
ATOM     33  C   UNL A   1      36.216  32.675  32.003  1.00  0.00     0.202 C 
BRANCH  33  34
ATOM     34  C   UNL A   1      35.871  31.360  31.267  1.00  0.00     0.261 C 
BRANCH  34  35
ATOM     35  O   UNL A   1      36.951  30.715  30.553  1.00  0.00    -0.460 OA
BRANCH  35  36
ATOM     36  C   UNL A   1      37.541  29.648  31.140  1.00  0.00     0.338 C 
ATOM     37  O   UNL A   1      37.038  28.940  32.000  1.00  0.00    -0.246 OA
BRANCH  36  38
ATOM     38  C   UNL A   1      38.763  29.275  30.364  1.00  0.00     0.060 A 
ATOM     39  C   UNL A   1      39.727  28.488  31.014  1.00  0.00     0.016 A 
ATOM     40  C   UNL A   1      38.926  29.573  29.005  1.00  0.00     0.016 A 
ATOM     41  C   UNL A   1      40.870  28.054  30.338  1.00  0.00     0.010 A 
ATOM     42  C   UNL A   1      40.085  29.154  28.331  1.00  0.00     0.010 A 
ATOM     43  C   UNL A   1      41.087  28.434  29.008  1.00  0.00    -0.014 A 
BRANCH  43  44
ATOM     44  C   UNL A   1      42.462  28.316  28.445  1.00  0.00     0.031 A 
ATOM     45  C   UNL A   1      43.392  29.492  28.626  1.00  0.00     0.074 A 
ATOM     46  C   UNL A   1      42.923  27.191  27.864  1.00  0.00     0.049 A 
ATOM     47  N   UNL A   1      44.646  29.626  28.280  1.00  0.00    -0.248 NA
ATOM     48  C   UNL A   1      42.825  30.675  29.294  1.00  0.00     0.031 C 
ATOM     49  C   UNL A   1      42.160  25.961  27.662  1.00  0.00     0.029 A 
ATOM     50  N   UNL A   1      44.163  26.905  27.340  1.00  0.00    -0.354 N 
ATOM     51  C   UNL A   1      45.015  30.904  28.686  1.00  0.00     0.074 A 
ATOM     52  C   UNL A   1      43.843  31.520  29.265  1.00  0.00     0.031 C 
ATOM     53  C   UNL A   1      42.951  25.052  27.061  1.00  0.00     0.029 A 
ATOM     54  C   UNL A   1      44.267  25.640  26.811  1.00  0.00     0.049 A 
ATOM     55  H   UNL A   1      44.908  27.549  27.344  1.00  0.00     0.167 HD
ATOM     56  C   UNL A   1      46.221  31.515  28.598  1.00  0.00     0.031 A 
ATOM     57  C   UNL A   1      45.300  25.029  26.191  1.00  0.00     0.031 A 
ATOM     58  C   UNL A   1      47.390  30.920  28.007  1.00  0.00     0.049 A 
ATOM     59  C   UNL A   1      46.614  25.758  26.034  1.00  0.00     0.074 A 
ATOM     60  C   UNL A   1      48.657  31.461  27.880  1.00  0.00     0.029 A 
ATOM     61  N   UNL A   1      47.433  29.658  27.437  1.00  0.00    -0.354 N 
ATOM     62  N   UNL A   1      46.952  26.957  26.447  1.00  0.00    -0.248 NA
ATOM     63  C   UNL A   1      47.692  25.039  25.338  1.00  0.00     0.031 C 
ATOM     64  C   UNL A   1      49.451  30.552  27.173  1.00  0.00     0.029 A 
ATOM     65  C   UNL A   1      48.699  29.413  26.929  1.00  0.00     0.049 A 
ATOM     66  H   UNL A   1      46.678  29.028  27.398  1.00  0.00     0.167 HD
ATOM     67  C   UNL A   1      48.289  27.121  26.090  1.00  0.00     0.074 A 
ATOM     68  C   UNL A   1      48.702  25.891  25.447  1.00  0.00     0.031 C 
ATOM     69  C   UNL A   1      49.102  28.191  26.279  1.00  0.00     0.031 A 
BRANCH  56  70
ATOM     70  C   UNL A   1      46.321  32.923  29.124  1.00  0.00    -0.014 A 
ATOM     71  C   UNL A   1      46.786  33.188  30.426  1.00  0.00     0.010 A 
ATOM     72  C   UNL A   1      45.964  34.000  28.294  1.00  0.00     0.010 A 
ATOM     73  C   UNL A   1      46.854  34.501  30.898  1.00  0.00     0.020 A 
ATOM     74  C   UNL A   1      46.061  35.318  28.751  1.00  0.00     0.020 A 
ATOM     75  C   UNL A   1      46.490  35.557  30.058  1.00  0.00     0.054 A 
BRANCH  75  76
ATOM     76  S   UNL A   1      46.609  37.253  30.691  1.00  0.00     0.124 S 
ATOM     77  O   UNL A   1      48.027  37.548  30.497  1.00  0.00    -0.237 OA
ATOM     78  O   UNL A   1      45.691  37.983  29.823  1.00  0.00    -0.237 OA
ATOM     79  O   UNL A   1      46.184  37.134  32.084  1.00  0.00    -0.744 OA
ENDBRANCH  75  76
ENDBRANCH  56  70
BRANCH  57  80
ATOM     80  C   UNL A   1      45.141  23.646  25.650  1.00  0.00    -0.014 A 
ATOM     81  C   UNL A   1      44.507  23.420  24.415  1.00  0.00     0.010 A 
ATOM     82  C   UNL A   1      45.600  22.541  26.390  1.00  0.00     0.010 A 
ATOM     83  C   UNL A   1      44.317  22.117  23.941  1.00  0.00     0.020 A 
ATOM     84  C   UNL A   1      45.441  21.238  25.905  1.00  0.00     0.020 A 
ATOM     85  C   UNL A   1      44.790  21.034  24.688  1.00  0.00     0.054 A 
BRANCH  85  86
ATOM     86  S   UNL A   1      44.579  19.355  24.029  1.00  0.00     0.124 S 
ATOM     87  O   UNL A   1      44.462  19.603  22.595  1.00  0.00    -0.237 OA
ATOM     88  O   UNL A   1      45.808  18.693  24.458  1.00  0.00    -0.237 OA
ATOM     89  O   UNL A   1      43.363  18.880  24.683  1.00  0.00    -0.744 OA
ENDBRANCH  85  86
ENDBRANCH  57  80
BRANCH  69  90
ATOM     90  C   UNL A   1      50.536  28.070  25.822  1.00  0.00    -0.014 A 
ATOM     91  C   UNL A   1      50.927  28.422  24.517  1.00  0.00     0.010 A 
ATOM     92  C   UNL A   1      51.517  27.617  26.726  1.00  0.00     0.010 A 
ATOM     93  C   UNL A   1      52.255  28.265  24.107  1.00  0.00     0.020 A 
ATOM     94  C   UNL A   1      52.851  27.494  26.331  1.00  0.00     0.020 A 
ATOM     95  C   UNL A   1      53.208  27.796  25.016  1.00  0.00     0.054 A 
BRANCH  95  96
ATOM     96  S   UNL A   1      54.924  27.600  24.461  1.00  0.00     0.124 S 
ATOM     97  O   UNL A   1      55.653  28.399  25.442  1.00  0.00    -0.237 OA
ATOM     98  O   UNL A   1      55.128  26.156  24.550  1.00  0.00    -0.237 OA
ATOM     99  O   UNL A   1      54.914  28.139  23.104  1.00  0.00    -0.744 OA
ENDBRANCH  95  96
ENDBRANCH  69  90
ENDBRANCH  43  44
ENDBRANCH  36  38
ENDBRANCH  35  36
ENDBRANCH  34  35
ENDBRANCH  33  34
ENDBRANCH  32  33
ENDBRANCH  31  32
ENDBRANCH   1  31
TORSDOF 25
ENDMDL
