MODEL 1
REMARK VINA RESULT:      -9.0      0.000      0.000
REMARK SMILES Cc1cccc(-c2cccc(C(=O)OCCOCCOCCOC(=O)c3ccc(-c4c5nc(c(-c6ccc(S(=O)(=O)[O-])cc6)c6ccc([nH]6)c(-c6ccc(S(=O)(=O)[O-])cc6)c6nc(c(-c7ccc(S(=O)(=O)[O-])cc7)c7ccc4[nH]7)C=C6)C=C5)cc3)c2)c1
REMARK SMILES IDX 19 1 18 2 17 3 16 4 15 5 14 6 12 7 13 8 11 9 7 10 8 11 86 12
REMARK SMILES IDX 9 13 10 14 6 15 1 16 2 17 3 18 87 19 4 20 5 21 20 22 21 23
REMARK SMILES IDX 22 24 23 25 24 26 25 27 26 28 27 29 85 30 28 31 84 32 29 33
REMARK SMILES IDX 30 34 31 35 78 36 32 37 83 38 77 39 79 40 33 41 82 42 76 43
REMARK SMILES IDX 75 44 34 46 64 47 45 48 63 49 46 50 49 51 62 52 80 53 47 54
REMARK SMILES IDX 48 55 61 57 81 58 50 59 35 60 36 61 44 62 37 63 43 64 38 65
REMARK SMILES IDX 39 66 40 67 41 68 42 69 65 70 66 71 74 72 67 73 73 74 68 75
REMARK SMILES IDX 69 76 70 77 71 78 72 79 51 80 52 81 60 82 53 83 59 84 54 85
REMARK SMILES IDX 55 86 56 87 57 88 58 89
REMARK H PARENT 79 45 49 56
REMARK Flexibility Score: inf
ROOT
ATOM      1  C   UNL A   1      45.985  19.704  24.977  1.00  0.00     0.188 C 
ENDROOT
BRANCH   1   2
ATOM      2  C   UNL A   1      44.796  18.791  24.997  1.00  0.00     0.188 C 
BRANCH   2   3
ATOM      3  O   UNL A   1      43.557  19.368  24.669  1.00  0.00    -0.376 OA
BRANCH   3   4
ATOM      4  C   UNL A   1      42.864  19.448  25.907  1.00  0.00     0.202 C 
BRANCH   4   5
ATOM      5  C   UNL A   1      42.560  20.966  26.172  1.00  0.00     0.261 C 
BRANCH   5   6
ATOM      6  O   UNL A   1      42.462  21.886  27.691  1.00  0.00    -0.460 OA
BRANCH   6   7
ATOM      7  C   UNL A   1      42.457  23.278  28.289  1.00  0.00     0.338 C 
ATOM      8  O   UNL A   1      42.965  23.691  29.339  1.00  0.00    -0.246 OA
BRANCH   7   9
ATOM      9  C   UNL A   1      41.953  24.519  27.691  1.00  0.00     0.060 A 
ATOM     10  C   UNL A   1      40.298  26.369  27.996  1.00  0.00    -0.018 A 
ATOM     11  C   UNL A   1      40.227  26.412  26.599  1.00  0.00     0.009 A 
ATOM     12  C   UNL A   1      41.161  25.400  28.525  1.00  0.00     0.024 A 
ATOM     13  C   UNL A   1      40.935  25.502  25.784  1.00  0.00     0.002 A 
ATOM     14  C   UNL A   1      41.783  24.539  26.325  1.00  0.00     0.016 A 
BRANCH  10  15
ATOM     15  C   UNL A   1      39.515  27.324  28.830  1.00  0.00    -0.018 A 
ATOM     16  C   UNL A   1      38.234  27.779  32.443  1.00  0.00     0.044 C 
ATOM     17  C   UNL A   1      38.463  27.984  30.970  1.00  0.00    -0.051 A 
ATOM     18  C   UNL A   1      37.750  28.989  30.310  1.00  0.00     0.003 A 
ATOM     19  C   UNL A   1      39.341  27.162  30.225  1.00  0.00     0.012 A 
ATOM     20  C   UNL A   1      37.941  29.197  28.947  1.00  0.00     0.001 A 
ATOM     21  C   UNL A   1      38.821  28.382  28.221  1.00  0.00     0.009 A 
ENDBRANCH  10  15
ENDBRANCH   7   9
ENDBRANCH   6   7
ENDBRANCH   5   6
ENDBRANCH   4   5
ENDBRANCH   3   4
ENDBRANCH   2   3
ENDBRANCH   1   2
BRANCH   1  22
ATOM     22  O   UNL A   1      45.843  20.859  24.180  1.00  0.00    -0.376 OA
BRANCH  22  23
ATOM     23  C   UNL A   1      45.958  22.084  24.897  1.00  0.00     0.202 C 
BRANCH  23  24
ATOM     24  C   UNL A   1      45.028  23.263  24.467  1.00  0.00     0.261 C 
BRANCH  24  25
ATOM     25  O   UNL A   1      45.598  24.610  24.555  1.00  0.00    -0.460 OA
BRANCH  25  26
ATOM     26  C   UNL A   1      45.460  25.319  25.735  1.00  0.00     0.338 C 
ATOM     27  O   UNL A   1      45.330  24.789  26.812  1.00  0.00    -0.246 OA
BRANCH  26  28
ATOM     28  C   UNL A   1      45.271  26.829  25.488  1.00  0.00     0.060 A 
ATOM     29  C   UNL A   1      45.913  27.723  26.317  1.00  0.00     0.016 A 
ATOM     30  C   UNL A   1      44.041  27.325  25.234  1.00  0.00     0.016 A 
ATOM     31  C   UNL A   1      45.267  28.355  27.412  1.00  0.00     0.010 A 
ATOM     32  C   UNL A   1      43.394  27.971  26.323  1.00  0.00     0.010 A 
ATOM     33  C   UNL A   1      43.932  28.178  27.645  1.00  0.00    -0.014 A 
BRANCH  33  34
ATOM     34  C   UNL A   1      43.355  28.325  29.282  1.00  0.00     0.031 A 
ATOM     35  C   UNL A   1      42.360  29.581  30.140  1.00  0.00     0.074 A 
ATOM     36  C   UNL A   1      43.769  27.201  29.949  1.00  0.00     0.049 A 
ATOM     37  N   UNL A   1      42.642  30.129  31.295  1.00  0.00    -0.248 NA
ATOM     38  C   UNL A   1      41.184  30.587  29.599  1.00  0.00     0.031 C 
ATOM     39  C   UNL A   1      43.530  26.689  31.291  1.00  0.00     0.029 A 
ATOM     40  N   UNL A   1      44.722  26.279  29.471  1.00  0.00    -0.354 N 
ATOM     41  C   UNL A   1      41.640  31.120  31.541  1.00  0.00     0.074 A 
ATOM     42  C   UNL A   1      41.253  31.679  30.325  1.00  0.00     0.031 C 
ATOM     43  C   UNL A   1      44.553  25.858  31.618  1.00  0.00     0.029 A 
ATOM     44  C   UNL A   1      45.534  25.887  30.526  1.00  0.00     0.049 A 
ATOM     45  H   UNL A   1      44.798  25.964  28.542  1.00  0.00     0.167 HD
ATOM     46  C   UNL A   1      40.824  31.048  32.634  1.00  0.00     0.031 A 
ATOM     47  C   UNL A   1      46.780  26.466  30.580  1.00  0.00     0.031 A 
ATOM     48  C   UNL A   1      41.507  30.173  33.559  1.00  0.00     0.049 A 
ATOM     49  C   UNL A   1      46.759  27.540  31.702  1.00  0.00     0.074 A 
ATOM     50  C   UNL A   1      41.365  28.842  33.889  1.00  0.00     0.029 A 
ATOM     51  N   UNL A   1      42.844  30.484  33.768  1.00  0.00    -0.354 N 
ATOM     52  N   UNL A   1      45.691  28.189  32.128  1.00  0.00    -0.248 NA
ATOM     53  C   UNL A   1      47.914  27.802  32.553  1.00  0.00     0.031 C 
ATOM     54  C   UNL A   1      42.692  28.332  34.141  1.00  0.00     0.029 A 
ATOM     55  C   UNL A   1      43.618  29.352  33.961  1.00  0.00     0.049 A 
ATOM     56  H   UNL A   1      43.200  31.402  33.777  1.00  0.00     0.167 HD
ATOM     57  C   UNL A   1      45.963  28.865  33.299  1.00  0.00     0.074 A 
ATOM     58  C   UNL A   1      47.380  28.589  33.506  1.00  0.00     0.031 C 
ATOM     59  C   UNL A   1      45.068  29.564  34.082  1.00  0.00     0.031 A 
BRANCH  46  60
ATOM     60  C   UNL A   1      39.355  31.543  32.704  1.00  0.00    -0.014 A 
ATOM     61  C   UNL A   1      38.979  32.640  31.909  1.00  0.00     0.010 A 
ATOM     62  C   UNL A   1      38.311  31.062  33.551  1.00  0.00     0.010 A 
ATOM     63  C   UNL A   1      37.680  33.203  31.946  1.00  0.00     0.020 A 
ATOM     64  C   UNL A   1      37.007  31.602  33.594  1.00  0.00     0.020 A 
ATOM     65  C   UNL A   1      36.695  32.676  32.783  1.00  0.00     0.054 A 
BRANCH  65  66
ATOM     66  S   UNL A   1      35.028  33.399  32.799  1.00  0.00     0.124 S 
ATOM     67  O   UNL A   1      34.268  32.462  31.975  1.00  0.00    -0.237 OA
ATOM     68  O   UNL A   1      34.699  33.398  34.222  1.00  0.00    -0.237 OA
ATOM     69  O   UNL A   1      35.212  34.724  32.210  1.00  0.00    -0.744 OA
ENDBRANCH  65  66
ENDBRANCH  46  60
BRANCH  47  70
ATOM     70  C   UNL A   1      47.627  26.407  29.272  1.00  0.00    -0.014 A 
ATOM     71  C   UNL A   1      48.362  27.573  28.878  1.00  0.00     0.010 A 
ATOM     72  C   UNL A   1      47.941  25.245  28.532  1.00  0.00     0.010 A 
ATOM     73  C   UNL A   1      49.430  27.560  27.936  1.00  0.00     0.020 A 
ATOM     74  C   UNL A   1      49.014  25.221  27.573  1.00  0.00     0.020 A 
ATOM     75  C   UNL A   1      49.772  26.374  27.292  1.00  0.00     0.054 A 
BRANCH  75  76
ATOM     76  S   UNL A   1      51.442  26.237  26.460  1.00  0.00     0.124 S 
ATOM     77  O   UNL A   1      52.272  27.141  27.247  1.00  0.00    -0.237 OA
ATOM     78  O   UNL A   1      51.780  24.819  26.577  1.00  0.00    -0.237 OA
ATOM     79  O   UNL A   1      51.166  26.667  25.089  1.00  0.00    -0.744 OA
ENDBRANCH  75  76
ENDBRANCH  47  70
BRANCH  59  80
ATOM     80  C   UNL A   1      45.480  30.665  35.077  1.00  0.00    -0.014 A 
ATOM     81  C   UNL A   1      45.370  30.555  36.467  1.00  0.00     0.010 A 
ATOM     82  C   UNL A   1      46.209  31.796  34.604  1.00  0.00     0.010 A 
ATOM     83  C   UNL A   1      45.885  31.544  37.321  1.00  0.00     0.020 A 
ATOM     84  C   UNL A   1      46.841  32.709  35.444  1.00  0.00     0.020 A 
ATOM     85  C   UNL A   1      46.623  32.609  36.803  1.00  0.00     0.054 A 
BRANCH  85  86
ATOM     86  S   UNL A   1      47.287  33.870  37.909  1.00  0.00     0.124 S 
ATOM     87  O   UNL A   1      46.081  34.301  38.613  1.00  0.00    -0.237 OA
ATOM     88  O   UNL A   1      48.253  33.125  38.712  1.00  0.00    -0.237 OA
ATOM     89  O   UNL A   1      47.866  34.857  37.002  1.00  0.00    -0.744 OA
ENDBRANCH  85  86
ENDBRANCH  59  80
ENDBRANCH  33  34
ENDBRANCH  26  28
ENDBRANCH  25  26
ENDBRANCH  24  25
ENDBRANCH  23  24
ENDBRANCH  22  23
ENDBRANCH   1  22
TORSDOF 21
ENDMDL
MODEL 2
REMARK VINA RESULT:      -8.2      4.426     10.000
REMARK SMILES Cc1cccc(-c2cccc(C(=O)OCCOCCOCCOC(=O)c3ccc(-c4c5nc(c(-c6ccc(S(=O)(=O)[O-])cc6)c6ccc([nH]6)c(-c6ccc(S(=O)(=O)[O-])cc6)c6nc(c(-c7ccc(S(=O)(=O)[O-])cc7)c7ccc4[nH]7)C=C6)C=C5)cc3)c2)c1
REMARK SMILES IDX 19 1 18 2 17 3 16 4 15 5 14 6 12 7 13 8 11 9 7 10 8 11 86 12
REMARK SMILES IDX 9 13 10 14 6 15 1 16 2 17 3 18 87 19 4 20 5 21 20 22 21 23
REMARK SMILES IDX 22 24 23 25 24 26 25 27 26 28 27 29 85 30 28 31 84 32 29 33
REMARK SMILES IDX 30 34 31 35 78 36 32 37 83 38 77 39 79 40 33 41 82 42 76 43
REMARK SMILES IDX 75 44 34 46 64 47 45 48 63 49 46 50 49 51 62 52 80 53 47 54
REMARK SMILES IDX 48 55 61 57 81 58 50 59 35 60 36 61 44 62 37 63 43 64 38 65
REMARK SMILES IDX 39 66 40 67 41 68 42 69 65 70 66 71 74 72 67 73 73 74 68 75
REMARK SMILES IDX 69 76 70 77 71 78 72 79 51 80 52 81 60 82 53 83 59 84 54 85
REMARK SMILES IDX 55 86 56 87 57 88 58 89
REMARK H PARENT 79 45 49 56
REMARK Flexibility Score: inf
ROOT
ATOM      1  C   UNL A   1      42.495  23.428  26.618  1.00  0.00     0.188 C 
ENDROOT
BRANCH   1   2
ATOM      2  C   UNL A   1      43.145  22.098  26.384  1.00  0.00     0.188 C 
BRANCH   2   3
ATOM      3  O   UNL A   1      42.506  21.239  25.472  1.00  0.00    -0.376 OA
BRANCH   3   4
ATOM      4  C   UNL A   1      42.229  20.065  26.223  1.00  0.00     0.202 C 
BRANCH   4   5
ATOM      5  C   UNL A   1      40.672  19.863  26.213  1.00  0.00     0.261 C 
BRANCH   5   6
ATOM      6  O   UNL A   1      39.348  20.988  26.594  1.00  0.00    -0.460 OA
BRANCH   6   7
ATOM      7  C   UNL A   1      38.675  22.281  26.185  1.00  0.00     0.338 C 
ATOM      8  O   UNL A   1      39.151  23.417  26.060  1.00  0.00    -0.246 OA
BRANCH   7   9
ATOM      9  C   UNL A   1      37.304  22.476  25.703  1.00  0.00     0.060 A 
ATOM     10  C   UNL A   1      35.327  21.289  24.733  1.00  0.00    -0.018 A 
ATOM     11  C   UNL A   1      35.062  22.481  24.050  1.00  0.00     0.009 A 
ATOM     12  C   UNL A   1      36.467  21.303  25.548  1.00  0.00     0.024 A 
ATOM     13  C   UNL A   1      35.919  23.600  24.135  1.00  0.00     0.002 A 
ATOM     14  C   UNL A   1      37.053  23.595  24.943  1.00  0.00     0.016 A 
BRANCH  10  15
ATOM     15  C   UNL A   1      34.420  20.114  24.599  1.00  0.00    -0.018 A 
ATOM     16  C   UNL A   1      34.529  16.259  24.428  1.00  0.00     0.044 C 
ATOM     17  C   UNL A   1      34.032  17.679  24.393  1.00  0.00    -0.051 A 
ATOM     18  C   UNL A   1      32.708  17.921  24.016  1.00  0.00     0.003 A 
ATOM     19  C   UNL A   1      34.876  18.777  24.684  1.00  0.00     0.012 A 
ATOM     20  C   UNL A   1      32.225  19.226  23.973  1.00  0.00     0.001 A 
ATOM     21  C   UNL A   1      33.068  20.306  24.271  1.00  0.00     0.009 A 
ENDBRANCH  10  15
ENDBRANCH   7   9
ENDBRANCH   6   7
ENDBRANCH   5   6
ENDBRANCH   4   5
ENDBRANCH   3   4
ENDBRANCH   2   3
ENDBRANCH   1   2
BRANCH   1  22
ATOM     22  O   UNL A   1      43.295  24.380  27.283  1.00  0.00    -0.376 OA
BRANCH  22  23
ATOM     23  C   UNL A   1      42.561  25.341  28.035  1.00  0.00     0.202 C 
BRANCH  23  24
ATOM     24  C   UNL A   1      41.011  25.162  28.122  1.00  0.00     0.261 C 
BRANCH  24  25
ATOM     25  O   UNL A   1      40.197  26.270  27.617  1.00  0.00    -0.460 OA
BRANCH  25  26
ATOM     26  C   UNL A   1      40.607  26.934  26.475  1.00  0.00     0.338 C 
ATOM     27  O   UNL A   1      40.912  26.366  25.455  1.00  0.00    -0.246 OA
BRANCH  26  28
ATOM     28  C   UNL A   1      40.835  28.438  26.727  1.00  0.00     0.060 A 
ATOM     29  C   UNL A   1      42.037  28.999  26.353  1.00  0.00     0.016 A 
ATOM     30  C   UNL A   1      40.485  28.987  27.910  1.00  0.00     0.016 A 
ATOM     31  C   UNL A   1      43.100  29.220  27.268  1.00  0.00     0.010 A 
ATOM     32  C   UNL A   1      41.547  29.223  28.826  1.00  0.00     0.010 A 
ATOM     33  C   UNL A   1      42.949  28.970  28.603  1.00  0.00    -0.014 A 
BRANCH  33  34
ATOM     34  C   UNL A   1      44.364  28.550  29.528  1.00  0.00     0.031 A 
ATOM     35  C   UNL A   1      45.760  27.426  29.220  1.00  0.00     0.074 A 
ATOM     36  C   UNL A   1      44.322  29.298  30.676  1.00  0.00     0.049 A 
ATOM     37  N   UNL A   1      46.227  26.533  30.056  1.00  0.00    -0.248 NA
ATOM     38  C   UNL A   1      46.489  26.959  27.828  1.00  0.00     0.031 C 
ATOM     39  C   UNL A   1      45.244  29.475  31.789  1.00  0.00     0.029 A 
ATOM     40  N   UNL A   1      43.202  30.021  31.132  1.00  0.00    -0.354 N 
ATOM     41  C   UNL A   1      47.260  25.821  29.369  1.00  0.00     0.074 A 
ATOM     42  C   UNL A   1      46.927  25.736  28.019  1.00  0.00     0.031 C 
ATOM     43  C   UNL A   1      44.531  29.879  32.872  1.00  0.00     0.029 A 
ATOM     44  C   UNL A   1      43.108  29.880  32.509  1.00  0.00     0.049 A 
ATOM     45  H   UNL A   1      42.587  30.541  30.566  1.00  0.00     0.167 HD
ATOM     46  C   UNL A   1      48.546  25.815  29.832  1.00  0.00     0.031 A 
ATOM     47  C   UNL A   1      42.161  28.994  32.966  1.00  0.00     0.031 A 
ATOM     48  C   UNL A   1      48.448  26.190  31.224  1.00  0.00     0.049 A 
ATOM     49  C   UNL A   1      42.897  27.704  33.425  1.00  0.00     0.074 A 
ATOM     50  C   UNL A   1      48.654  27.371  31.906  1.00  0.00     0.029 A 
ATOM     51  N   UNL A   1      47.495  25.485  31.946  1.00  0.00    -0.354 N 
ATOM     52  N   UNL A   1      44.062  27.279  32.973  1.00  0.00    -0.248 NA
ATOM     53  C   UNL A   1      42.455  26.922  34.574  1.00  0.00     0.031 C 
ATOM     54  C   UNL A   1      47.674  27.416  32.964  1.00  0.00     0.029 A 
ATOM     55  C   UNL A   1      46.889  26.271  32.912  1.00  0.00     0.049 A 
ATOM     56  H   UNL A   1      47.276  24.538  31.791  1.00  0.00     0.167 HD
ATOM     57  C   UNL A   1      44.555  26.265  33.767  1.00  0.00     0.074 A 
ATOM     58  C   UNL A   1      43.493  26.082  34.749  1.00  0.00     0.031 C 
ATOM     59  C   UNL A   1      45.786  25.650  33.661  1.00  0.00     0.031 A 
BRANCH  46  60
ATOM     60  C   UNL A   1      49.825  25.735  28.956  1.00  0.00    -0.014 A 
ATOM     61  C   UNL A   1      51.000  26.342  29.430  1.00  0.00     0.010 A 
ATOM     62  C   UNL A   1      49.955  25.166  27.653  1.00  0.00     0.010 A 
ATOM     63  C   UNL A   1      52.201  26.375  28.680  1.00  0.00     0.020 A 
ATOM     64  C   UNL A   1      51.147  25.178  26.894  1.00  0.00     0.020 A 
ATOM     65  C   UNL A   1      52.273  25.785  27.417  1.00  0.00     0.054 A 
BRANCH  65  66
ATOM     66  S   UNL A   1      53.830  25.818  26.480  1.00  0.00     0.124 S 
ATOM     67  O   UNL A   1      53.686  24.672  25.586  1.00  0.00    -0.237 OA
ATOM     68  O   UNL A   1      53.782  27.129  25.839  1.00  0.00    -0.237 OA
ATOM     69  O   UNL A   1      54.862  25.671  27.505  1.00  0.00    -0.744 OA
ENDBRANCH  65  66
ENDBRANCH  46  60
BRANCH  47  70
ATOM     70  C   UNL A   1      40.719  29.171  32.400  1.00  0.00    -0.014 A 
ATOM     71  C   UNL A   1      40.183  30.497  32.291  1.00  0.00     0.010 A 
ATOM     72  C   UNL A   1      39.945  28.177  31.760  1.00  0.00     0.010 A 
ATOM     73  C   UNL A   1      39.058  30.836  31.486  1.00  0.00     0.020 A 
ATOM     74  C   UNL A   1      38.803  28.507  30.949  1.00  0.00     0.020 A 
ATOM     75  C   UNL A   1      38.374  29.839  30.796  1.00  0.00     0.054 A 
BRANCH  75  76
ATOM     76  S   UNL A   1      37.246  30.320  29.382  1.00  0.00     0.124 S 
ATOM     77  O   UNL A   1      37.112  29.076  28.636  1.00  0.00    -0.237 OA
ATOM     78  O   UNL A   1      36.028  30.784  30.045  1.00  0.00    -0.237 OA
ATOM     79  O   UNL A   1      37.992  31.383  28.708  1.00  0.00    -0.744 OA
ENDBRANCH  75  76
ENDBRANCH  47  70
BRANCH  59  80
ATOM     80  C   UNL A   1      46.095  24.254  34.231  1.00  0.00    -0.014 A 
ATOM     81  C   UNL A   1      47.092  23.990  35.177  1.00  0.00     0.010 A 
ATOM     82  C   UNL A   1      45.204  23.175  33.958  1.00  0.00     0.010 A 
ATOM     83  C   UNL A   1      47.236  22.716  35.751  1.00  0.00     0.020 A 
ATOM     84  C   UNL A   1      45.252  21.951  34.621  1.00  0.00     0.020 A 
ATOM     85  C   UNL A   1      46.310  21.710  35.475  1.00  0.00     0.054 A 
BRANCH  85  86
ATOM     86  S   UNL A   1      46.498  20.080  36.222  1.00  0.00     0.124 S 
ATOM     87  O   UNL A   1      47.941  20.028  36.445  1.00  0.00    -0.237 OA
ATOM     88  O   UNL A   1      45.678  20.176  37.427  1.00  0.00    -0.237 OA
ATOM     89  O   UNL A   1      45.991  19.168  35.200  1.00  0.00    -0.744 OA
ENDBRANCH  85  86
ENDBRANCH  59  80
ENDBRANCH  33  34
ENDBRANCH  26  28
ENDBRANCH  25  26
ENDBRANCH  24  25
ENDBRANCH  23  24
ENDBRANCH  22  23
ENDBRANCH   1  22
TORSDOF 21
ENDMDL
MODEL 3
REMARK VINA RESULT:      -8.0      3.413     11.315
REMARK SMILES Cc1cccc(-c2cccc(C(=O)OCCOCCOCCOC(=O)c3ccc(-c4c5nc(c(-c6ccc(S(=O)(=O)[O-])cc6)c6ccc([nH]6)c(-c6ccc(S(=O)(=O)[O-])cc6)c6nc(c(-c7ccc(S(=O)(=O)[O-])cc7)c7ccc4[nH]7)C=C6)C=C5)cc3)c2)c1
REMARK SMILES IDX 19 1 18 2 17 3 16 4 15 5 14 6 12 7 13 8 11 9 7 10 8 11 86 12
REMARK SMILES IDX 9 13 10 14 6 15 1 16 2 17 3 18 87 19 4 20 5 21 20 22 21 23
REMARK SMILES IDX 22 24 23 25 24 26 25 27 26 28 27 29 85 30 28 31 84 32 29 33
REMARK SMILES IDX 30 34 31 35 78 36 32 37 83 38 77 39 79 40 33 41 82 42 76 43
REMARK SMILES IDX 75 44 34 46 64 47 45 48 63 49 46 50 49 51 62 52 80 53 47 54
REMARK SMILES IDX 48 55 61 57 81 58 50 59 35 60 36 61 44 62 37 63 43 64 38 65
REMARK SMILES IDX 39 66 40 67 41 68 42 69 65 70 66 71 74 72 67 73 73 74 68 75
REMARK SMILES IDX 69 76 70 77 71 78 72 79 51 80 52 81 60 82 53 83 59 84 54 85
REMARK SMILES IDX 55 86 56 87 57 88 58 89
REMARK H PARENT 79 45 49 56
REMARK Flexibility Score: inf
ROOT
ATOM      1  C   UNL A   1      46.493  34.292  27.457  1.00  0.00     0.188 C 
ENDROOT
BRANCH   1   2
ATOM      2  C   UNL A   1      47.138  33.712  26.235  1.00  0.00     0.188 C 
BRANCH   2   3
ATOM      3  O   UNL A   1      48.394  33.106  26.417  1.00  0.00    -0.376 OA
BRANCH   3   4
ATOM      4  C   UNL A   1      48.200  32.202  27.496  1.00  0.00     0.202 C 
BRANCH   4   5
ATOM      5  C   UNL A   1      48.003  30.773  26.875  1.00  0.00     0.261 C 
BRANCH   5   6
ATOM      6  O   UNL A   1      46.527  29.903  26.397  1.00  0.00    -0.460 OA
BRANCH   6   7
ATOM      7  C   UNL A   1      45.953  28.541  26.069  1.00  0.00     0.338 C 
ATOM      8  O   UNL A   1      44.966  28.241  25.386  1.00  0.00    -0.246 OA
BRANCH   7   9
ATOM      9  C   UNL A   1      46.517  27.223  26.377  1.00  0.00     0.060 A 
ATOM     10  C   UNL A   1      48.257  26.049  27.738  1.00  0.00    -0.018 A 
ATOM     11  C   UNL A   1      48.333  25.133  26.682  1.00  0.00     0.009 A 
ATOM     12  C   UNL A   1      47.347  27.100  27.558  1.00  0.00     0.024 A 
ATOM     13  C   UNL A   1      47.585  25.293  25.496  1.00  0.00     0.002 A 
ATOM     14  C   UNL A   1      46.691  26.348  25.329  1.00  0.00     0.016 A 
BRANCH  10  15
ATOM     15  C   UNL A   1      49.082  25.869  28.966  1.00  0.00    -0.018 A 
ATOM     16  C   UNL A   1      48.701  25.386  32.777  1.00  0.00     0.044 C 
ATOM     17  C   UNL A   1      49.305  25.605  31.416  1.00  0.00    -0.051 A 
ATOM     18  C   UNL A   1      50.676  25.859  31.319  1.00  0.00     0.003 A 
ATOM     19  C   UNL A   1      48.520  25.610  30.239  1.00  0.00     0.012 A 
ATOM     20  C   UNL A   1      51.258  26.069  30.073  1.00  0.00     0.001 A 
ATOM     21  C   UNL A   1      50.472  26.063  28.911  1.00  0.00     0.009 A 
ENDBRANCH  10  15
ENDBRANCH   7   9
ENDBRANCH   6   7
ENDBRANCH   5   6
ENDBRANCH   4   5
ENDBRANCH   3   4
ENDBRANCH   2   3
ENDBRANCH   1   2
BRANCH   1  22
ATOM     22  O   UNL A   1      45.329  35.051  27.221  1.00  0.00    -0.376 OA
BRANCH  22  23
ATOM     23  C   UNL A   1      44.127  34.289  27.190  1.00  0.00     0.202 C 
BRANCH  23  24
ATOM     24  C   UNL A   1      43.462  33.930  28.557  1.00  0.00     0.261 C 
BRANCH  24  25
ATOM     25  O   UNL A   1      42.728  35.006  29.229  1.00  0.00    -0.460 OA
BRANCH  25  26
ATOM     26  C   UNL A   1      41.428  35.273  28.838  1.00  0.00     0.338 C 
ATOM     27  O   UNL A   1      41.154  35.963  27.886  1.00  0.00    -0.246 OA
BRANCH  26  28
ATOM     28  C   UNL A   1      40.397  34.779  29.872  1.00  0.00     0.060 A 
ATOM     29  C   UNL A   1      40.814  34.540  31.163  1.00  0.00     0.016 A 
ATOM     30  C   UNL A   1      39.521  33.805  29.543  1.00  0.00     0.016 A 
ATOM     31  C   UNL A   1      41.133  33.240  31.639  1.00  0.00     0.010 A 
ATOM     32  C   UNL A   1      39.828  32.504  30.028  1.00  0.00     0.010 A 
ATOM     33  C   UNL A   1      40.948  32.135  30.856  1.00  0.00    -0.014 A 
BRANCH  33  34
ATOM     34  C   UNL A   1      41.966  30.748  31.136  1.00  0.00     0.031 A 
ATOM     35  C   UNL A   1      43.723  30.412  30.813  1.00  0.00     0.074 A 
ATOM     36  C   UNL A   1      41.186  29.804  31.752  1.00  0.00     0.049 A 
ATOM     37  N   UNL A   1      44.207  29.345  30.230  1.00  0.00    -0.248 NA
ATOM     38  C   UNL A   1      45.027  31.404  30.774  1.00  0.00     0.031 C 
ATOM     39  C   UNL A   1      41.464  28.493  32.321  1.00  0.00     0.029 A 
ATOM     40  N   UNL A   1      39.781  29.851  31.851  1.00  0.00    -0.354 N 
ATOM     41  C   UNL A   1      45.618  29.543  30.105  1.00  0.00     0.074 A 
ATOM     42  C   UNL A   1      45.866  30.898  29.899  1.00  0.00     0.031 C 
ATOM     43  C   UNL A   1      40.311  27.774  32.318  1.00  0.00     0.029 A 
ATOM     44  C   UNL A   1      39.274  28.575  31.654  1.00  0.00     0.049 A 
ATOM     45  H   UNL A   1      39.246  30.658  32.030  1.00  0.00     0.167 HD
ATOM     46  C   UNL A   1      46.509  28.693  30.697  1.00  0.00     0.031 A 
ATOM     47  C   UNL A   1      38.732  28.320  30.417  1.00  0.00     0.031 A 
ATOM     48  C   UNL A   1      45.763  27.482  30.954  1.00  0.00     0.049 A 
ATOM     49  C   UNL A   1      39.748  27.456  29.619  1.00  0.00     0.074 A 
ATOM     50  C   UNL A   1      45.159  26.958  32.077  1.00  0.00     0.029 A 
ATOM     51  N   UNL A   1      45.040  27.009  29.867  1.00  0.00    -0.354 N 
ATOM     52  N   UNL A   1      41.056  27.436  29.804  1.00  0.00    -0.248 NA
ATOM     53  C   UNL A   1      39.326  26.408  28.697  1.00  0.00     0.031 C 
ATOM     54  C   UNL A   1      43.957  26.294  31.632  1.00  0.00     0.029 A 
ATOM     55  C   UNL A   1      43.845  26.424  30.253  1.00  0.00     0.049 A 
ATOM     56  H   UNL A   1      45.340  27.081  28.933  1.00  0.00     0.167 HD
ATOM     57  C   UNL A   1      41.630  26.381  29.128  1.00  0.00     0.074 A 
ATOM     58  C   UNL A   1      40.490  25.780  28.444  1.00  0.00     0.031 C 
ATOM     59  C   UNL A   1      42.952  25.987  29.170  1.00  0.00     0.031 A 
BRANCH  46  60
ATOM     60  C   UNL A   1      47.906  29.083  31.249  1.00  0.00    -0.014 A 
ATOM     61  C   UNL A   1      48.954  29.289  30.335  1.00  0.00     0.010 A 
ATOM     62  C   UNL A   1      48.302  29.198  32.616  1.00  0.00     0.010 A 
ATOM     63  C   UNL A   1      50.277  29.589  30.743  1.00  0.00     0.020 A 
ATOM     64  C   UNL A   1      49.613  29.509  33.042  1.00  0.00     0.020 A 
ATOM     65  C   UNL A   1      50.600  29.706  32.095  1.00  0.00     0.054 A 
BRANCH  65  66
ATOM     66  S   UNL A   1      52.299  30.115  32.597  1.00  0.00     0.124 S 
ATOM     67  O   UNL A   1      52.137  30.470  34.004  1.00  0.00    -0.237 OA
ATOM     68  O   UNL A   1      53.012  28.867  32.338  1.00  0.00    -0.237 OA
ATOM     69  O   UNL A   1      52.666  31.228  31.722  1.00  0.00    -0.744 OA
ENDBRANCH  65  66
ENDBRANCH  46  60
BRANCH  47  70
ATOM     70  C   UNL A   1      37.673  29.343  29.902  1.00  0.00    -0.014 A 
ATOM     71  C   UNL A   1      36.658  29.794  30.809  1.00  0.00     0.010 A 
ATOM     72  C   UNL A   1      37.729  30.063  28.688  1.00  0.00     0.010 A 
ATOM     73  C   UNL A   1      35.865  30.958  30.600  1.00  0.00     0.020 A 
ATOM     74  C   UNL A   1      36.929  31.238  28.463  1.00  0.00     0.020 A 
ATOM     75  C   UNL A   1      36.013  31.696  29.430  1.00  0.00     0.054 A 
BRANCH  75  76
ATOM     76  S   UNL A   1      35.364  33.451  29.370  1.00  0.00     0.124 S 
ATOM     77  O   UNL A   1      36.461  34.182  28.750  1.00  0.00    -0.237 OA
ATOM     78  O   UNL A   1      34.148  33.349  28.564  1.00  0.00    -0.237 OA
ATOM     79  O   UNL A   1      35.114  33.760  30.778  1.00  0.00    -0.744 OA
ENDBRANCH  75  76
ENDBRANCH  47  70
BRANCH  59  80
ATOM     80  C   UNL A   1      43.627  25.141  28.074  1.00  0.00    -0.014 A 
ATOM     81  C   UNL A   1      44.501  24.078  28.323  1.00  0.00     0.010 A 
ATOM     82  C   UNL A   1      43.205  25.288  26.720  1.00  0.00     0.010 A 
ATOM     83  C   UNL A   1      44.980  23.267  27.282  1.00  0.00     0.020 A 
ATOM     84  C   UNL A   1      43.565  24.408  25.703  1.00  0.00     0.020 A 
ATOM     85  C   UNL A   1      44.502  23.433  25.981  1.00  0.00     0.054 A 
BRANCH  85  86
ATOM     86  S   UNL A   1      45.117  22.381  24.652  1.00  0.00     0.124 S 
ATOM     87  O   UNL A   1      46.271  21.752  25.290  1.00  0.00    -0.237 OA
ATOM     88  O   UNL A   1      43.986  21.497  24.385  1.00  0.00    -0.237 OA
ATOM     89  O   UNL A   1      45.432  23.323  23.581  1.00  0.00    -0.744 OA
ENDBRANCH  85  86
ENDBRANCH  59  80
ENDBRANCH  33  34
ENDBRANCH  26  28
ENDBRANCH  25  26
ENDBRANCH  24  25
ENDBRANCH  23  24
ENDBRANCH  22  23
ENDBRANCH   1  22
TORSDOF 21
ENDMDL
