MODEL 1
REMARK VINA RESULT:      -8.1      0.000      0.000
REMARK SMILES Cc1nsc(N(C)C(=O)[C@@H](C)CCC[C@H](C)[NH3+])c1C(=O)OCCOCCOCCOC(=O)c1ccc(-c2c3nc(c(-c4ccc(S(=O)(=O)[O-])cc4)c4ccc([nH]4)c(-c4ccc(S(=O)(=O)[O-])cc4)c4nc(c(-c5ccc(S(=O)(=O)[O-])cc5)c5ccc2[nH]5)C=C4)C=C3)cc1
REMARK SMILES IDX 23 1 22 2 21 3 19 4 20 5 18 6 1 7 2 8 3 9 4 10 5 11 6 12
REMARK SMILES IDX 7 13 8 14 9 15 10 16 11 17 12 18 13 19 14 20 15 21 16 22
REMARK SMILES IDX 17 23 24 27 25 28 26 29 27 30 28 31 29 32 30 33 31 34 32 35
REMARK SMILES IDX 33 36 34 37 92 38 35 39 91 40 36 41 37 42 38 43 85 44 39 45
REMARK SMILES IDX 90 46 84 47 86 48 40 49 89 50 83 51 82 52 41 54 71 55 52 56
REMARK SMILES IDX 70 57 53 58 56 59 69 60 87 61 54 62 55 63 68 65 88 66 57 67
REMARK SMILES IDX 42 68 43 69 51 70 44 71 50 72 45 73 46 74 47 75 48 76 49 77
REMARK SMILES IDX 72 78 73 79 81 80 74 81 80 82 75 83 76 84 77 85 78 86 79 87
REMARK SMILES IDX 58 88 59 89 67 90 60 91 66 92 61 93 62 94 63 95 64 96 65 97
REMARK H PARENT 17 24 17 25 17 26 86 53 56 64
REMARK Flexibility Score: inf
ROOT
ATOM      1  C   UNL A   1      39.457  28.924  27.928  1.00  0.00     0.202 C 
ENDROOT
BRANCH   1   2
ATOM      2  C   UNL A   1      38.913  29.398  29.282  1.00  0.00     0.261 C 
BRANCH   2   3
ATOM      3  O   UNL A   1      39.157  30.798  29.468  1.00  0.00    -0.460 OA
BRANCH   3   4
ATOM      4  C   UNL A   1      39.809  31.230  30.582  1.00  0.00     0.343 C 
ATOM      5  O   UNL A   1      40.758  30.680  31.102  1.00  0.00    -0.246 OA
BRANCH   4   6
ATOM      6  C   UNL A   1      39.121  32.397  31.127  1.00  0.00     0.117 A 
ATOM      7  C   UNL A   1      41.342  33.776  31.376  1.00  0.00     0.069 C 
ATOM      8  C   UNL A   1      39.859  33.609  31.444  1.00  0.00     0.068 A 
ATOM      9  N   UNL A   1      39.142  34.639  31.875  1.00  0.00    -0.195 NA
ATOM     10  S   UNL A   1      37.582  34.171  32.023  1.00  0.00    -0.017 S 
ATOM     11  C   UNL A   1      37.785  32.519  31.534  1.00  0.00     0.133 A 
BRANCH  11  12
ATOM     12  N   UNL A   1      36.643  31.664  31.705  1.00  0.00    -0.305 N 
ATOM     13  C   UNL A   1      36.738  30.429  32.492  1.00  0.00     0.154 C 
BRANCH  12  14
ATOM     14  C   UNL A   1      35.469  31.971  31.019  1.00  0.00     0.230 C 
ATOM     15  O   UNL A   1      34.377  32.090  31.582  1.00  0.00    -0.274 OA
BRANCH  14  16
ATOM     16  C   UNL A   1      35.419  32.164  29.488  1.00  0.00     0.076 C 
ATOM     17  C   UNL A   1      35.461  30.909  28.617  1.00  0.00     0.018 C 
BRANCH  16  18
ATOM     18  C   UNL A   1      34.333  33.166  29.065  1.00  0.00     0.013 C 
BRANCH  18  19
ATOM     19  C   UNL A   1      34.441  34.539  29.743  1.00  0.00     0.007 C 
BRANCH  19  20
ATOM     20  C   UNL A   1      33.147  35.349  29.923  1.00  0.00     0.064 C 
BRANCH  20  21
ATOM     21  C   UNL A   1      33.124  36.704  29.192  1.00  0.00     0.177 C 
ATOM     22  C   UNL A   1      34.188  36.823  28.102  1.00  0.00     0.075 C 
BRANCH  21  23
ATOM     23  N   UNL A   1      33.378  37.782  30.156  1.00  0.00    -0.355 N 
ATOM     24  H   UNL A   1      33.597  38.644  29.655  1.00  0.00     0.344 HD
ATOM     25  H   UNL A   1      34.165  37.527  30.752  1.00  0.00     0.344 HD
ATOM     26  H   UNL A   1      32.548  37.927  30.731  1.00  0.00     0.344 HD
ENDBRANCH  21  23
ENDBRANCH  20  21
ENDBRANCH  19  20
ENDBRANCH  18  19
ENDBRANCH  16  18
ENDBRANCH  14  16
ENDBRANCH  12  14
ENDBRANCH  11  12
ENDBRANCH   4   6
ENDBRANCH   3   4
ENDBRANCH   2   3
ENDBRANCH   1   2
BRANCH   1  27
ATOM     27  O   UNL A   1      40.816  28.490  27.961  1.00  0.00    -0.376 OA
BRANCH  27  28
ATOM     28  C   UNL A   1      41.020  27.117  27.663  1.00  0.00     0.188 C 
BRANCH  28  29
ATOM     29  C   UNL A   1      40.486  26.105  28.701  1.00  0.00     0.188 C 
BRANCH  29  30
ATOM     30  O   UNL A   1      39.388  25.242  28.432  1.00  0.00    -0.376 OA
BRANCH  30  31
ATOM     31  C   UNL A   1      39.378  24.394  27.293  1.00  0.00     0.202 C 
BRANCH  31  32
ATOM     32  C   UNL A   1      40.007  23.009  27.398  1.00  0.00     0.261 C 
BRANCH  32  33
ATOM     33  O   UNL A   1      40.248  22.422  26.130  1.00  0.00    -0.460 OA
BRANCH  33  34
ATOM     34  C   UNL A   1      41.316  21.597  26.097  1.00  0.00     0.338 C 
ATOM     35  O   UNL A   1      41.336  20.404  26.350  1.00  0.00    -0.246 OA
BRANCH  34  36
ATOM     36  C   UNL A   1      42.510  22.371  25.731  1.00  0.00     0.060 A 
ATOM     37  C   UNL A   1      43.737  21.773  26.023  1.00  0.00     0.016 A 
ATOM     38  C   UNL A   1      42.388  23.740  25.449  1.00  0.00     0.016 A 
ATOM     39  C   UNL A   1      44.770  22.595  26.396  1.00  0.00     0.010 A 
ATOM     40  C   UNL A   1      43.414  24.562  25.834  1.00  0.00     0.010 A 
ATOM     41  C   UNL A   1      44.521  23.967  26.437  1.00  0.00    -0.014 A 
BRANCH  41  42
ATOM     42  C   UNL A   1      45.315  24.743  27.363  1.00  0.00     0.031 A 
ATOM     43  C   UNL A   1      44.897  24.673  28.767  1.00  0.00     0.074 A 
ATOM     44  C   UNL A   1      46.412  25.393  26.931  1.00  0.00     0.049 A 
ATOM     45  N   UNL A   1      44.414  25.622  29.493  1.00  0.00    -0.248 NA
ATOM     46  C   UNL A   1      44.890  23.348  29.398  1.00  0.00     0.031 C 
ATOM     47  C   UNL A   1      47.073  25.270  25.625  1.00  0.00     0.029 A 
ATOM     48  N   UNL A   1      47.257  26.194  27.632  1.00  0.00    -0.354 N 
ATOM     49  C   UNL A   1      44.211  25.059  30.743  1.00  0.00     0.074 A 
ATOM     50  C   UNL A   1      44.329  23.632  30.571  1.00  0.00     0.031 C 
ATOM     51  C   UNL A   1      48.330  25.754  25.725  1.00  0.00     0.029 A 
ATOM     52  C   UNL A   1      48.513  26.312  27.056  1.00  0.00     0.049 A 
ATOM     53  H   UNL A   1      47.002  26.646  28.467  1.00  0.00     0.167 HD
ATOM     54  C   UNL A   1      44.197  25.806  31.878  1.00  0.00     0.031 A 
ATOM     55  C   UNL A   1      49.644  26.713  27.686  1.00  0.00     0.031 A 
ATOM     56  C   UNL A   1      44.115  27.216  31.600  1.00  0.00     0.049 A 
ATOM     57  C   UNL A   1      49.233  27.446  28.914  1.00  0.00     0.074 A 
ATOM     58  C   UNL A   1      43.191  28.028  30.975  1.00  0.00     0.029 A 
ATOM     59  N   UNL A   1      45.283  27.942  31.673  1.00  0.00    -0.354 N 
ATOM     60  N   UNL A   1      48.608  28.591  28.897  1.00  0.00    -0.248 NA
ATOM     61  C   UNL A   1      49.118  26.704  30.163  1.00  0.00     0.031 C 
ATOM     62  C   UNL A   1      43.959  29.031  30.319  1.00  0.00     0.029 A 
ATOM     63  C   UNL A   1      45.308  28.799  30.602  1.00  0.00     0.049 A 
ATOM     64  H   UNL A   1      45.975  27.860  32.368  1.00  0.00     0.167 HD
ATOM     65  C   UNL A   1      47.695  28.522  29.943  1.00  0.00     0.074 A 
ATOM     66  C   UNL A   1      48.135  27.392  30.753  1.00  0.00     0.031 C 
ATOM     67  C   UNL A   1      46.510  29.202  29.898  1.00  0.00     0.031 A 
BRANCH  54  68
ATOM     68  C   UNL A   1      44.638  25.279  33.216  1.00  0.00    -0.014 A 
ATOM     69  C   UNL A   1      46.009  25.062  33.443  1.00  0.00     0.010 A 
ATOM     70  C   UNL A   1      43.735  24.740  34.158  1.00  0.00     0.010 A 
ATOM     71  C   UNL A   1      46.447  24.279  34.517  1.00  0.00     0.020 A 
ATOM     72  C   UNL A   1      44.164  24.006  35.260  1.00  0.00     0.020 A 
ATOM     73  C   UNL A   1      45.517  23.740  35.406  1.00  0.00     0.054 A 
BRANCH  73  74
ATOM     74  S   UNL A   1      46.071  22.606  36.699  1.00  0.00     0.124 S 
ATOM     75  O   UNL A   1      45.547  21.331  36.217  1.00  0.00    -0.237 OA
ATOM     76  O   UNL A   1      47.522  22.759  36.647  1.00  0.00    -0.237 OA
ATOM     77  O   UNL A   1      45.437  23.129  37.906  1.00  0.00    -0.744 OA
ENDBRANCH  73  74
ENDBRANCH  54  68
BRANCH  55  78
ATOM     78  C   UNL A   1      51.010  26.171  27.462  1.00  0.00    -0.014 A 
ATOM     79  C   UNL A   1      51.305  25.365  26.348  1.00  0.00     0.010 A 
ATOM     80  C   UNL A   1      52.101  26.640  28.228  1.00  0.00     0.010 A 
ATOM     81  C   UNL A   1      52.636  25.080  25.993  1.00  0.00     0.020 A 
ATOM     82  C   UNL A   1      53.425  26.348  27.894  1.00  0.00     0.020 A 
ATOM     83  C   UNL A   1      53.689  25.586  26.762  1.00  0.00     0.054 A 
BRANCH  83  84
ATOM     84  S   UNL A   1      55.404  25.355  26.212  1.00  0.00     0.124 S 
ATOM     85  O   UNL A   1      55.228  24.850  24.853  1.00  0.00    -0.237 OA
ATOM     86  O   UNL A   1      55.956  26.701  26.322  1.00  0.00    -0.237 OA
ATOM     87  O   UNL A   1      55.944  24.388  27.166  1.00  0.00    -0.744 OA
ENDBRANCH  83  84
ENDBRANCH  55  78
BRANCH  67  88
ATOM     88  C   UNL A   1      46.325  30.262  28.834  1.00  0.00    -0.014 A 
ATOM     89  C   UNL A   1      45.683  30.008  27.606  1.00  0.00     0.010 A 
ATOM     90  C   UNL A   1      46.630  31.593  29.168  1.00  0.00     0.010 A 
ATOM     91  C   UNL A   1      45.365  31.058  26.733  1.00  0.00     0.020 A 
ATOM     92  C   UNL A   1      46.300  32.646  28.309  1.00  0.00     0.020 A 
ATOM     93  C   UNL A   1      45.670  32.373  27.094  1.00  0.00     0.054 A 
BRANCH  93  94
ATOM     94  S   UNL A   1      45.166  33.734  26.004  1.00  0.00     0.124 S 
ATOM     95  O   UNL A   1      46.391  34.521  25.895  1.00  0.00    -0.237 OA
ATOM     96  O   UNL A   1      44.753  33.040  24.786  1.00  0.00    -0.237 OA
ATOM     97  O   UNL A   1      44.078  34.381  26.735  1.00  0.00    -0.744 OA
ENDBRANCH  93  94
ENDBRANCH  67  88
ENDBRANCH  41  42
ENDBRANCH  34  36
ENDBRANCH  33  34
ENDBRANCH  32  33
ENDBRANCH  31  32
ENDBRANCH  30  31
ENDBRANCH  29  30
ENDBRANCH  28  29
ENDBRANCH  27  28
ENDBRANCH   1  27
TORSDOF 28
ENDMDL
MODEL 2
REMARK VINA RESULT:      -7.4      3.187      4.743
REMARK SMILES Cc1nsc(N(C)C(=O)[C@@H](C)CCC[C@H](C)[NH3+])c1C(=O)OCCOCCOCCOC(=O)c1ccc(-c2c3nc(c(-c4ccc(S(=O)(=O)[O-])cc4)c4ccc([nH]4)c(-c4ccc(S(=O)(=O)[O-])cc4)c4nc(c(-c5ccc(S(=O)(=O)[O-])cc5)c5ccc2[nH]5)C=C4)C=C3)cc1
REMARK SMILES IDX 23 1 22 2 21 3 19 4 20 5 18 6 1 7 2 8 3 9 4 10 5 11 6 12
REMARK SMILES IDX 7 13 8 14 9 15 10 16 11 17 12 18 13 19 14 20 15 21 16 22
REMARK SMILES IDX 17 23 24 27 25 28 26 29 27 30 28 31 29 32 30 33 31 34 32 35
REMARK SMILES IDX 33 36 34 37 92 38 35 39 91 40 36 41 37 42 38 43 85 44 39 45
REMARK SMILES IDX 90 46 84 47 86 48 40 49 89 50 83 51 82 52 41 54 71 55 52 56
REMARK SMILES IDX 70 57 53 58 56 59 69 60 87 61 54 62 55 63 68 65 88 66 57 67
REMARK SMILES IDX 42 68 43 69 51 70 44 71 50 72 45 73 46 74 47 75 48 76 49 77
REMARK SMILES IDX 72 78 73 79 81 80 74 81 80 82 75 83 76 84 77 85 78 86 79 87
REMARK SMILES IDX 58 88 59 89 67 90 60 91 66 92 61 93 62 94 63 95 64 96 65 97
REMARK H PARENT 17 24 17 25 17 26 86 53 56 64
REMARK Flexibility Score: inf
ROOT
ATOM      1  C   UNL A   1      38.058  28.912  28.241  1.00  0.00     0.202 C 
ENDROOT
BRANCH   1   2
ATOM      2  C   UNL A   1      37.561  30.363  28.290  1.00  0.00     0.261 C 
BRANCH   2   3
ATOM      3  O   UNL A   1      37.741  30.920  29.598  1.00  0.00    -0.460 OA
BRANCH   3   4
ATOM      4  C   UNL A   1      37.610  32.262  29.787  1.00  0.00     0.343 C 
ATOM      5  O   UNL A   1      38.378  33.110  29.384  1.00  0.00    -0.246 OA
BRANCH   4   6
ATOM      6  C   UNL A   1      36.461  32.522  30.650  1.00  0.00     0.117 A 
ATOM      7  C   UNL A   1      35.374  34.201  28.950  1.00  0.00     0.069 C 
ATOM      8  C   UNL A   1      35.389  33.400  30.211  1.00  0.00     0.068 A 
ATOM      9  N   UNL A   1      34.356  33.528  31.034  1.00  0.00    -0.195 NA
ATOM     10  S   UNL A   1      34.671  32.697  32.407  1.00  0.00    -0.017 S 
ATOM     11  C   UNL A   1      36.253  32.127  31.979  1.00  0.00     0.133 A 
BRANCH  11  12
ATOM     12  N   UNL A   1      36.997  31.481  33.025  1.00  0.00    -0.305 N 
ATOM     13  C   UNL A   1      37.297  30.045  32.960  1.00  0.00     0.154 C 
BRANCH  12  14
ATOM     14  C   UNL A   1      37.335  32.218  34.159  1.00  0.00     0.230 C 
ATOM     15  O   UNL A   1      36.500  32.822  34.839  1.00  0.00    -0.274 OA
BRANCH  14  16
ATOM     16  C   UNL A   1      38.789  32.371  34.657  1.00  0.00     0.076 C 
ATOM     17  C   UNL A   1      39.320  31.311  35.621  1.00  0.00     0.018 C 
BRANCH  16  18
ATOM     18  C   UNL A   1      39.761  32.700  33.513  1.00  0.00     0.013 C 
BRANCH  18  19
ATOM     19  C   UNL A   1      41.128  32.009  33.626  1.00  0.00     0.007 C 
BRANCH  19  20
ATOM     20  C   UNL A   1      41.832  31.603  32.321  1.00  0.00     0.064 C 
BRANCH  20  21
ATOM     21  C   UNL A   1      40.997  31.808  31.044  1.00  0.00     0.177 C 
ATOM     22  C   UNL A   1      41.179  30.694  30.015  1.00  0.00     0.075 C 
BRANCH  21  23
ATOM     23  N   UNL A   1      41.402  33.062  30.394  1.00  0.00    -0.355 N 
ATOM     24  H   UNL A   1      40.961  33.127  29.475  1.00  0.00     0.344 HD
ATOM     25  H   UNL A   1      42.416  33.076  30.286  1.00  0.00     0.344 HD
ATOM     26  H   UNL A   1      41.109  33.853  30.967  1.00  0.00     0.344 HD
ENDBRANCH  21  23
ENDBRANCH  20  21
ENDBRANCH  19  20
ENDBRANCH  18  19
ENDBRANCH  16  18
ENDBRANCH  14  16
ENDBRANCH  12  14
ENDBRANCH  11  12
ENDBRANCH   4   6
ENDBRANCH   3   4
ENDBRANCH   2   3
ENDBRANCH   1   2
BRANCH   1  27
ATOM     27  O   UNL A   1      38.434  28.378  29.509  1.00  0.00    -0.376 OA
BRANCH  27  28
ATOM     28  C   UNL A   1      39.551  27.502  29.490  1.00  0.00     0.188 C 
BRANCH  28  29
ATOM     29  C   UNL A   1      39.354  26.160  28.751  1.00  0.00     0.188 C 
BRANCH  29  30
ATOM     30  O   UNL A   1      39.630  26.003  27.365  1.00  0.00    -0.376 OA
BRANCH  30  31
ATOM     31  C   UNL A   1      40.961  26.035  26.869  1.00  0.00     0.202 C 
BRANCH  31  32
ATOM     32  C   UNL A   1      41.735  24.727  26.746  1.00  0.00     0.261 C 
BRANCH  32  33
ATOM     33  O   UNL A   1      42.192  24.485  25.425  1.00  0.00    -0.460 OA
BRANCH  33  34
ATOM     34  C   UNL A   1      42.934  23.366  25.293  1.00  0.00     0.338 C 
ATOM     35  O   UNL A   1      42.538  22.244  25.026  1.00  0.00    -0.246 OA
BRANCH  34  36
ATOM     36  C   UNL A   1      44.343  23.690  25.558  1.00  0.00     0.060 A 
ATOM     37  C   UNL A   1      44.992  22.871  26.484  1.00  0.00     0.016 A 
ATOM     38  C   UNL A   1      44.850  24.939  25.172  1.00  0.00     0.016 A 
ATOM     39  C   UNL A   1      45.936  23.453  27.291  1.00  0.00     0.010 A 
ATOM     40  C   UNL A   1      45.784  25.525  25.985  1.00  0.00     0.010 A 
ATOM     41  C   UNL A   1      46.190  24.813  27.113  1.00  0.00    -0.014 A 
BRANCH  41  42
ATOM     42  C   UNL A   1      46.664  25.542  28.267  1.00  0.00     0.031 A 
ATOM     43  C   UNL A   1      45.625  26.011  29.189  1.00  0.00     0.074 A 
ATOM     44  C   UNL A   1      47.986  25.672  28.487  1.00  0.00     0.049 A 
ATOM     45  N   UNL A   1      45.291  27.229  29.445  1.00  0.00    -0.248 NA
ATOM     46  C   UNL A   1      44.760  24.993  29.797  1.00  0.00     0.031 C 
ATOM     47  C   UNL A   1      49.084  24.982  27.797  1.00  0.00     0.029 A 
ATOM     48  N   UNL A   1      48.620  26.343  29.485  1.00  0.00    -0.354 N 
ATOM     49  C   UNL A   1      44.286  27.140  30.397  1.00  0.00     0.074 A 
ATOM     50  C   UNL A   1      43.871  25.759  30.424  1.00  0.00     0.031 C 
ATOM     51  C   UNL A   1      50.197  25.066  28.557  1.00  0.00     0.029 A 
ATOM     52  C   UNL A   1      49.913  25.900  29.715  1.00  0.00     0.049 A 
ATOM     53  H   UNL A   1      48.201  27.072  29.994  1.00  0.00     0.167 HD
ATOM     54  C   UNL A   1      44.027  28.150  31.269  1.00  0.00     0.031 A 
ATOM     55  C   UNL A   1      50.637  26.101  30.844  1.00  0.00     0.031 A 
ATOM     56  C   UNL A   1      44.685  29.374  30.895  1.00  0.00     0.049 A 
ATOM     57  C   UNL A   1      50.021  27.245  31.568  1.00  0.00     0.074 A 
ATOM     58  C   UNL A   1      44.621  30.213  29.801  1.00  0.00     0.029 A 
ATOM     59  N   UNL A   1      45.844  29.698  31.564  1.00  0.00    -0.354 N 
ATOM     60  N   UNL A   1      50.025  28.470  31.119  1.00  0.00    -0.248 NA
ATOM     61  C   UNL A   1      49.011  26.967  32.581  1.00  0.00     0.031 C 
ATOM     62  C   UNL A   1      45.947  30.700  29.626  1.00  0.00     0.029 A 
ATOM     63  C   UNL A   1      46.745  30.159  30.638  1.00  0.00     0.049 A 
ATOM     64  H   UNL A   1      45.998  29.612  32.533  1.00  0.00     0.167 HD
ATOM     65  C   UNL A   1      48.783  28.988  31.467  1.00  0.00     0.074 A 
ATOM     66  C   UNL A   1      48.253  28.062  32.462  1.00  0.00     0.031 C 
ATOM     67  C   UNL A   1      48.179  29.955  30.711  1.00  0.00     0.031 A 
BRANCH  54  68
ATOM     68  C   UNL A   1      43.488  27.923  32.654  1.00  0.00    -0.014 A 
ATOM     69  C   UNL A   1      44.297  27.265  33.599  1.00  0.00     0.010 A 
ATOM     70  C   UNL A   1      42.125  28.093  32.980  1.00  0.00     0.010 A 
ATOM     71  C   UNL A   1      43.750  26.737  34.774  1.00  0.00     0.020 A 
ATOM     72  C   UNL A   1      41.582  27.619  34.171  1.00  0.00     0.020 A 
ATOM     73  C   UNL A   1      42.390  26.902  35.039  1.00  0.00     0.054 A 
BRANCH  73  74
ATOM     74  S   UNL A   1      41.657  26.089  36.477  1.00  0.00     0.124 S 
ATOM     75  O   UNL A   1      42.825  25.466  37.092  1.00  0.00    -0.237 OA
ATOM     76  O   UNL A   1      41.075  27.211  37.207  1.00  0.00    -0.237 OA
ATOM     77  O   UNL A   1      40.689  25.165  35.890  1.00  0.00    -0.744 OA
ENDBRANCH  73  74
ENDBRANCH  54  68
BRANCH  55  78
ATOM     78  C   UNL A   1      51.568  25.126  31.471  1.00  0.00    -0.014 A 
ATOM     79  C   UNL A   1      52.923  25.439  31.679  1.00  0.00     0.010 A 
ATOM     80  C   UNL A   1      51.071  23.956  32.087  1.00  0.00     0.010 A 
ATOM     81  C   UNL A   1      53.732  24.637  32.507  1.00  0.00     0.020 A 
ATOM     82  C   UNL A   1      51.870  23.145  32.895  1.00  0.00     0.020 A 
ATOM     83  C   UNL A   1      53.194  23.501  33.120  1.00  0.00     0.054 A 
BRANCH  83  84
ATOM     84  S   UNL A   1      54.190  22.561  34.313  1.00  0.00     0.124 S 
ATOM     85  O   UNL A   1      53.841  21.181  33.990  1.00  0.00    -0.237 OA
ATOM     86  O   UNL A   1      55.552  22.966  33.977  1.00  0.00    -0.237 OA
ATOM     87  O   UNL A   1      53.711  23.034  35.611  1.00  0.00    -0.744 OA
ENDBRANCH  83  84
ENDBRANCH  55  78
BRANCH  67  88
ATOM     88  C   UNL A   1      48.999  30.666  29.658  1.00  0.00    -0.014 A 
ATOM     89  C   UNL A   1      49.799  31.790  29.941  1.00  0.00     0.010 A 
ATOM     90  C   UNL A   1      49.118  30.060  28.394  1.00  0.00     0.010 A 
ATOM     91  C   UNL A   1      50.685  32.300  28.982  1.00  0.00     0.020 A 
ATOM     92  C   UNL A   1      50.013  30.553  27.440  1.00  0.00     0.020 A 
ATOM     93  C   UNL A   1      50.791  31.673  27.738  1.00  0.00     0.054 A 
BRANCH  93  94
ATOM     94  S   UNL A   1      52.012  32.279  26.539  1.00  0.00     0.124 S 
ATOM     95  O   UNL A   1      52.295  33.625  27.029  1.00  0.00    -0.237 OA
ATOM     96  O   UNL A   1      53.104  31.317  26.671  1.00  0.00    -0.237 OA
ATOM     97  O   UNL A   1      51.303  32.222  25.261  1.00  0.00    -0.744 OA
ENDBRANCH  93  94
ENDBRANCH  67  88
ENDBRANCH  41  42
ENDBRANCH  34  36
ENDBRANCH  33  34
ENDBRANCH  32  33
ENDBRANCH  31  32
ENDBRANCH  30  31
ENDBRANCH  29  30
ENDBRANCH  28  29
ENDBRANCH  27  28
ENDBRANCH   1  27
TORSDOF 28
ENDMDL
MODEL 3
REMARK VINA RESULT:      -6.9      7.611     13.629
REMARK SMILES Cc1nsc(N(C)C(=O)[C@@H](C)CCC[C@H](C)[NH3+])c1C(=O)OCCOCCOCCOC(=O)c1ccc(-c2c3nc(c(-c4ccc(S(=O)(=O)[O-])cc4)c4ccc([nH]4)c(-c4ccc(S(=O)(=O)[O-])cc4)c4nc(c(-c5ccc(S(=O)(=O)[O-])cc5)c5ccc2[nH]5)C=C4)C=C3)cc1
REMARK SMILES IDX 23 1 22 2 21 3 19 4 20 5 18 6 1 7 2 8 3 9 4 10 5 11 6 12
REMARK SMILES IDX 7 13 8 14 9 15 10 16 11 17 12 18 13 19 14 20 15 21 16 22
REMARK SMILES IDX 17 23 24 27 25 28 26 29 27 30 28 31 29 32 30 33 31 34 32 35
REMARK SMILES IDX 33 36 34 37 92 38 35 39 91 40 36 41 37 42 38 43 85 44 39 45
REMARK SMILES IDX 90 46 84 47 86 48 40 49 89 50 83 51 82 52 41 54 71 55 52 56
REMARK SMILES IDX 70 57 53 58 56 59 69 60 87 61 54 62 55 63 68 65 88 66 57 67
REMARK SMILES IDX 42 68 43 69 51 70 44 71 50 72 45 73 46 74 47 75 48 76 49 77
REMARK SMILES IDX 72 78 73 79 81 80 74 81 80 82 75 83 76 84 77 85 78 86 79 87
REMARK SMILES IDX 58 88 59 89 67 90 60 91 66 92 61 93 62 94 63 95 64 96 65 97
REMARK H PARENT 17 24 17 25 17 26 86 53 56 64
REMARK Flexibility Score: inf
ROOT
ATOM      1  C   UNL A   1      41.316  31.878  36.369  1.00  0.00     0.202 C 
ENDROOT
BRANCH   1   2
ATOM      2  C   UNL A   1      40.279  32.484  35.414  1.00  0.00     0.261 C 
BRANCH   2   3
ATOM      3  O   UNL A   1      40.196  31.723  34.202  1.00  0.00    -0.460 OA
BRANCH   3   4
ATOM      4  C   UNL A   1      39.356  30.654  34.130  1.00  0.00     0.343 C 
ATOM      5  O   UNL A   1      38.518  30.358  34.956  1.00  0.00    -0.246 OA
BRANCH   4   6
ATOM      6  C   UNL A   1      39.693  29.849  32.959  1.00  0.00     0.117 A 
ATOM      7  C   UNL A   1      41.382  28.347  34.294  1.00  0.00     0.069 C 
ATOM      8  C   UNL A   1      40.612  28.728  33.073  1.00  0.00     0.068 A 
ATOM      9  N   UNL A   1      40.810  28.015  31.972  1.00  0.00    -0.195 NA
ATOM     10  S   UNL A   1      39.998  28.714  30.737  1.00  0.00    -0.017 S 
ATOM     11  C   UNL A   1      39.341  30.056  31.618  1.00  0.00     0.133 A 
BRANCH  11  12
ATOM     12  N   UNL A   1      38.684  31.066  30.835  1.00  0.00    -0.305 N 
ATOM     13  C   UNL A   1      39.449  32.156  30.217  1.00  0.00     0.154 C 
BRANCH  12  14
ATOM     14  C   UNL A   1      37.292  31.056  30.763  1.00  0.00     0.230 C 
ATOM     15  O   UNL A   1      36.656  30.137  30.239  1.00  0.00    -0.274 OA
BRANCH  14  16
ATOM     16  C   UNL A   1      36.416  32.205  31.307  1.00  0.00     0.076 C 
ATOM     17  C   UNL A   1      36.105  32.208  32.803  1.00  0.00     0.018 C 
BRANCH  16  18
ATOM     18  C   UNL A   1      36.859  33.575  30.772  1.00  0.00     0.013 C 
BRANCH  18  19
ATOM     19  C   UNL A   1      36.506  33.824  29.298  1.00  0.00     0.007 C 
BRANCH  19  20
ATOM     20  C   UNL A   1      35.026  33.732  28.893  1.00  0.00     0.064 C 
BRANCH  20  21
ATOM     21  C   UNL A   1      34.262  35.068  28.928  1.00  0.00     0.177 C 
ATOM     22  C   UNL A   1      32.756  34.910  28.722  1.00  0.00     0.075 C 
BRANCH  21  23
ATOM     23  N   UNL A   1      34.752  35.938  27.851  1.00  0.00    -0.355 N 
ATOM     24  H   UNL A   1      35.696  36.256  28.073  1.00  0.00     0.344 HD
ATOM     25  H   UNL A   1      34.136  36.745  27.759  1.00  0.00     0.344 HD
ATOM     26  H   UNL A   1      34.767  35.419  26.974  1.00  0.00     0.344 HD
ENDBRANCH  21  23
ENDBRANCH  20  21
ENDBRANCH  19  20
ENDBRANCH  18  19
ENDBRANCH  16  18
ENDBRANCH  14  16
ENDBRANCH  12  14
ENDBRANCH  11  12
ENDBRANCH   4   6
ENDBRANCH   3   4
ENDBRANCH   2   3
ENDBRANCH   1   2
BRANCH   1  27
ATOM     27  O   UNL A   1      42.544  31.507  35.744  1.00  0.00    -0.376 OA
BRANCH  27  28
ATOM     28  C   UNL A   1      43.458  32.572  35.528  1.00  0.00     0.188 C 
BRANCH  28  29
ATOM     29  C   UNL A   1      43.771  32.915  34.055  1.00  0.00     0.188 C 
BRANCH  29  30
ATOM     30  O   UNL A   1      43.718  34.245  33.552  1.00  0.00    -0.376 OA
BRANCH  30  31
ATOM     31  C   UNL A   1      43.868  34.516  32.167  1.00  0.00     0.202 C 
BRANCH  31  32
ATOM     32  C   UNL A   1      43.881  33.351  31.183  1.00  0.00     0.261 C 
BRANCH  32  33
ATOM     33  O   UNL A   1      42.696  33.278  30.408  1.00  0.00    -0.460 OA
BRANCH  33  34
ATOM     34  C   UNL A   1      42.908  33.047  29.095  1.00  0.00     0.338 C 
ATOM     35  O   UNL A   1      43.385  32.046  28.588  1.00  0.00    -0.246 OA
BRANCH  34  36
ATOM     36  C   UNL A   1      42.497  34.231  28.327  1.00  0.00     0.060 A 
ATOM     37  C   UNL A   1      43.040  34.343  27.046  1.00  0.00     0.016 A 
ATOM     38  C   UNL A   1      41.900  35.313  28.990  1.00  0.00     0.016 A 
ATOM     39  C   UNL A   1      43.318  35.605  26.584  1.00  0.00     0.010 A 
ATOM     40  C   UNL A   1      42.188  36.573  28.536  1.00  0.00     0.010 A 
ATOM     41  C   UNL A   1      43.020  36.680  27.423  1.00  0.00    -0.014 A 
BRANCH  41  42
ATOM     42  C   UNL A   1      43.820  37.873  27.258  1.00  0.00     0.031 A 
ATOM     43  C   UNL A   1      45.271  37.676  27.330  1.00  0.00     0.074 A 
ATOM     44  C   UNL A   1      43.228  39.046  26.965  1.00  0.00     0.049 A 
ATOM     45  N   UNL A   1      46.082  38.116  28.229  1.00  0.00    -0.248 NA
ATOM     46  C   UNL A   1      45.871  36.761  26.351  1.00  0.00     0.031 C 
ATOM     47  C   UNL A   1      41.831  39.275  26.574  1.00  0.00     0.029 A 
ATOM     48  N   UNL A   1      43.798  40.270  26.809  1.00  0.00    -0.354 N 
ATOM     49  C   UNL A   1      47.338  37.686  27.830  1.00  0.00     0.074 A 
ATOM     50  C   UNL A   1      47.124  36.704  26.796  1.00  0.00     0.031 C 
ATOM     51  C   UNL A   1      41.737  40.486  25.983  1.00  0.00     0.029 A 
ATOM     52  C   UNL A   1      43.031  41.147  26.058  1.00  0.00     0.049 A 
ATOM     53  H   UNL A   1      44.671  40.510  27.192  1.00  0.00     0.167 HD
ATOM     54  C   UNL A   1      48.474  38.334  28.201  1.00  0.00     0.031 A 
ATOM     55  C   UNL A   1      43.477  42.264  25.433  1.00  0.00     0.031 A 
ATOM     56  C   UNL A   1      48.238  39.285  29.255  1.00  0.00     0.049 A 
ATOM     57  C   UNL A   1      44.768  42.642  26.069  1.00  0.00     0.074 A 
ATOM     58  C   UNL A   1      47.784  39.198  30.556  1.00  0.00     0.029 A 
ATOM     59  N   UNL A   1      48.135  40.611  28.898  1.00  0.00    -0.354 N 
ATOM     60  N   UNL A   1      44.872  43.058  27.301  1.00  0.00    -0.248 NA
ATOM     61  C   UNL A   1      46.006  42.142  25.485  1.00  0.00     0.031 C 
ATOM     62  C   UNL A   1      47.031  40.386  30.770  1.00  0.00     0.029 A 
ATOM     63  C   UNL A   1      47.089  41.152  29.602  1.00  0.00     0.049 A 
ATOM     64  H   UNL A   1      48.708  41.084  28.252  1.00  0.00     0.167 HD
ATOM     65  C   UNL A   1      46.050  42.494  27.777  1.00  0.00     0.074 A 
ATOM     66  C   UNL A   1      46.759  42.041  26.585  1.00  0.00     0.031 C 
ATOM     67  C   UNL A   1      46.208  42.190  29.100  1.00  0.00     0.031 A 
BRANCH  54  68
ATOM     68  C   UNL A   1      49.714  38.374  27.351  1.00  0.00    -0.014 A 
ATOM     69  C   UNL A   1      49.744  37.628  26.158  1.00  0.00     0.010 A 
ATOM     70  C   UNL A   1      50.939  38.901  27.814  1.00  0.00     0.010 A 
ATOM     71  C   UNL A   1      50.953  37.360  25.506  1.00  0.00     0.020 A 
ATOM     72  C   UNL A   1      52.139  38.686  27.142  1.00  0.00     0.020 A 
ATOM     73  C   UNL A   1      52.144  37.876  26.018  1.00  0.00     0.054 A 
BRANCH  73  74
ATOM     74  S   UNL A   1      53.718  37.403  25.264  1.00  0.00     0.124 S 
ATOM     75  O   UNL A   1      53.641  35.946  25.313  1.00  0.00    -0.237 OA
ATOM     76  O   UNL A   1      53.620  38.001  23.936  1.00  0.00    -0.237 OA
ATOM     77  O   UNL A   1      54.713  38.010  26.143  1.00  0.00    -0.744 OA
ENDBRANCH  73  74
ENDBRANCH  54  68
BRANCH  55  78
ATOM     78  C   UNL A   1      43.027  42.765  24.108  1.00  0.00    -0.014 A 
ATOM     79  C   UNL A   1      43.799  43.678  23.370  1.00  0.00     0.010 A 
ATOM     80  C   UNL A   1      41.932  42.162  23.449  1.00  0.00     0.010 A 
ATOM     81  C   UNL A   1      43.513  43.941  22.017  1.00  0.00     0.020 A 
ATOM     82  C   UNL A   1      41.629  42.429  22.113  1.00  0.00     0.020 A 
ATOM     83  C   UNL A   1      42.437  43.302  21.394  1.00  0.00     0.054 A 
BRANCH  83  84
ATOM     84  S   UNL A   1      42.168  43.516  19.610  1.00  0.00     0.124 S 
ATOM     85  O   UNL A   1      40.717  43.662  19.530  1.00  0.00    -0.237 OA
ATOM     86  O   UNL A   1      42.943  44.717  19.315  1.00  0.00    -0.237 OA
ATOM     87  O   UNL A   1      42.700  42.283  19.031  1.00  0.00    -0.744 OA
ENDBRANCH  83  84
ENDBRANCH  55  78
BRANCH  67  88
ATOM     88  C   UNL A   1      45.207  42.738  30.093  1.00  0.00    -0.014 A 
ATOM     89  C   UNL A   1      44.098  41.999  30.549  1.00  0.00     0.010 A 
ATOM     90  C   UNL A   1      45.508  43.957  30.728  1.00  0.00     0.010 A 
ATOM     91  C   UNL A   1      43.307  42.470  31.606  1.00  0.00     0.020 A 
ATOM     92  C   UNL A   1      44.732  44.424  31.794  1.00  0.00     0.020 A 
ATOM     93  C   UNL A   1      43.634  43.679  32.227  1.00  0.00     0.054 A 
BRANCH  93  94
ATOM     94  S   UNL A   1      42.664  44.233  33.658  1.00  0.00     0.124 S 
ATOM     95  O   UNL A   1      43.660  44.938  34.461  1.00  0.00    -0.237 OA
ATOM     96  O   UNL A   1      41.636  45.074  33.048  1.00  0.00    -0.237 OA
ATOM     97  O   UNL A   1      42.165  42.990  34.242  1.00  0.00    -0.744 OA
ENDBRANCH  93  94
ENDBRANCH  67  88
ENDBRANCH  41  42
ENDBRANCH  34  36
ENDBRANCH  33  34
ENDBRANCH  32  33
ENDBRANCH  31  32
ENDBRANCH  30  31
ENDBRANCH  29  30
ENDBRANCH  28  29
ENDBRANCH  27  28
ENDBRANCH   1  27
TORSDOF 28
ENDMDL
