MODEL 1
REMARK VINA RESULT:      -7.6      0.000      0.000
REMARK SMILES C[C@H](CNC(=O)c1ccc(Br)nc1)C(=O)OCCOCCOCCOC(=O)c1ccc(-c2c3nc(c(-c4ccc(S(=O)(=O)[O-])cc4)c4ccc([nH]4)c(-c4ccc(S(=O)(=O)[O-])cc4)c4nc(c(-c5ccc(S(=O)(=O)[O-])cc5)c5ccc2[nH]5)C=C4)C=C3)cc1
REMARK SMILES IDX 20 1 19 2 18 3 17 4 16 5 14 6 15 7 2 8 1 9 3 10 4 11 5 12
REMARK SMILES IDX 6 14 7 15 8 16 13 17 9 18 12 19 10 20 11 21 21 22 22 23
REMARK SMILES IDX 23 24 24 25 25 26 26 27 27 28 28 29 29 30 87 31 30 32 86 33
REMARK SMILES IDX 31 34 32 35 33 36 80 37 34 38 85 39 79 40 81 41 35 42 84 43
REMARK SMILES IDX 78 44 77 45 36 47 66 48 47 49 65 50 48 51 51 52 64 53 82 54
REMARK SMILES IDX 49 55 50 56 63 58 83 59 52 60 37 61 38 62 46 63 39 64 45 65
REMARK SMILES IDX 40 66 41 67 42 68 43 69 44 70 67 71 68 72 76 73 69 74 75 75
REMARK SMILES IDX 70 76 71 77 72 78 73 79 74 80 53 81 54 82 62 83 55 84 61 85
REMARK SMILES IDX 56 86 57 87 58 88 59 89 60 90
REMARK H PARENT 4 13 81 46 51 57
REMARK Flexibility Score: inf
ROOT
ATOM      1  C   UNL A   1      34.112  34.999  30.948  1.00  0.00     0.188 C 
ENDROOT
BRANCH   1   2
ATOM      2  O   UNL A   1      33.816  34.244  32.113  1.00  0.00    -0.376 OA
BRANCH   2   3
ATOM      3  C   UNL A   1      34.527  33.039  32.355  1.00  0.00     0.202 C 
BRANCH   3   4
ATOM      4  C   UNL A   1      35.450  32.944  33.583  1.00  0.00     0.261 C 
BRANCH   4   5
ATOM      5  O   UNL A   1      36.773  32.377  33.384  1.00  0.00    -0.463 OA
BRANCH   5   6
ATOM      6  C   UNL A   1      37.710  33.250  32.931  1.00  0.00     0.310 C 
ATOM      7  O   UNL A   1      37.761  33.641  31.768  1.00  0.00    -0.252 OA
BRANCH   6   8
ATOM      8  C   UNL A   1      38.777  33.685  33.934  1.00  0.00     0.115 C 
ATOM      9  C   UNL A   1      39.840  34.434  33.118  1.00  0.00     0.022 C 
BRANCH   8  10
ATOM     10  C   UNL A   1      39.445  32.672  34.884  1.00  0.00     0.131 C 
BRANCH  10  11
ATOM     11  N   UNL A   1      39.010  31.307  34.545  1.00  0.00    -0.351 N 
ATOM     12  C   UNL A   1      39.718  30.172  34.240  1.00  0.00     0.252 C 
ATOM     13  H   UNL A   1      38.033  31.187  34.536  1.00  0.00     0.163 HD
ATOM     14  O   UNL A   1      39.193  29.353  33.488  1.00  0.00    -0.269 OA
BRANCH  12  15
ATOM     15  C   UNL A   1      41.031  29.838  34.829  1.00  0.00     0.058 A 
ATOM     16  C   UNL A   1      42.181  30.599  34.623  1.00  0.00     0.018 A 
ATOM     17  C   UNL A   1      41.079  28.858  35.816  1.00  0.00     0.126 A 
ATOM     18  C   UNL A   1      43.322  30.346  35.398  1.00  0.00     0.037 A 
ATOM     19  N   UNL A   1      42.177  28.582  36.564  1.00  0.00    -0.249 NA
ATOM     20  C   UNL A   1      43.272  29.342  36.357  1.00  0.00     0.106 A 
ATOM     21  Br  UNL A   1      44.816  28.963  37.388  1.00  0.00    -0.029 Br
ENDBRANCH  12  15
ENDBRANCH  10  11
ENDBRANCH   8  10
ENDBRANCH   6   8
ENDBRANCH   5   6
ENDBRANCH   4   5
ENDBRANCH   3   4
ENDBRANCH   2   3
ENDBRANCH   1   2
BRANCH   1  22
ATOM     22  C   UNL A   1      33.215  34.841  29.714  1.00  0.00     0.188 C 
BRANCH  22  23
ATOM     23  O   UNL A   1      33.817  34.255  28.579  1.00  0.00    -0.376 OA
BRANCH  23  24
ATOM     24  C   UNL A   1      34.389  32.967  28.760  1.00  0.00     0.202 C 
BRANCH  24  25
ATOM     25  C   UNL A   1      34.102  31.950  27.644  1.00  0.00     0.261 C 
BRANCH  25  26
ATOM     26  O   UNL A   1      33.714  30.636  28.086  1.00  0.00    -0.460 OA
BRANCH  26  27
ATOM     27  C   UNL A   1      34.406  29.598  27.566  1.00  0.00     0.338 C 
ATOM     28  O   UNL A   1      34.036  28.856  26.661  1.00  0.00    -0.246 OA
BRANCH  27  29
ATOM     29  C   UNL A   1      35.793  29.667  28.062  1.00  0.00     0.060 A 
ATOM     30  C   UNL A   1      36.798  29.998  27.150  1.00  0.00     0.016 A 
ATOM     31  C   UNL A   1      36.121  29.383  29.387  1.00  0.00     0.016 A 
ATOM     32  C   UNL A   1      38.137  29.957  27.518  1.00  0.00     0.010 A 
ATOM     33  C   UNL A   1      37.471  29.341  29.761  1.00  0.00     0.010 A 
ATOM     34  C   UNL A   1      38.485  29.570  28.813  1.00  0.00    -0.014 A 
BRANCH  34  35
ATOM     35  C   UNL A   1      39.889  29.166  29.069  1.00  0.00     0.031 A 
ATOM     36  C   UNL A   1      40.779  30.132  29.808  1.00  0.00     0.074 A 
ATOM     37  C   UNL A   1      40.340  27.937  28.760  1.00  0.00     0.049 A 
ATOM     38  N   UNL A   1      42.044  30.025  30.121  1.00  0.00    -0.248 NA
ATOM     39  C   UNL A   1      40.154  31.390  30.253  1.00  0.00     0.031 C 
ATOM     40  C   UNL A   1      39.552  26.870  28.144  1.00  0.00     0.029 A 
ATOM     41  N   UNL A   1      41.580  27.375  28.943  1.00  0.00    -0.354 N 
ATOM     42  C   UNL A   1      42.371  31.211  30.769  1.00  0.00     0.074 A 
ATOM     43  C   UNL A   1      41.181  32.032  30.787  1.00  0.00     0.031 C 
ATOM     44  C   UNL A   1      40.327  25.780  28.006  1.00  0.00     0.029 A 
ATOM     45  C   UNL A   1      41.674  26.083  28.484  1.00  0.00     0.049 A 
ATOM     46  H   UNL A   1      42.331  27.853  29.362  1.00  0.00     0.167 HD
ATOM     47  C   UNL A   1      43.556  31.586  31.306  1.00  0.00     0.031 A 
ATOM     48  C   UNL A   1      42.732  25.248  28.440  1.00  0.00     0.031 A 
ATOM     49  C   UNL A   1      44.734  30.761  31.310  1.00  0.00     0.049 A 
ATOM     50  C   UNL A   1      44.062  25.714  28.977  1.00  0.00     0.074 A 
ATOM     51  C   UNL A   1      45.985  31.050  31.826  1.00  0.00     0.029 A 
ATOM     52  N   UNL A   1      44.803  29.482  30.781  1.00  0.00    -0.354 N 
ATOM     53  N   UNL A   1      44.369  26.854  29.551  1.00  0.00    -0.248 NA
ATOM     54  C   UNL A   1      45.188  24.775  28.864  1.00  0.00     0.031 C 
ATOM     55  C   UNL A   1      46.826  29.964  31.562  1.00  0.00     0.029 A 
ATOM     56  C   UNL A   1      46.082  28.975  30.938  1.00  0.00     0.049 A 
ATOM     57  H   UNL A   1      44.055  29.004  30.356  1.00  0.00     0.167 HD
ATOM     58  C   UNL A   1      45.714  26.754  29.899  1.00  0.00     0.074 A 
ATOM     59  C   UNL A   1      46.157  25.442  29.477  1.00  0.00     0.031 C 
ATOM     60  C   UNL A   1      46.508  27.665  30.516  1.00  0.00     0.031 A 
BRANCH  47  61
ATOM     61  C   UNL A   1      43.647  32.975  31.878  1.00  0.00    -0.014 A 
ATOM     62  C   UNL A   1      43.800  33.199  33.257  1.00  0.00     0.010 A 
ATOM     63  C   UNL A   1      43.583  34.079  31.007  1.00  0.00     0.010 A 
ATOM     64  C   UNL A   1      43.846  34.503  33.760  1.00  0.00     0.020 A 
ATOM     65  C   UNL A   1      43.657  35.382  31.502  1.00  0.00     0.020 A 
ATOM     66  C   UNL A   1      43.769  35.587  32.879  1.00  0.00     0.054 A 
BRANCH  66  67
ATOM     67  S   UNL A   1      43.843  37.269  33.552  1.00  0.00     0.124 S 
ATOM     68  O   UNL A   1      42.443  37.521  33.889  1.00  0.00    -0.237 OA
ATOM     69  O   UNL A   1      44.746  37.121  34.691  1.00  0.00    -0.237 OA
ATOM     70  O   UNL A   1      44.368  38.064  32.445  1.00  0.00    -0.744 OA
ENDBRANCH  66  67
ENDBRANCH  47  61
BRANCH  48  71
ATOM     71  C   UNL A   1      42.591  23.891  27.844  1.00  0.00    -0.014 A 
ATOM     72  C   UNL A   1      42.176  22.799  28.627  1.00  0.00     0.010 A 
ATOM     73  C   UNL A   1      42.891  23.679  26.485  1.00  0.00     0.010 A 
ATOM     74  C   UNL A   1      42.081  21.520  28.069  1.00  0.00     0.020 A 
ATOM     75  C   UNL A   1      42.770  22.407  25.917  1.00  0.00     0.020 A 
ATOM     76  C   UNL A   1      42.378  21.332  26.716  1.00  0.00     0.054 A 
BRANCH  76  77
ATOM     77  S   UNL A   1      42.206  19.674  26.000  1.00  0.00     0.124 S 
ATOM     78  O   UNL A   1      43.117  19.738  24.862  1.00  0.00    -0.237 OA
ATOM     79  O   UNL A   1      42.625  18.808  27.099  1.00  0.00    -0.237 OA
ATOM     80  O   UNL A   1      40.786  19.594  25.662  1.00  0.00    -0.744 OA
ENDBRANCH  76  77
ENDBRANCH  48  71
BRANCH  60  81
ATOM     81  C   UNL A   1      47.925  27.256  30.822  1.00  0.00    -0.014 A 
ATOM     82  C   UNL A   1      48.997  27.646  30.001  1.00  0.00     0.010 A 
ATOM     83  C   UNL A   1      48.189  26.499  31.980  1.00  0.00     0.010 A 
ATOM     84  C   UNL A   1      50.302  27.251  30.308  1.00  0.00     0.020 A 
ATOM     85  C   UNL A   1      49.495  26.127  32.305  1.00  0.00     0.020 A 
ATOM     86  C   UNL A   1      50.542  26.489  31.456  1.00  0.00     0.054 A 
BRANCH  86  87
ATOM     87  S   UNL A   1      52.246  26.004  31.846  1.00  0.00     0.124 S 
ATOM     88  O   UNL A   1      52.876  26.020  30.529  1.00  0.00    -0.237 OA
ATOM     89  O   UNL A   1      52.678  27.056  32.763  1.00  0.00    -0.237 OA
ATOM     90  O   UNL A   1      52.100  24.682  32.450  1.00  0.00    -0.744 OA
ENDBRANCH  86  87
ENDBRANCH  60  81
ENDBRANCH  34  35
ENDBRANCH  27  29
ENDBRANCH  26  27
ENDBRANCH  25  26
ENDBRANCH  24  25
ENDBRANCH  23  24
ENDBRANCH  22  23
ENDBRANCH   1  22
TORSDOF 23
ENDMDL
MODEL 2
REMARK VINA RESULT:      -7.3      1.542      2.192
REMARK SMILES C[C@H](CNC(=O)c1ccc(Br)nc1)C(=O)OCCOCCOCCOC(=O)c1ccc(-c2c3nc(c(-c4ccc(S(=O)(=O)[O-])cc4)c4ccc([nH]4)c(-c4ccc(S(=O)(=O)[O-])cc4)c4nc(c(-c5ccc(S(=O)(=O)[O-])cc5)c5ccc2[nH]5)C=C4)C=C3)cc1
REMARK SMILES IDX 20 1 19 2 18 3 17 4 16 5 14 6 15 7 2 8 1 9 3 10 4 11 5 12
REMARK SMILES IDX 6 14 7 15 8 16 13 17 9 18 12 19 10 20 11 21 21 22 22 23
REMARK SMILES IDX 23 24 24 25 25 26 26 27 27 28 28 29 29 30 87 31 30 32 86 33
REMARK SMILES IDX 31 34 32 35 33 36 80 37 34 38 85 39 79 40 81 41 35 42 84 43
REMARK SMILES IDX 78 44 77 45 36 47 66 48 47 49 65 50 48 51 51 52 64 53 82 54
REMARK SMILES IDX 49 55 50 56 63 58 83 59 52 60 37 61 38 62 46 63 39 64 45 65
REMARK SMILES IDX 40 66 41 67 42 68 43 69 44 70 67 71 68 72 76 73 69 74 75 75
REMARK SMILES IDX 70 76 71 77 72 78 73 79 74 80 53 81 54 82 62 83 55 84 61 85
REMARK SMILES IDX 56 86 57 87 58 88 59 89 60 90
REMARK H PARENT 4 13 81 46 51 57
REMARK Flexibility Score: inf
ROOT
ATOM      1  C   UNL A   1      33.600  35.325  31.144  1.00  0.00     0.188 C 
ENDROOT
BRANCH   1   2
ATOM      2  O   UNL A   1      33.456  34.441  32.245  1.00  0.00    -0.376 OA
BRANCH   2   3
ATOM      3  C   UNL A   1      34.587  34.150  33.052  1.00  0.00     0.202 C 
BRANCH   3   4
ATOM      4  C   UNL A   1      35.391  32.864  32.785  1.00  0.00     0.261 C 
BRANCH   4   5
ATOM      5  O   UNL A   1      36.649  32.702  33.493  1.00  0.00    -0.463 OA
BRANCH   5   6
ATOM      6  C   UNL A   1      37.204  31.466  33.403  1.00  0.00     0.310 C 
ATOM      7  O   UNL A   1      36.725  30.560  32.726  1.00  0.00    -0.252 OA
BRANCH   6   8
ATOM      8  C   UNL A   1      38.442  31.211  34.260  1.00  0.00     0.115 C 
ATOM      9  C   UNL A   1      37.983  31.357  35.718  1.00  0.00     0.022 C 
BRANCH   8  10
ATOM     10  C   UNL A   1      39.752  31.991  34.029  1.00  0.00     0.131 C 
BRANCH  10  11
ATOM     11  N   UNL A   1      39.465  33.431  33.935  1.00  0.00    -0.351 N 
ATOM     12  C   UNL A   1      39.202  34.375  34.897  1.00  0.00     0.252 C 
ATOM     13  H   UNL A   1      39.463  33.782  33.016  1.00  0.00     0.163 HD
ATOM     14  O   UNL A   1      38.483  35.323  34.589  1.00  0.00    -0.269 OA
BRANCH  12  15
ATOM     15  C   UNL A   1      39.801  34.362  36.247  1.00  0.00     0.058 A 
ATOM     16  C   UNL A   1      41.155  34.592  36.490  1.00  0.00     0.018 A 
ATOM     17  C   UNL A   1      38.946  34.349  37.346  1.00  0.00     0.126 A 
ATOM     18  C   UNL A   1      41.595  34.791  37.806  1.00  0.00     0.037 A 
ATOM     19  N   UNL A   1      39.351  34.519  38.630  1.00  0.00    -0.249 NA
ATOM     20  C   UNL A   1      40.663  34.756  38.837  1.00  0.00     0.106 A 
ATOM     21  Br  UNL A   1      41.246  34.985  40.626  1.00  0.00    -0.029 Br
ENDBRANCH  12  15
ENDBRANCH  10  11
ENDBRANCH   8  10
ENDBRANCH   6   8
ENDBRANCH   5   6
ENDBRANCH   4   5
ENDBRANCH   3   4
ENDBRANCH   2   3
ENDBRANCH   1   2
BRANCH   1  22
ATOM     22  C   UNL A   1      33.223  34.832  29.742  1.00  0.00     0.188 C 
BRANCH  22  23
ATOM     23  O   UNL A   1      34.249  34.194  29.011  1.00  0.00    -0.376 OA
BRANCH  23  24
ATOM     24  C   UNL A   1      34.473  32.821  29.299  1.00  0.00     0.202 C 
BRANCH  24  25
ATOM     25  C   UNL A   1      34.804  31.933  28.088  1.00  0.00     0.261 C 
BRANCH  25  26
ATOM     26  O   UNL A   1      33.942  30.796  27.898  1.00  0.00    -0.460 OA
BRANCH  26  27
ATOM     27  C   UNL A   1      34.544  29.636  27.557  1.00  0.00     0.338 C 
ATOM     28  O   UNL A   1      34.115  28.796  26.771  1.00  0.00    -0.246 OA
BRANCH  27  29
ATOM     29  C   UNL A   1      35.931  29.663  28.060  1.00  0.00     0.060 A 
ATOM     30  C   UNL A   1      36.952  29.936  27.147  1.00  0.00     0.016 A 
ATOM     31  C   UNL A   1      36.240  29.397  29.393  1.00  0.00     0.016 A 
ATOM     32  C   UNL A   1      38.287  29.853  27.525  1.00  0.00     0.010 A 
ATOM     33  C   UNL A   1      37.585  29.312  29.777  1.00  0.00     0.010 A 
ATOM     34  C   UNL A   1      38.612  29.482  28.830  1.00  0.00    -0.014 A 
BRANCH  34  35
ATOM     35  C   UNL A   1      39.999  29.031  29.104  1.00  0.00     0.031 A 
ATOM     36  C   UNL A   1      40.908  29.963  29.863  1.00  0.00     0.074 A 
ATOM     37  C   UNL A   1      40.415  27.790  28.793  1.00  0.00     0.049 A 
ATOM     38  N   UNL A   1      42.164  29.813  30.194  1.00  0.00    -0.248 NA
ATOM     39  C   UNL A   1      40.317  31.237  30.307  1.00  0.00     0.031 C 
ATOM     40  C   UNL A   1      39.602  26.753  28.157  1.00  0.00     0.029 A 
ATOM     41  N   UNL A   1      41.633  27.187  28.990  1.00  0.00    -0.354 N 
ATOM     42  C   UNL A   1      42.520  30.983  30.856  1.00  0.00     0.074 A 
ATOM     43  C   UNL A   1      41.356  31.842  30.861  1.00  0.00     0.031 C 
ATOM     44  C   UNL A   1      40.343  25.639  28.023  1.00  0.00     0.029 A 
ATOM     45  C   UNL A   1      41.692  25.896  28.523  1.00  0.00     0.049 A 
ATOM     46  H   UNL A   1      42.392  27.638  29.424  1.00  0.00     0.167 HD
ATOM     47  C   UNL A   1      43.708  31.316  31.412  1.00  0.00     0.031 A 
ATOM     48  C   UNL A   1      42.724  25.027  28.489  1.00  0.00     0.031 A 
ATOM     49  C   UNL A   1      44.859  30.454  31.428  1.00  0.00     0.049 A 
ATOM     50  C   UNL A   1      44.059  25.447  29.049  1.00  0.00     0.074 A 
ATOM     51  C   UNL A   1      46.110  30.698  31.964  1.00  0.00     0.029 A 
ATOM     52  N   UNL A   1      44.894  29.177  30.891  1.00  0.00    -0.354 N 
ATOM     53  N   UNL A   1      44.394  26.572  29.636  1.00  0.00    -0.248 NA
ATOM     54  C   UNL A   1      45.156  24.473  28.945  1.00  0.00     0.031 C 
ATOM     55  C   UNL A   1      46.919  29.588  31.705  1.00  0.00     0.029 A 
ATOM     56  C   UNL A   1      46.154  28.628  31.062  1.00  0.00     0.049 A 
ATOM     57  H   UNL A   1      44.137  28.726  30.451  1.00  0.00     0.167 HD
ATOM     58  C   UNL A   1      45.730  26.427  30.003  1.00  0.00     0.074 A 
ATOM     59  C   UNL A   1      46.137  25.103  29.578  1.00  0.00     0.031 C 
ATOM     60  C   UNL A   1      46.543  27.307  30.638  1.00  0.00     0.031 A 
BRANCH  47  61
ATOM     61  C   UNL A   1      43.834  32.697  31.995  1.00  0.00    -0.014 A 
ATOM     62  C   UNL A   1      43.437  32.984  33.313  1.00  0.00     0.010 A 
ATOM     63  C   UNL A   1      44.371  33.728  31.202  1.00  0.00     0.010 A 
ATOM     64  C   UNL A   1      43.535  34.287  33.813  1.00  0.00     0.020 A 
ATOM     65  C   UNL A   1      44.499  35.024  31.707  1.00  0.00     0.020 A 
ATOM     66  C   UNL A   1      44.061  35.299  33.004  1.00  0.00     0.054 A 
BRANCH  66  67
ATOM     67  S   UNL A   1      44.191  36.978  33.678  1.00  0.00     0.124 S 
ATOM     68  O   UNL A   1      45.556  36.988  34.203  1.00  0.00    -0.237 OA
ATOM     69  O   UNL A   1      43.965  37.815  32.503  1.00  0.00    -0.237 OA
ATOM     70  O   UNL A   1      43.137  37.030  34.688  1.00  0.00    -0.744 OA
ENDBRANCH  66  67
ENDBRANCH  47  61
BRANCH  48  71
ATOM     71  C   UNL A   1      42.548  23.679  27.881  1.00  0.00    -0.014 A 
ATOM     72  C   UNL A   1      42.014  22.615  28.629  1.00  0.00     0.010 A 
ATOM     73  C   UNL A   1      42.933  23.448  26.547  1.00  0.00     0.010 A 
ATOM     74  C   UNL A   1      41.887  21.343  28.063  1.00  0.00     0.020 A 
ATOM     75  C   UNL A   1      42.780  22.184  25.968  1.00  0.00     0.020 A 
ATOM     76  C   UNL A   1      42.270  21.135  26.735  1.00  0.00     0.054 A 
BRANCH  76  77
ATOM     77  S   UNL A   1      42.054  19.488  26.005  1.00  0.00     0.124 S 
ATOM     78  O   UNL A   1      40.613  19.443  25.777  1.00  0.00    -0.237 OA
ATOM     79  O   UNL A   1      42.882  19.562  24.804  1.00  0.00    -0.237 OA
ATOM     80  O   UNL A   1      42.553  18.587  27.041  1.00  0.00    -0.744 OA
ENDBRANCH  76  77
ENDBRANCH  48  71
BRANCH  60  81
ATOM     81  C   UNL A   1      47.942  26.851  30.962  1.00  0.00    -0.014 A 
ATOM     82  C   UNL A   1      49.030  27.170  30.132  1.00  0.00     0.010 A 
ATOM     83  C   UNL A   1      48.172  26.122  32.145  1.00  0.00     0.010 A 
ATOM     84  C   UNL A   1      50.318  26.731  30.457  1.00  0.00     0.020 A 
ATOM     85  C   UNL A   1      49.461  25.708  32.487  1.00  0.00     0.020 A 
ATOM     86  C   UNL A   1      50.524  25.998  31.630  1.00  0.00     0.054 A 
BRANCH  86  87
ATOM     87  S   UNL A   1      52.206  25.457  32.041  1.00  0.00     0.124 S 
ATOM     88  O   UNL A   1      52.935  25.774  30.817  1.00  0.00    -0.237 OA
ATOM     89  O   UNL A   1      52.535  26.282  33.201  1.00  0.00    -0.237 OA
ATOM     90  O   UNL A   1      52.051  24.032  32.323  1.00  0.00    -0.744 OA
ENDBRANCH  86  87
ENDBRANCH  60  81
ENDBRANCH  34  35
ENDBRANCH  27  29
ENDBRANCH  26  27
ENDBRANCH  25  26
ENDBRANCH  24  25
ENDBRANCH  23  24
ENDBRANCH  22  23
ENDBRANCH   1  22
TORSDOF 23
ENDMDL
MODEL 3
REMARK VINA RESULT:      -7.2      1.879      2.807
REMARK SMILES C[C@H](CNC(=O)c1ccc(Br)nc1)C(=O)OCCOCCOCCOC(=O)c1ccc(-c2c3nc(c(-c4ccc(S(=O)(=O)[O-])cc4)c4ccc([nH]4)c(-c4ccc(S(=O)(=O)[O-])cc4)c4nc(c(-c5ccc(S(=O)(=O)[O-])cc5)c5ccc2[nH]5)C=C4)C=C3)cc1
REMARK SMILES IDX 20 1 19 2 18 3 17 4 16 5 14 6 15 7 2 8 1 9 3 10 4 11 5 12
REMARK SMILES IDX 6 14 7 15 8 16 13 17 9 18 12 19 10 20 11 21 21 22 22 23
REMARK SMILES IDX 23 24 24 25 25 26 26 27 27 28 28 29 29 30 87 31 30 32 86 33
REMARK SMILES IDX 31 34 32 35 33 36 80 37 34 38 85 39 79 40 81 41 35 42 84 43
REMARK SMILES IDX 78 44 77 45 36 47 66 48 47 49 65 50 48 51 51 52 64 53 82 54
REMARK SMILES IDX 49 55 50 56 63 58 83 59 52 60 37 61 38 62 46 63 39 64 45 65
REMARK SMILES IDX 40 66 41 67 42 68 43 69 44 70 67 71 68 72 76 73 69 74 75 75
REMARK SMILES IDX 70 76 71 77 72 78 73 79 74 80 53 81 54 82 62 83 55 84 61 85
REMARK SMILES IDX 56 86 57 87 58 88 59 89 60 90
REMARK H PARENT 4 13 81 46 51 57
REMARK Flexibility Score: inf
ROOT
ATOM      1  C   UNL A   1      33.626  35.315  31.176  1.00  0.00     0.188 C 
ENDROOT
BRANCH   1   2
ATOM      2  O   UNL A   1      33.440  34.437  32.274  1.00  0.00    -0.376 OA
BRANCH   2   3
ATOM      3  C   UNL A   1      34.541  34.143  33.120  1.00  0.00     0.202 C 
BRANCH   3   4
ATOM      4  C   UNL A   1      35.358  32.862  32.874  1.00  0.00     0.261 C 
BRANCH   4   5
ATOM      5  O   UNL A   1      36.584  32.693  33.636  1.00  0.00    -0.463 OA
BRANCH   5   6
ATOM      6  C   UNL A   1      37.151  31.462  33.545  1.00  0.00     0.310 C 
ATOM      7  O   UNL A   1      36.704  30.564  32.837  1.00  0.00    -0.252 OA
BRANCH   6   8
ATOM      8  C   UNL A   1      38.361  31.202  34.441  1.00  0.00     0.115 C 
ATOM      9  C   UNL A   1      37.833  31.244  35.882  1.00  0.00     0.022 C 
BRANCH   8  10
ATOM     10  C   UNL A   1      39.647  32.042  34.315  1.00  0.00     0.131 C 
BRANCH  10  11
ATOM     11  N   UNL A   1      39.329  33.470  34.475  1.00  0.00    -0.351 N 
ATOM     12  C   UNL A   1      39.718  34.578  33.764  1.00  0.00     0.252 C 
ATOM     13  H   UNL A   1      38.728  33.665  35.230  1.00  0.00     0.163 HD
ATOM     14  O   UNL A   1      39.793  35.648  34.366  1.00  0.00    -0.269 OA
BRANCH  12  15
ATOM     15  C   UNL A   1      39.966  34.576  32.309  1.00  0.00     0.058 A 
ATOM     16  C   UNL A   1      38.952  34.473  31.357  1.00  0.00     0.018 A 
ATOM     17  C   UNL A   1      41.236  34.921  31.857  1.00  0.00     0.126 A 
ATOM     18  C   UNL A   1      39.247  34.710  30.007  1.00  0.00     0.037 A 
ATOM     19  N   UNL A   1      41.550  35.136  30.554  1.00  0.00    -0.249 NA
ATOM     20  C   UNL A   1      40.549  35.046  29.655  1.00  0.00     0.106 A 
ATOM     21  Br  UNL A   1      40.974  35.334  27.830  1.00  0.00    -0.029 Br
ENDBRANCH  12  15
ENDBRANCH  10  11
ENDBRANCH   8  10
ENDBRANCH   6   8
ENDBRANCH   5   6
ENDBRANCH   4   5
ENDBRANCH   3   4
ENDBRANCH   2   3
ENDBRANCH   1   2
BRANCH   1  22
ATOM     22  C   UNL A   1      33.346  34.801  29.758  1.00  0.00     0.188 C 
BRANCH  22  23
ATOM     23  O   UNL A   1      34.430  34.182  29.097  1.00  0.00    -0.376 OA
BRANCH  23  24
ATOM     24  C   UNL A   1      34.677  32.821  29.422  1.00  0.00     0.202 C 
BRANCH  24  25
ATOM     25  C   UNL A   1      35.081  31.920  28.245  1.00  0.00     0.261 C 
BRANCH  25  26
ATOM     26  O   UNL A   1      34.202  30.810  27.982  1.00  0.00    -0.460 OA
BRANCH  26  27
ATOM     27  C   UNL A   1      34.790  29.649  27.621  1.00  0.00     0.338 C 
ATOM     28  O   UNL A   1      34.362  28.839  26.803  1.00  0.00    -0.246 OA
BRANCH  27  29
ATOM     29  C   UNL A   1      36.166  29.638  28.152  1.00  0.00     0.060 A 
ATOM     30  C   UNL A   1      37.211  29.908  27.265  1.00  0.00     0.016 A 
ATOM     31  C   UNL A   1      36.443  29.337  29.484  1.00  0.00     0.016 A 
ATOM     32  C   UNL A   1      38.536  29.789  27.667  1.00  0.00     0.010 A 
ATOM     33  C   UNL A   1      37.777  29.217  29.893  1.00  0.00     0.010 A 
ATOM     34  C   UNL A   1      38.827  29.385  28.971  1.00  0.00    -0.014 A 
BRANCH  34  35
ATOM     35  C   UNL A   1      40.199  28.900  29.263  1.00  0.00     0.031 A 
ATOM     36  C   UNL A   1      41.106  29.791  30.070  1.00  0.00     0.074 A 
ATOM     37  C   UNL A   1      40.599  27.661  28.924  1.00  0.00     0.049 A 
ATOM     38  N   UNL A   1      42.351  29.608  30.425  1.00  0.00    -0.248 NA
ATOM     39  C   UNL A   1      40.528  31.063  30.539  1.00  0.00     0.031 C 
ATOM     40  C   UNL A   1      39.783  26.659  28.239  1.00  0.00     0.029 A 
ATOM     41  N   UNL A   1      41.801  27.030  29.130  1.00  0.00    -0.354 N 
ATOM     42  C   UNL A   1      42.713  30.752  31.130  1.00  0.00     0.074 A 
ATOM     43  C   UNL A   1      41.566  31.631  31.135  1.00  0.00     0.031 C 
ATOM     44  C   UNL A   1      40.507  25.536  28.088  1.00  0.00     0.029 A 
ATOM     45  C   UNL A   1      41.848  25.752  28.627  1.00  0.00     0.049 A 
ATOM     46  H   UNL A   1      42.558  27.453  29.595  1.00  0.00     0.167 HD
ATOM     47  C   UNL A   1      43.893  31.045  31.723  1.00  0.00     0.031 A 
ATOM     48  C   UNL A   1      42.864  24.866  28.590  1.00  0.00     0.031 A 
ATOM     49  C   UNL A   1      45.028  30.161  31.739  1.00  0.00     0.049 A 
ATOM     50  C   UNL A   1      44.193  25.243  29.192  1.00  0.00     0.074 A 
ATOM     51  C   UNL A   1      46.271  30.366  32.311  1.00  0.00     0.029 A 
ATOM     52  N   UNL A   1      45.052  28.900  31.165  1.00  0.00    -0.354 N 
ATOM     53  N   UNL A   1      44.535  26.344  29.821  1.00  0.00    -0.248 NA
ATOM     54  C   UNL A   1      45.274  24.252  29.085  1.00  0.00     0.031 C 
ATOM     55  C   UNL A   1      47.065  29.249  32.038  1.00  0.00     0.029 A 
ATOM     56  C   UNL A   1      46.297  28.323  31.349  1.00  0.00     0.049 A 
ATOM     57  H   UNL A   1      44.298  28.477  30.695  1.00  0.00     0.167 HD
ATOM     58  C   UNL A   1      45.858  26.163  30.214  1.00  0.00     0.074 A 
ATOM     59  C   UNL A   1      46.251  24.845  29.759  1.00  0.00     0.031 C 
ATOM     60  C   UNL A   1      46.673  27.008  30.894  1.00  0.00     0.031 A 
BRANCH  47  61
ATOM     61  C   UNL A   1      44.031  32.406  32.350  1.00  0.00    -0.014 A 
ATOM     62  C   UNL A   1      43.569  32.672  33.651  1.00  0.00     0.010 A 
ATOM     63  C   UNL A   1      44.646  33.438  31.617  1.00  0.00     0.010 A 
ATOM     64  C   UNL A   1      43.681  33.957  34.191  1.00  0.00     0.020 A 
ATOM     65  C   UNL A   1      44.786  34.715  32.164  1.00  0.00     0.020 A 
ATOM     66  C   UNL A   1      44.285  34.972  33.442  1.00  0.00     0.054 A 
BRANCH  66  67
ATOM     67  S   UNL A   1      44.431  36.627  34.168  1.00  0.00     0.124 S 
ATOM     68  O   UNL A   1      45.760  36.575  34.773  1.00  0.00    -0.237 OA
ATOM     69  O   UNL A   1      44.304  37.501  33.005  1.00  0.00    -0.237 OA
ATOM     70  O   UNL A   1      43.320  36.690  35.115  1.00  0.00    -0.744 OA
ENDBRANCH  66  67
ENDBRANCH  47  61
BRANCH  48  71
ATOM     71  C   UNL A   1      42.678  23.540  27.937  1.00  0.00    -0.014 A 
ATOM     72  C   UNL A   1      42.106  22.464  28.641  1.00  0.00     0.010 A 
ATOM     73  C   UNL A   1      43.092  23.340  26.607  1.00  0.00     0.010 A 
ATOM     74  C   UNL A   1      41.969  21.212  28.034  1.00  0.00     0.020 A 
ATOM     75  C   UNL A   1      42.929  22.097  25.987  1.00  0.00     0.020 A 
ATOM     76  C   UNL A   1      42.381  21.037  26.710  1.00  0.00     0.054 A 
BRANCH  76  77
ATOM     77  S   UNL A   1      42.152  19.416  25.925  1.00  0.00     0.124 S 
ATOM     78  O   UNL A   1      40.713  19.397  25.683  1.00  0.00    -0.237 OA
ATOM     79  O   UNL A   1      42.993  19.518  24.736  1.00  0.00    -0.237 OA
ATOM     80  O   UNL A   1      42.629  18.477  26.938  1.00  0.00    -0.744 OA
ENDBRANCH  76  77
ENDBRANCH  48  71
BRANCH  60  81
ATOM     81  C   UNL A   1      48.055  26.516  31.236  1.00  0.00    -0.014 A 
ATOM     82  C   UNL A   1      49.172  26.858  30.454  1.00  0.00     0.010 A 
ATOM     83  C   UNL A   1      48.240  25.728  32.388  1.00  0.00     0.010 A 
ATOM     84  C   UNL A   1      50.443  26.385  30.794  1.00  0.00     0.020 A 
ATOM     85  C   UNL A   1      49.513  25.279  32.747  1.00  0.00     0.020 A 
ATOM     86  C   UNL A   1      50.604  25.594  31.936  1.00  0.00     0.054 A 
BRANCH  86  87
ATOM     87  S   UNL A   1      52.266  25.009  32.369  1.00  0.00     0.124 S 
ATOM     88  O   UNL A   1      53.032  25.361  31.178  1.00  0.00    -0.237 OA
ATOM     89  O   UNL A   1      52.577  25.782  33.569  1.00  0.00    -0.237 OA
ATOM     90  O   UNL A   1      52.081  23.576  32.591  1.00  0.00    -0.744 OA
ENDBRANCH  86  87
ENDBRANCH  60  81
ENDBRANCH  34  35
ENDBRANCH  27  29
ENDBRANCH  26  27
ENDBRANCH  25  26
ENDBRANCH  24  25
ENDBRANCH  23  24
ENDBRANCH  22  23
ENDBRANCH   1  22
TORSDOF 23
ENDMDL
