MODEL 1
REMARK VINA RESULT:      -8.3      0.000      0.000
REMARK SMILES N#C/C(=C\c1ccc(-c2cc(C(F)(F)F)ccc2Cl)o1)C(=O)OCCOCCOCCOC(=O)c1ccc(-c2c3nc(c(-c4ccc(S(=O)(=O)[O-])cc4)c4ccc([nH]4)c(-c4ccc(S(=O)(=O)[O-])cc4)c4nc(c(-c5ccc(S(=O)(=O)[O-])cc5)c5ccc2[nH]5)C=C4)C=C3)cc1
REMARK SMILES IDX 27 1 26 2 25 3 24 4 23 5 21 6 22 7 3 8 4 9 2 10 1 11 5 12
REMARK SMILES IDX 6 13 20 14 7 15 8 16 9 17 10 18 18 19 11 20 17 21 19 22
REMARK SMILES IDX 16 23 12 24 13 25 14 26 15 27 28 28 29 29 30 30 31 31 32 32
REMARK SMILES IDX 33 33 34 34 35 35 36 36 94 37 37 38 93 39 38 40 39 41 40 42
REMARK SMILES IDX 87 43 41 44 92 45 86 46 88 47 42 48 91 49 85 50 84 51 43 53
REMARK SMILES IDX 73 54 54 55 72 56 55 57 58 58 71 59 89 60 56 61 57 62 70 64
REMARK SMILES IDX 90 65 59 66 44 67 45 68 53 69 46 70 52 71 47 72 48 73 49 74
REMARK SMILES IDX 50 75 51 76 74 77 75 78 83 79 76 80 82 81 77 82 78 83 79 84
REMARK SMILES IDX 80 85 81 86 60 87 61 88 69 89 62 90 68 91 63 92 64 93 65 94
REMARK SMILES IDX 66 95 67 96
REMARK H PARENT 88 52 58 63
REMARK Flexibility Score: inf
ROOT
ATOM      1  C   UNL A   1      38.802  32.222  30.763  1.00  0.00     0.188 C 
ENDROOT
BRANCH   1   2
ATOM      2  O   UNL A   1      39.441  33.445  31.072  1.00  0.00    -0.376 OA
BRANCH   2   3
ATOM      3  C   UNL A   1      40.809  33.494  31.446  1.00  0.00     0.202 C 
BRANCH   3   4
ATOM      4  C   UNL A   1      41.265  34.055  32.796  1.00  0.00     0.261 C 
BRANCH   4   5
ATOM      5  O   UNL A   1      41.221  33.088  33.851  1.00  0.00    -0.459 OA
BRANCH   5   6
ATOM      6  C   UNL A   1      40.946  33.604  35.075  1.00  0.00     0.349 C 
ATOM      7  O   UNL A   1      41.749  34.128  35.829  1.00  0.00    -0.245 OA
BRANCH   6   8
ATOM      8  C   UNL A   1      39.494  33.569  35.345  1.00  0.00     0.141 C 
ATOM      9  C   UNL A   1      38.765  34.587  34.819  1.00  0.00     0.074 C 
BRANCH   8  10
ATOM     10  C   UNL A   1      38.848  32.195  35.420  1.00  0.00     0.107 C 
ATOM     11  N   UNL A   1      38.312  31.055  35.481  1.00  0.00    -0.192 NA
ENDBRANCH   8  10
BRANCH   9  12
ATOM     12  C   UNL A   1      37.378  34.445  34.472  1.00  0.00     0.129 A 
ATOM     13  C   UNL A   1      36.342  33.807  35.149  1.00  0.00     0.051 A 
ATOM     14  O   UNL A   1      36.846  34.920  33.277  1.00  0.00    -0.457 OA
ATOM     15  C   UNL A   1      35.196  33.823  34.326  1.00  0.00     0.051 A 
ATOM     16  C   UNL A   1      35.534  34.539  33.201  1.00  0.00     0.136 A 
BRANCH  16  17
ATOM     17  C   UNL A   1      34.759  34.937  32.027  1.00  0.00     0.036 A 
ATOM     18  C   UNL A   1      34.820  34.176  30.842  1.00  0.00     0.026 A 
ATOM     19  C   UNL A   1      33.851  36.012  32.078  1.00  0.00     0.052 A 
ATOM     20  C   UNL A   1      33.974  34.457  29.744  1.00  0.00     0.056 A 
ATOM     21  C   UNL A   1      33.016  36.301  30.994  1.00  0.00     0.022 A 
ATOM     22  Cl  UNL A   1      33.710  37.050  33.459  1.00  0.00    -0.084 Cl
ATOM     23  C   UNL A   1      33.071  35.525  29.838  1.00  0.00     0.014 A 
BRANCH  20  24
ATOM     24  C   UNL A   1      34.023  33.611  28.491  1.00  0.00     0.416 C 
ATOM     25  F   UNL A   1      35.258  33.593  27.920  1.00  0.00    -0.166 F 
ATOM     26  F   UNL A   1      33.688  32.313  28.718  1.00  0.00    -0.166 F 
ATOM     27  F   UNL A   1      33.174  34.047  27.515  1.00  0.00    -0.166 F 
ENDBRANCH  20  24
ENDBRANCH  16  17
ENDBRANCH   9  12
ENDBRANCH   6   8
ENDBRANCH   5   6
ENDBRANCH   4   5
ENDBRANCH   3   4
ENDBRANCH   2   3
ENDBRANCH   1   2
BRANCH   1  28
ATOM     28  C   UNL A   1      38.440  31.226  31.888  1.00  0.00     0.188 C 
BRANCH  28  29
ATOM     29  O   UNL A   1      37.648  30.106  31.603  1.00  0.00    -0.376 OA
BRANCH  29  30
ATOM     30  C   UNL A   1      36.562  30.262  30.708  1.00  0.00     0.202 C 
BRANCH  30  31
ATOM     31  C   UNL A   1      36.606  31.133  29.433  1.00  0.00     0.261 C 
BRANCH  31  32
ATOM     32  O   UNL A   1      37.008  30.520  28.198  1.00  0.00    -0.460 OA
BRANCH  32  33
ATOM     33  C   UNL A   1      37.503  29.257  28.295  1.00  0.00     0.338 C 
ATOM     34  O   UNL A   1      36.850  28.219  28.325  1.00  0.00    -0.246 OA
BRANCH  33  35
ATOM     35  C   UNL A   1      38.970  29.278  28.109  1.00  0.00     0.060 A 
ATOM     36  C   UNL A   1      39.501  29.306  26.808  1.00  0.00     0.016 A 
ATOM     37  C   UNL A   1      39.823  29.240  29.212  1.00  0.00     0.016 A 
ATOM     38  C   UNL A   1      40.884  29.276  26.607  1.00  0.00     0.010 A 
ATOM     39  C   UNL A   1      41.205  29.176  29.007  1.00  0.00     0.010 A 
ATOM     40  C   UNL A   1      41.744  29.162  27.705  1.00  0.00    -0.014 A 
BRANCH  40  41
ATOM     41  C   UNL A   1      43.179  28.830  27.507  1.00  0.00     0.031 A 
ATOM     42  C   UNL A   1      44.199  29.921  27.709  1.00  0.00     0.074 A 
ATOM     43  C   UNL A   1      43.578  27.597  27.146  1.00  0.00     0.049 A 
ATOM     44  N   UNL A   1      45.488  29.905  27.489  1.00  0.00    -0.248 NA
ATOM     45  C   UNL A   1      43.691  31.204  28.224  1.00  0.00     0.031 C 
ATOM     46  C   UNL A   1      42.705  26.439  26.973  1.00  0.00     0.029 A 
ATOM     47  N   UNL A   1      44.832  27.122  26.844  1.00  0.00    -0.354 N 
ATOM     48  C   UNL A   1      45.945  31.173  27.831  1.00  0.00     0.074 A 
ATOM     49  C   UNL A   1      44.790  31.944  28.240  1.00  0.00     0.031 C 
ATOM     50  C   UNL A   1      43.447  25.392  26.567  1.00  0.00     0.029 A 
ATOM     51  C   UNL A   1      44.839  25.814  26.418  1.00  0.00     0.049 A 
ATOM     52  H   UNL A   1      45.649  27.666  26.924  1.00  0.00     0.167 HD
ATOM     53  C   UNL A   1      47.210  31.654  27.813  1.00  0.00     0.031 A 
ATOM     54  C   UNL A   1      45.844  25.056  25.934  1.00  0.00     0.031 A 
ATOM     55  C   UNL A   1      48.356  30.894  27.386  1.00  0.00     0.049 A 
ATOM     56  C   UNL A   1      47.233  25.639  25.837  1.00  0.00     0.074 A 
ATOM     57  C   UNL A   1      49.680  31.295  27.327  1.00  0.00     0.029 A 
ATOM     58  N   UNL A   1      48.316  29.582  26.940  1.00  0.00    -0.354 N 
ATOM     59  N   UNL A   1      47.652  26.837  26.170  1.00  0.00    -0.248 NA
ATOM     60  C   UNL A   1      48.288  24.762  25.306  1.00  0.00     0.031 C 
ATOM     61  C   UNL A   1      50.430  30.244  26.790  1.00  0.00     0.029 A 
ATOM     62  C   UNL A   1      49.587  29.164  26.583  1.00  0.00     0.049 A 
ATOM     63  H   UNL A   1      47.503  29.029  26.886  1.00  0.00     0.167 HD
ATOM     64  C   UNL A   1      49.022  26.845  25.920  1.00  0.00     0.074 A 
ATOM     65  C   UNL A   1      49.363  25.529  25.421  1.00  0.00     0.031 C 
ATOM     66  C   UNL A   1      49.917  27.850  26.091  1.00  0.00     0.031 A 
BRANCH  53  67
ATOM     67  C   UNL A   1      47.419  33.082  28.244  1.00  0.00    -0.014 A 
ATOM     68  C   UNL A   1      47.703  33.403  29.585  1.00  0.00     0.010 A 
ATOM     69  C   UNL A   1      47.371  34.114  27.290  1.00  0.00     0.010 A 
ATOM     70  C   UNL A   1      47.901  34.733  29.967  1.00  0.00     0.020 A 
ATOM     71  C   UNL A   1      47.598  35.442  27.663  1.00  0.00     0.020 A 
ATOM     72  C   UNL A   1      47.847  35.744  29.003  1.00  0.00     0.054 A 
BRANCH  72  73
ATOM     73  S   UNL A   1      48.137  37.457  29.526  1.00  0.00     0.124 S 
ATOM     74  O   UNL A   1      48.727  38.042  28.325  1.00  0.00    -0.237 OA
ATOM     75  O   UNL A   1      46.792  37.921  29.856  1.00  0.00    -0.237 OA
ATOM     76  O   UNL A   1      49.044  37.324  30.663  1.00  0.00    -0.744 OA
ENDBRANCH  72  73
ENDBRANCH  53  67
BRANCH  54  77
ATOM     77  C   UNL A   1      45.572  23.667  25.462  1.00  0.00    -0.014 A 
ATOM     78  C   UNL A   1      45.302  23.400  24.107  1.00  0.00     0.010 A 
ATOM     79  C   UNL A   1      45.562  22.599  26.379  1.00  0.00     0.010 A 
ATOM     80  C   UNL A   1      45.006  22.100  23.685  1.00  0.00     0.020 A 
ATOM     81  C   UNL A   1      45.299  21.293  25.956  1.00  0.00     0.020 A 
ATOM     82  C   UNL A   1      45.008  21.054  24.612  1.00  0.00     0.054 A 
BRANCH  82  83
ATOM     83  S   UNL A   1      44.658  19.369  24.036  1.00  0.00     0.124 S 
ATOM     84  O   UNL A   1      44.456  19.572  22.604  1.00  0.00    -0.237 OA
ATOM     85  O   UNL A   1      45.875  18.649  24.407  1.00  0.00    -0.237 OA
ATOM     86  O   UNL A   1      43.465  18.989  24.788  1.00  0.00    -0.744 OA
ENDBRANCH  82  83
ENDBRANCH  54  77
BRANCH  66  87
ATOM     87  C   UNL A   1      51.365  27.562  25.782  1.00  0.00    -0.014 A 
ATOM     88  C   UNL A   1      52.280  27.220  26.794  1.00  0.00     0.010 A 
ATOM     89  C   UNL A   1      51.802  27.572  24.443  1.00  0.00     0.010 A 
ATOM     90  C   UNL A   1      53.610  26.927  26.477  1.00  0.00     0.020 A 
ATOM     91  C   UNL A   1      53.123  27.249  24.119  1.00  0.00     0.020 A 
ATOM     92  C   UNL A   1      54.022  26.942  25.141  1.00  0.00     0.054 A 
BRANCH  92  93
ATOM     93  S   UNL A   1      55.743  26.514  24.753  1.00  0.00     0.124 S 
ATOM     94  O   UNL A   1      55.794  26.736  23.311  1.00  0.00    -0.237 OA
ATOM     95  O   UNL A   1      56.499  27.465  25.563  1.00  0.00    -0.237 OA
ATOM     96  O   UNL A   1      55.857  25.119  25.172  1.00  0.00    -0.744 OA
ENDBRANCH  92  93
ENDBRANCH  66  87
ENDBRANCH  40  41
ENDBRANCH  33  35
ENDBRANCH  32  33
ENDBRANCH  31  32
ENDBRANCH  30  31
ENDBRANCH  29  30
ENDBRANCH  28  29
ENDBRANCH   1  28
TORSDOF 24
ENDMDL
MODEL 2
REMARK VINA RESULT:      -8.2      7.154     12.556
REMARK SMILES N#C/C(=C\c1ccc(-c2cc(C(F)(F)F)ccc2Cl)o1)C(=O)OCCOCCOCCOC(=O)c1ccc(-c2c3nc(c(-c4ccc(S(=O)(=O)[O-])cc4)c4ccc([nH]4)c(-c4ccc(S(=O)(=O)[O-])cc4)c4nc(c(-c5ccc(S(=O)(=O)[O-])cc5)c5ccc2[nH]5)C=C4)C=C3)cc1
REMARK SMILES IDX 27 1 26 2 25 3 24 4 23 5 21 6 22 7 3 8 4 9 2 10 1 11 5 12
REMARK SMILES IDX 6 13 20 14 7 15 8 16 9 17 10 18 18 19 11 20 17 21 19 22
REMARK SMILES IDX 16 23 12 24 13 25 14 26 15 27 28 28 29 29 30 30 31 31 32 32
REMARK SMILES IDX 33 33 34 34 35 35 36 36 94 37 37 38 93 39 38 40 39 41 40 42
REMARK SMILES IDX 87 43 41 44 92 45 86 46 88 47 42 48 91 49 85 50 84 51 43 53
REMARK SMILES IDX 73 54 54 55 72 56 55 57 58 58 71 59 89 60 56 61 57 62 70 64
REMARK SMILES IDX 90 65 59 66 44 67 45 68 53 69 46 70 52 71 47 72 48 73 49 74
REMARK SMILES IDX 50 75 51 76 74 77 75 78 83 79 76 80 82 81 77 82 78 83 79 84
REMARK SMILES IDX 80 85 81 86 60 87 61 88 69 89 62 90 68 91 63 92 64 93 65 94
REMARK SMILES IDX 66 95 67 96
REMARK H PARENT 88 52 58 63
REMARK Flexibility Score: inf
ROOT
ATOM      1  C   UNL A   1      41.116  40.779  41.605  1.00  0.00     0.188 C 
ENDROOT
BRANCH   1   2
ATOM      2  O   UNL A   1      40.050  40.229  40.856  1.00  0.00    -0.376 OA
BRANCH   2   3
ATOM      3  C   UNL A   1      40.145  38.942  40.264  1.00  0.00     0.202 C 
BRANCH   3   4
ATOM      4  C   UNL A   1      38.906  38.138  39.860  1.00  0.00     0.261 C 
BRANCH   4   5
ATOM      5  O   UNL A   1      39.152  37.229  38.782  1.00  0.00    -0.459 OA
BRANCH   5   6
ATOM      6  C   UNL A   1      39.132  35.920  39.134  1.00  0.00     0.349 C 
ATOM      7  O   UNL A   1      38.939  35.482  40.256  1.00  0.00    -0.245 OA
BRANCH   6   8
ATOM      8  C   UNL A   1      39.251  35.054  37.943  1.00  0.00     0.141 C 
ATOM      9  C   UNL A   1      38.413  33.986  37.897  1.00  0.00     0.074 C 
BRANCH   8  10
ATOM     10  C   UNL A   1      39.602  35.741  36.633  1.00  0.00     0.107 C 
ATOM     11  N   UNL A   1      39.893  36.312  35.547  1.00  0.00    -0.192 NA
ENDBRANCH   8  10
BRANCH   9  12
ATOM     12  C   UNL A   1      37.971  33.403  36.660  1.00  0.00     0.129 A 
ATOM     13  C   UNL A   1      38.446  32.292  35.969  1.00  0.00     0.051 A 
ATOM     14  O   UNL A   1      36.955  33.955  35.885  1.00  0.00    -0.457 OA
ATOM     15  C   UNL A   1      37.770  32.214  34.733  1.00  0.00     0.051 A 
ATOM     16  C   UNL A   1      36.845  33.231  34.730  1.00  0.00     0.136 A 
BRANCH  16  17
ATOM     17  C   UNL A   1      35.826  33.623  33.756  1.00  0.00     0.036 A 
ATOM     18  C   UNL A   1      35.175  34.868  33.868  1.00  0.00     0.026 A 
ATOM     19  C   UNL A   1      35.549  32.828  32.627  1.00  0.00     0.052 A 
ATOM     20  C   UNL A   1      34.293  35.328  32.863  1.00  0.00     0.056 A 
ATOM     21  C   UNL A   1      34.672  33.274  31.632  1.00  0.00     0.022 A 
ATOM     22  Cl  UNL A   1      36.250  31.260  32.393  1.00  0.00    -0.084 Cl
ATOM     23  C   UNL A   1      34.055  34.518  31.745  1.00  0.00     0.014 A 
BRANCH  20  24
ATOM     24  C   UNL A   1      33.629  36.682  32.976  1.00  0.00     0.416 C 
ATOM     25  F   UNL A   1      33.810  37.448  31.866  1.00  0.00    -0.166 F 
ATOM     26  F   UNL A   1      32.285  36.597  33.166  1.00  0.00    -0.166 F 
ATOM     27  F   UNL A   1      34.103  37.428  34.017  1.00  0.00    -0.166 F 
ENDBRANCH  20  24
ENDBRANCH  16  17
ENDBRANCH   9  12
ENDBRANCH   6   8
ENDBRANCH   5   6
ENDBRANCH   4   5
ENDBRANCH   3   4
ENDBRANCH   2   3
ENDBRANCH   1   2
BRANCH   1  28
ATOM     28  C   UNL A   1      42.260  41.535  40.893  1.00  0.00     0.188 C 
BRANCH  28  29
ATOM     29  O   UNL A   1      42.807  42.687  41.477  1.00  0.00    -0.376 OA
BRANCH  29  30
ATOM     30  C   UNL A   1      44.216  42.818  41.509  1.00  0.00     0.202 C 
BRANCH  30  31
ATOM     31  C   UNL A   1      44.992  44.010  40.906  1.00  0.00     0.261 C 
BRANCH  31  32
ATOM     32  O   UNL A   1      44.936  44.215  39.486  1.00  0.00    -0.460 OA
BRANCH  32  33
ATOM     33  C   UNL A   1      46.052  43.868  38.790  1.00  0.00     0.338 C 
ATOM     34  O   UNL A   1      47.202  44.213  39.040  1.00  0.00    -0.246 OA
BRANCH  33  35
ATOM     35  C   UNL A   1      45.726  42.801  37.819  1.00  0.00     0.060 A 
ATOM     36  C   UNL A   1      44.383  42.444  37.611  1.00  0.00     0.016 A 
ATOM     37  C   UNL A   1      46.741  42.132  37.136  1.00  0.00     0.016 A 
ATOM     38  C   UNL A   1      44.054  41.405  36.736  1.00  0.00     0.010 A 
ATOM     39  C   UNL A   1      46.411  41.071  36.287  1.00  0.00     0.010 A 
ATOM     40  C   UNL A   1      45.070  40.679  36.104  1.00  0.00    -0.014 A 
BRANCH  40  41
ATOM     41  C   UNL A   1      44.765  39.398  35.416  1.00  0.00     0.031 A 
ATOM     42  C   UNL A   1      44.598  39.414  33.919  1.00  0.00     0.074 A 
ATOM     43  C   UNL A   1      44.628  38.244  36.094  1.00  0.00     0.049 A 
ATOM     44  N   UNL A   1      44.223  38.455  33.113  1.00  0.00    -0.248 NA
ATOM     45  C   UNL A   1      44.888  40.690  33.242  1.00  0.00     0.031 C 
ATOM     46  C   UNL A   1      44.819  38.077  37.533  1.00  0.00     0.029 A 
ATOM     47  N   UNL A   1      44.276  36.991  35.652  1.00  0.00    -0.354 N 
ATOM     48  C   UNL A   1      44.226  39.009  31.838  1.00  0.00     0.074 A 
ATOM     49  C   UNL A   1      44.606  40.399  31.981  1.00  0.00     0.031 C 
ATOM     50  C   UNL A   1      44.553  36.798  37.860  1.00  0.00     0.029 A 
ATOM     51  C   UNL A   1      44.141  36.068  36.663  1.00  0.00     0.049 A 
ATOM     52  H   UNL A   1      44.132  36.774  34.702  1.00  0.00     0.167 HD
ATOM     53  C   UNL A   1      43.944  38.418  30.653  1.00  0.00     0.031 A 
ATOM     54  C   UNL A   1      43.705  34.791  36.630  1.00  0.00     0.031 A 
ATOM     55  C   UNL A   1      43.546  37.042  30.513  1.00  0.00     0.049 A 
ATOM     56  C   UNL A   1      43.309  34.176  35.310  1.00  0.00     0.074 A 
ATOM     57  C   UNL A   1      43.233  36.350  29.355  1.00  0.00     0.029 A 
ATOM     58  N   UNL A   1      43.398  36.148  31.563  1.00  0.00    -0.354 N 
ATOM     59  N   UNL A   1      43.322  34.710  34.112  1.00  0.00    -0.248 NA
ATOM     60  C   UNL A   1      42.846  32.780  35.339  1.00  0.00     0.031 C 
ATOM     61  C   UNL A   1      42.841  35.056  29.712  1.00  0.00     0.029 A 
ATOM     62  C   UNL A   1      42.978  34.919  31.084  1.00  0.00     0.049 A 
ATOM     63  H   UNL A   1      43.568  36.357  32.510  1.00  0.00     0.167 HD
ATOM     64  C   UNL A   1      42.903  33.705  33.243  1.00  0.00     0.074 A 
ATOM     65  C   UNL A   1      42.657  32.530  34.050  1.00  0.00     0.031 C 
ATOM     66  C   UNL A   1      42.740  33.752  31.896  1.00  0.00     0.031 A 
BRANCH  53  67
ATOM     67  C   UNL A   1      44.030  39.267  29.412  1.00  0.00    -0.014 A 
ATOM     68  C   UNL A   1      42.873  39.799  28.813  1.00  0.00     0.010 A 
ATOM     69  C   UNL A   1      45.287  39.571  28.859  1.00  0.00     0.010 A 
ATOM     70  C   UNL A   1      42.971  40.591  27.666  1.00  0.00     0.020 A 
ATOM     71  C   UNL A   1      45.392  40.388  27.730  1.00  0.00     0.020 A 
ATOM     72  C   UNL A   1      44.230  40.880  27.132  1.00  0.00     0.054 A 
BRANCH  72  73
ATOM     73  S   UNL A   1      44.326  41.935  25.659  1.00  0.00     0.124 S 
ATOM     74  O   UNL A   1      42.916  42.109  25.321  1.00  0.00    -0.237 OA
ATOM     75  O   UNL A   1      45.003  43.127  26.163  1.00  0.00    -0.237 OA
ATOM     76  O   UNL A   1      45.099  41.138  24.710  1.00  0.00    -0.744 OA
ENDBRANCH  72  73
ENDBRANCH  53  67
BRANCH  54  77
ATOM     77  C   UNL A   1      43.578  34.013  37.897  1.00  0.00    -0.014 A 
ATOM     78  C   UNL A   1      44.630  33.201  38.359  1.00  0.00     0.010 A 
ATOM     79  C   UNL A   1      42.385  34.067  38.642  1.00  0.00     0.010 A 
ATOM     80  C   UNL A   1      44.483  32.443  39.525  1.00  0.00     0.020 A 
ATOM     81  C   UNL A   1      42.245  33.336  39.825  1.00  0.00     0.020 A 
ATOM     82  C   UNL A   1      43.291  32.517  40.252  1.00  0.00     0.054 A 
BRANCH  82  83
ATOM     83  S   UNL A   1      43.136  31.554  41.783  1.00  0.00     0.124 S 
ATOM     84  O   UNL A   1      43.632  32.492  42.785  1.00  0.00    -0.237 OA
ATOM     85  O   UNL A   1      41.703  31.272  41.835  1.00  0.00    -0.237 OA
ATOM     86  O   UNL A   1      43.983  30.389  41.543  1.00  0.00    -0.744 OA
ENDBRANCH  82  83
ENDBRANCH  54  77
BRANCH  66  87
ATOM     87  C   UNL A   1      42.316  32.486  31.195  1.00  0.00    -0.014 A 
ATOM     88  C   UNL A   1      43.241  31.472  30.884  1.00  0.00     0.010 A 
ATOM     89  C   UNL A   1      40.955  32.280  30.900  1.00  0.00     0.010 A 
ATOM     90  C   UNL A   1      42.817  30.294  30.262  1.00  0.00     0.020 A 
ATOM     91  C   UNL A   1      40.522  31.091  30.306  1.00  0.00     0.020 A 
ATOM     92  C   UNL A   1      41.460  30.110  29.978  1.00  0.00     0.054 A 
BRANCH  92  93
ATOM     93  S   UNL A   1      40.931  28.554  29.211  1.00  0.00     0.124 S 
ATOM     94  O   UNL A   1      39.489  28.576  29.438  1.00  0.00    -0.237 OA
ATOM     95  O   UNL A   1      41.351  28.722  27.822  1.00  0.00    -0.237 OA
ATOM     96  O   UNL A   1      41.662  27.532  29.957  1.00  0.00    -0.744 OA
ENDBRANCH  92  93
ENDBRANCH  66  87
ENDBRANCH  40  41
ENDBRANCH  33  35
ENDBRANCH  32  33
ENDBRANCH  31  32
ENDBRANCH  30  31
ENDBRANCH  29  30
ENDBRANCH  28  29
ENDBRANCH   1  28
TORSDOF 24
ENDMDL
MODEL 3
REMARK VINA RESULT:      -8.1      8.267     13.841
REMARK SMILES N#C/C(=C\c1ccc(-c2cc(C(F)(F)F)ccc2Cl)o1)C(=O)OCCOCCOCCOC(=O)c1ccc(-c2c3nc(c(-c4ccc(S(=O)(=O)[O-])cc4)c4ccc([nH]4)c(-c4ccc(S(=O)(=O)[O-])cc4)c4nc(c(-c5ccc(S(=O)(=O)[O-])cc5)c5ccc2[nH]5)C=C4)C=C3)cc1
REMARK SMILES IDX 27 1 26 2 25 3 24 4 23 5 21 6 22 7 3 8 4 9 2 10 1 11 5 12
REMARK SMILES IDX 6 13 20 14 7 15 8 16 9 17 10 18 18 19 11 20 17 21 19 22
REMARK SMILES IDX 16 23 12 24 13 25 14 26 15 27 28 28 29 29 30 30 31 31 32 32
REMARK SMILES IDX 33 33 34 34 35 35 36 36 94 37 37 38 93 39 38 40 39 41 40 42
REMARK SMILES IDX 87 43 41 44 92 45 86 46 88 47 42 48 91 49 85 50 84 51 43 53
REMARK SMILES IDX 73 54 54 55 72 56 55 57 58 58 71 59 89 60 56 61 57 62 70 64
REMARK SMILES IDX 90 65 59 66 44 67 45 68 53 69 46 70 52 71 47 72 48 73 49 74
REMARK SMILES IDX 50 75 51 76 74 77 75 78 83 79 76 80 82 81 77 82 78 83 79 84
REMARK SMILES IDX 80 85 81 86 60 87 61 88 69 89 62 90 68 91 63 92 64 93 65 94
REMARK SMILES IDX 66 95 67 96
REMARK H PARENT 88 52 58 63
REMARK Flexibility Score: inf
ROOT
ATOM      1  C   UNL A   1      51.901  45.214  26.924  1.00  0.00     0.188 C 
ENDROOT
BRANCH   1   2
ATOM      2  O   UNL A   1      51.895  44.627  25.637  1.00  0.00    -0.376 OA
BRANCH   2   3
ATOM      3  C   UNL A   1      52.042  45.411  24.463  1.00  0.00     0.202 C 
BRANCH   3   4
ATOM      4  C   UNL A   1      51.744  44.853  23.068  1.00  0.00     0.261 C 
BRANCH   4   5
ATOM      5  O   UNL A   1      50.887  45.699  22.295  1.00  0.00    -0.459 OA
BRANCH   5   6
ATOM      6  C   UNL A   1      49.590  45.697  22.689  1.00  0.00     0.349 C 
ATOM      7  O   UNL A   1      49.029  46.583  23.312  1.00  0.00    -0.245 OA
BRANCH   6   8
ATOM      8  C   UNL A   1      48.879  44.519  22.151  1.00  0.00     0.141 C 
ATOM      9  C   UNL A   1      47.758  44.144  22.819  1.00  0.00     0.074 C 
BRANCH   8  10
ATOM     10  C   UNL A   1      48.904  44.339  20.642  1.00  0.00     0.107 C 
ATOM     11  N   UNL A   1      48.924  44.190  19.390  1.00  0.00    -0.192 NA
ENDBRANCH   8  10
BRANCH   9  12
ATOM     12  C   UNL A   1      46.669  43.459  22.177  1.00  0.00     0.129 A 
ATOM     13  C   UNL A   1      46.468  42.100  21.955  1.00  0.00     0.051 A 
ATOM     14  O   UNL A   1      45.599  44.127  21.588  1.00  0.00    -0.457 OA
ATOM     15  C   UNL A   1      45.315  41.945  21.157  1.00  0.00     0.051 A 
ATOM     16  C   UNL A   1      44.793  43.205  20.978  1.00  0.00     0.136 A 
BRANCH  16  17
ATOM     17  C   UNL A   1      43.590  43.676  20.294  1.00  0.00     0.036 A 
ATOM     18  C   UNL A   1      43.693  44.497  19.153  1.00  0.00     0.026 A 
ATOM     19  C   UNL A   1      42.308  43.236  20.680  1.00  0.00     0.052 A 
ATOM     20  C   UNL A   1      42.553  44.846  18.393  1.00  0.00     0.056 A 
ATOM     21  C   UNL A   1      41.175  43.584  19.937  1.00  0.00     0.022 A 
ATOM     22  Cl  UNL A   1      42.041  42.260  22.086  1.00  0.00    -0.084 Cl
ATOM     23  C   UNL A   1      41.296  44.376  18.798  1.00  0.00     0.014 A 
BRANCH  20  24
ATOM     24  C   UNL A   1      42.682  45.698  17.149  1.00  0.00     0.416 C 
ATOM     25  F   UNL A   1      42.099  46.919  17.289  1.00  0.00    -0.166 F 
ATOM     26  F   UNL A   1      43.976  45.929  16.800  1.00  0.00    -0.166 F 
ATOM     27  F   UNL A   1      42.097  45.136  16.051  1.00  0.00    -0.166 F 
ENDBRANCH  20  24
ENDBRANCH  16  17
ENDBRANCH   9  12
ENDBRANCH   6   8
ENDBRANCH   5   6
ENDBRANCH   4   5
ENDBRANCH   3   4
ENDBRANCH   2   3
ENDBRANCH   1   2
BRANCH   1  28
ATOM     28  C   UNL A   1      50.569  45.574  27.622  1.00  0.00     0.188 C 
BRANCH  28  29
ATOM     29  O   UNL A   1      49.490  46.053  26.865  1.00  0.00    -0.376 OA
BRANCH  29  30
ATOM     30  C   UNL A   1      48.465  45.144  26.508  1.00  0.00     0.202 C 
BRANCH  30  31
ATOM     31  C   UNL A   1      47.034  45.563  26.106  1.00  0.00     0.261 C 
BRANCH  31  32
ATOM     32  O   UNL A   1      45.924  44.926  26.759  1.00  0.00    -0.460 OA
BRANCH  32  33
ATOM     33  C   UNL A   1      45.067  44.248  25.949  1.00  0.00     0.338 C 
ATOM     34  O   UNL A   1      44.571  44.661  24.906  1.00  0.00    -0.246 OA
BRANCH  33  35
ATOM     35  C   UNL A   1      44.999  42.831  26.366  1.00  0.00     0.060 A 
ATOM     36  C   UNL A   1      45.489  42.459  27.630  1.00  0.00     0.016 A 
ATOM     37  C   UNL A   1      44.484  41.864  25.503  1.00  0.00     0.016 A 
ATOM     38  C   UNL A   1      45.481  41.118  28.026  1.00  0.00     0.010 A 
ATOM     39  C   UNL A   1      44.508  40.519  25.889  1.00  0.00     0.010 A 
ATOM     40  C   UNL A   1      45.034  40.133  27.137  1.00  0.00    -0.014 A 
BRANCH  40  41
ATOM     41  C   UNL A   1      45.293  38.696  27.414  1.00  0.00     0.031 A 
ATOM     42  C   UNL A   1      46.593  38.100  26.939  1.00  0.00     0.074 A 
ATOM     43  C   UNL A   1      44.399  37.926  28.061  1.00  0.00     0.049 A 
ATOM     44  N   UNL A   1      46.995  36.856  26.962  1.00  0.00    -0.248 NA
ATOM     45  C   UNL A   1      47.567  39.037  26.353  1.00  0.00     0.031 C 
ATOM     46  C   UNL A   1      43.131  38.387  28.622  1.00  0.00     0.029 A 
ATOM     47  N   UNL A   1      44.421  36.581  28.337  1.00  0.00    -0.354 N 
ATOM     48  C   UNL A   1      48.262  36.858  26.390  1.00  0.00     0.074 A 
ATOM     49  C   UNL A   1      48.548  38.222  25.998  1.00  0.00     0.031 C 
ATOM     50  C   UNL A   1      42.483  37.334  29.153  1.00  0.00     0.029 A 
ATOM     51  C   UNL A   1      43.272  36.122  28.938  1.00  0.00     0.049 A 
ATOM     52  H   UNL A   1      45.187  35.999  28.126  1.00  0.00     0.167 HD
ATOM     53  C   UNL A   1      49.116  35.823  26.212  1.00  0.00     0.031 A 
ATOM     54  C   UNL A   1      42.887  34.866  29.248  1.00  0.00     0.031 A 
ATOM     55  C   UNL A   1      48.823  34.463  26.583  1.00  0.00     0.049 A 
ATOM     56  C   UNL A   1      43.816  33.712  28.959  1.00  0.00     0.074 A 
ATOM     57  C   UNL A   1      49.622  33.341  26.438  1.00  0.00     0.029 A 
ATOM     58  N   UNL A   1      47.639  34.037  27.165  1.00  0.00    -0.354 N 
ATOM     59  N   UNL A   1      45.015  33.730  28.424  1.00  0.00    -0.248 NA
ATOM     60  C   UNL A   1      43.343  32.369  29.325  1.00  0.00     0.031 C 
ATOM     61  C   UNL A   1      48.897  32.229  26.879  1.00  0.00     0.029 A 
ATOM     62  C   UNL A   1      47.676  32.668  27.366  1.00  0.00     0.049 A 
ATOM     63  H   UNL A   1      46.884  34.623  27.402  1.00  0.00     0.167 HD
ATOM     64  C   UNL A   1      45.449  32.406  28.420  1.00  0.00     0.074 A 
ATOM     65  C   UNL A   1      44.393  31.618  29.018  1.00  0.00     0.031 C 
ATOM     66  C   UNL A   1      46.619  31.892  27.966  1.00  0.00     0.031 A 
BRANCH  53  67
ATOM     67  C   UNL A   1      50.442  36.117  25.560  1.00  0.00    -0.014 A 
ATOM     68  C   UNL A   1      50.784  35.549  24.319  1.00  0.00     0.010 A 
ATOM     69  C   UNL A   1      51.342  37.004  26.177  1.00  0.00     0.010 A 
ATOM     70  C   UNL A   1      52.016  35.838  23.725  1.00  0.00     0.020 A 
ATOM     71  C   UNL A   1      52.562  37.319  25.572  1.00  0.00     0.020 A 
ATOM     72  C   UNL A   1      52.897  36.721  24.356  1.00  0.00     0.054 A 
BRANCH  72  73
ATOM     73  S   UNL A   1      54.475  37.098  23.545  1.00  0.00     0.124 S 
ATOM     74  O   UNL A   1      55.433  36.848  24.618  1.00  0.00    -0.237 OA
ATOM     75  O   UNL A   1      54.504  36.142  22.441  1.00  0.00    -0.237 OA
ATOM     76  O   UNL A   1      54.337  38.498  23.150  1.00  0.00    -0.744 OA
ENDBRANCH  72  73
ENDBRANCH  53  67
BRANCH  54  77
ATOM     77  C   UNL A   1      41.537  34.622  29.835  1.00  0.00    -0.014 A 
ATOM     78  C   UNL A   1      40.380  34.665  29.037  1.00  0.00     0.010 A 
ATOM     79  C   UNL A   1      41.403  34.362  31.212  1.00  0.00     0.010 A 
ATOM     80  C   UNL A   1      39.116  34.477  29.607  1.00  0.00     0.020 A 
ATOM     81  C   UNL A   1      40.145  34.141  31.780  1.00  0.00     0.020 A 
ATOM     82  C   UNL A   1      39.007  34.214  30.976  1.00  0.00     0.054 A 
BRANCH  82  83
ATOM     83  S   UNL A   1      37.361  33.936  31.688  1.00  0.00     0.124 S 
ATOM     84  O   UNL A   1      37.574  32.732  32.485  1.00  0.00    -0.237 OA
ATOM     85  O   UNL A   1      37.132  35.165  32.445  1.00  0.00    -0.237 OA
ATOM     86  O   UNL A   1      36.505  33.767  30.516  1.00  0.00    -0.744 OA
ENDBRANCH  82  83
ENDBRANCH  54  77
BRANCH  66  87
ATOM     87  C   UNL A   1      46.849  30.410  28.135  1.00  0.00    -0.014 A 
ATOM     88  C   UNL A   1      47.394  29.880  29.318  1.00  0.00     0.010 A 
ATOM     89  C   UNL A   1      46.450  29.528  27.112  1.00  0.00     0.010 A 
ATOM     90  C   UNL A   1      47.567  28.499  29.461  1.00  0.00     0.020 A 
ATOM     91  C   UNL A   1      46.592  28.146  27.264  1.00  0.00     0.020 A 
ATOM     92  C   UNL A   1      47.163  27.641  28.433  1.00  0.00     0.054 A 
BRANCH  92  93
ATOM     93  S   UNL A   1      47.358  25.852  28.663  1.00  0.00     0.124 S 
ATOM     94  O   UNL A   1      47.996  25.781  29.974  1.00  0.00    -0.237 OA
ATOM     95  O   UNL A   1      45.980  25.370  28.608  1.00  0.00    -0.237 OA
ATOM     96  O   UNL A   1      48.198  25.446  27.539  1.00  0.00    -0.744 OA
ENDBRANCH  92  93
ENDBRANCH  66  87
ENDBRANCH  40  41
ENDBRANCH  33  35
ENDBRANCH  32  33
ENDBRANCH  31  32
ENDBRANCH  30  31
ENDBRANCH  29  30
ENDBRANCH  28  29
ENDBRANCH   1  28
TORSDOF 24
ENDMDL
