MODEL 1
REMARK VINA RESULT:      -9.4      0.000      0.000
REMARK SMILES C[C@]1(C(=O)OCCOCCOCCOC(=O)c2ccc(-c3c4nc(c(-c5ccc(S(=O)(=O)[O-])cc5)c5ccc([nH]5)c(-c5ccc(S(=O)(=O)[O-])cc5)c5nc(c(-c6ccc(S(=O)(=O)[O-])cc6)c6ccc3[nH]6)C=C5)C=C4)cc2)COC[C@@H]1NC(=O)[C@H]1C=C[C@@H]([NH3+])C1
REMARK SMILES IDX 9 1 8 2 7 3 6 4 5 5 3 6 4 7 2 8 1 9 77 10 80 11 78 12 79 13
REMARK SMILES IDX 81 14 82 15 83 17 84 18 85 19 89 20 86 21 87 22 88 23 10 27
REMARK SMILES IDX 11 28 12 29 13 30 14 31 15 32 16 33 17 34 18 35 76 36 19 37
REMARK SMILES IDX 75 38 20 39 21 40 22 41 69 42 23 43 74 44 68 45 70 46 24 47
REMARK SMILES IDX 73 48 67 49 66 50 25 52 55 53 36 54 54 55 37 56 40 57 53 58
REMARK SMILES IDX 71 59 38 60 39 61 52 63 72 64 41 65 26 66 27 67 35 68 28 69
REMARK SMILES IDX 34 70 29 71 30 72 31 73 32 74 33 75 56 76 57 77 65 78 58 79
REMARK SMILES IDX 64 80 59 81 60 82 61 83 62 84 63 85 42 86 43 87 51 88 44 89
REMARK SMILES IDX 50 90 45 91 46 92 47 93 48 94 49 95
REMARK H PARENT 81 16 88 24 88 25 88 26 70 51 40 62
REMARK Flexibility Score: inf
ROOT
ATOM      1  C   UNL A   1      34.557  31.788  27.806  1.00  0.00     0.188 C 
ENDROOT
BRANCH   1   2
ATOM      2  O   UNL A   1      33.335  31.082  27.627  1.00  0.00    -0.376 OA
BRANCH   2   3
ATOM      3  C   UNL A   1      33.283  30.035  26.677  1.00  0.00     0.202 C 
BRANCH   3   4
ATOM      4  C   UNL A   1      31.897  29.564  26.217  1.00  0.00     0.261 C 
BRANCH   4   5
ATOM      5  O   UNL A   1      31.867  28.336  25.453  1.00  0.00    -0.463 OA
BRANCH   5   6
ATOM      6  C   UNL A   1      31.682  27.191  26.166  1.00  0.00     0.316 C 
ATOM      7  O   UNL A   1      31.168  27.177  27.278  1.00  0.00    -0.251 OA
BRANCH   6   8
ATOM      8  C   UNL A   1      32.295  25.945  25.495  1.00  0.00     0.111 C 
ATOM      9  C   UNL A   1      33.720  26.307  25.071  1.00  0.00     0.028 C 
ATOM     10  C   UNL A   1      32.297  24.833  26.562  1.00  0.00     0.181 C 
ATOM     11  C   UNL A   1      31.450  25.315  24.365  1.00  0.00     0.127 C 
ATOM     12  O   UNL A   1      31.794  23.643  25.948  1.00  0.00    -0.378 OA
ATOM     13  C   UNL A   1      30.848  24.061  24.966  1.00  0.00     0.186 C 
BRANCH  11  14
ATOM     14  N   UNL A   1      32.071  25.211  23.027  1.00  0.00    -0.349 N 
ATOM     15  C   UNL A   1      32.949  24.486  22.304  1.00  0.00     0.227 C 
ATOM     16  H   UNL A   1      31.713  25.930  22.458  1.00  0.00     0.163 HD
ATOM     17  O   UNL A   1      33.191  25.016  21.204  1.00  0.00    -0.274 OA
BRANCH  15  18
ATOM     18  C   UNL A   1      33.728  23.211  22.691  1.00  0.00     0.107 C 
ATOM     19  C   UNL A   1      34.506  23.102  23.955  1.00  0.00    -0.012 C 
ATOM     20  C   UNL A   1      32.699  22.049  22.871  1.00  0.00     0.087 C 
ATOM     21  C   UNL A   1      34.172  22.055  24.715  1.00  0.00     0.033 C 
ATOM     22  C   UNL A   1      33.145  21.203  24.071  1.00  0.00     0.205 C 
BRANCH  22  23
ATOM     23  N   UNL A   1      32.054  20.885  24.971  1.00  0.00    -0.352 N 
ATOM     24  H   UNL A   1      31.976  21.612  25.683  1.00  0.00     0.345 HD
ATOM     25  H   UNL A   1      32.235  19.987  25.421  1.00  0.00     0.345 HD
ATOM     26  H   UNL A   1      31.182  20.832  24.444  1.00  0.00     0.345 HD
ENDBRANCH  22  23
ENDBRANCH  15  18
ENDBRANCH  11  14
ENDBRANCH   6   8
ENDBRANCH   5   6
ENDBRANCH   4   5
ENDBRANCH   3   4
ENDBRANCH   2   3
ENDBRANCH   1   2
BRANCH   1  27
ATOM     27  C   UNL A   1      34.545  33.204  28.420  1.00  0.00     0.188 C 
BRANCH  27  28
ATOM     28  O   UNL A   1      34.054  33.198  29.751  1.00  0.00    -0.376 OA
BRANCH  28  29
ATOM     29  C   UNL A   1      34.739  34.064  30.638  1.00  0.00     0.202 C 
BRANCH  29  30
ATOM     30  C   UNL A   1      35.558  33.267  31.659  1.00  0.00     0.261 C 
BRANCH  30  31
ATOM     31  O   UNL A   1      36.614  32.461  31.095  1.00  0.00    -0.460 OA
BRANCH  31  32
ATOM     32  C   UNL A   1      37.141  31.503  31.888  1.00  0.00     0.338 C 
ATOM     33  O   UNL A   1      36.655  31.083  32.932  1.00  0.00    -0.246 OA
BRANCH  32  34
ATOM     34  C   UNL A   1      38.301  30.885  31.202  1.00  0.00     0.060 A 
ATOM     35  C   UNL A   1      39.317  30.300  31.972  1.00  0.00     0.016 A 
ATOM     36  C   UNL A   1      38.406  30.906  29.810  1.00  0.00     0.016 A 
ATOM     37  C   UNL A   1      40.455  29.767  31.351  1.00  0.00     0.010 A 
ATOM     38  C   UNL A   1      39.552  30.387  29.192  1.00  0.00     0.010 A 
ATOM     39  C   UNL A   1      40.601  29.841  29.958  1.00  0.00    -0.014 A 
BRANCH  39  40
ATOM     40  C   UNL A   1      41.904  29.527  29.308  1.00  0.00     0.031 A 
ATOM     41  C   UNL A   1      42.131  28.132  28.779  1.00  0.00     0.074 A 
ATOM     42  C   UNL A   1      42.883  30.444  29.184  1.00  0.00     0.049 A 
ATOM     43  N   UNL A   1      43.210  27.603  28.263  1.00  0.00    -0.248 NA
ATOM     44  C   UNL A   1      40.982  27.214  28.845  1.00  0.00     0.031 C 
ATOM     45  C   UNL A   1      42.795  31.844  29.595  1.00  0.00     0.029 A 
ATOM     46  N   UNL A   1      44.160  30.323  28.685  1.00  0.00    -0.354 N 
ATOM     47  C   UNL A   1      42.879  26.287  27.957  1.00  0.00     0.074 A 
ATOM     48  C   UNL A   1      41.503  26.095  28.368  1.00  0.00     0.031 C 
ATOM     49  C   UNL A   1      43.970  32.448  29.342  1.00  0.00     0.029 A 
ATOM     50  C   UNL A   1      44.911  31.471  28.792  1.00  0.00     0.049 A 
ATOM     51  H   UNL A   1      44.504  29.489  28.288  1.00  0.00     0.167 HD
ATOM     52  C   UNL A   1      43.643  25.324  27.389  1.00  0.00     0.031 A 
ATOM     53  C   UNL A   1      46.210  31.703  28.509  1.00  0.00     0.031 A 
ATOM     54  C   UNL A   1      45.015  25.499  26.995  1.00  0.00     0.049 A 
ATOM     55  C   UNL A   1      47.071  30.588  27.962  1.00  0.00     0.074 A 
ATOM     56  C   UNL A   1      45.864  24.579  26.405  1.00  0.00     0.029 A 
ATOM     57  N   UNL A   1      45.746  26.666  27.158  1.00  0.00    -0.354 N 
ATOM     58  N   UNL A   1      46.738  29.354  27.668  1.00  0.00    -0.248 NA
ATOM     59  C   UNL A   1      48.485  30.902  27.706  1.00  0.00     0.031 C 
ATOM     60  C   UNL A   1      47.125  25.168  26.268  1.00  0.00     0.029 A 
ATOM     61  C   UNL A   1      47.043  26.479  26.707  1.00  0.00     0.049 A 
ATOM     62  H   UNL A   1      45.395  27.504  27.539  1.00  0.00     0.167 HD
ATOM     63  C   UNL A   1      47.892  28.758  27.162  1.00  0.00     0.074 A 
ATOM     64  C   UNL A   1      48.927  29.768  27.179  1.00  0.00     0.031 C 
ATOM     65  C   UNL A   1      48.072  27.488  26.720  1.00  0.00     0.031 A 
BRANCH  52  66
ATOM     66  C   UNL A   1      43.018  23.966  27.196  1.00  0.00    -0.014 A 
ATOM     67  C   UNL A   1      42.984  23.021  28.238  1.00  0.00     0.010 A 
ATOM     68  C   UNL A   1      42.422  23.645  25.962  1.00  0.00     0.010 A 
ATOM     69  C   UNL A   1      42.402  21.767  28.036  1.00  0.00     0.020 A 
ATOM     70  C   UNL A   1      41.812  22.403  25.766  1.00  0.00     0.020 A 
ATOM     71  C   UNL A   1      41.822  21.464  26.799  1.00  0.00     0.054 A 
BRANCH  71  72
ATOM     72  S   UNL A   1      41.061  19.834  26.570  1.00  0.00     0.124 S 
ATOM     73  O   UNL A   1      40.945  19.361  27.948  1.00  0.00    -0.237 OA
ATOM     74  O   UNL A   1      39.800  20.161  25.909  1.00  0.00    -0.237 OA
ATOM     75  O   UNL A   1      42.026  19.113  25.745  1.00  0.00    -0.744 OA
ENDBRANCH  71  72
ENDBRANCH  52  66
BRANCH  53  76
ATOM     76  C   UNL A   1      46.803  33.048  28.764  1.00  0.00    -0.014 A 
ATOM     77  C   UNL A   1      47.315  33.381  30.031  1.00  0.00     0.010 A 
ATOM     78  C   UNL A   1      46.837  34.015  27.741  1.00  0.00     0.010 A 
ATOM     79  C   UNL A   1      47.834  34.657  30.274  1.00  0.00     0.020 A 
ATOM     80  C   UNL A   1      47.383  35.281  27.972  1.00  0.00     0.020 A 
ATOM     81  C   UNL A   1      47.870  35.598  29.241  1.00  0.00     0.054 A 
BRANCH  81  82
ATOM     82  S   UNL A   1      48.596  37.229  29.566  1.00  0.00     0.124 S 
ATOM     83  O   UNL A   1      50.026  36.942  29.514  1.00  0.00    -0.237 OA
ATOM     84  O   UNL A   1      48.070  38.031  28.464  1.00  0.00    -0.237 OA
ATOM     85  O   UNL A   1      48.074  37.579  30.886  1.00  0.00    -0.744 OA
ENDBRANCH  81  82
ENDBRANCH  53  76
BRANCH  65  86
ATOM     86  C   UNL A   1      49.428  27.116  26.169  1.00  0.00    -0.014 A 
ATOM     87  C   UNL A   1      50.512  26.822  27.014  1.00  0.00     0.010 A 
ATOM     88  C   UNL A   1      49.599  27.000  24.776  1.00  0.00     0.010 A 
ATOM     89  C   UNL A   1      51.749  26.449  26.476  1.00  0.00     0.020 A 
ATOM     90  C   UNL A   1      50.824  26.598  24.236  1.00  0.00     0.020 A 
ATOM     91  C   UNL A   1      51.897  26.338  25.089  1.00  0.00     0.054 A 
BRANCH  91  92
ATOM     92  S   UNL A   1      53.498  25.810  24.419  1.00  0.00     0.124 S 
ATOM     93  O   UNL A   1      53.486  24.375  24.696  1.00  0.00    -0.237 OA
ATOM     94  O   UNL A   1      53.394  26.179  23.010  1.00  0.00    -0.237 OA
ATOM     95  O   UNL A   1      54.470  26.584  25.190  1.00  0.00    -0.744 OA
ENDBRANCH  91  92
ENDBRANCH  65  86
ENDBRANCH  39  40
ENDBRANCH  32  34
ENDBRANCH  31  32
ENDBRANCH  30  31
ENDBRANCH  29  30
ENDBRANCH  28  29
ENDBRANCH  27  28
ENDBRANCH   1  27
TORSDOF 23
ENDMDL
MODEL 2
REMARK VINA RESULT:      -9.3      1.457      2.278
REMARK SMILES C[C@]1(C(=O)OCCOCCOCCOC(=O)c2ccc(-c3c4nc(c(-c5ccc(S(=O)(=O)[O-])cc5)c5ccc([nH]5)c(-c5ccc(S(=O)(=O)[O-])cc5)c5nc(c(-c6ccc(S(=O)(=O)[O-])cc6)c6ccc3[nH]6)C=C5)C=C4)cc2)COC[C@@H]1NC(=O)[C@H]1C=C[C@@H]([NH3+])C1
REMARK SMILES IDX 9 1 8 2 7 3 6 4 5 5 3 6 4 7 2 8 1 9 77 10 80 11 78 12 79 13
REMARK SMILES IDX 81 14 82 15 83 17 84 18 85 19 89 20 86 21 87 22 88 23 10 27
REMARK SMILES IDX 11 28 12 29 13 30 14 31 15 32 16 33 17 34 18 35 76 36 19 37
REMARK SMILES IDX 75 38 20 39 21 40 22 41 69 42 23 43 74 44 68 45 70 46 24 47
REMARK SMILES IDX 73 48 67 49 66 50 25 52 55 53 36 54 54 55 37 56 40 57 53 58
REMARK SMILES IDX 71 59 38 60 39 61 52 63 72 64 41 65 26 66 27 67 35 68 28 69
REMARK SMILES IDX 34 70 29 71 30 72 31 73 32 74 33 75 56 76 57 77 65 78 58 79
REMARK SMILES IDX 64 80 59 81 60 82 61 83 62 84 63 85 42 86 43 87 51 88 44 89
REMARK SMILES IDX 50 90 45 91 46 92 47 93 48 94 49 95
REMARK H PARENT 81 16 88 24 88 25 88 26 70 51 40 62
REMARK Flexibility Score: inf
ROOT
ATOM      1  C   UNL A   1      32.585  30.447  26.799  1.00  0.00     0.188 C 
ENDROOT
BRANCH   1   2
ATOM      2  O   UNL A   1      31.686  30.346  25.702  1.00  0.00    -0.376 OA
BRANCH   2   3
ATOM      3  C   UNL A   1      31.689  29.167  24.921  1.00  0.00     0.202 C 
BRANCH   3   4
ATOM      4  C   UNL A   1      30.597  29.020  23.854  1.00  0.00     0.261 C 
BRANCH   4   5
ATOM      5  O   UNL A   1      30.738  27.898  22.952  1.00  0.00    -0.463 OA
BRANCH   5   6
ATOM      6  C   UNL A   1      30.424  26.675  23.463  1.00  0.00     0.316 C 
ATOM      7  O   UNL A   1      29.459  26.489  24.193  1.00  0.00    -0.251 OA
BRANCH   6   8
ATOM      8  C   UNL A   1      31.468  25.588  23.137  1.00  0.00     0.111 C 
ATOM      9  C   UNL A   1      30.737  24.242  23.120  1.00  0.00     0.028 C 
ATOM     10  C   UNL A   1      32.034  25.931  21.746  1.00  0.00     0.181 C 
ATOM     11  C   UNL A   1      32.736  25.596  24.020  1.00  0.00     0.127 C 
ATOM     12  O   UNL A   1      33.458  25.817  21.818  1.00  0.00    -0.378 OA
ATOM     13  C   UNL A   1      33.828  26.179  23.146  1.00  0.00     0.186 C 
BRANCH  11  14
ATOM     14  N   UNL A   1      33.043  24.368  24.783  1.00  0.00    -0.349 N 
ATOM     15  C   UNL A   1      34.040  23.511  25.084  1.00  0.00     0.227 C 
ATOM     16  H   UNL A   1      32.223  24.067  25.237  1.00  0.00     0.163 HD
ATOM     17  O   UNL A   1      33.622  22.508  25.690  1.00  0.00    -0.274 OA
BRANCH  15  18
ATOM     18  C   UNL A   1      35.535  23.565  24.698  1.00  0.00     0.107 C 
ATOM     19  C   UNL A   1      36.615  23.732  25.708  1.00  0.00    -0.012 C 
ATOM     20  C   UNL A   1      35.923  22.190  24.068  1.00  0.00     0.087 C 
ATOM     21  C   UNL A   1      37.555  22.783  25.666  1.00  0.00     0.033 C 
ATOM     22  C   UNL A   1      37.328  21.822  24.561  1.00  0.00     0.205 C 
BRANCH  22  23
ATOM     23  N   UNL A   1      37.428  20.444  25.003  1.00  0.00    -0.352 N 
ATOM     24  H   UNL A   1      36.998  19.833  24.308  1.00  0.00     0.345 HD
ATOM     25  H   UNL A   1      36.945  20.338  25.894  1.00  0.00     0.345 HD
ATOM     26  H   UNL A   1      38.410  20.193  25.114  1.00  0.00     0.345 HD
ENDBRANCH  22  23
ENDBRANCH  15  18
ENDBRANCH  11  14
ENDBRANCH   6   8
ENDBRANCH   5   6
ENDBRANCH   4   5
ENDBRANCH   3   4
ENDBRANCH   2   3
ENDBRANCH   1   2
BRANCH   1  27
ATOM     27  C   UNL A   1      32.853  31.820  27.452  1.00  0.00     0.188 C 
BRANCH  27  28
ATOM     28  O   UNL A   1      34.216  31.976  27.812  1.00  0.00    -0.376 OA
BRANCH  28  29
ATOM     29  C   UNL A   1      34.428  32.529  29.098  1.00  0.00     0.202 C 
BRANCH  29  30
ATOM     30  C   UNL A   1      35.707  31.972  29.730  1.00  0.00     0.261 C 
BRANCH  30  31
ATOM     31  O   UNL A   1      35.896  30.550  29.567  1.00  0.00    -0.460 OA
BRANCH  31  32
ATOM     32  C   UNL A   1      36.674  29.929  30.479  1.00  0.00     0.338 C 
ATOM     33  O   UNL A   1      36.279  29.323  31.470  1.00  0.00    -0.246 OA
BRANCH  32  34
ATOM     34  C   UNL A   1      38.075  29.912  29.997  1.00  0.00     0.060 A 
ATOM     35  C   UNL A   1      38.322  29.822  28.620  1.00  0.00     0.016 A 
ATOM     36  C   UNL A   1      39.143  29.954  30.896  1.00  0.00     0.016 A 
ATOM     37  C   UNL A   1      39.637  29.738  28.142  1.00  0.00     0.010 A 
ATOM     38  C   UNL A   1      40.457  29.853  30.417  1.00  0.00     0.010 A 
ATOM     39  C   UNL A   1      40.715  29.713  29.040  1.00  0.00    -0.014 A 
BRANCH  39  40
ATOM     40  C   UNL A   1      42.087  29.360  28.577  1.00  0.00     0.031 A 
ATOM     41  C   UNL A   1      42.371  27.931  28.185  1.00  0.00     0.074 A 
ATOM     42  C   UNL A   1      43.077  30.271  28.506  1.00  0.00     0.049 A 
ATOM     43  N   UNL A   1      43.503  27.371  27.844  1.00  0.00    -0.248 NA
ATOM     44  C   UNL A   1      41.220  27.014  28.179  1.00  0.00     0.031 C 
ATOM     45  C   UNL A   1      42.944  31.696  28.798  1.00  0.00     0.029 A 
ATOM     46  N   UNL A   1      44.404  30.120  28.175  1.00  0.00    -0.354 N 
ATOM     47  C   UNL A   1      43.207  26.034  27.599  1.00  0.00     0.074 A 
ATOM     48  C   UNL A   1      41.792  25.865  27.852  1.00  0.00     0.031 C 
ATOM     49  C   UNL A   1      44.143  32.287  28.645  1.00  0.00     0.029 A 
ATOM     50  C   UNL A   1      45.140  31.277  28.286  1.00  0.00     0.049 A 
ATOM     51  H   UNL A   1      44.791  29.261  27.885  1.00  0.00     0.167 HD
ATOM     52  C   UNL A   1      44.032  25.036  27.199  1.00  0.00     0.031 A 
ATOM     53  C   UNL A   1      46.465  31.495  28.147  1.00  0.00     0.031 A 
ATOM     54  C   UNL A   1      45.442  25.190  26.963  1.00  0.00     0.049 A 
ATOM     55  C   UNL A   1      47.382  30.348  27.792  1.00  0.00     0.074 A 
ATOM     56  C   UNL A   1      46.353  24.233  26.549  1.00  0.00     0.029 A 
ATOM     57  N   UNL A   1      46.151  26.369  27.127  1.00  0.00    -0.354 N 
ATOM     58  N   UNL A   1      47.083  29.094  27.552  1.00  0.00    -0.248 NA
ATOM     59  C   UNL A   1      48.818  30.651  27.686  1.00  0.00     0.031 C 
ATOM     60  C   UNL A   1      47.624  24.817  26.523  1.00  0.00     0.029 A 
ATOM     61  C   UNL A   1      47.493  26.158  26.851  1.00  0.00     0.049 A 
ATOM     62  H   UNL A   1      45.760  27.231  27.399  1.00  0.00     0.167 HD
ATOM     63  C   UNL A   1      48.288  28.468  27.235  1.00  0.00     0.074 A 
ATOM     64  C   UNL A   1      49.316  29.483  27.302  1.00  0.00     0.031 C 
ATOM     65  C   UNL A   1      48.516  27.170  26.913  1.00  0.00     0.031 A 
BRANCH  52  66
ATOM     66  C   UNL A   1      43.430  23.664  27.034  1.00  0.00    -0.014 A 
ATOM     67  C   UNL A   1      43.327  22.773  28.118  1.00  0.00     0.010 A 
ATOM     68  C   UNL A   1      42.925  23.274  25.779  1.00  0.00     0.010 A 
ATOM     69  C   UNL A   1      42.770  21.505  27.940  1.00  0.00     0.020 A 
ATOM     70  C   UNL A   1      42.339  22.018  25.605  1.00  0.00     0.020 A 
ATOM     71  C   UNL A   1      42.281  21.134  26.683  1.00  0.00     0.054 A 
BRANCH  71  72
ATOM     72  S   UNL A   1      41.548  19.487  26.486  1.00  0.00     0.124 S 
ATOM     73  O   UNL A   1      40.168  19.812  26.134  1.00  0.00    -0.237 OA
ATOM     74  O   UNL A   1      42.351  18.907  25.411  1.00  0.00    -0.237 OA
ATOM     75  O   UNL A   1      41.726  18.868  27.796  1.00  0.00    -0.744 OA
ENDBRANCH  71  72
ENDBRANCH  52  66
BRANCH  53  76
ATOM     76  C   UNL A   1      47.027  32.859  28.371  1.00  0.00    -0.014 A 
ATOM     77  C   UNL A   1      47.164  33.766  27.304  1.00  0.00     0.010 A 
ATOM     78  C   UNL A   1      47.453  33.249  29.654  1.00  0.00     0.010 A 
ATOM     79  C   UNL A   1      47.729  35.028  27.513  1.00  0.00     0.020 A 
ATOM     80  C   UNL A   1      47.989  34.522  29.873  1.00  0.00     0.020 A 
ATOM     81  C   UNL A   1      48.133  35.400  28.798  1.00  0.00     0.054 A 
BRANCH  81  82
ATOM     82  S   UNL A   1      48.815  37.063  29.055  1.00  0.00     0.124 S 
ATOM     83  O   UNL A   1      50.173  36.918  28.540  1.00  0.00    -0.237 OA
ATOM     84  O   UNL A   1      47.920  37.895  28.254  1.00  0.00    -0.237 OA
ATOM     85  O   UNL A   1      48.708  37.257  30.499  1.00  0.00    -0.744 OA
ENDBRANCH  81  82
ENDBRANCH  53  76
BRANCH  65  86
ATOM     86  C   UNL A   1      49.928  26.767  26.559  1.00  0.00    -0.014 A 
ATOM     87  C   UNL A   1      50.405  26.836  25.239  1.00  0.00     0.010 A 
ATOM     88  C   UNL A   1      50.810  26.370  27.583  1.00  0.00     0.010 A 
ATOM     89  C   UNL A   1      51.728  26.487  24.945  1.00  0.00     0.020 A 
ATOM     90  C   UNL A   1      52.140  26.051  27.298  1.00  0.00     0.020 A 
ATOM     91  C   UNL A   1      52.588  26.097  25.977  1.00  0.00     0.054 A 
BRANCH  91  92
ATOM     92  S   UNL A   1      54.311  25.693  25.575  1.00  0.00     0.124 S 
ATOM     93  O   UNL A   1      54.937  27.013  25.554  1.00  0.00    -0.237 OA
ATOM     94  O   UNL A   1      54.705  24.829  26.685  1.00  0.00    -0.237 OA
ATOM     95  O   UNL A   1      54.218  25.028  24.277  1.00  0.00    -0.744 OA
ENDBRANCH  91  92
ENDBRANCH  65  86
ENDBRANCH  39  40
ENDBRANCH  32  34
ENDBRANCH  31  32
ENDBRANCH  30  31
ENDBRANCH  29  30
ENDBRANCH  28  29
ENDBRANCH  27  28
ENDBRANCH   1  27
TORSDOF 23
ENDMDL
MODEL 3
REMARK VINA RESULT:      -9.0      1.506      8.243
REMARK SMILES C[C@]1(C(=O)OCCOCCOCCOC(=O)c2ccc(-c3c4nc(c(-c5ccc(S(=O)(=O)[O-])cc5)c5ccc([nH]5)c(-c5ccc(S(=O)(=O)[O-])cc5)c5nc(c(-c6ccc(S(=O)(=O)[O-])cc6)c6ccc3[nH]6)C=C5)C=C4)cc2)COC[C@@H]1NC(=O)[C@H]1C=C[C@@H]([NH3+])C1
REMARK SMILES IDX 9 1 8 2 7 3 6 4 5 5 3 6 4 7 2 8 1 9 77 10 80 11 78 12 79 13
REMARK SMILES IDX 81 14 82 15 83 17 84 18 85 19 89 20 86 21 87 22 88 23 10 27
REMARK SMILES IDX 11 28 12 29 13 30 14 31 15 32 16 33 17 34 18 35 76 36 19 37
REMARK SMILES IDX 75 38 20 39 21 40 22 41 69 42 23 43 74 44 68 45 70 46 24 47
REMARK SMILES IDX 73 48 67 49 66 50 25 52 55 53 36 54 54 55 37 56 40 57 53 58
REMARK SMILES IDX 71 59 38 60 39 61 52 63 72 64 41 65 26 66 27 67 35 68 28 69
REMARK SMILES IDX 34 70 29 71 30 72 31 73 32 74 33 75 56 76 57 77 65 78 58 79
REMARK SMILES IDX 64 80 59 81 60 82 61 83 62 84 63 85 42 86 43 87 51 88 44 89
REMARK SMILES IDX 50 90 45 91 46 92 47 93 48 94 49 95
REMARK H PARENT 81 16 88 24 88 25 88 26 70 51 40 62
REMARK Flexibility Score: inf
ROOT
ATOM      1  C   UNL A   1      32.575  30.969  26.916  1.00  0.00     0.188 C 
ENDROOT
BRANCH   1   2
ATOM      2  O   UNL A   1      31.758  30.595  25.814  1.00  0.00    -0.376 OA
BRANCH   2   3
ATOM      3  C   UNL A   1      31.888  29.294  25.276  1.00  0.00     0.202 C 
BRANCH   3   4
ATOM      4  C   UNL A   1      30.659  28.682  24.592  1.00  0.00     0.261 C 
BRANCH   4   5
ATOM      5  O   UNL A   1      30.734  27.267  24.300  1.00  0.00    -0.463 OA
BRANCH   5   6
ATOM      6  C   UNL A   1      30.901  26.443  25.371  1.00  0.00     0.316 C 
ATOM      7  O   UNL A   1      30.626  26.778  26.517  1.00  0.00    -0.251 OA
BRANCH   6   8
ATOM      8  C   UNL A   1      31.581  25.105  25.015  1.00  0.00     0.111 C 
ATOM      9  C   UNL A   1      30.902  24.011  25.844  1.00  0.00     0.028 C 
ATOM     10  C   UNL A   1      31.350  24.887  23.507  1.00  0.00     0.181 C 
ATOM     11  C   UNL A   1      33.123  25.096  25.116  1.00  0.00     0.127 C 
ATOM     12  O   UNL A   1      32.597  24.488  22.931  1.00  0.00    -0.378 OA
ATOM     13  C   UNL A   1      33.618  25.138  23.684  1.00  0.00     0.186 C 
BRANCH  11  14
ATOM     14  N   UNL A   1      33.740  24.113  26.033  1.00  0.00    -0.349 N 
ATOM     15  C   UNL A   1      34.842  23.357  26.213  1.00  0.00     0.227 C 
ATOM     16  H   UNL A   1      33.123  23.955  26.784  1.00  0.00     0.163 HD
ATOM     17  O   UNL A   1      34.706  22.558  27.158  1.00  0.00    -0.274 OA
BRANCH  15  18
ATOM     18  C   UNL A   1      36.137  23.288  25.375  1.00  0.00     0.107 C 
ATOM     19  C   UNL A   1      37.491  23.312  25.992  1.00  0.00    -0.012 C 
ATOM     20  C   UNL A   1      36.167  21.910  24.641  1.00  0.00     0.087 C 
ATOM     21  C   UNL A   1      38.269  22.284  25.647  1.00  0.00     0.033 C 
ATOM     22  C   UNL A   1      37.612  21.394  24.661  1.00  0.00     0.205 C 
BRANCH  22  23
ATOM     23  N   UNL A   1      37.705  19.996  25.035  1.00  0.00    -0.352 N 
ATOM     24  H   UNL A   1      37.365  19.876  25.990  1.00  0.00     0.345 HD
ATOM     25  H   UNL A   1      38.677  19.693  24.980  1.00  0.00     0.345 HD
ATOM     26  H   UNL A   1      37.137  19.435  24.400  1.00  0.00     0.345 HD
ENDBRANCH  22  23
ENDBRANCH  15  18
ENDBRANCH  11  14
ENDBRANCH   6   8
ENDBRANCH   5   6
ENDBRANCH   4   5
ENDBRANCH   3   4
ENDBRANCH   2   3
ENDBRANCH   1   2
BRANCH   1  27
ATOM     27  C   UNL A   1      32.594  32.435  27.398  1.00  0.00     0.188 C 
BRANCH  27  28
ATOM     28  O   UNL A   1      33.913  32.891  27.655  1.00  0.00    -0.376 OA
BRANCH  28  29
ATOM     29  C   UNL A   1      34.093  33.503  28.918  1.00  0.00     0.202 C 
BRANCH  29  30
ATOM     30  C   UNL A   1      35.446  33.119  29.525  1.00  0.00     0.261 C 
BRANCH  30  31
ATOM     31  O   UNL A   1      35.663  31.700  29.679  1.00  0.00    -0.460 OA
BRANCH  31  32
ATOM     32  C   UNL A   1      36.371  31.304  30.758  1.00  0.00     0.338 C 
ATOM     33  O   UNL A   1      36.002  31.367  31.925  1.00  0.00    -0.246 OA
BRANCH  32  34
ATOM     34  C   UNL A   1      37.589  30.589  30.307  1.00  0.00     0.060 A 
ATOM     35  C   UNL A   1      38.468  30.065  31.266  1.00  0.00     0.016 A 
ATOM     36  C   UNL A   1      37.883  30.459  28.948  1.00  0.00     0.016 A 
ATOM     37  C   UNL A   1      39.659  29.442  30.868  1.00  0.00     0.010 A 
ATOM     38  C   UNL A   1      39.082  29.850  28.553  1.00  0.00     0.010 A 
ATOM     39  C   UNL A   1      39.995  29.364  29.508  1.00  0.00    -0.014 A 
BRANCH  39  40
ATOM     40  C   UNL A   1      41.362  28.952  29.081  1.00  0.00     0.031 A 
ATOM     41  C   UNL A   1      42.454  29.993  29.050  1.00  0.00     0.074 A 
ATOM     42  C   UNL A   1      41.649  27.687  28.718  1.00  0.00     0.049 A 
ATOM     43  N   UNL A   1      43.688  29.893  28.628  1.00  0.00    -0.248 NA
ATOM     44  C   UNL A   1      42.100  31.326  29.566  1.00  0.00     0.031 C 
ATOM     45  C   UNL A   1      40.717  26.561  28.748  1.00  0.00     0.029 A 
ATOM     46  N   UNL A   1      42.817  27.142  28.236  1.00  0.00    -0.354 N 
ATOM     47  C   UNL A   1      44.255  31.149  28.809  1.00  0.00     0.074 A 
ATOM     48  C   UNL A   1      43.221  32.001  29.360  1.00  0.00     0.031 C 
ATOM     49  C   UNL A   1      41.346  25.463  28.292  1.00  0.00     0.029 A 
ATOM     50  C   UNL A   1      42.711  25.812  27.896  1.00  0.00     0.049 A 
ATOM     51  H   UNL A   1      43.651  27.657  28.142  1.00  0.00     0.167 HD
ATOM     52  C   UNL A   1      45.518  31.563  28.544  1.00  0.00     0.031 A 
ATOM     53  C   UNL A   1      43.597  24.981  27.309  1.00  0.00     0.031 A 
ATOM     54  C   UNL A   1      46.546  30.730  27.980  1.00  0.00     0.049 A 
ATOM     55  C   UNL A   1      44.970  25.488  26.936  1.00  0.00     0.074 A 
ATOM     56  C   UNL A   1      47.857  31.065  27.685  1.00  0.00     0.029 A 
ATOM     57  N   UNL A   1      46.383  29.403  27.616  1.00  0.00    -0.354 N 
ATOM     58  N   UNL A   1      45.494  26.675  27.126  1.00  0.00    -0.248 NA
ATOM     59  C   UNL A   1      45.875  24.536  26.271  1.00  0.00     0.031 C 
ATOM     60  C   UNL A   1      48.468  29.960  27.085  1.00  0.00     0.029 A 
ATOM     61  C   UNL A   1      47.560  28.913  27.072  1.00  0.00     0.049 A 
ATOM     62  H   UNL A   1      45.554  28.884  27.727  1.00  0.00     0.167 HD
ATOM     63  C   UNL A   1      46.796  26.602  26.634  1.00  0.00     0.074 A 
ATOM     64  C   UNL A   1      46.985  25.252  26.150  1.00  0.00     0.031 C 
ATOM     65  C   UNL A   1      47.749  27.567  26.594  1.00  0.00     0.031 A 
BRANCH  52  66
ATOM     66  C   UNL A   1      45.848  33.007  28.824  1.00  0.00    -0.014 A 
ATOM     67  C   UNL A   1      45.519  34.024  27.910  1.00  0.00     0.010 A 
ATOM     68  C   UNL A   1      46.464  33.354  30.041  1.00  0.00     0.010 A 
ATOM     69  C   UNL A   1      45.839  35.355  28.189  1.00  0.00     0.020 A 
ATOM     70  C   UNL A   1      46.757  34.688  30.337  1.00  0.00     0.020 A 
ATOM     71  C   UNL A   1      46.459  35.678  29.400  1.00  0.00     0.054 A 
BRANCH  71  72
ATOM     72  S   UNL A   1      46.847  37.417  29.742  1.00  0.00     0.124 S 
ATOM     73  O   UNL A   1      46.002  38.110  28.772  1.00  0.00    -0.237 OA
ATOM     74  O   UNL A   1      46.450  37.564  31.140  1.00  0.00    -0.237 OA
ATOM     75  O   UNL A   1      48.283  37.507  29.491  1.00  0.00    -0.744 OA
ENDBRANCH  71  72
ENDBRANCH  52  66
BRANCH  53  76
ATOM     76  C   UNL A   1      43.212  23.573  27.001  1.00  0.00    -0.014 A 
ATOM     77  C   UNL A   1      42.892  22.671  28.033  1.00  0.00     0.010 A 
ATOM     78  C   UNL A   1      43.187  23.118  25.669  1.00  0.00     0.010 A 
ATOM     79  C   UNL A   1      42.571  21.342  27.741  1.00  0.00     0.020 A 
ATOM     80  C   UNL A   1      42.836  21.798  25.371  1.00  0.00     0.020 A 
ATOM     81  C   UNL A   1      42.540  20.914  26.411  1.00  0.00     0.054 A 
BRANCH  81  82
ATOM     82  S   UNL A   1      42.068  19.198  26.052  1.00  0.00     0.124 S 
ATOM     83  O   UNL A   1      42.831  18.920  24.840  1.00  0.00    -0.237 OA
ATOM     84  O   UNL A   1      42.511  18.495  27.254  1.00  0.00    -0.237 OA
ATOM     85  O   UNL A   1      40.619  19.271  25.880  1.00  0.00    -0.744 OA
ENDBRANCH  81  82
ENDBRANCH  53  76
BRANCH  65  86
ATOM     86  C   UNL A   1      49.108  27.198  26.049  1.00  0.00    -0.014 A 
ATOM     87  C   UNL A   1      49.403  27.293  24.679  1.00  0.00     0.010 A 
ATOM     88  C   UNL A   1      50.126  26.806  26.940  1.00  0.00     0.010 A 
ATOM     89  C   UNL A   1      50.682  26.975  24.206  1.00  0.00     0.020 A 
ATOM     90  C   UNL A   1      51.412  26.518  26.476  1.00  0.00     0.020 A 
ATOM     91  C   UNL A   1      51.679  26.590  25.108  1.00  0.00     0.054 A 
BRANCH  91  92
ATOM     92  S   UNL A   1      53.340  26.226  24.474  1.00  0.00     0.124 S 
ATOM     93  O   UNL A   1      54.193  26.905  25.447  1.00  0.00    -0.237 OA
ATOM     94  O   UNL A   1      53.384  24.767  24.509  1.00  0.00    -0.237 OA
ATOM     95  O   UNL A   1      53.337  26.812  23.135  1.00  0.00    -0.744 OA
ENDBRANCH  91  92
ENDBRANCH  65  86
ENDBRANCH  39  40
ENDBRANCH  32  34
ENDBRANCH  31  32
ENDBRANCH  30  31
ENDBRANCH  29  30
ENDBRANCH  28  29
ENDBRANCH  27  28
ENDBRANCH   1  27
TORSDOF 23
ENDMDL
