MODEL 1
REMARK VINA RESULT:     -12.8      0.000      0.000
REMARK SMILES Cc1cccc(N2C(=O)/C(=C/c3ccc(C(=O)OCCOCCOCCOC(=O)c4ccc(-c5c6nc(c(-c7ccc(S(=O)(=O)[O-])cc7)c7ccc([nH]7)c(-c7ccc(S(=O)(=O)[O-])cc7)c7nc(c(-c8ccc(S(=O)(=O)[O-])cc8)c8ccc5[nH]8)C=C7)C=C6)cc4)cc3)c3ccccc3C2=O)c1
REMARK SMILES IDX 23 1 22 2 21 3 20 4 19 5 18 6 16 7 17 8 15 9 12 10 13 11
REMARK SMILES IDX 91 12 14 13 90 14 11 15 7 16 8 17 98 18 9 19 10 20 97 21
REMARK SMILES IDX 99 22 92 23 96 24 93 25 95 26 94 27 6 28 1 29 2 30 3 31
REMARK SMILES IDX 100 32 4 33 5 34 24 35 25 36 26 37 27 38 28 39 29 40 30 41
REMARK SMILES IDX 31 42 89 43 32 44 88 45 33 46 34 47 35 48 82 49 36 50 87 51
REMARK SMILES IDX 81 52 83 53 37 54 86 55 80 56 79 57 38 59 68 60 49 61 67 62
REMARK SMILES IDX 50 63 53 64 66 65 84 66 51 67 52 68 65 70 85 71 54 72 39 73
REMARK SMILES IDX 40 74 48 75 41 76 47 77 42 78 43 79 44 80 45 81 46 82 69 83
REMARK SMILES IDX 70 84 78 85 71 86 77 87 72 88 73 89 74 90 75 91 76 92 55 93
REMARK SMILES IDX 56 94 64 95 57 96 63 97 58 98 59 99 60 100 61 101 62 102
REMARK H PARENT 83 58 53 69
REMARK Flexibility Score: inf
ROOT
ATOM      1  C   UNL A   1      37.660  33.268  28.960  1.00  0.00     0.188 C 
ENDROOT
BRANCH   1   2
ATOM      2  C   UNL A   1      37.203  33.836  30.304  1.00  0.00     0.188 C 
BRANCH   2   3
ATOM      3  O   UNL A   1      35.880  34.393  30.480  1.00  0.00    -0.376 OA
BRANCH   3   4
ATOM      4  C   UNL A   1      34.738  34.052  29.693  1.00  0.00     0.202 C 
BRANCH   4   5
ATOM      5  C   UNL A   1      34.195  32.515  29.391  1.00  0.00     0.261 C 
BRANCH   5   6
ATOM      6  O   UNL A   1      34.099  31.521  27.957  1.00  0.00    -0.460 OA
BRANCH   6   7
ATOM      7  C   UNL A   1      33.166  30.687  27.274  1.00  0.00     0.338 C 
ATOM      8  O   UNL A   1      32.259  30.980  26.495  1.00  0.00    -0.246 OA
BRANCH   7   9
ATOM      9  C   UNL A   1      33.082  29.233  27.230  1.00  0.00     0.060 A 
ATOM     10  C   UNL A   1      32.468  26.689  26.228  1.00  0.00    -0.025 A 
ATOM     11  C   UNL A   1      33.640  27.306  25.817  1.00  0.00     0.009 A 
ATOM     12  C   UNL A   1      31.484  27.424  26.905  1.00  0.00     0.009 A 
ATOM     13  C   UNL A   1      33.931  28.575  26.308  1.00  0.00     0.016 A 
ATOM     14  C   UNL A   1      31.796  28.689  27.413  1.00  0.00     0.016 A 
BRANCH  10  15
ATOM     15  C   UNL A   1      32.482  25.231  26.295  1.00  0.00     0.022 C 
ATOM     16  N   UNL A   1      33.070  22.608  24.270  1.00  0.00    -0.242 N 
ATOM     17  C   UNL A   1      32.227  23.072  25.302  1.00  0.00     0.265 C 
ATOM     18  C   UNL A   1      33.379  23.433  23.146  1.00  0.00     0.265 C 
ATOM     19  O   UNL A   1      31.685  22.463  26.219  1.00  0.00    -0.268 OA
ATOM     20  C   UNL A   1      32.017  24.526  25.239  1.00  0.00     0.049 C 
ATOM     21  C   UNL A   1      32.528  24.638  22.911  1.00  0.00     0.048 A 
ATOM     22  O   UNL A   1      34.248  23.240  22.298  1.00  0.00    -0.268 OA
ATOM     23  C   UNL A   1      31.696  25.080  23.928  1.00  0.00    -0.000 A 
ATOM     24  C   UNL A   1      32.572  25.348  21.703  1.00  0.00     0.014 A 
ATOM     25  C   UNL A   1      30.779  26.113  23.693  1.00  0.00     0.010 A 
ATOM     26  C   UNL A   1      31.743  26.457  21.509  1.00  0.00     0.001 A 
ATOM     27  C   UNL A   1      30.823  26.820  22.491  1.00  0.00     0.001 A 
BRANCH  16  28
ATOM     28  C   UNL A   1      33.646  21.271  24.385  1.00  0.00     0.053 A 
ATOM     29  C   UNL A   1      32.598  17.636  23.752  1.00  0.00     0.044 C 
ATOM     30  C   UNL A   1      33.435  18.816  24.151  1.00  0.00    -0.049 A 
ATOM     31  C   UNL A   1      34.735  18.646  24.614  1.00  0.00     0.003 A 
ATOM     32  C   UNL A   1      32.920  20.117  24.026  1.00  0.00     0.030 A 
ATOM     33  C   UNL A   1      35.485  19.758  24.974  1.00  0.00     0.002 A 
ATOM     34  C   UNL A   1      34.943  21.046  24.869  1.00  0.00     0.027 A 
ENDBRANCH  16  28
ENDBRANCH  10  15
ENDBRANCH   7   9
ENDBRANCH   6   7
ENDBRANCH   5   6
ENDBRANCH   4   5
ENDBRANCH   3   4
ENDBRANCH   2   3
ENDBRANCH   1   2
BRANCH   1  35
ATOM     35  O   UNL A   1      37.477  31.865  28.958  1.00  0.00    -0.376 OA
BRANCH  35  36
ATOM     36  C   UNL A   1      38.049  31.144  30.025  1.00  0.00     0.202 C 
BRANCH  36  37
ATOM     37  C   UNL A   1      36.975  30.642  30.995  1.00  0.00     0.261 C 
BRANCH  37  38
ATOM     38  O   UNL A   1      37.499  30.541  32.344  1.00  0.00    -0.460 OA
BRANCH  38  39
ATOM     39  C   UNL A   1      37.721  29.270  32.833  1.00  0.00     0.338 C 
ATOM     40  O   UNL A   1      36.982  28.754  33.658  1.00  0.00    -0.246 OA
BRANCH  39  41
ATOM     41  C   UNL A   1      38.912  28.644  32.157  1.00  0.00     0.060 A 
ATOM     42  C   UNL A   1      40.260  29.025  32.188  1.00  0.00     0.016 A 
ATOM     43  C   UNL A   1      38.620  27.713  31.228  1.00  0.00     0.016 A 
ATOM     44  C   UNL A   1      41.240  28.604  31.163  1.00  0.00     0.010 A 
ATOM     45  C   UNL A   1      39.514  27.590  30.159  1.00  0.00     0.010 A 
ATOM     46  C   UNL A   1      40.888  27.910  29.992  1.00  0.00    -0.014 A 
BRANCH  46  47
ATOM     47  C   UNL A   1      41.848  27.692  28.587  1.00  0.00     0.031 A 
ATOM     48  C   UNL A   1      42.620  26.289  27.847  1.00  0.00     0.074 A 
ATOM     49  C   UNL A   1      42.289  28.814  27.959  1.00  0.00     0.049 A 
ATOM     50  N   UNL A   1      43.901  26.232  27.496  1.00  0.00    -0.248 NA
ATOM     51  C   UNL A   1      42.096  24.884  27.619  1.00  0.00     0.031 C 
ATOM     52  C   UNL A   1      43.055  28.847  26.711  1.00  0.00     0.029 A 
ATOM     53  N   UNL A   1      42.268  30.157  28.334  1.00  0.00    -0.354 N 
ATOM     54  C   UNL A   1      44.204  24.937  27.016  1.00  0.00     0.074 A 
ATOM     55  C   UNL A   1      43.100  24.113  27.273  1.00  0.00     0.031 C 
ATOM     56  C   UNL A   1      43.694  30.022  26.633  1.00  0.00     0.029 A 
ATOM     57  C   UNL A   1      43.451  30.731  27.874  1.00  0.00     0.049 A 
ATOM     58  H   UNL A   1      41.551  30.615  28.831  1.00  0.00     0.167 HD
ATOM     59  C   UNL A   1      45.246  24.559  26.229  1.00  0.00     0.031 A 
ATOM     60  C   UNL A   1      44.388  31.363  28.634  1.00  0.00     0.031 A 
ATOM     61  C   UNL A   1      45.991  25.713  25.849  1.00  0.00     0.049 A 
ATOM     62  C   UNL A   1      45.796  30.860  28.384  1.00  0.00     0.074 A 
ATOM     63  C   UNL A   1      45.825  26.598  24.801  1.00  0.00     0.029 A 
ATOM     64  N   UNL A   1      46.759  26.332  26.806  1.00  0.00    -0.354 N 
ATOM     65  N   UNL A   1      46.068  29.764  27.730  1.00  0.00    -0.248 NA
ATOM     66  C   UNL A   1      47.008  31.513  28.876  1.00  0.00     0.031 C 
ATOM     67  C   UNL A   1      46.474  27.801  25.162  1.00  0.00     0.029 A 
ATOM     68  C   UNL A   1      47.073  27.606  26.394  1.00  0.00     0.049 A 
ATOM     69  H   UNL A   1      47.043  25.925  27.657  1.00  0.00     0.167 HD
ATOM     70  C   UNL A   1      47.417  29.528  27.754  1.00  0.00     0.074 A 
ATOM     71  C   UNL A   1      47.968  30.669  28.456  1.00  0.00     0.031 C 
ATOM     72  C   UNL A   1      47.960  28.398  27.218  1.00  0.00     0.031 A 
BRANCH  59  73
ATOM     73  C   UNL A   1      45.250  23.207  25.515  1.00  0.00    -0.014 A 
ATOM     74  C   UNL A   1      44.167  22.329  25.695  1.00  0.00     0.010 A 
ATOM     75  C   UNL A   1      46.349  22.698  24.777  1.00  0.00     0.010 A 
ATOM     76  C   UNL A   1      44.231  20.981  25.302  1.00  0.00     0.020 A 
ATOM     77  C   UNL A   1      46.451  21.334  24.434  1.00  0.00     0.020 A 
ATOM     78  C   UNL A   1      45.390  20.477  24.716  1.00  0.00     0.054 A 
BRANCH  78  79
ATOM     79  S   UNL A   1      45.518  18.691  24.402  1.00  0.00     0.124 S 
ATOM     80  O   UNL A   1      46.612  18.285  25.283  1.00  0.00    -0.237 OA
ATOM     81  O   UNL A   1      44.194  18.210  24.784  1.00  0.00    -0.237 OA
ATOM     82  O   UNL A   1      45.826  18.609  22.975  1.00  0.00    -0.744 OA
ENDBRANCH  78  79
ENDBRANCH  59  73
BRANCH  60  83
ATOM     83  C   UNL A   1      43.885  31.967  29.900  1.00  0.00    -0.014 A 
ATOM     84  C   UNL A   1      43.998  31.188  31.071  1.00  0.00     0.010 A 
ATOM     85  C   UNL A   1      43.664  33.349  30.032  1.00  0.00     0.010 A 
ATOM     86  C   UNL A   1      44.046  31.786  32.332  1.00  0.00     0.020 A 
ATOM     87  C   UNL A   1      43.693  33.954  31.304  1.00  0.00     0.020 A 
ATOM     88  C   UNL A   1      43.941  33.171  32.437  1.00  0.00     0.054 A 
BRANCH  88  89
ATOM     89  S   UNL A   1      44.363  33.918  34.043  1.00  0.00     0.124 S 
ATOM     90  O   UNL A   1      43.053  34.127  34.650  1.00  0.00    -0.237 OA
ATOM     91  O   UNL A   1      45.174  32.861  34.647  1.00  0.00    -0.237 OA
ATOM     92  O   UNL A   1      45.090  35.128  33.672  1.00  0.00    -0.744 OA
ENDBRANCH  88  89
ENDBRANCH  60  83
BRANCH  72  93
ATOM     93  C   UNL A   1      49.374  27.888  27.371  1.00  0.00    -0.014 A 
ATOM     94  C   UNL A   1      49.771  26.944  28.325  1.00  0.00     0.010 A 
ATOM     95  C   UNL A   1      50.338  28.259  26.393  1.00  0.00     0.010 A 
ATOM     96  C   UNL A   1      51.082  26.442  28.340  1.00  0.00     0.020 A 
ATOM     97  C   UNL A   1      51.624  27.724  26.366  1.00  0.00     0.020 A 
ATOM     98  C   UNL A   1      52.000  26.839  27.365  1.00  0.00     0.054 A 
BRANCH  98  99
ATOM     99  S   UNL A   1      53.678  26.163  27.363  1.00  0.00     0.124 S 
ATOM    100  O   UNL A   1      53.937  26.006  28.791  1.00  0.00    -0.237 OA
ATOM    101  O   UNL A   1      53.534  24.917  26.613  1.00  0.00    -0.237 OA
ATOM    102  O   UNL A   1      54.460  27.197  26.691  1.00  0.00    -0.744 OA
ENDBRANCH  98  99
ENDBRANCH  72  93
ENDBRANCH  46  47
ENDBRANCH  39  41
ENDBRANCH  38  39
ENDBRANCH  37  38
ENDBRANCH  36  37
ENDBRANCH  35  36
ENDBRANCH   1  35
TORSDOF 22
ENDMDL
MODEL 2
REMARK VINA RESULT:     -12.5      4.287     11.716
REMARK SMILES Cc1cccc(N2C(=O)/C(=C/c3ccc(C(=O)OCCOCCOCCOC(=O)c4ccc(-c5c6nc(c(-c7ccc(S(=O)(=O)[O-])cc7)c7ccc([nH]7)c(-c7ccc(S(=O)(=O)[O-])cc7)c7nc(c(-c8ccc(S(=O)(=O)[O-])cc8)c8ccc5[nH]8)C=C7)C=C6)cc4)cc3)c3ccccc3C2=O)c1
REMARK SMILES IDX 23 1 22 2 21 3 20 4 19 5 18 6 16 7 17 8 15 9 12 10 13 11
REMARK SMILES IDX 91 12 14 13 90 14 11 15 7 16 8 17 98 18 9 19 10 20 97 21
REMARK SMILES IDX 99 22 92 23 96 24 93 25 95 26 94 27 6 28 1 29 2 30 3 31
REMARK SMILES IDX 100 32 4 33 5 34 24 35 25 36 26 37 27 38 28 39 29 40 30 41
REMARK SMILES IDX 31 42 89 43 32 44 88 45 33 46 34 47 35 48 82 49 36 50 87 51
REMARK SMILES IDX 81 52 83 53 37 54 86 55 80 56 79 57 38 59 68 60 49 61 67 62
REMARK SMILES IDX 50 63 53 64 66 65 84 66 51 67 52 68 65 70 85 71 54 72 39 73
REMARK SMILES IDX 40 74 48 75 41 76 47 77 42 78 43 79 44 80 45 81 46 82 69 83
REMARK SMILES IDX 70 84 78 85 71 86 77 87 72 88 73 89 74 90 75 91 76 92 55 93
REMARK SMILES IDX 56 94 64 95 57 96 63 97 58 98 59 99 60 100 61 101 62 102
REMARK H PARENT 83 58 53 69
REMARK Flexibility Score: inf
ROOT
ATOM      1  C   UNL A   1      43.989  25.483  25.236  1.00  0.00     0.188 C 
ENDROOT
BRANCH   1   2
ATOM      2  C   UNL A   1      43.532  24.033  25.066  1.00  0.00     0.188 C 
BRANCH   2   3
ATOM      3  O   UNL A   1      42.662  23.395  26.029  1.00  0.00    -0.376 OA
BRANCH   3   4
ATOM      4  C   UNL A   1      41.450  23.957  26.535  1.00  0.00     0.202 C 
BRANCH   4   5
ATOM      5  C   UNL A   1      40.188  23.104  27.188  1.00  0.00     0.261 C 
BRANCH   5   6
ATOM      6  O   UNL A   1      39.056  21.933  26.555  1.00  0.00    -0.460 OA
BRANCH   6   7
ATOM      7  C   UNL A   1      38.116  21.796  25.492  1.00  0.00     0.338 C 
ATOM      8  O   UNL A   1      37.780  20.800  24.850  1.00  0.00    -0.246 OA
BRANCH   7   9
ATOM      9  C   UNL A   1      37.210  22.785  24.922  1.00  0.00     0.060 A 
ATOM     10  C   UNL A   1      34.787  23.935  24.111  1.00  0.00    -0.025 A 
ATOM     11  C   UNL A   1      35.184  24.072  25.433  1.00  0.00     0.009 A 
ATOM     12  C   UNL A   1      35.435  23.018  23.271  1.00  0.00     0.009 A 
ATOM     13  C   UNL A   1      36.382  23.486  25.831  1.00  0.00     0.016 A 
ATOM     14  C   UNL A   1      36.649  22.453  23.674  1.00  0.00     0.016 A 
BRANCH  10  15
ATOM     15  C   UNL A   1      33.992  25.022  23.548  1.00  0.00     0.022 C 
ATOM     16  N   UNL A   1      31.113  26.646  24.184  1.00  0.00    -0.242 N 
ATOM     17  C   UNL A   1      31.906  26.119  23.143  1.00  0.00     0.265 C 
ATOM     18  C   UNL A   1      30.840  25.883  25.360  1.00  0.00     0.265 C 
ATOM     19  O   UNL A   1      32.080  26.518  21.996  1.00  0.00    -0.268 OA
ATOM     20  C   UNL A   1      32.644  24.916  23.558  1.00  0.00     0.049 C 
ATOM     21  C   UNL A   1      31.108  24.414  25.315  1.00  0.00     0.048 A 
ATOM     22  O   UNL A   1      30.351  26.287  26.413  1.00  0.00    -0.268 OA
ATOM     23  C   UNL A   1      31.881  23.904  24.282  1.00  0.00    -0.000 A 
ATOM     24  C   UNL A   1      30.624  23.545  26.303  1.00  0.00     0.014 A 
ATOM     25  C   UNL A   1      32.028  22.520  24.126  1.00  0.00     0.010 A 
ATOM     26  C   UNL A   1      30.873  22.172  26.215  1.00  0.00     0.001 A 
ATOM     27  C   UNL A   1      31.548  21.655  25.110  1.00  0.00     0.001 A 
BRANCH  16  28
ATOM     28  C   UNL A   1      30.594  28.004  24.048  1.00  0.00     0.053 A 
ATOM     29  C   UNL A   1      27.757  29.818  22.214  1.00  0.00     0.044 C 
ATOM     30  C   UNL A   1      28.960  29.591  23.081  1.00  0.00    -0.049 A 
ATOM     31  C   UNL A   1      29.568  30.647  23.749  1.00  0.00     0.003 A 
ATOM     32  C   UNL A   1      29.466  28.292  23.253  1.00  0.00     0.030 A 
ATOM     33  C   UNL A   1      30.679  30.405  24.546  1.00  0.00     0.002 A 
ATOM     34  C   UNL A   1      31.187  29.106  24.683  1.00  0.00     0.027 A 
ENDBRANCH  16  28
ENDBRANCH  10  15
ENDBRANCH   7   9
ENDBRANCH   6   7
ENDBRANCH   5   6
ENDBRANCH   4   5
ENDBRANCH   3   4
ENDBRANCH   2   3
ENDBRANCH   1   2
BRANCH   1  35
ATOM     35  O   UNL A   1      45.307  25.620  24.741  1.00  0.00    -0.376 OA
BRANCH  35  36
ATOM     36  C   UNL A   1      46.331  25.801  25.692  1.00  0.00     0.202 C 
BRANCH  36  37
ATOM     37  C   UNL A   1      46.775  27.266  25.759  1.00  0.00     0.261 C 
BRANCH  37  38
ATOM     38  O   UNL A   1      45.664  28.131  26.106  1.00  0.00    -0.460 OA
BRANCH  38  39
ATOM     39  C   UNL A   1      45.971  29.430  26.457  1.00  0.00     0.338 C 
ATOM     40  O   UNL A   1      47.026  29.956  26.140  1.00  0.00    -0.246 OA
BRANCH  39  41
ATOM     41  C   UNL A   1      44.815  30.067  27.185  1.00  0.00     0.060 A 
ATOM     42  C   UNL A   1      44.823  30.991  28.238  1.00  0.00     0.016 A 
ATOM     43  C   UNL A   1      43.609  29.523  26.933  1.00  0.00     0.016 A 
ATOM     44  C   UNL A   1      43.663  31.202  29.132  1.00  0.00     0.010 A 
ATOM     45  C   UNL A   1      42.671  29.566  27.970  1.00  0.00     0.010 A 
ATOM     46  C   UNL A   1      42.507  30.404  29.105  1.00  0.00    -0.014 A 
BRANCH  46  47
ATOM     47  C   UNL A   1      41.280  30.314  30.300  1.00  0.00     0.031 A 
ATOM     48  C   UNL A   1      39.844  31.281  30.644  1.00  0.00     0.074 A 
ATOM     49  C   UNL A   1      41.481  29.451  31.331  1.00  0.00     0.049 A 
ATOM     50  N   UNL A   1      39.551  31.798  31.834  1.00  0.00    -0.248 NA
ATOM     51  C   UNL A   1      38.792  31.847  29.710  1.00  0.00     0.031 C 
ATOM     52  C   UNL A   1      40.529  29.174  32.409  1.00  0.00     0.029 A 
ATOM     53  N   UNL A   1      42.603  28.723  31.726  1.00  0.00    -0.354 N 
ATOM     54  C   UNL A   1      38.380  32.584  31.734  1.00  0.00     0.074 A 
ATOM     55  C   UNL A   1      38.060  32.708  30.376  1.00  0.00     0.031 C 
ATOM     56  C   UNL A   1      41.201  28.664  33.451  1.00  0.00     0.029 A 
ATOM     57  C   UNL A   1      42.611  28.704  33.118  1.00  0.00     0.049 A 
ATOM     58  H   UNL A   1      43.266  28.301  31.132  1.00  0.00     0.167 HD
ATOM     59  C   UNL A   1      37.543  32.968  32.733  1.00  0.00     0.031 A 
ATOM     60  C   UNL A   1      43.613  29.153  33.924  1.00  0.00     0.031 A 
ATOM     61  C   UNL A   1      37.965  32.370  33.956  1.00  0.00     0.049 A 
ATOM     62  C   UNL A   1      43.127  30.091  35.012  1.00  0.00     0.074 A 
ATOM     63  C   UNL A   1      37.681  31.136  34.510  1.00  0.00     0.029 A 
ATOM     64  N   UNL A   1      39.112  32.844  34.548  1.00  0.00    -0.354 N 
ATOM     65  N   UNL A   1      41.942  30.635  35.022  1.00  0.00    -0.248 NA
ATOM     66  C   UNL A   1      43.935  30.529  36.150  1.00  0.00     0.031 C 
ATOM     67  C   UNL A   1      38.715  30.842  35.428  1.00  0.00     0.029 A 
ATOM     68  C   UNL A   1      39.576  31.925  35.459  1.00  0.00     0.049 A 
ATOM     69  H   UNL A   1      39.535  33.711  34.350  1.00  0.00     0.167 HD
ATOM     70  C   UNL A   1      41.835  31.504  36.076  1.00  0.00     0.074 A 
ATOM     71  C   UNL A   1      43.098  31.379  36.772  1.00  0.00     0.031 C 
ATOM     72  C   UNL A   1      40.725  32.273  36.266  1.00  0.00     0.031 A 
BRANCH  59  73
ATOM     73  C   UNL A   1      36.148  33.517  32.432  1.00  0.00    -0.014 A 
ATOM     74  C   UNL A   1      36.018  34.675  31.645  1.00  0.00     0.010 A 
ATOM     75  C   UNL A   1      34.953  33.020  33.011  1.00  0.00     0.010 A 
ATOM     76  C   UNL A   1      34.808  35.384  31.562  1.00  0.00     0.020 A 
ATOM     77  C   UNL A   1      33.749  33.754  32.987  1.00  0.00     0.020 A 
ATOM     78  C   UNL A   1      33.691  34.947  32.270  1.00  0.00     0.054 A 
BRANCH  78  79
ATOM     79  S   UNL A   1      32.201  35.989  32.304  1.00  0.00     0.124 S 
ATOM     80  O   UNL A   1      32.051  36.386  30.905  1.00  0.00    -0.237 OA
ATOM     81  O   UNL A   1      31.186  35.069  32.807  1.00  0.00    -0.237 OA
ATOM     82  O   UNL A   1      32.561  37.080  33.209  1.00  0.00    -0.744 OA
ENDBRANCH  78  79
ENDBRANCH  59  73
BRANCH  60  83
ATOM     83  C   UNL A   1      44.975  29.144  33.320  1.00  0.00    -0.014 A 
ATOM     84  C   UNL A   1      45.879  28.168  33.789  1.00  0.00     0.010 A 
ATOM     85  C   UNL A   1      45.255  29.788  32.102  1.00  0.00     0.010 A 
ATOM     86  C   UNL A   1      46.944  27.734  32.999  1.00  0.00     0.020 A 
ATOM     87  C   UNL A   1      46.341  29.367  31.309  1.00  0.00     0.020 A 
ATOM     88  C   UNL A   1      47.140  28.303  31.742  1.00  0.00     0.054 A 
BRANCH  88  89
ATOM     89  S   UNL A   1      48.307  27.466  30.623  1.00  0.00     0.124 S 
ATOM     90  O   UNL A   1      47.722  27.712  29.310  1.00  0.00    -0.237 OA
ATOM     91  O   UNL A   1      49.546  28.190  30.905  1.00  0.00    -0.237 OA
ATOM     92  O   UNL A   1      48.277  26.080  31.080  1.00  0.00    -0.744 OA
ENDBRANCH  88  89
ENDBRANCH  60  83
BRANCH  72  93
ATOM     93  C   UNL A   1      40.552  33.429  37.224  1.00  0.00    -0.014 A 
ATOM     94  C   UNL A   1      39.930  33.330  38.473  1.00  0.00     0.010 A 
ATOM     95  C   UNL A   1      41.193  34.662  36.921  1.00  0.00     0.010 A 
ATOM     96  C   UNL A   1      39.897  34.424  39.351  1.00  0.00     0.020 A 
ATOM     97  C   UNL A   1      41.214  35.736  37.808  1.00  0.00     0.020 A 
ATOM     98  C   UNL A   1      40.534  35.621  39.011  1.00  0.00     0.054 A 
BRANCH  98  99
ATOM     99  S   UNL A   1      40.522  37.018  40.158  1.00  0.00     0.124 S 
ATOM    100  O   UNL A   1      41.662  37.800  39.687  1.00  0.00    -0.237 OA
ATOM    101  O   UNL A   1      39.212  37.624  39.930  1.00  0.00    -0.237 OA
ATOM    102  O   UNL A   1      40.689  36.387  41.465  1.00  0.00    -0.744 OA
ENDBRANCH  98  99
ENDBRANCH  72  93
ENDBRANCH  46  47
ENDBRANCH  39  41
ENDBRANCH  38  39
ENDBRANCH  37  38
ENDBRANCH  36  37
ENDBRANCH  35  36
ENDBRANCH   1  35
TORSDOF 22
ENDMDL
MODEL 3
REMARK VINA RESULT:     -12.3      6.138     12.875
REMARK SMILES Cc1cccc(N2C(=O)/C(=C/c3ccc(C(=O)OCCOCCOCCOC(=O)c4ccc(-c5c6nc(c(-c7ccc(S(=O)(=O)[O-])cc7)c7ccc([nH]7)c(-c7ccc(S(=O)(=O)[O-])cc7)c7nc(c(-c8ccc(S(=O)(=O)[O-])cc8)c8ccc5[nH]8)C=C7)C=C6)cc4)cc3)c3ccccc3C2=O)c1
REMARK SMILES IDX 23 1 22 2 21 3 20 4 19 5 18 6 16 7 17 8 15 9 12 10 13 11
REMARK SMILES IDX 91 12 14 13 90 14 11 15 7 16 8 17 98 18 9 19 10 20 97 21
REMARK SMILES IDX 99 22 92 23 96 24 93 25 95 26 94 27 6 28 1 29 2 30 3 31
REMARK SMILES IDX 100 32 4 33 5 34 24 35 25 36 26 37 27 38 28 39 29 40 30 41
REMARK SMILES IDX 31 42 89 43 32 44 88 45 33 46 34 47 35 48 82 49 36 50 87 51
REMARK SMILES IDX 81 52 83 53 37 54 86 55 80 56 79 57 38 59 68 60 49 61 67 62
REMARK SMILES IDX 50 63 53 64 66 65 84 66 51 67 52 68 65 70 85 71 54 72 39 73
REMARK SMILES IDX 40 74 48 75 41 76 47 77 42 78 43 79 44 80 45 81 46 82 69 83
REMARK SMILES IDX 70 84 78 85 71 86 77 87 72 88 73 89 74 90 75 91 76 92 55 93
REMARK SMILES IDX 56 94 64 95 57 96 63 97 58 98 59 99 60 100 61 101 62 102
REMARK H PARENT 83 58 53 69
REMARK Flexibility Score: inf
ROOT
ATOM      1  C   UNL A   1      47.433  30.992  27.026  1.00  0.00     0.188 C 
ENDROOT
BRANCH   1   2
ATOM      2  C   UNL A   1      46.083  31.493  26.509  1.00  0.00     0.188 C 
BRANCH   2   3
ATOM      3  O   UNL A   1      45.041  30.577  26.102  1.00  0.00    -0.376 OA
BRANCH   3   4
ATOM      4  C   UNL A   1      44.041  30.038  26.968  1.00  0.00     0.202 C 
BRANCH   4   5
ATOM      5  C   UNL A   1      43.982  28.477  27.523  1.00  0.00     0.261 C 
BRANCH   5   6
ATOM      6  O   UNL A   1      42.885  27.596  28.559  1.00  0.00    -0.460 OA
BRANCH   6   7
ATOM      7  C   UNL A   1      41.491  27.320  28.680  1.00  0.00     0.338 C 
ATOM      8  O   UNL A   1      40.858  26.294  28.427  1.00  0.00    -0.246 OA
BRANCH   7   9
ATOM      9  C   UNL A   1      40.427  28.149  29.232  1.00  0.00     0.060 A 
ATOM     10  C   UNL A   1      37.820  29.034  29.751  1.00  0.00    -0.025 A 
ATOM     11  C   UNL A   1      38.348  28.015  30.529  1.00  0.00     0.009 A 
ATOM     12  C   UNL A   1      38.460  29.421  28.565  1.00  0.00     0.009 A 
ATOM     13  C   UNL A   1      39.639  27.571  30.256  1.00  0.00     0.016 A 
ATOM     14  C   UNL A   1      39.765  28.986  28.314  1.00  0.00     0.016 A 
BRANCH  10  15
ATOM     15  C   UNL A   1      36.855  29.920  30.396  1.00  0.00     0.022 C 
ATOM     16  N   UNL A   1      36.413  33.211  30.948  1.00  0.00    -0.242 N 
ATOM     17  C   UNL A   1      36.284  31.938  31.544  1.00  0.00     0.265 C 
ATOM     18  C   UNL A   1      37.602  33.578  30.247  1.00  0.00     0.265 C 
ATOM     19  O   UNL A   1      35.456  31.516  32.345  1.00  0.00    -0.268 OA
ATOM     20  C   UNL A   1      37.312  30.997  31.075  1.00  0.00     0.049 C 
ATOM     21  C   UNL A   1      38.821  32.739  30.454  1.00  0.00     0.048 A 
ATOM     22  O   UNL A   1      37.765  34.553  29.516  1.00  0.00    -0.268 OA
ATOM     23  C   UNL A   1      38.684  31.493  31.048  1.00  0.00    -0.000 A 
ATOM     24  C   UNL A   1      40.089  33.164  30.036  1.00  0.00     0.014 A 
ATOM     25  C   UNL A   1      39.818  30.746  31.392  1.00  0.00     0.010 A 
ATOM     26  C   UNL A   1      41.211  32.363  30.270  1.00  0.00     0.001 A 
ATOM     27  C   UNL A   1      41.081  31.169  30.976  1.00  0.00     0.001 A 
BRANCH  16  28
ATOM     28  C   UNL A   1      35.293  34.143  31.040  1.00  0.00     0.053 A 
ATOM     29  C   UNL A   1      33.917  36.735  33.509  1.00  0.00     0.044 C 
ATOM     30  C   UNL A   1      34.037  35.873  32.288  1.00  0.00    -0.049 A 
ATOM     31  C   UNL A   1      33.107  35.960  31.258  1.00  0.00     0.003 A 
ATOM     32  C   UNL A   1      35.118  34.986  32.157  1.00  0.00     0.030 A 
ATOM     33  C   UNL A   1      33.246  35.151  30.138  1.00  0.00     0.002 A 
ATOM     34  C   UNL A   1      34.316  34.251  30.039  1.00  0.00     0.027 A 
ENDBRANCH  16  28
ENDBRANCH  10  15
ENDBRANCH   7   9
ENDBRANCH   6   7
ENDBRANCH   5   6
ENDBRANCH   4   5
ENDBRANCH   3   4
ENDBRANCH   2   3
ENDBRANCH   1   2
BRANCH   1  35
ATOM     35  O   UNL A   1      47.277  30.501  28.343  1.00  0.00    -0.376 OA
BRANCH  35  36
ATOM     36  C   UNL A   1      47.485  29.121  28.539  1.00  0.00     0.202 C 
BRANCH  36  37
ATOM     37  C   UNL A   1      48.465  28.554  27.507  1.00  0.00     0.261 C 
BRANCH  37  38
ATOM     38  O   UNL A   1      48.111  27.195  27.146  1.00  0.00    -0.460 OA
BRANCH  38  39
ATOM     39  C   UNL A   1      48.728  26.181  27.851  1.00  0.00     0.338 C 
ATOM     40  O   UNL A   1      49.916  25.928  27.719  1.00  0.00    -0.246 OA
BRANCH  39  41
ATOM     41  C   UNL A   1      47.759  25.536  28.806  1.00  0.00     0.060 A 
ATOM     42  C   UNL A   1      46.471  25.037  28.572  1.00  0.00     0.016 A 
ATOM     43  C   UNL A   1      48.085  25.636  30.110  1.00  0.00     0.016 A 
ATOM     44  C   UNL A   1      45.478  24.831  29.648  1.00  0.00     0.010 A 
ATOM     45  C   UNL A   1      47.025  25.688  31.021  1.00  0.00     0.010 A 
ATOM     46  C   UNL A   1      45.675  25.249  30.976  1.00  0.00    -0.014 A 
BRANCH  46  47
ATOM     47  C   UNL A   1      44.487  25.397  32.205  1.00  0.00     0.031 A 
ATOM     48  C   UNL A   1      43.606  26.767  32.884  1.00  0.00     0.074 A 
ATOM     49  C   UNL A   1      44.253  24.302  32.975  1.00  0.00     0.049 A 
ATOM     50  N   UNL A   1      43.522  27.039  34.183  1.00  0.00    -0.248 NA
ATOM     51  C   UNL A   1      42.943  27.947  32.200  1.00  0.00     0.031 C 
ATOM     52  C   UNL A   1      43.235  24.200  34.023  1.00  0.00     0.029 A 
ATOM     53  N   UNL A   1      44.929  23.088  33.092  1.00  0.00    -0.354 N 
ATOM     54  C   UNL A   1      42.817  28.251  34.369  1.00  0.00     0.074 A 
ATOM     55  C   UNL A   1      42.635  28.840  33.111  1.00  0.00     0.031 C 
ATOM     56  C   UNL A   1      43.576  23.205  34.854  1.00  0.00     0.029 A 
ATOM     57  C   UNL A   1      44.874  22.715  34.433  1.00  0.00     0.049 A 
ATOM     58  H   UNL A   1      45.363  22.587  32.364  1.00  0.00     0.167 HD
ATOM     59  C   UNL A   1      42.194  28.691  35.493  1.00  0.00     0.031 A 
ATOM     60  C   UNL A   1      45.940  22.468  35.244  1.00  0.00     0.031 A 
ATOM     61  C   UNL A   1      42.265  27.682  36.497  1.00  0.00     0.049 A 
ATOM     62  C   UNL A   1      45.871  23.216  36.562  1.00  0.00     0.074 A 
ATOM     63  C   UNL A   1      41.450  26.595  36.753  1.00  0.00     0.029 A 
ATOM     64  N   UNL A   1      43.480  27.448  37.095  1.00  0.00    -0.354 N 
ATOM     65  N   UNL A   1      45.042  24.195  36.796  1.00  0.00    -0.248 NA
ATOM     66  C   UNL A   1      46.744  22.958  37.706  1.00  0.00     0.031 C 
ATOM     67  C   UNL A   1      42.217  25.662  37.488  1.00  0.00     0.029 A 
ATOM     68  C   UNL A   1      43.461  26.221  37.717  1.00  0.00     0.049 A 
ATOM     69  H   UNL A   1      44.247  28.066  37.083  1.00  0.00     0.167 HD
ATOM     70  C   UNL A   1      45.286  24.727  38.035  1.00  0.00     0.074 A 
ATOM     71  C   UNL A   1      46.340  23.898  38.580  1.00  0.00     0.031 C 
ATOM     72  C   UNL A   1      44.616  25.823  38.493  1.00  0.00     0.031 A 
BRANCH  59  73
ATOM     73  C   UNL A   1      41.190  29.844  35.444  1.00  0.00    -0.014 A 
ATOM     74  C   UNL A   1      41.405  30.979  36.245  1.00  0.00     0.010 A 
ATOM     75  C   UNL A   1      39.960  29.801  34.741  1.00  0.00     0.010 A 
ATOM     76  C   UNL A   1      40.399  31.937  36.460  1.00  0.00     0.020 A 
ATOM     77  C   UNL A   1      38.921  30.721  34.996  1.00  0.00     0.020 A 
ATOM     78  C   UNL A   1      39.146  31.780  35.871  1.00  0.00     0.054 A 
BRANCH  78  79
ATOM     79  S   UNL A   1      37.807  32.923  36.324  1.00  0.00     0.124 S 
ATOM     80  O   UNL A   1      36.861  32.768  35.219  1.00  0.00    -0.237 OA
ATOM     81  O   UNL A   1      37.362  32.393  37.609  1.00  0.00    -0.237 OA
ATOM     82  O   UNL A   1      38.466  34.227  36.380  1.00  0.00    -0.744 OA
ENDBRANCH  78  79
ENDBRANCH  59  73
BRANCH  60  83
ATOM     83  C   UNL A   1      47.183  22.026  34.553  1.00  0.00    -0.014 A 
ATOM     84  C   UNL A   1      48.254  22.944  34.508  1.00  0.00     0.010 A 
ATOM     85  C   UNL A   1      47.449  20.671  34.289  1.00  0.00     0.010 A 
ATOM     86  C   UNL A   1      49.572  22.506  34.363  1.00  0.00     0.020 A 
ATOM     87  C   UNL A   1      48.775  20.227  34.122  1.00  0.00     0.020 A 
ATOM     88  C   UNL A   1      49.828  21.144  34.218  1.00  0.00     0.054 A 
BRANCH  88  89
ATOM     89  S   UNL A   1      51.558  20.601  34.388  1.00  0.00     0.124 S 
ATOM     90  O   UNL A   1      52.112  20.886  33.069  1.00  0.00    -0.237 OA
ATOM     91  O   UNL A   1      52.026  21.469  35.468  1.00  0.00    -0.237 OA
ATOM     92  O   UNL A   1      51.436  19.188  34.731  1.00  0.00    -0.744 OA
ENDBRANCH  88  89
ENDBRANCH  60  83
BRANCH  72  93
ATOM     93  C   UNL A   1      44.928  26.657  39.714  1.00  0.00    -0.014 A 
ATOM     94  C   UNL A   1      44.266  26.536  40.940  1.00  0.00     0.010 A 
ATOM     95  C   UNL A   1      46.065  27.510  39.679  1.00  0.00     0.010 A 
ATOM     96  C   UNL A   1      44.680  27.274  42.059  1.00  0.00     0.020 A 
ATOM     97  C   UNL A   1      46.519  28.204  40.799  1.00  0.00     0.020 A 
ATOM     98  C   UNL A   1      45.799  28.107  41.980  1.00  0.00     0.054 A 
BRANCH  98  99
ATOM     99  S   UNL A   1      46.354  29.030  43.433  1.00  0.00     0.124 S 
ATOM    100  O   UNL A   1      47.222  30.038  42.832  1.00  0.00    -0.237 OA
ATOM    101  O   UNL A   1      45.107  29.537  44.001  1.00  0.00    -0.237 OA
ATOM    102  O   UNL A   1      47.030  28.018  44.240  1.00  0.00    -0.744 OA
ENDBRANCH  98  99
ENDBRANCH  72  93
ENDBRANCH  46  47
ENDBRANCH  39  41
ENDBRANCH  38  39
ENDBRANCH  37  38
ENDBRANCH  36  37
ENDBRANCH  35  36
ENDBRANCH   1  35
TORSDOF 22
ENDMDL
