MODEL 1
REMARK VINA RESULT:      -8.7      0.000      0.000
REMARK SMILES CC(C)c1cc(OCC(=O)OCCOCCOCCOC(=O)c2ccc(-c3c4nc(c(-c5ccc(S(=O)(=O)[O-])cc5)c5ccc([nH]5)c(-c5ccc(S(=O)(=O)[O-])cc5)c5nc(c(-c6ccc(S(=O)(=O)[O-])cc6)c6ccc3[nH]6)C=C5)C=C4)cc2)nc(Nc2ccc(F)cc2F)n1
REMARK SMILES IDX 15 1 14 2 13 3 12 4 11 5 9 6 10 7 8 8 7 9 6 10 4 11 5 12
REMARK SMILES IDX 94 13 84 14 83 15 2 16 1 17 3 18 85 19 86 21 87 22 92 23
REMARK SMILES IDX 88 24 91 25 93 26 89 27 90 28 16 29 17 30 18 31 19 32 20 33
REMARK SMILES IDX 21 34 22 35 23 36 24 37 82 38 25 39 81 40 26 41 27 42 28 43
REMARK SMILES IDX 75 44 29 45 80 46 74 47 76 48 30 49 79 50 73 51 72 52 31 54
REMARK SMILES IDX 61 55 42 56 60 57 43 58 46 59 59 60 77 61 44 62 45 63 58 65
REMARK SMILES IDX 78 66 47 67 32 68 33 69 41 70 34 71 40 72 35 73 36 74 37 75
REMARK SMILES IDX 38 76 39 77 62 78 63 79 71 80 64 81 70 82 65 83 66 84 67 85
REMARK SMILES IDX 68 86 69 87 48 88 49 89 57 90 50 91 56 92 51 93 52 94 53 95
REMARK SMILES IDX 54 96 55 97
REMARK H PARENT 85 20 76 53 46 64
REMARK Flexibility Score: inf
ROOT
ATOM      1  C   UNL A   1      46.518  19.168  25.403  1.00  0.00     0.188 C 
ENDROOT
BRANCH   1   2
ATOM      2  O   UNL A   1      45.458  18.250  25.254  1.00  0.00    -0.376 OA
BRANCH   2   3
ATOM      3  C   UNL A   1      44.235  18.788  24.790  1.00  0.00     0.202 C 
BRANCH   3   4
ATOM      4  C   UNL A   1      43.008  18.694  25.730  1.00  0.00     0.261 C 
BRANCH   4   5
ATOM      5  O   UNL A   1      42.369  19.964  26.098  1.00  0.00    -0.461 OA
BRANCH   5   6
ATOM      6  C   UNL A   1      41.880  20.091  27.366  1.00  0.00     0.344 C 
ATOM      7  O   UNL A   1      41.480  19.128  28.018  1.00  0.00    -0.248 OA
BRANCH   6   8
ATOM      8  C   UNL A   1      41.922  21.537  28.031  1.00  0.00     0.353 C 
BRANCH   8   9
ATOM      9  O   UNL A   1      41.847  22.822  27.428  1.00  0.00    -0.466 OA
BRANCH   9  10
ATOM     10  C   UNL A   1      40.754  23.666  27.451  1.00  0.00     0.218 A 
ATOM     11  C   UNL A   1      39.732  25.830  27.747  1.00  0.00     0.052 A 
ATOM     12  C   UNL A   1      40.595  24.813  28.229  1.00  0.00     0.092 A 
ATOM     13  N   UNL A   1      38.898  25.482  26.751  1.00  0.00    -0.217 NA
ATOM     14  C   UNL A   1      38.930  24.260  26.205  1.00  0.00     0.230 A 
ATOM     15  N   UNL A   1      39.875  23.357  26.482  1.00  0.00    -0.177 NA
BRANCH  11  16
ATOM     16  C   UNL A   1      39.778  27.656  27.966  1.00  0.00     0.032 C 
ATOM     17  C   UNL A   1      41.332  27.805  27.349  1.00  0.00     0.014 C 
ATOM     18  C   UNL A   1      38.184  29.147  28.240  1.00  0.00     0.014 C 
ENDBRANCH  11  16
BRANCH  14  19
ATOM     19  N   UNL A   1      37.917  23.926  25.309  1.00  0.00    -0.322 N 
ATOM     20  H   UNL A   1      37.937  24.346  24.419  1.00  0.00     0.170 HD
BRANCH  19  21
ATOM     21  C   UNL A   1      36.869  23.037  25.584  1.00  0.00     0.077 A 
ATOM     22  C   UNL A   1      35.720  23.484  26.247  1.00  0.00     0.032 A 
ATOM     23  C   UNL A   1      36.936  21.687  25.200  1.00  0.00     0.149 A 
ATOM     24  C   UNL A   1      34.637  22.619  26.440  1.00  0.00     0.041 A 
ATOM     25  C   UNL A   1      35.864  20.821  25.387  1.00  0.00     0.080 A 
ATOM     26  F   UNL A   1      38.064  21.202  24.658  1.00  0.00    -0.205 F 
ATOM     27  C   UNL A   1      34.716  21.302  25.997  1.00  0.00     0.126 A 
ATOM     28  F   UNL A   1      33.673  20.482  26.177  1.00  0.00    -0.207 F 
ENDBRANCH  19  21
ENDBRANCH  14  19
ENDBRANCH   9  10
ENDBRANCH   8   9
ENDBRANCH   6   8
ENDBRANCH   5   6
ENDBRANCH   4   5
ENDBRANCH   3   4
ENDBRANCH   2   3
ENDBRANCH   1   2
BRANCH   1  29
ATOM     29  C   UNL A   1      46.539  20.459  24.531  1.00  0.00     0.188 C 
BRANCH  29  30
ATOM     30  O   UNL A   1      46.222  21.638  25.220  1.00  0.00    -0.376 OA
BRANCH  30  31
ATOM     31  C   UNL A   1      46.175  22.848  24.497  1.00  0.00     0.202 C 
BRANCH  31  32
ATOM     32  C   UNL A   1      45.466  24.110  25.016  1.00  0.00     0.261 C 
BRANCH  32  33
ATOM     33  O   UNL A   1      44.796  23.999  26.283  1.00  0.00    -0.460 OA
BRANCH  33  34
ATOM     34  C   UNL A   1      45.509  24.493  27.310  1.00  0.00     0.338 C 
ATOM     35  O   UNL A   1      46.634  24.133  27.625  1.00  0.00    -0.246 OA
BRANCH  34  36
ATOM     36  C   UNL A   1      44.841  25.559  28.102  1.00  0.00     0.060 A 
ATOM     37  C   UNL A   1      45.272  27.336  28.137  1.00  0.00     0.016 A 
ATOM     38  C   UNL A   1      44.156  24.834  29.587  1.00  0.00     0.016 A 
ATOM     39  C   UNL A   1      45.087  28.313  29.685  1.00  0.00     0.010 A 
ATOM     40  C   UNL A   1      43.897  25.812  31.060  1.00  0.00     0.010 A 
ATOM     41  C   UNL A   1      44.354  27.545  31.142  1.00  0.00    -0.014 A 
BRANCH  41  42
ATOM     42  C   UNL A   1      43.731  28.336  32.276  1.00  0.00     0.031 A 
ATOM     43  C   UNL A   1      42.453  29.143  32.056  1.00  0.00     0.074 A 
ATOM     44  C   UNL A   1      44.414  28.525  33.433  1.00  0.00     0.049 A 
ATOM     45  N   UNL A   1      41.834  29.982  32.854  1.00  0.00    -0.248 NA
ATOM     46  C   UNL A   1      41.774  29.004  30.765  1.00  0.00     0.031 C 
ATOM     47  C   UNL A   1      45.675  27.890  33.828  1.00  0.00     0.029 A 
ATOM     48  N   UNL A   1      44.166  29.374  34.494  1.00  0.00    -0.354 N 
ATOM     49  C   UNL A   1      40.709  30.429  32.152  1.00  0.00     0.074 A 
ATOM     50  C   UNL A   1      40.759  29.840  30.847  1.00  0.00     0.031 C 
ATOM     51  C   UNL A   1      46.103  28.384  34.995  1.00  0.00     0.029 A 
ATOM     52  C   UNL A   1      45.161  29.385  35.450  1.00  0.00     0.049 A 
ATOM     53  H   UNL A   1      43.350  29.923  34.561  1.00  0.00     0.167 HD
ATOM     54  C   UNL A   1      39.701  31.244  32.541  1.00  0.00     0.031 A 
ATOM     55  C   UNL A   1      45.327  30.104  36.576  1.00  0.00     0.031 A 
ATOM     56  C   UNL A   1      39.679  31.906  33.809  1.00  0.00     0.049 A 
ATOM     57  C   UNL A   1      44.245  31.057  36.975  1.00  0.00     0.074 A 
ATOM     58  C   UNL A   1      38.706  32.733  34.334  1.00  0.00     0.029 A 
ATOM     59  N   UNL A   1      40.707  31.843  34.735  1.00  0.00    -0.354 N 
ATOM     60  N   UNL A   1      43.137  31.350  36.337  1.00  0.00    -0.248 NA
ATOM     61  C   UNL A   1      44.410  31.740  38.262  1.00  0.00     0.031 C 
ATOM     62  C   UNL A   1      39.182  33.235  35.548  1.00  0.00     0.029 A 
ATOM     63  C   UNL A   1      40.412  32.650  35.815  1.00  0.00     0.049 A 
ATOM     64  H   UNL A   1      41.525  31.303  34.639  1.00  0.00     0.167 HD
ATOM     65  C   UNL A   1      42.449  32.222  37.169  1.00  0.00     0.074 A 
ATOM     66  C   UNL A   1      43.261  32.395  38.358  1.00  0.00     0.031 C 
ATOM     67  C   UNL A   1      41.247  32.816  36.975  1.00  0.00     0.031 A 
BRANCH  54  68
ATOM     68  C   UNL A   1      38.567  31.478  31.566  1.00  0.00    -0.014 A 
ATOM     69  C   UNL A   1      38.666  32.453  30.553  1.00  0.00     0.010 A 
ATOM     70  C   UNL A   1      37.392  30.712  31.655  1.00  0.00     0.010 A 
ATOM     71  C   UNL A   1      37.600  32.681  29.676  1.00  0.00     0.020 A 
ATOM     72  C   UNL A   1      36.336  30.915  30.758  1.00  0.00     0.020 A 
ATOM     73  C   UNL A   1      36.441  31.909  29.784  1.00  0.00     0.054 A 
BRANCH  73  74
ATOM     74  S   UNL A   1      35.088  32.205  28.611  1.00  0.00     0.124 S 
ATOM     75  O   UNL A   1      34.730  30.845  28.213  1.00  0.00    -0.237 OA
ATOM     76  O   UNL A   1      34.100  32.898  29.434  1.00  0.00    -0.237 OA
ATOM     77  O   UNL A   1      35.704  33.017  27.565  1.00  0.00    -0.744 OA
ENDBRANCH  73  74
ENDBRANCH  54  68
BRANCH  55  78
ATOM     78  C   UNL A   1      46.533  29.890  37.431  1.00  0.00    -0.014 A 
ATOM     79  C   UNL A   1      47.752  30.512  37.108  1.00  0.00     0.010 A 
ATOM     80  C   UNL A   1      46.462  29.102  38.597  1.00  0.00     0.010 A 
ATOM     81  C   UNL A   1      48.881  30.333  37.915  1.00  0.00     0.020 A 
ATOM     82  C   UNL A   1      47.581  28.945  39.424  1.00  0.00     0.020 A 
ATOM     83  C   UNL A   1      48.787  29.551  39.070  1.00  0.00     0.054 A 
BRANCH  83  84
ATOM     84  S   UNL A   1      50.258  29.369  40.120  1.00  0.00     0.124 S 
ATOM     85  O   UNL A   1      51.265  30.103  39.361  1.00  0.00    -0.237 OA
ATOM     86  O   UNL A   1      49.829  29.991  41.370  1.00  0.00    -0.237 OA
ATOM     87  O   UNL A   1      50.455  27.923  40.186  1.00  0.00    -0.744 OA
ENDBRANCH  83  84
ENDBRANCH  55  78
BRANCH  67  88
ATOM     88  C   UNL A   1      40.728  33.684  38.081  1.00  0.00    -0.014 A 
ATOM     89  C   UNL A   1      41.175  35.004  38.244  1.00  0.00     0.010 A 
ATOM     90  C   UNL A   1      39.733  33.177  38.937  1.00  0.00     0.010 A 
ATOM     91  C   UNL A   1      40.663  35.794  39.271  1.00  0.00     0.020 A 
ATOM     92  C   UNL A   1      39.189  33.977  39.939  1.00  0.00     0.020 A 
ATOM     93  C   UNL A   1      39.669  35.277  40.109  1.00  0.00     0.054 A 
BRANCH  93  94
ATOM     94  S   UNL A   1      38.986  36.343  41.403  1.00  0.00     0.124 S 
ATOM     95  O   UNL A   1      37.897  35.524  41.927  1.00  0.00    -0.237 OA
ATOM     96  O   UNL A   1      40.127  36.524  42.298  1.00  0.00    -0.237 OA
ATOM     97  O   UNL A   1      38.571  37.544  40.679  1.00  0.00    -0.744 OA
ENDBRANCH  93  94
ENDBRANCH  67  88
ENDBRANCH  41  42
ENDBRANCH  34  36
ENDBRANCH  33  34
ENDBRANCH  32  33
ENDBRANCH  31  32
ENDBRANCH  30  31
ENDBRANCH  29  30
ENDBRANCH   1  29
TORSDOF 25
ENDMDL
MODEL 2
REMARK VINA RESULT:      -7.5      7.224     12.711
REMARK SMILES CC(C)c1cc(OCC(=O)OCCOCCOCCOC(=O)c2ccc(-c3c4nc(c(-c5ccc(S(=O)(=O)[O-])cc5)c5ccc([nH]5)c(-c5ccc(S(=O)(=O)[O-])cc5)c5nc(c(-c6ccc(S(=O)(=O)[O-])cc6)c6ccc3[nH]6)C=C5)C=C4)cc2)nc(Nc2ccc(F)cc2F)n1
REMARK SMILES IDX 15 1 14 2 13 3 12 4 11 5 9 6 10 7 8 8 7 9 6 10 4 11 5 12
REMARK SMILES IDX 94 13 84 14 83 15 2 16 1 17 3 18 85 19 86 21 87 22 92 23
REMARK SMILES IDX 88 24 91 25 93 26 89 27 90 28 16 29 17 30 18 31 19 32 20 33
REMARK SMILES IDX 21 34 22 35 23 36 24 37 82 38 25 39 81 40 26 41 27 42 28 43
REMARK SMILES IDX 75 44 29 45 80 46 74 47 76 48 30 49 79 50 73 51 72 52 31 54
REMARK SMILES IDX 61 55 42 56 60 57 43 58 46 59 59 60 77 61 44 62 45 63 58 65
REMARK SMILES IDX 78 66 47 67 32 68 33 69 41 70 34 71 40 72 35 73 36 74 37 75
REMARK SMILES IDX 38 76 39 77 62 78 63 79 71 80 64 81 70 82 65 83 66 84 67 85
REMARK SMILES IDX 68 86 69 87 48 88 49 89 57 90 50 91 56 92 51 93 52 94 53 95
REMARK SMILES IDX 54 96 55 97
REMARK H PARENT 85 20 76 53 46 64
REMARK Flexibility Score: inf
ROOT
ATOM      1  C   UNL A   1      49.286  21.842  36.486  1.00  0.00     0.188 C 
ENDROOT
BRANCH   1   2
ATOM      2  O   UNL A   1      48.168  21.477  35.707  1.00  0.00    -0.376 OA
BRANCH   2   3
ATOM      3  C   UNL A   1      47.009  21.107  36.427  1.00  0.00     0.202 C 
BRANCH   3   4
ATOM      4  C   UNL A   1      46.902  19.639  36.908  1.00  0.00     0.261 C 
BRANCH   4   5
ATOM      5  O   UNL A   1      47.460  19.344  38.234  1.00  0.00    -0.461 OA
BRANCH   5   6
ATOM      6  C   UNL A   1      46.590  19.084  39.253  1.00  0.00     0.344 C 
ATOM      7  O   UNL A   1      45.853  19.948  39.726  1.00  0.00    -0.248 OA
BRANCH   6   8
ATOM      8  C   UNL A   1      46.487  17.582  39.769  1.00  0.00     0.353 C 
BRANCH   8   9
ATOM      9  O   UNL A   1      46.990  16.989  40.958  1.00  0.00    -0.466 OA
BRANCH   9  10
ATOM     10  C   UNL A   1      46.330  16.915  42.169  1.00  0.00     0.218 A 
ATOM     11  C   UNL A   1      45.897  17.676  44.417  1.00  0.00     0.052 A 
ATOM     12  C   UNL A   1      46.827  17.282  43.421  1.00  0.00     0.092 A 
ATOM     13  N   UNL A   1      44.609  17.366  44.186  1.00  0.00    -0.217 NA
ATOM     14  C   UNL A   1      44.222  16.776  43.048  1.00  0.00     0.230 A 
ATOM     15  N   UNL A   1      45.035  16.594  42.003  1.00  0.00    -0.177 NA
BRANCH  11  16
ATOM     16  C   UNL A   1      46.054  18.867  45.810  1.00  0.00     0.032 C 
ATOM     17  C   UNL A   1      47.434  18.139  46.427  1.00  0.00     0.014 C 
ATOM     18  C   UNL A   1      45.210  20.873  46.134  1.00  0.00     0.014 C 
ENDBRANCH  11  16
BRANCH  14  19
ATOM     19  N   UNL A   1      42.905  16.328  42.967  1.00  0.00    -0.322 N 
ATOM     20  H   UNL A   1      42.222  16.826  43.471  1.00  0.00     0.170 HD
BRANCH  19  21
ATOM     21  C   UNL A   1      42.484  15.218  42.223  1.00  0.00     0.077 A 
ATOM     22  C   UNL A   1      42.350  13.967  42.837  1.00  0.00     0.032 A 
ATOM     23  C   UNL A   1      42.179  15.328  40.856  1.00  0.00     0.149 A 
ATOM     24  C   UNL A   1      41.842  12.879  42.117  1.00  0.00     0.041 A 
ATOM     25  C   UNL A   1      41.673  14.252  40.133  1.00  0.00     0.080 A 
ATOM     26  F   UNL A   1      42.398  16.485  40.214  1.00  0.00    -0.205 F 
ATOM     27  C   UNL A   1      41.498  13.038  40.777  1.00  0.00     0.126 A 
ATOM     28  F   UNL A   1      41.004  11.996  40.096  1.00  0.00    -0.207 F 
ENDBRANCH  19  21
ENDBRANCH  14  19
ENDBRANCH   9  10
ENDBRANCH   8   9
ENDBRANCH   6   8
ENDBRANCH   5   6
ENDBRANCH   4   5
ENDBRANCH   3   4
ENDBRANCH   2   3
ENDBRANCH   1   2
BRANCH   1  29
ATOM     29  C   UNL A   1      49.326  23.251  37.151  1.00  0.00     0.188 C 
BRANCH  29  30
ATOM     30  O   UNL A   1      50.538  23.939  36.998  1.00  0.00    -0.376 OA
BRANCH  30  31
ATOM     31  C   UNL A   1      50.666  25.215  37.584  1.00  0.00     0.202 C 
BRANCH  31  32
ATOM     32  C   UNL A   1      49.592  25.832  38.495  1.00  0.00     0.261 C 
BRANCH  32  33
ATOM     33  O   UNL A   1      49.306  27.227  38.301  1.00  0.00    -0.460 OA
BRANCH  33  34
ATOM     34  C   UNL A   1      48.473  27.735  39.227  1.00  0.00     0.338 C 
ATOM     35  O   UNL A   1      48.704  27.797  40.425  1.00  0.00    -0.246 OA
BRANCH  34  36
ATOM     36  C   UNL A   1      47.177  28.250  38.712  1.00  0.00     0.060 A 
ATOM     37  C   UNL A   1      45.622  27.309  38.512  1.00  0.00     0.016 A 
ATOM     38  C   UNL A   1      47.497  29.590  37.572  1.00  0.00     0.016 A 
ATOM     39  C   UNL A   1      44.477  27.679  37.119  1.00  0.00     0.010 A 
ATOM     40  C   UNL A   1      46.337  30.001  36.276  1.00  0.00     0.010 A 
ATOM     41  C   UNL A   1      44.827  29.067  36.023  1.00  0.00    -0.014 A 
BRANCH  41  42
ATOM     42  C   UNL A   1      43.769  29.746  35.174  1.00  0.00     0.031 A 
ATOM     43  C   UNL A   1      42.822  30.777  35.785  1.00  0.00     0.074 A 
ATOM     44  C   UNL A   1      43.496  29.287  33.927  1.00  0.00     0.049 A 
ATOM     45  N   UNL A   1      41.774  31.374  35.266  1.00  0.00    -0.248 NA
ATOM     46  C   UNL A   1      43.069  31.194  37.166  1.00  0.00     0.031 C 
ATOM     47  C   UNL A   1      44.243  28.274  33.175  1.00  0.00     0.029 A 
ATOM     48  N   UNL A   1      42.452  29.580  33.072  1.00  0.00    -0.354 N 
ATOM     49  C   UNL A   1      41.283  32.230  36.259  1.00  0.00     0.074 A 
ATOM     50  C   UNL A   1      42.084  32.029  37.429  1.00  0.00     0.031 C 
ATOM     51  C   UNL A   1      43.632  28.006  32.016  1.00  0.00     0.029 A 
ATOM     52  C   UNL A   1      42.435  28.814  31.923  1.00  0.00     0.049 A 
ATOM     53  H   UNL A   1      41.779  30.273  33.264  1.00  0.00     0.167 HD
ATOM     54  C   UNL A   1      40.267  33.123  36.221  1.00  0.00     0.031 A 
ATOM     55  C   UNL A   1      41.570  28.747  30.893  1.00  0.00     0.031 A 
ATOM     56  C   UNL A   1      39.405  33.275  35.089  1.00  0.00     0.049 A 
ATOM     57  C   UNL A   1      40.407  29.687  30.880  1.00  0.00     0.074 A 
ATOM     58  C   UNL A   1      38.360  34.161  34.914  1.00  0.00     0.029 A 
ATOM     59  N   UNL A   1      39.470  32.487  33.952  1.00  0.00    -0.354 N 
ATOM     60  N   UNL A   1      40.057  30.568  31.787  1.00  0.00    -0.248 NA
ATOM     61  C   UNL A   1      39.550  29.660  29.690  1.00  0.00     0.031 C 
ATOM     62  C   UNL A   1      37.740  33.854  33.699  1.00  0.00     0.029 A 
ATOM     63  C   UNL A   1      38.456  32.836  33.084  1.00  0.00     0.049 A 
ATOM     64  H   UNL A   1      40.139  31.783  33.787  1.00  0.00     0.167 HD
ATOM     65  C   UNL A   1      38.961  31.233  31.255  1.00  0.00     0.074 A 
ATOM     66  C   UNL A   1      38.718  30.660  29.946  1.00  0.00     0.031 C 
ATOM     67  C   UNL A   1      38.229  32.236  31.796  1.00  0.00     0.031 A 
BRANCH  54  68
ATOM     68  C   UNL A   1      40.027  33.971  37.451  1.00  0.00    -0.014 A 
ATOM     69  C   UNL A   1      39.090  33.586  38.431  1.00  0.00     0.010 A 
ATOM     70  C   UNL A   1      40.750  35.162  37.638  1.00  0.00     0.010 A 
ATOM     71  C   UNL A   1      38.856  34.393  39.550  1.00  0.00     0.020 A 
ATOM     72  C   UNL A   1      40.542  35.956  38.772  1.00  0.00     0.020 A 
ATOM     73  C   UNL A   1      39.585  35.574  39.713  1.00  0.00     0.054 A 
BRANCH  73  74
ATOM     74  S   UNL A   1      39.283  36.583  41.191  1.00  0.00     0.124 S 
ATOM     75  O   UNL A   1      40.639  36.801  41.691  1.00  0.00    -0.237 OA
ATOM     76  O   UNL A   1      38.621  37.763  40.640  1.00  0.00    -0.237 OA
ATOM     77  O   UNL A   1      38.440  35.733  42.028  1.00  0.00    -0.744 OA
ENDBRANCH  73  74
ENDBRANCH  54  68
BRANCH  55  78
ATOM     78  C   UNL A   1      41.821  27.801  29.764  1.00  0.00    -0.014 A 
ATOM     79  C   UNL A   1      40.885  26.799  29.455  1.00  0.00     0.010 A 
ATOM     80  C   UNL A   1      42.974  27.922  28.962  1.00  0.00     0.010 A 
ATOM     81  C   UNL A   1      41.103  25.922  28.388  1.00  0.00     0.020 A 
ATOM     82  C   UNL A   1      43.181  27.066  27.873  1.00  0.00     0.020 A 
ATOM     83  C   UNL A   1      42.250  26.063  27.602  1.00  0.00     0.054 A 
BRANCH  83  84
ATOM     84  S   UNL A   1      42.487  24.936  26.198  1.00  0.00     0.124 S 
ATOM     85  O   UNL A   1      42.193  25.801  25.060  1.00  0.00    -0.237 OA
ATOM     86  O   UNL A   1      43.885  24.539  26.347  1.00  0.00    -0.237 OA
ATOM     87  O   UNL A   1      41.515  23.873  26.443  1.00  0.00    -0.744 OA
ENDBRANCH  83  84
ENDBRANCH  55  78
BRANCH  67  88
ATOM     88  C   UNL A   1      37.116  32.796  30.961  1.00  0.00    -0.014 A 
ATOM     89  C   UNL A   1      35.795  32.347  31.112  1.00  0.00     0.010 A 
ATOM     90  C   UNL A   1      37.400  33.827  30.048  1.00  0.00     0.010 A 
ATOM     91  C   UNL A   1      34.777  32.896  30.334  1.00  0.00     0.020 A 
ATOM     92  C   UNL A   1      36.379  34.407  29.298  1.00  0.00     0.020 A 
ATOM     93  C   UNL A   1      35.075  33.927  29.436  1.00  0.00     0.054 A 
BRANCH  93  94
ATOM     94  S   UNL A   1      33.725  34.656  28.475  1.00  0.00     0.124 S 
ATOM     95  O   UNL A   1      34.132  36.056  28.395  1.00  0.00    -0.237 OA
ATOM     96  O   UNL A   1      33.789  33.908  27.221  1.00  0.00    -0.237 OA
ATOM     97  O   UNL A   1      32.540  34.396  29.291  1.00  0.00    -0.744 OA
ENDBRANCH  93  94
ENDBRANCH  67  88
ENDBRANCH  41  42
ENDBRANCH  34  36
ENDBRANCH  33  34
ENDBRANCH  32  33
ENDBRANCH  31  32
ENDBRANCH  30  31
ENDBRANCH  29  30
ENDBRANCH   1  29
TORSDOF 25
ENDMDL
MODEL 3
REMARK VINA RESULT:      -7.5      9.591     16.563
REMARK SMILES CC(C)c1cc(OCC(=O)OCCOCCOCCOC(=O)c2ccc(-c3c4nc(c(-c5ccc(S(=O)(=O)[O-])cc5)c5ccc([nH]5)c(-c5ccc(S(=O)(=O)[O-])cc5)c5nc(c(-c6ccc(S(=O)(=O)[O-])cc6)c6ccc3[nH]6)C=C5)C=C4)cc2)nc(Nc2ccc(F)cc2F)n1
REMARK SMILES IDX 15 1 14 2 13 3 12 4 11 5 9 6 10 7 8 8 7 9 6 10 4 11 5 12
REMARK SMILES IDX 94 13 84 14 83 15 2 16 1 17 3 18 85 19 86 21 87 22 92 23
REMARK SMILES IDX 88 24 91 25 93 26 89 27 90 28 16 29 17 30 18 31 19 32 20 33
REMARK SMILES IDX 21 34 22 35 23 36 24 37 82 38 25 39 81 40 26 41 27 42 28 43
REMARK SMILES IDX 75 44 29 45 80 46 74 47 76 48 30 49 79 50 73 51 72 52 31 54
REMARK SMILES IDX 61 55 42 56 60 57 43 58 46 59 59 60 77 61 44 62 45 63 58 65
REMARK SMILES IDX 78 66 47 67 32 68 33 69 41 70 34 71 40 72 35 73 36 74 37 75
REMARK SMILES IDX 38 76 39 77 62 78 63 79 71 80 64 81 70 82 65 83 66 84 67 85
REMARK SMILES IDX 68 86 69 87 48 88 49 89 57 90 50 91 56 92 51 93 52 94 53 95
REMARK SMILES IDX 54 96 55 97
REMARK H PARENT 85 20 76 53 46 64
REMARK Flexibility Score: inf
ROOT
ATOM      1  C   UNL A   1      45.900  39.705  30.373  1.00  0.00     0.188 C 
ENDROOT
BRANCH   1   2
ATOM      2  O   UNL A   1      45.845  38.409  29.820  1.00  0.00    -0.376 OA
BRANCH   2   3
ATOM      3  C   UNL A   1      44.724  38.134  29.003  1.00  0.00     0.202 C 
BRANCH   3   4
ATOM      4  C   UNL A   1      44.796  38.565  27.518  1.00  0.00     0.261 C 
BRANCH   4   5
ATOM      5  O   UNL A   1      43.593  38.328  26.709  1.00  0.00    -0.461 OA
BRANCH   5   6
ATOM      6  C   UNL A   1      42.725  39.367  26.533  1.00  0.00     0.344 C 
ATOM      7  O   UNL A   1      41.516  39.255  26.732  1.00  0.00    -0.248 OA
BRANCH   6   8
ATOM      8  C   UNL A   1      43.338  40.781  26.138  1.00  0.00     0.353 C 
BRANCH   8   9
ATOM      9  O   UNL A   1      42.844  41.775  25.250  1.00  0.00    -0.466 OA
BRANCH   9  10
ATOM     10  C   UNL A   1      43.610  42.640  24.494  1.00  0.00     0.218 A 
ATOM     11  C   UNL A   1      45.548  44.035  24.151  1.00  0.00     0.052 A 
ATOM     12  C   UNL A   1      44.454  43.646  24.966  1.00  0.00     0.092 A 
ATOM     13  N   UNL A   1      45.507  43.636  22.868  1.00  0.00    -0.217 NA
ATOM     14  C   UNL A   1      44.517  42.861  22.405  1.00  0.00     0.230 A 
ATOM     15  N   UNL A   1      43.597  42.299  23.193  1.00  0.00    -0.177 NA
BRANCH  11  16
ATOM     16  C   UNL A   1      47.215  44.673  24.595  1.00  0.00     0.032 C 
ATOM     17  C   UNL A   1      47.564  43.385  25.612  1.00  0.00     0.014 C 
ATOM     18  C   UNL A   1      48.531  46.150  23.630  1.00  0.00     0.014 C 
ENDBRANCH  11  16
BRANCH  14  19
ATOM     19  N   UNL A   1      44.454  42.646  21.030  1.00  0.00    -0.322 N 
ATOM     20  H   UNL A   1      45.118  42.038  20.632  1.00  0.00     0.170 HD
BRANCH  19  21
ATOM     21  C   UNL A   1      43.515  43.234  20.173  1.00  0.00     0.077 A 
ATOM     22  C   UNL A   1      42.155  42.926  20.298  1.00  0.00     0.032 A 
ATOM     23  C   UNL A   1      43.905  44.148  19.179  1.00  0.00     0.149 A 
ATOM     24  C   UNL A   1      41.208  43.582  19.503  1.00  0.00     0.041 A 
ATOM     25  C   UNL A   1      42.970  44.806  18.386  1.00  0.00     0.080 A 
ATOM     26  F   UNL A   1      45.208  44.386  18.963  1.00  0.00    -0.205 F 
ATOM     27  C   UNL A   1      41.625  44.522  18.566  1.00  0.00     0.126 A 
ATOM     28  F   UNL A   1      40.713  45.154  17.814  1.00  0.00    -0.207 F 
ENDBRANCH  19  21
ENDBRANCH  14  19
ENDBRANCH   9  10
ENDBRANCH   8   9
ENDBRANCH   6   8
ENDBRANCH   5   6
ENDBRANCH   4   5
ENDBRANCH   3   4
ENDBRANCH   2   3
ENDBRANCH   1   2
BRANCH   1  29
ATOM     29  C   UNL A   1      47.155  40.133  31.192  1.00  0.00     0.188 C 
BRANCH  29  30
ATOM     30  O   UNL A   1      48.220  40.624  30.422  1.00  0.00    -0.376 OA
BRANCH  30  31
ATOM     31  C   UNL A   1      49.466  39.970  30.505  1.00  0.00     0.202 C 
BRANCH  31  32
ATOM     32  C   UNL A   1      49.696  38.702  31.344  1.00  0.00     0.261 C 
BRANCH  32  33
ATOM     33  O   UNL A   1      49.207  37.468  30.794  1.00  0.00    -0.460 OA
BRANCH  33  34
ATOM     34  C   UNL A   1      50.183  36.659  30.346  1.00  0.00     0.338 C 
ATOM     35  O   UNL A   1      51.380  36.906  30.391  1.00  0.00    -0.246 OA
BRANCH  34  36
ATOM     36  C   UNL A   1      49.732  35.374  29.752  1.00  0.00     0.060 A 
ATOM     37  C   UNL A   1      48.640  35.157  28.300  1.00  0.00     0.016 A 
ATOM     38  C   UNL A   1      49.674  34.130  31.036  1.00  0.00     0.016 A 
ATOM     39  C   UNL A   1      47.457  33.750  28.221  1.00  0.00     0.010 A 
ATOM     40  C   UNL A   1      48.585  32.718  30.909  1.00  0.00     0.010 A 
ATOM     41  C   UNL A   1      47.468  32.502  29.523  1.00  0.00    -0.014 A 
BRANCH  41  42
ATOM     42  C   UNL A   1      46.908  31.104  29.342  1.00  0.00     0.031 A 
ATOM     43  C   UNL A   1      47.707  30.033  28.602  1.00  0.00     0.074 A 
ATOM     44  C   UNL A   1      45.606  30.847  29.627  1.00  0.00     0.049 A 
ATOM     45  N   UNL A   1      47.359  28.822  28.232  1.00  0.00    -0.248 NA
ATOM     46  C   UNL A   1      49.082  30.356  28.214  1.00  0.00     0.031 C 
ATOM     47  C   UNL A   1      44.653  31.744  30.287  1.00  0.00     0.029 A 
ATOM     48  N   UNL A   1      44.825  29.746  29.337  1.00  0.00    -0.354 N 
ATOM     49  C   UNL A   1      48.479  28.271  27.600  1.00  0.00     0.074 A 
ATOM     50  C   UNL A   1      49.490  29.285  27.563  1.00  0.00     0.031 C 
ATOM     51  C   UNL A   1      43.436  31.192  30.319  1.00  0.00     0.029 A 
ATOM     52  C   UNL A   1      43.495  29.896  29.676  1.00  0.00     0.049 A 
ATOM     53  H   UNL A   1      45.185  28.927  28.925  1.00  0.00     0.167 HD
ATOM     54  C   UNL A   1      48.680  27.030  27.100  1.00  0.00     0.031 A 
ATOM     55  C   UNL A   1      42.422  29.102  29.505  1.00  0.00     0.031 A 
ATOM     56  C   UNL A   1      47.654  26.033  27.053  1.00  0.00     0.049 A 
ATOM     57  C   UNL A   1      42.628  27.754  28.889  1.00  0.00     0.074 A 
ATOM     58  C   UNL A   1      47.736  24.732  26.598  1.00  0.00     0.029 A 
ATOM     59  N   UNL A   1      46.343  26.250  27.444  1.00  0.00    -0.354 N 
ATOM     60  N   UNL A   1      43.736  27.229  28.422  1.00  0.00    -0.248 NA
ATOM     61  C   UNL A   1      41.457  26.874  28.820  1.00  0.00     0.031 C 
ATOM     62  C   UNL A   1      46.451  24.184  26.640  1.00  0.00     0.029 A 
ATOM     63  C   UNL A   1      45.592  25.117  27.203  1.00  0.00     0.049 A 
ATOM     64  H   UNL A   1      45.998  27.085  27.835  1.00  0.00     0.167 HD
ATOM     65  C   UNL A   1      43.403  25.936  28.042  1.00  0.00     0.074 A 
ATOM     66  C   UNL A   1      41.997  25.759  28.347  1.00  0.00     0.031 C 
ATOM     67  C   UNL A   1      44.191  24.977  27.500  1.00  0.00     0.031 A 
BRANCH  54  68
ATOM     68  C   UNL A   1      50.049  26.707  26.541  1.00  0.00    -0.014 A 
ATOM     69  C   UNL A   1      50.318  26.813  25.161  1.00  0.00     0.010 A 
ATOM     70  C   UNL A   1      51.084  26.301  27.402  1.00  0.00     0.010 A 
ATOM     71  C   UNL A   1      51.578  26.484  24.653  1.00  0.00     0.020 A 
ATOM     72  C   UNL A   1      52.356  26.003  26.901  1.00  0.00     0.020 A 
ATOM     73  C   UNL A   1      52.591  26.082  25.527  1.00  0.00     0.054 A 
BRANCH  73  74
ATOM     74  S   UNL A   1      54.226  25.694  24.842  1.00  0.00     0.124 S 
ATOM     75  O   UNL A   1      55.091  26.606  25.587  1.00  0.00    -0.237 OA
ATOM     76  O   UNL A   1      54.379  24.278  25.168  1.00  0.00    -0.237 OA
ATOM     77  O   UNL A   1      54.088  25.991  23.419  1.00  0.00    -0.744 OA
ENDBRANCH  73  74
ENDBRANCH  54  68
BRANCH  55  78
ATOM     78  C   UNL A   1      41.079  29.541  29.989  1.00  0.00    -0.014 A 
ATOM     79  C   UNL A   1      40.642  29.198  31.280  1.00  0.00     0.010 A 
ATOM     80  C   UNL A   1      40.246  30.342  29.182  1.00  0.00     0.010 A 
ATOM     81  C   UNL A   1      39.393  29.622  31.748  1.00  0.00     0.020 A 
ATOM     82  C   UNL A   1      39.009  30.795  29.658  1.00  0.00     0.020 A 
ATOM     83  C   UNL A   1      38.585  30.420  30.933  1.00  0.00     0.054 A 
BRANCH  83  84
ATOM     84  S   UNL A   1      36.988  30.989  31.582  1.00  0.00     0.124 S 
ATOM     85  O   UNL A   1      37.321  32.316  32.089  1.00  0.00    -0.237 OA
ATOM     86  O   UNL A   1      36.139  30.960  30.394  1.00  0.00    -0.237 OA
ATOM     87  O   UNL A   1      36.658  29.995  32.601  1.00  0.00    -0.744 OA
ENDBRANCH  83  84
ENDBRANCH  55  78
BRANCH  67  88
ATOM     88  C   UNL A   1      43.559  23.645  27.231  1.00  0.00    -0.014 A 
ATOM     89  C   UNL A   1      43.256  22.757  28.276  1.00  0.00     0.010 A 
ATOM     90  C   UNL A   1      43.216  23.306  25.910  1.00  0.00     0.010 A 
ATOM     91  C   UNL A   1      42.653  21.531  27.999  1.00  0.00     0.020 A 
ATOM     92  C   UNL A   1      42.576  22.099  25.634  1.00  0.00     0.020 A 
ATOM     93  C   UNL A   1      42.312  21.213  26.680  1.00  0.00     0.054 A 
BRANCH  93  94
ATOM     94  S   UNL A   1      41.484  19.637  26.356  1.00  0.00     0.124 S 
ATOM     95  O   UNL A   1      42.252  19.117  25.228  1.00  0.00    -0.237 OA
ATOM     96  O   UNL A   1      41.659  18.922  27.619  1.00  0.00    -0.237 OA
ATOM     97  O   UNL A   1      40.109  20.024  26.049  1.00  0.00    -0.744 OA
ENDBRANCH  93  94
ENDBRANCH  67  88
ENDBRANCH  41  42
ENDBRANCH  34  36
ENDBRANCH  33  34
ENDBRANCH  32  33
ENDBRANCH  31  32
ENDBRANCH  30  31
ENDBRANCH  29  30
ENDBRANCH   1  29
TORSDOF 25
ENDMDL
