MODEL 1
REMARK VINA RESULT:      -7.8      0.000      0.000
REMARK SMILES Cc1cc(-c2ccc(/C=C/C(=O)OCCOCCOCCOC(=O)c3ccc(-c4c5nc(c(-c6ccc(S(=O)(=O)[O-])cc6)c6ccc([nH]6)c(-c6ccc(S(=O)(=O)[O-])cc6)c6nc(c(-c7ccc(S(=O)(=O)[O-])cc7)c7ccc4[nH]7)C=C6)C=C5)cc3)o2)c(C)cc1Br
REMARK SMILES IDX 18 1 17 2 16 3 15 4 14 5 13 6 11 7 12 8 10 9 9 10 8 11 5 12
REMARK SMILES IDX 6 13 85 14 7 15 4 16 1 17 2 18 3 19 89 20 88 21 90 22 86 23
REMARK SMILES IDX 87 24 19 25 20 26 21 27 22 28 23 29 24 30 25 31 26 32 84 33
REMARK SMILES IDX 27 34 83 35 28 36 29 37 30 38 77 39 31 40 82 41 76 42 78 43
REMARK SMILES IDX 32 44 81 45 75 46 74 47 33 49 63 50 44 51 62 52 45 53 48 54
REMARK SMILES IDX 61 55 79 56 46 57 47 58 60 60 80 61 49 62 34 63 35 64 43 65
REMARK SMILES IDX 36 66 42 67 37 68 38 69 39 70 40 71 41 72 64 73 65 74 73 75
REMARK SMILES IDX 66 76 72 77 67 78 68 79 69 80 70 81 71 82 50 83 51 84 59 85
REMARK SMILES IDX 52 86 58 87 53 88 54 89 55 90 56 91 57 92
REMARK H PARENT 78 48 48 59
REMARK Flexibility Score: inf
ROOT
ATOM      1  C   UNL A   1      37.139  33.087  29.201  1.00  0.00     0.188 C 
ENDROOT
BRANCH   1   2
ATOM      2  C   UNL A   1      37.171  33.915  30.503  1.00  0.00     0.188 C 
BRANCH   2   3
ATOM      3  O   UNL A   1      37.278  33.128  31.666  1.00  0.00    -0.376 OA
BRANCH   3   4
ATOM      4  C   UNL A   1      38.029  33.588  32.772  1.00  0.00     0.202 C 
BRANCH   4   5
ATOM      5  C   UNL A   1      38.089  32.887  34.143  1.00  0.00     0.261 C 
BRANCH   5   6
ATOM      6  O   UNL A   1      38.772  33.550  35.211  1.00  0.00    -0.460 OA
BRANCH   6   7
ATOM      7  C   UNL A   1      39.876  32.928  35.695  1.00  0.00     0.330 C 
ATOM      8  O   UNL A   1      40.542  33.291  36.651  1.00  0.00    -0.247 OA
BRANCH   7   9
ATOM      9  C   UNL A   1      40.148  31.665  34.979  1.00  0.00     0.097 C 
ATOM     10  C   UNL A   1      40.794  30.625  35.525  1.00  0.00     0.054 C 
BRANCH  10  11
ATOM     11  C   UNL A   1      41.003  29.430  34.782  1.00  0.00     0.127 A 
ATOM     12  C   UNL A   1      41.735  27.393  34.267  1.00  0.00     0.135 A 
ATOM     13  C   UNL A   1      41.035  27.833  33.169  1.00  0.00     0.051 A 
ATOM     14  O   UNL A   1      41.725  28.344  35.240  1.00  0.00    -0.457 OA
ATOM     15  C   UNL A   1      40.547  29.118  33.506  1.00  0.00     0.051 A 
BRANCH  12  16
ATOM     16  C   UNL A   1      42.478  26.177  34.554  1.00  0.00     0.020 A 
ATOM     17  C   UNL A   1      45.531  24.467  33.050  1.00  0.00     0.045 C 
ATOM     18  C   UNL A   1      44.330  24.685  33.927  1.00  0.00    -0.036 A 
ATOM     19  C   UNL A   1      43.585  25.864  33.746  1.00  0.00     0.016 A 
ATOM     20  C   UNL A   1      43.955  23.820  34.961  1.00  0.00     0.021 A 
ATOM     21  C   UNL A   1      42.855  24.119  35.774  1.00  0.00     0.020 A 
ATOM     22  Br  UNL A   1      44.890  22.208  35.331  1.00  0.00    -0.051 Br
ATOM     23  C   UNL A   1      42.105  25.293  35.581  1.00  0.00    -0.039 A 
ATOM     24  C   UNL A   1      40.937  25.573  36.487  1.00  0.00     0.045 C 
ENDBRANCH  12  16
ENDBRANCH  10  11
ENDBRANCH   7   9
ENDBRANCH   6   7
ENDBRANCH   5   6
ENDBRANCH   4   5
ENDBRANCH   3   4
ENDBRANCH   2   3
ENDBRANCH   1   2
BRANCH   1  25
ATOM     25  O   UNL A   1      36.411  33.565  28.073  1.00  0.00    -0.376 OA
BRANCH  25  26
ATOM     26  C   UNL A   1      34.989  33.627  28.143  1.00  0.00     0.202 C 
BRANCH  26  27
ATOM     27  C   UNL A   1      34.187  32.342  28.392  1.00  0.00     0.261 C 
BRANCH  27  28
ATOM     28  O   UNL A   1      34.384  31.313  27.409  1.00  0.00    -0.460 OA
BRANCH  28  29
ATOM     29  C   UNL A   1      34.443  30.045  27.886  1.00  0.00     0.338 C 
ATOM     30  O   UNL A   1      33.550  29.214  27.901  1.00  0.00    -0.246 OA
BRANCH  29  31
ATOM     31  C   UNL A   1      35.844  29.738  28.230  1.00  0.00     0.060 A 
ATOM     32  C   UNL A   1      36.188  29.323  29.518  1.00  0.00     0.016 A 
ATOM     33  C   UNL A   1      36.825  29.885  27.241  1.00  0.00     0.016 A 
ATOM     34  C   UNL A   1      37.529  29.064  29.817  1.00  0.00     0.010 A 
ATOM     35  C   UNL A   1      38.164  29.648  27.550  1.00  0.00     0.010 A 
ATOM     36  C   UNL A   1      38.525  29.232  28.839  1.00  0.00    -0.014 A 
BRANCH  36  37
ATOM     37  C   UNL A   1      39.936  28.889  29.136  1.00  0.00     0.031 A 
ATOM     38  C   UNL A   1      40.834  29.858  29.845  1.00  0.00     0.074 A 
ATOM     39  C   UNL A   1      40.407  27.692  28.739  1.00  0.00     0.049 A 
ATOM     40  N   UNL A   1      42.077  29.694  30.219  1.00  0.00    -0.248 NA
ATOM     41  C   UNL A   1      40.271  31.174  30.182  1.00  0.00     0.031 C 
ATOM     42  C   UNL A   1      39.618  26.676  28.040  1.00  0.00     0.029 A 
ATOM     43  N   UNL A   1      41.650  27.125  28.867  1.00  0.00    -0.354 N 
ATOM     44  C   UNL A   1      42.440  30.874  30.857  1.00  0.00     0.074 A 
ATOM     45  C   UNL A   1      41.301  31.763  30.779  1.00  0.00     0.031 C 
ATOM     46  C   UNL A   1      40.392  25.603  27.817  1.00  0.00     0.029 A 
ATOM     47  C   UNL A   1      41.737  25.865  28.327  1.00  0.00     0.049 A 
ATOM     48  H   UNL A   1      42.407  27.578  29.304  1.00  0.00     0.167 HD
ATOM     49  C   UNL A   1      43.613  31.172  31.465  1.00  0.00     0.031 A 
ATOM     50  C   UNL A   1      42.777  25.009  28.250  1.00  0.00     0.031 A 
ATOM     51  C   UNL A   1      44.747  30.283  31.512  1.00  0.00     0.049 A 
ATOM     52  C   UNL A   1      44.092  25.392  28.870  1.00  0.00     0.074 A 
ATOM     53  C   UNL A   1      45.967  30.490  32.133  1.00  0.00     0.029 A 
ATOM     54  N   UNL A   1      44.812  29.033  30.914  1.00  0.00    -0.354 N 
ATOM     55  N   UNL A   1      44.398  26.483  29.531  1.00  0.00    -0.248 NA
ATOM     56  C   UNL A   1      45.198  24.431  28.752  1.00  0.00     0.031 C 
ATOM     57  C   UNL A   1      46.793  29.404  31.846  1.00  0.00     0.029 A 
ATOM     58  C   UNL A   1      46.063  28.477  31.119  1.00  0.00     0.049 A 
ATOM     59  H   UNL A   1      44.077  28.606  30.416  1.00  0.00     0.167 HD
ATOM     60  C   UNL A   1      45.721  26.329  29.930  1.00  0.00     0.074 A 
ATOM     61  C   UNL A   1      46.157  25.037  29.444  1.00  0.00     0.031 C 
ATOM     62  C   UNL A   1      46.494  27.185  30.641  1.00  0.00     0.031 A 
BRANCH  49  63
ATOM     63  C   UNL A   1      43.749  32.506  32.155  1.00  0.00    -0.014 A 
ATOM     64  C   UNL A   1      43.405  32.634  33.513  1.00  0.00     0.010 A 
ATOM     65  C   UNL A   1      44.070  33.662  31.420  1.00  0.00     0.010 A 
ATOM     66  C   UNL A   1      43.338  33.895  34.115  1.00  0.00     0.020 A 
ATOM     67  C   UNL A   1      44.031  34.922  32.025  1.00  0.00     0.020 A 
ATOM     68  C   UNL A   1      43.641  35.032  33.362  1.00  0.00     0.054 A 
BRANCH  68  69
ATOM     69  S   UNL A   1      43.507  36.663  34.146  1.00  0.00     0.124 S 
ATOM     70  O   UNL A   1      44.782  36.776  34.846  1.00  0.00    -0.237 OA
ATOM     71  O   UNL A   1      43.334  37.555  33.001  1.00  0.00    -0.237 OA
ATOM     72  O   UNL A   1      42.331  36.535  35.005  1.00  0.00    -0.744 OA
ENDBRANCH  68  69
ENDBRANCH  49  63
BRANCH  50  73
ATOM     73  C   UNL A   1      42.575  23.688  27.596  1.00  0.00    -0.014 A 
ATOM     74  C   UNL A   1      42.071  22.599  28.331  1.00  0.00     0.010 A 
ATOM     75  C   UNL A   1      42.982  23.483  26.266  1.00  0.00     0.010 A 
ATOM     76  C   UNL A   1      42.037  21.318  27.772  1.00  0.00     0.020 A 
ATOM     77  C   UNL A   1      42.920  22.209  25.692  1.00  0.00     0.020 A 
ATOM     78  C   UNL A   1      42.479  21.130  26.461  1.00  0.00     0.054 A 
BRANCH  78  79
ATOM     79  S   UNL A   1      42.491  19.448  25.781  1.00  0.00     0.124 S 
ATOM     80  O   UNL A   1      41.082  19.248  25.453  1.00  0.00    -0.237 OA
ATOM     81  O   UNL A   1      43.391  19.571  24.639  1.00  0.00    -0.237 OA
ATOM     82  O   UNL A   1      42.996  18.636  26.885  1.00  0.00    -0.744 OA
ENDBRANCH  78  79
ENDBRANCH  50  73
BRANCH  62  83
ATOM     83  C   UNL A   1      47.911  26.782  30.969  1.00  0.00    -0.014 A 
ATOM     84  C   UNL A   1      48.202  26.245  32.238  1.00  0.00     0.010 A 
ATOM     85  C   UNL A   1      48.970  27.114  30.107  1.00  0.00     0.010 A 
ATOM     86  C   UNL A   1      49.525  26.107  32.664  1.00  0.00     0.020 A 
ATOM     87  C   UNL A   1      50.297  26.951  30.520  1.00  0.00     0.020 A 
ATOM     88  C   UNL A   1      50.564  26.482  31.809  1.00  0.00     0.054 A 
BRANCH  88  89
ATOM     89  S   UNL A   1      52.271  26.388  32.418  1.00  0.00     0.124 S 
ATOM     90  O   UNL A   1      52.240  27.295  33.562  1.00  0.00    -0.237 OA
ATOM     91  O   UNL A   1      52.420  24.972  32.741  1.00  0.00    -0.237 OA
ATOM     92  O   UNL A   1      53.067  26.847  31.281  1.00  0.00    -0.744 OA
ENDBRANCH  88  89
ENDBRANCH  62  83
ENDBRANCH  36  37
ENDBRANCH  29  31
ENDBRANCH  28  29
ENDBRANCH  27  28
ENDBRANCH  26  27
ENDBRANCH  25  26
ENDBRANCH   1  25
TORSDOF 22
ENDMDL
MODEL 2
REMARK VINA RESULT:      -7.7      0.696      8.036
REMARK SMILES Cc1cc(-c2ccc(/C=C/C(=O)OCCOCCOCCOC(=O)c3ccc(-c4c5nc(c(-c6ccc(S(=O)(=O)[O-])cc6)c6ccc([nH]6)c(-c6ccc(S(=O)(=O)[O-])cc6)c6nc(c(-c7ccc(S(=O)(=O)[O-])cc7)c7ccc4[nH]7)C=C6)C=C5)cc3)o2)c(C)cc1Br
REMARK SMILES IDX 18 1 17 2 16 3 15 4 14 5 13 6 11 7 12 8 10 9 9 10 8 11 5 12
REMARK SMILES IDX 6 13 85 14 7 15 4 16 1 17 2 18 3 19 89 20 88 21 90 22 86 23
REMARK SMILES IDX 87 24 19 25 20 26 21 27 22 28 23 29 24 30 25 31 26 32 84 33
REMARK SMILES IDX 27 34 83 35 28 36 29 37 30 38 77 39 31 40 82 41 76 42 78 43
REMARK SMILES IDX 32 44 81 45 75 46 74 47 33 49 63 50 44 51 62 52 45 53 48 54
REMARK SMILES IDX 61 55 79 56 46 57 47 58 60 60 80 61 49 62 34 63 35 64 43 65
REMARK SMILES IDX 36 66 42 67 37 68 38 69 39 70 40 71 41 72 64 73 65 74 73 75
REMARK SMILES IDX 66 76 72 77 67 78 68 79 69 80 70 81 71 82 50 83 51 84 59 85
REMARK SMILES IDX 52 86 58 87 53 88 54 89 55 90 56 91 57 92
REMARK H PARENT 78 48 48 59
REMARK Flexibility Score: inf
ROOT
ATOM      1  C   UNL A   1      36.969  33.131  29.135  1.00  0.00     0.188 C 
ENDROOT
BRANCH   1   2
ATOM      2  C   UNL A   1      36.876  33.927  30.454  1.00  0.00     0.188 C 
BRANCH   2   3
ATOM      3  O   UNL A   1      36.975  33.120  31.604  1.00  0.00    -0.376 OA
BRANCH   3   4
ATOM      4  C   UNL A   1      37.775  33.529  32.696  1.00  0.00     0.202 C 
BRANCH   4   5
ATOM      5  C   UNL A   1      37.904  32.760  34.025  1.00  0.00     0.261 C 
BRANCH   5   6
ATOM      6  O   UNL A   1      38.514  33.425  35.135  1.00  0.00    -0.460 OA
BRANCH   6   7
ATOM      7  C   UNL A   1      39.643  32.858  35.628  1.00  0.00     0.330 C 
ATOM      8  O   UNL A   1      40.298  33.269  36.572  1.00  0.00    -0.247 OA
BRANCH   7   9
ATOM      9  C   UNL A   1      39.959  31.589  34.943  1.00  0.00     0.097 C 
ATOM     10  C   UNL A   1      40.690  30.609  35.492  1.00  0.00     0.054 C 
BRANCH  10  11
ATOM     11  C   UNL A   1      40.939  29.403  34.780  1.00  0.00     0.127 A 
ATOM     12  C   UNL A   1      41.750  27.384  34.311  1.00  0.00     0.135 A 
ATOM     13  C   UNL A   1      41.017  27.763  33.212  1.00  0.00     0.051 A 
ATOM     14  O   UNL A   1      41.713  28.362  35.257  1.00  0.00    -0.457 OA
ATOM     15  C   UNL A   1      40.480  29.035  33.521  1.00  0.00     0.051 A 
BRANCH  12  16
ATOM     16  C   UNL A   1      42.548  26.209  34.622  1.00  0.00     0.020 A 
ATOM     17  C   UNL A   1      45.953  24.900  33.526  1.00  0.00     0.045 C 
ATOM     18  C   UNL A   1      44.610  24.937  34.200  1.00  0.00    -0.036 A 
ATOM     19  C   UNL A   1      43.797  26.065  33.991  1.00  0.00     0.016 A 
ATOM     20  C   UNL A   1      44.155  23.949  35.081  1.00  0.00     0.021 A 
ATOM     21  C   UNL A   1      42.914  24.080  35.716  1.00  0.00     0.020 A 
ATOM     22  Br  UNL A   1      45.165  22.388  35.472  1.00  0.00    -0.051 Br
ATOM     23  C   UNL A   1      42.098  25.204  35.494  1.00  0.00    -0.039 A 
ATOM     24  C   UNL A   1      40.777  25.302  36.207  1.00  0.00     0.045 C 
ENDBRANCH  12  16
ENDBRANCH  10  11
ENDBRANCH   7   9
ENDBRANCH   6   7
ENDBRANCH   5   6
ENDBRANCH   4   5
ENDBRANCH   3   4
ENDBRANCH   2   3
ENDBRANCH   1   2
BRANCH   1  25
ATOM     25  O   UNL A   1      36.239  33.564  27.991  1.00  0.00    -0.376 OA
BRANCH  25  26
ATOM     26  C   UNL A   1      34.815  33.554  28.034  1.00  0.00     0.202 C 
BRANCH  26  27
ATOM     27  C   UNL A   1      34.074  32.226  28.245  1.00  0.00     0.261 C 
BRANCH  27  28
ATOM     28  O   UNL A   1      34.347  31.225  27.253  1.00  0.00    -0.460 OA
BRANCH  28  29
ATOM     29  C   UNL A   1      34.466  29.954  27.713  1.00  0.00     0.338 C 
ATOM     30  O   UNL A   1      33.643  29.057  27.638  1.00  0.00    -0.246 OA
BRANCH  29  31
ATOM     31  C   UNL A   1      35.851  29.750  28.174  1.00  0.00     0.060 A 
ATOM     32  C   UNL A   1      36.121  29.415  29.501  1.00  0.00     0.016 A 
ATOM     33  C   UNL A   1      36.895  29.913  27.253  1.00  0.00     0.016 A 
ATOM     34  C   UNL A   1      37.448  29.252  29.910  1.00  0.00     0.010 A 
ATOM     35  C   UNL A   1      38.218  29.773  27.669  1.00  0.00     0.010 A 
ATOM     36  C   UNL A   1      38.504  29.437  29.000  1.00  0.00    -0.014 A 
BRANCH  36  37
ATOM     37  C   UNL A   1      39.906  29.196  29.415  1.00  0.00     0.031 A 
ATOM     38  C   UNL A   1      40.584  27.890  29.128  1.00  0.00     0.074 A 
ATOM     39  C   UNL A   1      40.560  30.170  30.075  1.00  0.00     0.049 A 
ATOM     40  N   UNL A   1      41.818  27.538  29.384  1.00  0.00    -0.248 NA
ATOM     41  C   UNL A   1      39.782  26.848  28.469  1.00  0.00     0.031 C 
ATOM     42  C   UNL A   1      39.994  31.478  30.407  1.00  0.00     0.029 A 
ATOM     43  N   UNL A   1      41.836  30.218  30.579  1.00  0.00    -0.354 N 
ATOM     44  C   UNL A   1      41.951  26.243  28.896  1.00  0.00     0.074 A 
ATOM     45  C   UNL A   1      40.660  25.855  28.371  1.00  0.00     0.031 C 
ATOM     46  C   UNL A   1      40.924  32.206  31.044  1.00  0.00     0.029 A 
ATOM     47  C   UNL A   1      42.140  31.408  31.193  1.00  0.00     0.049 A 
ATOM     48  H   UNL A   1      42.472  29.470  30.506  1.00  0.00     0.167 HD
ATOM     49  C   UNL A   1      43.059  25.465  28.876  1.00  0.00     0.031 A 
ATOM     50  C   UNL A   1      43.268  31.820  31.807  1.00  0.00     0.031 A 
ATOM     51  C   UNL A   1      44.333  25.859  29.426  1.00  0.00     0.049 A 
ATOM     52  C   UNL A   1      44.465  30.910  31.835  1.00  0.00     0.074 A 
ATOM     53  C   UNL A   1      45.519  25.145  29.424  1.00  0.00     0.029 A 
ATOM     54  N   UNL A   1      44.588  27.055  30.081  1.00  0.00    -0.354 N 
ATOM     55  N   UNL A   1      44.596  29.715  31.308  1.00  0.00    -0.248 NA
ATOM     56  C   UNL A   1      45.668  31.399  32.524  1.00  0.00     0.031 C 
ATOM     57  C   UNL A   1      46.468  25.873  30.142  1.00  0.00     0.029 A 
ATOM     58  C   UNL A   1      45.901  27.080  30.520  1.00  0.00     0.049 A 
ATOM     59  H   UNL A   1      43.933  27.777  30.215  1.00  0.00     0.167 HD
ATOM     60  C   UNL A   1      45.902  29.322  31.577  1.00  0.00     0.074 A 
ATOM     61  C   UNL A   1      46.525  30.406  32.308  1.00  0.00     0.031 C 
ATOM     62  C   UNL A   1      46.523  28.166  31.240  1.00  0.00     0.031 A 
BRANCH  49  63
ATOM     63  C   UNL A   1      42.976  24.107  28.227  1.00  0.00    -0.014 A 
ATOM     64  C   UNL A   1      43.045  23.991  26.826  1.00  0.00     0.010 A 
ATOM     65  C   UNL A   1      42.673  22.966  28.992  1.00  0.00     0.010 A 
ATOM     66  C   UNL A   1      42.775  22.772  26.198  1.00  0.00     0.020 A 
ATOM     67  C   UNL A   1      42.429  21.737  28.369  1.00  0.00     0.020 A 
ATOM     68  C   UNL A   1      42.457  21.655  26.975  1.00  0.00     0.054 A 
BRANCH  68  69
ATOM     69  S   UNL A   1      42.066  20.090  26.143  1.00  0.00     0.124 S 
ATOM     70  O   UNL A   1      40.675  20.288  25.749  1.00  0.00    -0.237 OA
ATOM     71  O   UNL A   1      43.034  20.060  25.049  1.00  0.00    -0.237 OA
ATOM     72  O   UNL A   1      42.284  19.086  27.182  1.00  0.00    -0.744 OA
ENDBRANCH  68  69
ENDBRANCH  49  63
BRANCH  50  73
ATOM     73  C   UNL A   1      43.310  33.187  32.393  1.00  0.00    -0.014 A 
ATOM     74  C   UNL A   1      44.009  34.221  31.741  1.00  0.00     0.010 A 
ATOM     75  C   UNL A   1      42.743  33.437  33.655  1.00  0.00     0.010 A 
ATOM     76  C   UNL A   1      44.195  35.457  32.366  1.00  0.00     0.020 A 
ATOM     77  C   UNL A   1      42.900  34.683  34.270  1.00  0.00     0.020 A 
ATOM     78  C   UNL A   1      43.653  35.674  33.635  1.00  0.00     0.054 A 
BRANCH  78  79
ATOM     79  S   UNL A   1      43.967  37.261  34.454  1.00  0.00     0.124 S 
ATOM     80  O   UNL A   1      42.830  38.060  34.004  1.00  0.00    -0.237 OA
ATOM     81  O   UNL A   1      43.960  36.899  35.868  1.00  0.00    -0.237 OA
ATOM     82  O   UNL A   1      45.265  37.669  33.924  1.00  0.00    -0.744 OA
ENDBRANCH  78  79
ENDBRANCH  50  73
BRANCH  62  83
ATOM     83  C   UNL A   1      47.967  27.974  31.635  1.00  0.00    -0.014 A 
ATOM     84  C   UNL A   1      48.965  27.995  30.641  1.00  0.00     0.010 A 
ATOM     85  C   UNL A   1      48.310  27.584  32.940  1.00  0.00     0.010 A 
ATOM     86  C   UNL A   1      50.263  27.567  30.929  1.00  0.00     0.020 A 
ATOM     87  C   UNL A   1      49.616  27.182  33.239  1.00  0.00     0.020 A 
ATOM     88  C   UNL A   1      50.574  27.142  32.222  1.00  0.00     0.054 A 
BRANCH  88  89
ATOM     89  S   UNL A   1      52.237  26.497  32.552  1.00  0.00     0.124 S 
ATOM     90  O   UNL A   1      51.967  25.417  33.496  1.00  0.00    -0.237 OA
ATOM     91  O   UNL A   1      52.688  26.077  31.228  1.00  0.00    -0.237 OA
ATOM     92  O   UNL A   1      52.948  27.647  33.108  1.00  0.00    -0.744 OA
ENDBRANCH  88  89
ENDBRANCH  62  83
ENDBRANCH  36  37
ENDBRANCH  29  31
ENDBRANCH  28  29
ENDBRANCH  27  28
ENDBRANCH  26  27
ENDBRANCH  25  26
ENDBRANCH   1  25
TORSDOF 22
ENDMDL
MODEL 3
REMARK VINA RESULT:      -7.5      1.205      8.145
REMARK SMILES Cc1cc(-c2ccc(/C=C/C(=O)OCCOCCOCCOC(=O)c3ccc(-c4c5nc(c(-c6ccc(S(=O)(=O)[O-])cc6)c6ccc([nH]6)c(-c6ccc(S(=O)(=O)[O-])cc6)c6nc(c(-c7ccc(S(=O)(=O)[O-])cc7)c7ccc4[nH]7)C=C6)C=C5)cc3)o2)c(C)cc1Br
REMARK SMILES IDX 18 1 17 2 16 3 15 4 14 5 13 6 11 7 12 8 10 9 9 10 8 11 5 12
REMARK SMILES IDX 6 13 85 14 7 15 4 16 1 17 2 18 3 19 89 20 88 21 90 22 86 23
REMARK SMILES IDX 87 24 19 25 20 26 21 27 22 28 23 29 24 30 25 31 26 32 84 33
REMARK SMILES IDX 27 34 83 35 28 36 29 37 30 38 77 39 31 40 82 41 76 42 78 43
REMARK SMILES IDX 32 44 81 45 75 46 74 47 33 49 63 50 44 51 62 52 45 53 48 54
REMARK SMILES IDX 61 55 79 56 46 57 47 58 60 60 80 61 49 62 34 63 35 64 43 65
REMARK SMILES IDX 36 66 42 67 37 68 38 69 39 70 40 71 41 72 64 73 65 74 73 75
REMARK SMILES IDX 66 76 72 77 67 78 68 79 69 80 70 81 71 82 50 83 51 84 59 85
REMARK SMILES IDX 52 86 58 87 53 88 54 89 55 90 56 91 57 92
REMARK H PARENT 78 48 48 59
REMARK Flexibility Score: inf
ROOT
ATOM      1  C   UNL A   1      36.662  32.694  30.788  1.00  0.00     0.188 C 
ENDROOT
BRANCH   1   2
ATOM      2  C   UNL A   1      37.906  33.132  31.589  1.00  0.00     0.188 C 
BRANCH   2   3
ATOM      3  O   UNL A   1      37.884  32.715  32.934  1.00  0.00    -0.376 OA
BRANCH   3   4
ATOM      4  C   UNL A   1      38.144  31.366  33.267  1.00  0.00     0.202 C 
BRANCH   4   5
ATOM      5  C   UNL A   1      39.542  30.717  33.269  1.00  0.00     0.261 C 
BRANCH   5   6
ATOM      6  O   UNL A   1      40.376  30.912  34.415  1.00  0.00    -0.460 OA
BRANCH   6   7
ATOM      7  C   UNL A   1      40.333  29.941  35.361  1.00  0.00     0.330 C 
ATOM      8  O   UNL A   1      39.394  29.706  36.104  1.00  0.00    -0.247 OA
BRANCH   7   9
ATOM      9  C   UNL A   1      41.548  29.102  35.337  1.00  0.00     0.097 C 
ATOM     10  C   UNL A   1      42.230  28.814  34.219  1.00  0.00     0.054 C 
BRANCH  10  11
ATOM     11  C   UNL A   1      43.406  28.015  34.272  1.00  0.00     0.127 A 
ATOM     12  C   UNL A   1      44.702  26.221  34.498  1.00  0.00     0.135 A 
ATOM     13  C   UNL A   1      45.553  27.280  34.290  1.00  0.00     0.051 A 
ATOM     14  O   UNL A   1      43.412  26.652  34.493  1.00  0.00    -0.457 OA
ATOM     15  C   UNL A   1      44.728  28.417  34.120  1.00  0.00     0.051 A 
BRANCH  12  16
ATOM     16  C   UNL A   1      44.915  24.804  34.748  1.00  0.00     0.020 A 
ATOM     17  C   UNL A   1      46.086  22.742  37.728  1.00  0.00     0.045 C 
ATOM     18  C   UNL A   1      45.651  23.069  36.327  1.00  0.00    -0.036 A 
ATOM     19  C   UNL A   1      45.377  24.413  36.017  1.00  0.00     0.016 A 
ATOM     20  C   UNL A   1      45.433  22.105  35.336  1.00  0.00     0.021 A 
ATOM     21  C   UNL A   1      44.973  22.481  34.068  1.00  0.00     0.020 A 
ATOM     22  Br  UNL A   1      45.739  20.253  35.629  1.00  0.00    -0.051 Br
ATOM     23  C   UNL A   1      44.712  23.828  33.758  1.00  0.00    -0.039 A 
ATOM     24  C   UNL A   1      44.211  24.180  32.384  1.00  0.00     0.045 C 
ENDBRANCH  12  16
ENDBRANCH  10  11
ENDBRANCH   7   9
ENDBRANCH   6   7
ENDBRANCH   5   6
ENDBRANCH   4   5
ENDBRANCH   3   4
ENDBRANCH   2   3
ENDBRANCH   1   2
BRANCH   1  25
ATOM     25  O   UNL A   1      36.248  33.446  29.651  1.00  0.00    -0.376 OA
BRANCH  25  26
ATOM     26  C   UNL A   1      34.856  33.624  29.408  1.00  0.00     0.202 C 
BRANCH  26  27
ATOM     27  C   UNL A   1      34.025  32.453  28.865  1.00  0.00     0.261 C 
BRANCH  27  28
ATOM     28  O   UNL A   1      34.658  31.709  27.812  1.00  0.00    -0.460 OA
BRANCH  28  29
ATOM     29  C   UNL A   1      34.719  30.366  27.993  1.00  0.00     0.338 C 
ATOM     30  O   UNL A   1      33.837  29.548  27.786  1.00  0.00    -0.246 OA
BRANCH  29  31
ATOM     31  C   UNL A   1      36.110  29.998  28.313  1.00  0.00     0.060 A 
ATOM     32  C   UNL A   1      36.442  29.480  29.566  1.00  0.00     0.016 A 
ATOM     33  C   UNL A   1      37.096  30.191  27.337  1.00  0.00     0.016 A 
ATOM     34  C   UNL A   1      37.774  29.164  29.845  1.00  0.00     0.010 A 
ATOM     35  C   UNL A   1      38.428  29.898  27.627  1.00  0.00     0.010 A 
ATOM     36  C   UNL A   1      38.776  29.378  28.881  1.00  0.00    -0.014 A 
BRANCH  36  37
ATOM     37  C   UNL A   1      40.177  28.978  29.151  1.00  0.00     0.031 A 
ATOM     38  C   UNL A   1      40.671  27.607  28.800  1.00  0.00     0.074 A 
ATOM     39  C   UNL A   1      41.001  29.867  29.738  1.00  0.00     0.049 A 
ATOM     40  N   UNL A   1      41.878  27.116  28.930  1.00  0.00    -0.248 NA
ATOM     41  C   UNL A   1      39.695  26.666  28.231  1.00  0.00     0.031 C 
ATOM     42  C   UNL A   1      40.622  31.228  30.122  1.00  0.00     0.029 A 
ATOM     43  N   UNL A   1      42.319  29.768  30.108  1.00  0.00    -0.354 N 
ATOM     44  C   UNL A   1      41.815  25.819  28.435  1.00  0.00     0.074 A 
ATOM     45  C   UNL A   1      40.441  25.582  28.047  1.00  0.00     0.031 C 
ATOM     46  C   UNL A   1      41.688  31.841  30.657  1.00  0.00     0.029 A 
ATOM     47  C   UNL A   1      42.816  30.911  30.684  1.00  0.00     0.049 A 
ATOM     48  H   UNL A   1      42.856  28.954  29.973  1.00  0.00     0.167 HD
ATOM     49  C   UNL A   1      42.821  24.922  28.305  1.00  0.00     0.031 A 
ATOM     50  C   UNL A   1      44.040  31.189  31.177  1.00  0.00     0.031 A 
ATOM     51  C   UNL A   1      44.180  25.166  28.720  1.00  0.00     0.049 A 
ATOM     52  C   UNL A   1      45.123  30.150  31.085  1.00  0.00     0.074 A 
ATOM     53  C   UNL A   1      45.272  24.324  28.598  1.00  0.00     0.029 A 
ATOM     54  N   UNL A   1      44.633  26.320  29.341  1.00  0.00    -0.354 N 
ATOM     55  N   UNL A   1      45.065  28.953  30.552  1.00  0.00    -0.248 NA
ATOM     56  C   UNL A   1      46.438  30.496  31.645  1.00  0.00     0.031 C 
ATOM     57  C   UNL A   1      46.365  24.935  29.213  1.00  0.00     0.029 A 
ATOM     58  C   UNL A   1      45.979  26.195  29.642  1.00  0.00     0.049 A 
ATOM     59  H   UNL A   1      44.080  27.110  29.538  1.00  0.00     0.167 HD
ATOM     60  C   UNL A   1      46.340  28.414  30.687  1.00  0.00     0.074 A 
ATOM     61  C   UNL A   1      47.151  29.416  31.346  1.00  0.00     0.031 C 
ATOM     62  C   UNL A   1      46.789  27.198  30.291  1.00  0.00     0.031 A 
BRANCH  49  63
ATOM     63  C   UNL A   1      42.519  23.587  27.672  1.00  0.00    -0.014 A 
ATOM     64  C   UNL A   1      41.972  22.547  28.446  1.00  0.00     0.010 A 
ATOM     65  C   UNL A   1      42.921  23.315  26.351  1.00  0.00     0.010 A 
ATOM     66  C   UNL A   1      41.869  21.253  27.929  1.00  0.00     0.020 A 
ATOM     67  C   UNL A   1      42.794  22.028  25.820  1.00  0.00     0.020 A 
ATOM     68  C   UNL A   1      42.292  20.999  26.622  1.00  0.00     0.054 A 
BRANCH  68  69
ATOM     69  S   UNL A   1      42.192  19.304  25.980  1.00  0.00     0.124 S 
ATOM     70  O   UNL A   1      40.764  19.157  25.717  1.00  0.00    -0.237 OA
ATOM     71  O   UNL A   1      43.050  19.358  24.799  1.00  0.00    -0.237 OA
ATOM     72  O   UNL A   1      42.712  18.492  27.079  1.00  0.00    -0.744 OA
ENDBRANCH  68  69
ENDBRANCH  49  63
BRANCH  50  73
ATOM     73  C   UNL A   1      44.295  32.538  31.751  1.00  0.00    -0.014 A 
ATOM     74  C   UNL A   1      44.079  32.781  33.121  1.00  0.00     0.010 A 
ATOM     75  C   UNL A   1      44.652  33.611  30.916  1.00  0.00     0.010 A 
ATOM     76  C   UNL A   1      44.154  34.080  33.633  1.00  0.00     0.020 A 
ATOM     77  C   UNL A   1      44.758  34.907  31.430  1.00  0.00     0.020 A 
ATOM     78  C   UNL A   1      44.476  35.137  32.779  1.00  0.00     0.054 A 
BRANCH  78  79
ATOM     79  S   UNL A   1      44.498  36.821  33.451  1.00  0.00     0.124 S 
ATOM     80  O   UNL A   1      45.120  36.614  34.757  1.00  0.00    -0.237 OA
ATOM     81  O   UNL A   1      45.309  37.544  32.477  1.00  0.00    -0.237 OA
ATOM     82  O   UNL A   1      43.087  37.195  33.484  1.00  0.00    -0.744 OA
ENDBRANCH  78  79
ENDBRANCH  50  73
BRANCH  62  83
ATOM     83  C   UNL A   1      48.235  26.843  30.536  1.00  0.00    -0.014 A 
ATOM     84  C   UNL A   1      48.626  26.372  31.804  1.00  0.00     0.010 A 
ATOM     85  C   UNL A   1      49.224  27.158  29.589  1.00  0.00     0.010 A 
ATOM     86  C   UNL A   1      49.978  26.283  32.143  1.00  0.00     0.020 A 
ATOM     87  C   UNL A   1      50.579  27.043  29.915  1.00  0.00     0.020 A 
ATOM     88  C   UNL A   1      50.946  26.641  31.202  1.00  0.00     0.054 A 
BRANCH  88  89
ATOM     89  S   UNL A   1      52.693  26.613  31.693  1.00  0.00     0.124 S 
ATOM     90  O   UNL A   1      52.635  25.958  32.997  1.00  0.00    -0.237 OA
ATOM     91  O   UNL A   1      53.315  25.835  30.625  1.00  0.00    -0.237 OA
ATOM     92  O   UNL A   1      53.065  28.026  31.721  1.00  0.00    -0.744 OA
ENDBRANCH  88  89
ENDBRANCH  62  83
ENDBRANCH  36  37
ENDBRANCH  29  31
ENDBRANCH  28  29
ENDBRANCH  27  28
ENDBRANCH  26  27
ENDBRANCH  25  26
ENDBRANCH   1  25
TORSDOF 22
ENDMDL
