MODEL 1
REMARK VINA RESULT:     -10.2      0.000      0.000
REMARK SMILES O=C(OCCOCCOCCOC(=O)[C@H]1CS[C@]2(c3ccccc3)CCC(=O)N12)c1ccc(-c2c3nc(c(-c4ccc(S(=O)(=O)[O-])cc4)c4ccc([nH]4)c(-c4ccc(S(=O)(=O)[O-])cc4)c4nc(c(-c5ccc(S(=O)(=O)[O-])cc5)c5ccc2[nH]5)C=C4)C=C3)cc1
REMARK SMILES IDX 7 1 6 2 5 3 4 4 3 5 2 6 1 7 30 8 31 9 89 10 32 11 88 12
REMARK SMILES IDX 33 13 34 14 35 15 82 16 36 17 87 18 81 19 83 20 37 21 86 22
REMARK SMILES IDX 80 23 79 24 38 26 68 27 49 28 67 29 50 30 53 31 66 32 84 33
REMARK SMILES IDX 51 34 52 35 65 37 85 38 54 39 39 40 40 41 48 42 41 43 47 44
REMARK SMILES IDX 42 45 43 46 44 47 45 48 46 49 69 50 70 51 78 52 71 53 77 54
REMARK SMILES IDX 72 55 73 56 74 57 75 58 76 59 55 60 56 61 64 62 57 63 63 64
REMARK SMILES IDX 58 65 59 66 60 67 61 68 62 69 8 70 9 71 10 72 11 73 12 74
REMARK SMILES IDX 13 75 14 76 15 77 16 78 29 79 17 80 18 81 27 82 25 83 26 84
REMARK SMILES IDX 28 85 19 86 20 87 24 88 21 89 23 90 22 91
REMARK H PARENT 83 25 53 36
REMARK Flexibility Score: inf
ROOT
ATOM      1  C   UNL A   1      32.579  29.311  24.926  1.00  0.00     0.188 C 
ENDROOT
BRANCH   1   2
ATOM      2  O   UNL A   1      31.789  30.308  25.583  1.00  0.00    -0.376 OA
BRANCH   2   3
ATOM      3  C   UNL A   1      32.069  30.582  26.956  1.00  0.00     0.202 C 
BRANCH   3   4
ATOM      4  C   UNL A   1      33.363  31.358  27.230  1.00  0.00     0.261 C 
BRANCH   4   5
ATOM      5  O   UNL A   1      33.143  32.776  27.271  1.00  0.00    -0.460 OA
BRANCH   5   6
ATOM      6  C   UNL A   1      33.454  33.653  28.259  1.00  0.00     0.338 C 
ATOM      7  O   UNL A   1      32.809  34.701  28.311  1.00  0.00    -0.246 OA
BRANCH   6   8
ATOM      8  C   UNL A   1      34.565  33.460  29.253  1.00  0.00     0.060 A 
ATOM      9  C   UNL A   1      35.894  33.857  29.087  1.00  0.00     0.016 A 
ATOM     10  C   UNL A   1      34.228  32.841  30.473  1.00  0.00     0.016 A 
ATOM     11  C   UNL A   1      36.873  33.547  30.022  1.00  0.00     0.010 A 
ATOM     12  C   UNL A   1      35.201  32.558  31.441  1.00  0.00     0.010 A 
ATOM     13  C   UNL A   1      36.541  32.858  31.183  1.00  0.00    -0.014 A 
BRANCH  13  14
ATOM     14  C   UNL A   1      37.652  32.284  31.974  1.00  0.00     0.031 A 
ATOM     15  C   UNL A   1      38.455  31.184  31.349  1.00  0.00     0.074 A 
ATOM     16  C   UNL A   1      38.044  32.858  33.125  1.00  0.00     0.049 A 
ATOM     17  N   UNL A   1      39.526  30.590  31.799  1.00  0.00    -0.248 NA
ATOM     18  C   UNL A   1      38.014  30.716  30.023  1.00  0.00     0.031 C 
ATOM     19  C   UNL A   1      37.409  34.028  33.720  1.00  0.00     0.029 A 
ATOM     20  N   UNL A   1      39.075  32.572  33.979  1.00  0.00    -0.354 N 
ATOM     21  C   UNL A   1      39.881  29.677  30.818  1.00  0.00     0.074 A 
ATOM     22  C   UNL A   1      38.905  29.775  29.758  1.00  0.00     0.031 C 
ATOM     23  C   UNL A   1      38.054  34.362  34.849  1.00  0.00     0.029 A 
ATOM     24  C   UNL A   1      39.140  33.417  35.064  1.00  0.00     0.049 A 
ATOM     25  H   UNL A   1      39.709  31.834  33.831  1.00  0.00     0.167 HD
ATOM     26  C   UNL A   1      40.937  28.832  30.803  1.00  0.00     0.031 A 
ATOM     27  C   UNL A   1      39.983  33.417  36.114  1.00  0.00     0.031 A 
ATOM     28  C   UNL A   1      41.884  28.737  31.878  1.00  0.00     0.049 A 
ATOM     29  C   UNL A   1      41.078  32.389  36.130  1.00  0.00     0.074 A 
ATOM     30  C   UNL A   1      42.954  27.873  32.012  1.00  0.00     0.029 A 
ATOM     31  N   UNL A   1      41.865  29.540  33.010  1.00  0.00    -0.354 N 
ATOM     32  N   UNL A   1      41.377  31.494  35.216  1.00  0.00    -0.248 NA
ATOM     33  C   UNL A   1      41.956  32.371  37.306  1.00  0.00     0.031 C 
ATOM     34  C   UNL A   1      43.556  28.124  33.250  1.00  0.00     0.029 A 
ATOM     35  C   UNL A   1      42.893  29.179  33.861  1.00  0.00     0.049 A 
ATOM     36  H   UNL A   1      41.215  30.259  33.183  1.00  0.00     0.167 HD
ATOM     37  C   UNL A   1      42.494  30.824  35.692  1.00  0.00     0.074 A 
ATOM     38  C   UNL A   1      42.824  31.425  36.971  1.00  0.00     0.031 C 
ATOM     39  C   UNL A   1      43.189  29.806  35.126  1.00  0.00     0.031 A 
BRANCH  26  40
ATOM     40  C   UNL A   1      41.045  27.910  29.623  1.00  0.00    -0.014 A 
ATOM     41  C   UNL A   1      40.192  26.800  29.478  1.00  0.00     0.010 A 
ATOM     42  C   UNL A   1      42.061  28.124  28.675  1.00  0.00     0.010 A 
ATOM     43  C   UNL A   1      40.385  25.894  28.431  1.00  0.00     0.020 A 
ATOM     44  C   UNL A   1      42.243  27.234  27.614  1.00  0.00     0.020 A 
ATOM     45  C   UNL A   1      41.418  26.111  27.512  1.00  0.00     0.054 A 
BRANCH  45  46
ATOM     46  S   UNL A   1      41.666  24.912  26.175  1.00  0.00     0.124 S 
ATOM     47  O   UNL A   1      41.863  25.785  25.021  1.00  0.00    -0.237 OA
ATOM     48  O   UNL A   1      42.850  24.179  26.617  1.00  0.00    -0.237 OA
ATOM     49  O   UNL A   1      40.426  24.139  26.168  1.00  0.00    -0.744 OA
ENDBRANCH  45  46
ENDBRANCH  26  40
BRANCH  27  50
ATOM     50  C   UNL A   1      39.812  34.399  37.222  1.00  0.00    -0.014 A 
ATOM     51  C   UNL A   1      39.022  34.099  38.346  1.00  0.00     0.010 A 
ATOM     52  C   UNL A   1      40.452  35.652  37.157  1.00  0.00     0.010 A 
ATOM     53  C   UNL A   1      38.859  35.039  39.371  1.00  0.00     0.020 A 
ATOM     54  C   UNL A   1      40.311  36.584  38.191  1.00  0.00     0.020 A 
ATOM     55  C   UNL A   1      39.505  36.275  39.287  1.00  0.00     0.054 A 
BRANCH  55  56
ATOM     56  S   UNL A   1      39.322  37.462  40.649  1.00  0.00     0.124 S 
ATOM     57  O   UNL A   1      38.382  38.428  40.088  1.00  0.00    -0.237 OA
ATOM     58  O   UNL A   1      38.804  36.626  41.730  1.00  0.00    -0.237 OA
ATOM     59  O   UNL A   1      40.681  37.957  40.856  1.00  0.00    -0.744 OA
ENDBRANCH  55  56
ENDBRANCH  27  50
BRANCH  39  60
ATOM     60  C   UNL A   1      44.393  29.311  35.873  1.00  0.00    -0.014 A 
ATOM     61  C   UNL A   1      45.654  29.904  35.690  1.00  0.00     0.010 A 
ATOM     62  C   UNL A   1      44.241  28.273  36.809  1.00  0.00     0.010 A 
ATOM     63  C   UNL A   1      46.755  29.441  36.411  1.00  0.00     0.020 A 
ATOM     64  C   UNL A   1      45.336  27.826  37.550  1.00  0.00     0.020 A 
ATOM     65  C   UNL A   1      46.589  28.403  37.335  1.00  0.00     0.054 A 
BRANCH  65  66
ATOM     66  S   UNL A   1      48.024  27.845  38.291  1.00  0.00     0.124 S 
ATOM     67  O   UNL A   1      47.432  27.577  39.597  1.00  0.00    -0.237 OA
ATOM     68  O   UNL A   1      48.468  26.667  37.548  1.00  0.00    -0.237 OA
ATOM     69  O   UNL A   1      48.936  28.985  38.240  1.00  0.00    -0.744 OA
ENDBRANCH  65  66
ENDBRANCH  39  60
ENDBRANCH  13  14
ENDBRANCH   6   8
ENDBRANCH   5   6
ENDBRANCH   4   5
ENDBRANCH   3   4
ENDBRANCH   2   3
ENDBRANCH   1   2
BRANCH   1  70
ATOM     70  C   UNL A   1      31.875  28.526  23.813  1.00  0.00     0.188 C 
BRANCH  70  71
ATOM     71  O   UNL A   1      30.735  27.757  24.181  1.00  0.00    -0.376 OA
BRANCH  71  72
ATOM     72  C   UNL A   1      30.695  26.407  23.755  1.00  0.00     0.202 C 
BRANCH  72  73
ATOM     73  C   UNL A   1      31.927  25.636  24.231  1.00  0.00     0.261 C 
BRANCH  73  74
ATOM     74  O   UNL A   1      32.131  24.338  23.647  1.00  0.00    -0.462 OA
BRANCH  74  75
ATOM     75  C   UNL A   1      32.456  23.321  24.508  1.00  0.00     0.329 C 
ATOM     76  O   UNL A   1      31.651  22.654  25.142  1.00  0.00    -0.250 OA
BRANCH  75  77
ATOM     77  C   UNL A   1      33.975  23.277  24.705  1.00  0.00     0.206 C 
ATOM     78  C   UNL A   1      34.221  23.305  26.215  1.00  0.00     0.109 C 
ATOM     79  N   UNL A   1      34.782  22.159  24.196  1.00  0.00    -0.309 N 
ATOM     80  S   UNL A   1      34.333  21.547  26.699  1.00  0.00    -0.126 SA
ATOM     81  C   UNL A   1      34.931  20.997  25.059  1.00  0.00     0.116 C 
ATOM     82  C   UNL A   1      36.005  22.544  23.645  1.00  0.00     0.224 C 
ATOM     83  C   UNL A   1      36.460  20.742  25.087  1.00  0.00     0.055 C 
ATOM     84  C   UNL A   1      37.105  21.967  24.487  1.00  0.00     0.104 C 
ATOM     85  O   UNL A   1      36.148  23.394  22.805  1.00  0.00    -0.275 OA
BRANCH  81  86
ATOM     86  C   UNL A   1      34.215  19.739  24.548  1.00  0.00    -0.012 A 
ATOM     87  C   UNL A   1      32.941  19.782  23.959  1.00  0.00     0.007 A 
ATOM     88  C   UNL A   1      34.864  18.484  24.582  1.00  0.00     0.007 A 
ATOM     89  C   UNL A   1      32.364  18.640  23.387  1.00  0.00     0.000 A 
ATOM     90  C   UNL A   1      34.304  17.351  23.983  1.00  0.00     0.000 A 
ATOM     91  C   UNL A   1      33.054  17.431  23.382  1.00  0.00     0.000 A 
ENDBRANCH  81  86
ENDBRANCH  75  77
ENDBRANCH  74  75
ENDBRANCH  73  74
ENDBRANCH  72  73
ENDBRANCH  71  72
ENDBRANCH  70  71
ENDBRANCH   1  70
TORSDOF 21
ENDMDL
MODEL 2
REMARK VINA RESULT:     -10.1      2.634      8.714
REMARK SMILES O=C(OCCOCCOCCOC(=O)[C@H]1CS[C@]2(c3ccccc3)CCC(=O)N12)c1ccc(-c2c3nc(c(-c4ccc(S(=O)(=O)[O-])cc4)c4ccc([nH]4)c(-c4ccc(S(=O)(=O)[O-])cc4)c4nc(c(-c5ccc(S(=O)(=O)[O-])cc5)c5ccc2[nH]5)C=C4)C=C3)cc1
REMARK SMILES IDX 7 1 6 2 5 3 4 4 3 5 2 6 1 7 30 8 31 9 89 10 32 11 88 12
REMARK SMILES IDX 33 13 34 14 35 15 82 16 36 17 87 18 81 19 83 20 37 21 86 22
REMARK SMILES IDX 80 23 79 24 38 26 68 27 49 28 67 29 50 30 53 31 66 32 84 33
REMARK SMILES IDX 51 34 52 35 65 37 85 38 54 39 39 40 40 41 48 42 41 43 47 44
REMARK SMILES IDX 42 45 43 46 44 47 45 48 46 49 69 50 70 51 78 52 71 53 77 54
REMARK SMILES IDX 72 55 73 56 74 57 75 58 76 59 55 60 56 61 64 62 57 63 63 64
REMARK SMILES IDX 58 65 59 66 60 67 61 68 62 69 8 70 9 71 10 72 11 73 12 74
REMARK SMILES IDX 13 75 14 76 15 77 16 78 29 79 17 80 18 81 27 82 25 83 26 84
REMARK SMILES IDX 28 85 19 86 20 87 24 88 21 89 23 90 22 91
REMARK H PARENT 83 25 53 36
REMARK Flexibility Score: inf
ROOT
ATOM      1  C   UNL A   1      37.190  20.624  25.003  1.00  0.00     0.188 C 
ENDROOT
BRANCH   1   2
ATOM      2  O   UNL A   1      38.102  21.723  25.102  1.00  0.00    -0.376 OA
BRANCH   2   3
ATOM      3  C   UNL A   1      37.948  22.618  26.204  1.00  0.00     0.202 C 
BRANCH   3   4
ATOM      4  C   UNL A   1      38.343  24.076  25.939  1.00  0.00     0.261 C 
BRANCH   4   5
ATOM      5  O   UNL A   1      39.153  24.615  26.994  1.00  0.00    -0.460 OA
BRANCH   5   6
ATOM      6  C   UNL A   1      39.913  25.739  26.988  1.00  0.00     0.338 C 
ATOM      7  O   UNL A   1      40.722  25.872  26.070  1.00  0.00    -0.246 OA
BRANCH   6   8
ATOM      8  C   UNL A   1      39.877  26.799  28.054  1.00  0.00     0.060 A 
ATOM      9  C   UNL A   1      40.528  28.034  28.007  1.00  0.00     0.016 A 
ATOM     10  C   UNL A   1      39.097  26.528  29.195  1.00  0.00     0.016 A 
ATOM     11  C   UNL A   1      40.515  28.910  29.085  1.00  0.00     0.010 A 
ATOM     12  C   UNL A   1      39.045  27.422  30.272  1.00  0.00     0.010 A 
ATOM     13  C   UNL A   1      39.810  28.590  30.240  1.00  0.00    -0.014 A 
BRANCH  13  14
ATOM     14  C   UNL A   1      40.089  29.394  31.450  1.00  0.00     0.031 A 
ATOM     15  C   UNL A   1      39.098  30.452  31.826  1.00  0.00     0.074 A 
ATOM     16  C   UNL A   1      41.090  29.057  32.283  1.00  0.00     0.049 A 
ATOM     17  N   UNL A   1      39.071  31.216  32.883  1.00  0.00    -0.248 NA
ATOM     18  C   UNL A   1      37.964  30.652  30.906  1.00  0.00     0.031 C 
ATOM     19  C   UNL A   1      42.003  27.942  32.065  1.00  0.00     0.029 A 
ATOM     20  N   UNL A   1      41.489  29.581  33.483  1.00  0.00    -0.354 N 
ATOM     21  C   UNL A   1      37.927  31.989  32.752  1.00  0.00     0.074 A 
ATOM     22  C   UNL A   1      37.294  31.622  31.506  1.00  0.00     0.031 C 
ATOM     23  C   UNL A   1      42.867  27.863  33.089  1.00  0.00     0.029 A 
ATOM     24  C   UNL A   1      42.575  28.935  34.030  1.00  0.00     0.049 A 
ATOM     25  H   UNL A   1      41.043  30.345  33.913  1.00  0.00     0.167 HD
ATOM     26  C   UNL A   1      37.444  32.922  33.603  1.00  0.00     0.031 A 
ATOM     27  C   UNL A   1      43.257  29.191  35.163  1.00  0.00     0.031 A 
ATOM     28  C   UNL A   1      38.100  33.286  34.826  1.00  0.00     0.049 A 
ATOM     29  C   UNL A   1      42.766  30.314  36.034  1.00  0.00     0.074 A 
ATOM     30  C   UNL A   1      37.749  34.263  35.737  1.00  0.00     0.029 A 
ATOM     31  N   UNL A   1      39.255  32.681  35.305  1.00  0.00    -0.354 N 
ATOM     32  N   UNL A   1      41.707  31.073  35.874  1.00  0.00    -0.248 NA
ATOM     33  C   UNL A   1      43.550  30.610  37.239  1.00  0.00     0.031 C 
ATOM     34  C   UNL A   1      38.718  34.279  36.746  1.00  0.00     0.029 A 
ATOM     35  C   UNL A   1      39.643  33.277  36.490  1.00  0.00     0.049 A 
ATOM     36  H   UNL A   1      39.728  31.938  34.865  1.00  0.00     0.167 HD
ATOM     37  C   UNL A   1      41.680  31.921  36.972  1.00  0.00     0.074 A 
ATOM     38  C   UNL A   1      42.823  31.572  37.794  1.00  0.00     0.031 C 
ATOM     39  C   UNL A   1      40.790  32.897  37.278  1.00  0.00     0.031 A 
BRANCH  26  40
ATOM     40  C   UNL A   1      36.200  33.646  33.174  1.00  0.00    -0.014 A 
ATOM     41  C   UNL A   1      36.262  34.903  32.543  1.00  0.00     0.010 A 
ATOM     42  C   UNL A   1      34.945  33.084  33.464  1.00  0.00     0.010 A 
ATOM     43  C   UNL A   1      35.090  35.606  32.255  1.00  0.00     0.020 A 
ATOM     44  C   UNL A   1      33.769  33.774  33.157  1.00  0.00     0.020 A 
ATOM     45  C   UNL A   1      33.850  35.041  32.575  1.00  0.00     0.054 A 
BRANCH  45  46
ATOM     46  S   UNL A   1      32.342  35.980  32.214  1.00  0.00     0.124 S 
ATOM     47  O   UNL A   1      31.299  35.055  32.650  1.00  0.00    -0.237 OA
ATOM     48  O   UNL A   1      32.503  37.177  33.036  1.00  0.00    -0.237 OA
ATOM     49  O   UNL A   1      32.410  36.205  30.772  1.00  0.00    -0.744 OA
ENDBRANCH  45  46
ENDBRANCH  26  40
BRANCH  27  50
ATOM     50  C   UNL A   1      44.462  28.391  35.519  1.00  0.00    -0.014 A 
ATOM     51  C   UNL A   1      44.361  27.227  36.299  1.00  0.00     0.010 A 
ATOM     52  C   UNL A   1      45.734  28.796  35.068  1.00  0.00     0.010 A 
ATOM     53  C   UNL A   1      45.506  26.495  36.638  1.00  0.00     0.020 A 
ATOM     54  C   UNL A   1      46.877  28.055  35.383  1.00  0.00     0.020 A 
ATOM     55  C   UNL A   1      46.757  26.914  36.177  1.00  0.00     0.054 A 
BRANCH  55  56
ATOM     56  S   UNL A   1      48.225  25.927  36.585  1.00  0.00     0.124 S 
ATOM     57  O   UNL A   1      47.807  24.584  36.195  1.00  0.00    -0.237 OA
ATOM     58  O   UNL A   1      49.258  26.536  35.751  1.00  0.00    -0.237 OA
ATOM     59  O   UNL A   1      48.392  26.140  38.021  1.00  0.00    -0.744 OA
ENDBRANCH  55  56
ENDBRANCH  27  50
BRANCH  39  60
ATOM     60  C   UNL A   1      41.004  33.626  38.573  1.00  0.00    -0.014 A 
ATOM     61  C   UNL A   1      41.767  34.805  38.624  1.00  0.00     0.010 A 
ATOM     62  C   UNL A   1      40.386  33.146  39.741  1.00  0.00     0.010 A 
ATOM     63  C   UNL A   1      41.936  35.476  39.836  1.00  0.00     0.020 A 
ATOM     64  C   UNL A   1      40.532  33.830  40.948  1.00  0.00     0.020 A 
ATOM     65  C   UNL A   1      41.319  34.983  40.991  1.00  0.00     0.054 A 
BRANCH  65  66
ATOM     66  S   UNL A   1      41.516  35.893  42.545  1.00  0.00     0.124 S 
ATOM     67  O   UNL A   1      42.640  36.772  42.240  1.00  0.00    -0.237 OA
ATOM     68  O   UNL A   1      40.223  36.554  42.699  1.00  0.00    -0.237 OA
ATOM     69  O   UNL A   1      41.792  34.844  43.526  1.00  0.00    -0.744 OA
ENDBRANCH  65  66
ENDBRANCH  39  60
ENDBRANCH  13  14
ENDBRANCH   6   8
ENDBRANCH   5   6
ENDBRANCH   4   5
ENDBRANCH   3   4
ENDBRANCH   2   3
ENDBRANCH   1   2
BRANCH   1  70
ATOM     70  C   UNL A   1      35.718  20.994  24.782  1.00  0.00     0.188 C 
BRANCH  70  71
ATOM     71  O   UNL A   1      35.450  22.203  24.079  1.00  0.00    -0.376 OA
BRANCH  71  72
ATOM     72  C   UNL A   1      34.125  22.412  23.625  1.00  0.00     0.202 C 
BRANCH  72  73
ATOM     73  C   UNL A   1      34.053  23.576  22.636  1.00  0.00     0.261 C 
BRANCH  73  74
ATOM     74  O   UNL A   1      32.924  24.456  22.770  1.00  0.00    -0.462 OA
BRANCH  74  75
ATOM     75  C   UNL A   1      32.803  25.448  21.831  1.00  0.00     0.329 C 
ATOM     76  O   UNL A   1      33.026  25.315  20.636  1.00  0.00    -0.250 OA
BRANCH  75  77
ATOM     77  C   UNL A   1      32.541  26.788  22.527  1.00  0.00     0.206 C 
ATOM     78  C   UNL A   1      31.090  27.165  22.219  1.00  0.00     0.109 C 
ATOM     79  N   UNL A   1      32.683  26.936  23.983  1.00  0.00    -0.309 N 
ATOM     80  S   UNL A   1      30.129  26.503  23.623  1.00  0.00    -0.126 SA
ATOM     81  C   UNL A   1      31.524  26.617  24.803  1.00  0.00     0.116 C 
ATOM     82  C   UNL A   1      33.271  28.139  24.377  1.00  0.00     0.224 C 
ATOM     83  C   UNL A   1      31.365  27.852  25.727  1.00  0.00     0.055 C 
ATOM     84  C   UNL A   1      32.258  28.927  25.155  1.00  0.00     0.104 C 
ATOM     85  O   UNL A   1      34.309  28.574  23.952  1.00  0.00    -0.275 OA
BRANCH  81  86
ATOM     86  C   UNL A   1      31.690  25.357  25.662  1.00  0.00    -0.012 A 
ATOM     87  C   UNL A   1      30.614  24.513  25.982  1.00  0.00     0.007 A 
ATOM     88  C   UNL A   1      32.972  24.954  26.099  1.00  0.00     0.007 A 
ATOM     89  C   UNL A   1      30.813  23.303  26.660  1.00  0.00     0.000 A 
ATOM     90  C   UNL A   1      33.177  23.732  26.748  1.00  0.00     0.000 A 
ATOM     91  C   UNL A   1      32.095  22.904  27.025  1.00  0.00     0.000 A 
ENDBRANCH  81  86
ENDBRANCH  75  77
ENDBRANCH  74  75
ENDBRANCH  73  74
ENDBRANCH  72  73
ENDBRANCH  71  72
ENDBRANCH  70  71
ENDBRANCH   1  70
TORSDOF 21
ENDMDL
MODEL 3
REMARK VINA RESULT:      -9.8      6.338      9.003
REMARK SMILES O=C(OCCOCCOCCOC(=O)[C@H]1CS[C@]2(c3ccccc3)CCC(=O)N12)c1ccc(-c2c3nc(c(-c4ccc(S(=O)(=O)[O-])cc4)c4ccc([nH]4)c(-c4ccc(S(=O)(=O)[O-])cc4)c4nc(c(-c5ccc(S(=O)(=O)[O-])cc5)c5ccc2[nH]5)C=C4)C=C3)cc1
REMARK SMILES IDX 7 1 6 2 5 3 4 4 3 5 2 6 1 7 30 8 31 9 89 10 32 11 88 12
REMARK SMILES IDX 33 13 34 14 35 15 82 16 36 17 87 18 81 19 83 20 37 21 86 22
REMARK SMILES IDX 80 23 79 24 38 26 68 27 49 28 67 29 50 30 53 31 66 32 84 33
REMARK SMILES IDX 51 34 52 35 65 37 85 38 54 39 39 40 40 41 48 42 41 43 47 44
REMARK SMILES IDX 42 45 43 46 44 47 45 48 46 49 69 50 70 51 78 52 71 53 77 54
REMARK SMILES IDX 72 55 73 56 74 57 75 58 76 59 55 60 56 61 64 62 57 63 63 64
REMARK SMILES IDX 58 65 59 66 60 67 61 68 62 69 8 70 9 71 10 72 11 73 12 74
REMARK SMILES IDX 13 75 14 76 15 77 16 78 29 79 17 80 18 81 27 82 25 83 26 84
REMARK SMILES IDX 28 85 19 86 20 87 24 88 21 89 23 90 22 91
REMARK H PARENT 83 25 53 36
REMARK Flexibility Score: inf
ROOT
ATOM      1  C   UNL A   1      35.599  33.380  30.077  1.00  0.00     0.188 C 
ENDROOT
BRANCH   1   2
ATOM      2  O   UNL A   1      35.698  33.000  31.454  1.00  0.00    -0.376 OA
BRANCH   2   3
ATOM      3  C   UNL A   1      35.551  31.616  31.774  1.00  0.00     0.202 C 
BRANCH   3   4
ATOM      4  C   UNL A   1      36.814  30.759  31.626  1.00  0.00     0.261 C 
BRANCH   4   5
ATOM      5  O   UNL A   1      36.585  29.593  30.821  1.00  0.00    -0.460 OA
BRANCH   5   6
ATOM      6  C   UNL A   1      37.015  29.336  29.561  1.00  0.00     0.338 C 
ATOM      7  O   UNL A   1      36.185  29.395  28.654  1.00  0.00    -0.246 OA
BRANCH   6   8
ATOM      8  C   UNL A   1      38.418  28.927  29.205  1.00  0.00     0.060 A 
ATOM      9  C   UNL A   1      39.299  28.218  30.025  1.00  0.00     0.016 A 
ATOM     10  C   UNL A   1      38.875  29.272  27.918  1.00  0.00     0.016 A 
ATOM     11  C   UNL A   1      40.613  27.970  29.646  1.00  0.00     0.010 A 
ATOM     12  C   UNL A   1      40.186  28.992  27.511  1.00  0.00     0.010 A 
ATOM     13  C   UNL A   1      41.077  28.394  28.406  1.00  0.00    -0.014 A 
BRANCH  13  14
ATOM     14  C   UNL A   1      42.540  28.389  28.189  1.00  0.00     0.031 A 
ATOM     15  C   UNL A   1      43.146  27.169  27.565  1.00  0.00     0.074 A 
ATOM     16  C   UNL A   1      43.265  29.506  28.368  1.00  0.00     0.049 A 
ATOM     17  N   UNL A   1      44.379  26.963  27.191  1.00  0.00    -0.248 NA
ATOM     18  C   UNL A   1      42.233  26.044  27.290  1.00  0.00     0.031 C 
ATOM     19  C   UNL A   1      42.719  30.779  28.826  1.00  0.00     0.029 A 
ATOM     20  N   UNL A   1      44.591  29.773  28.160  1.00  0.00    -0.354 N 
ATOM     21  C   UNL A   1      44.391  25.687  26.645  1.00  0.00     0.074 A 
ATOM     22  C   UNL A   1      43.052  25.155  26.753  1.00  0.00     0.031 C 
ATOM     23  C   UNL A   1      43.698  31.695  28.875  1.00  0.00     0.029 A 
ATOM     24  C   UNL A   1      44.946  31.067  28.466  1.00  0.00     0.049 A 
ATOM     25  H   UNL A   1      45.230  29.104  27.823  1.00  0.00     0.167 HD
ATOM     26  C   UNL A   1      45.431  25.021  26.096  1.00  0.00     0.031 A 
ATOM     27  C   UNL A   1      46.150  31.671  28.422  1.00  0.00     0.031 A 
ATOM     28  C   UNL A   1      46.759  25.562  26.018  1.00  0.00     0.049 A 
ATOM     29  C   UNL A   1      47.315  30.867  27.918  1.00  0.00     0.074 A 
ATOM     30  C   UNL A   1      47.910  24.959  25.549  1.00  0.00     0.029 A 
ATOM     31  N   UNL A   1      47.107  26.842  26.428  1.00  0.00    -0.354 N 
ATOM     32  N   UNL A   1      47.325  29.640  27.448  1.00  0.00    -0.248 NA
ATOM     33  C   UNL A   1      48.628  31.524  27.925  1.00  0.00     0.031 C 
ATOM     34  C   UNL A   1      48.966  25.862  25.717  1.00  0.00     0.029 A 
ATOM     35  C   UNL A   1      48.462  27.044  26.242  1.00  0.00     0.049 A 
ATOM     36  H   UNL A   1      46.483  27.508  26.797  1.00  0.00     0.167 HD
ATOM     37  C   UNL A   1      48.637  29.387  27.078  1.00  0.00     0.074 A 
ATOM     38  C   UNL A   1      49.390  30.592  27.368  1.00  0.00     0.031 C 
ATOM     39  C   UNL A   1      49.173  28.261  26.543  1.00  0.00     0.031 A 
BRANCH  26  40
ATOM     40  C   UNL A   1      45.163  23.620  25.629  1.00  0.00    -0.014 A 
ATOM     41  C   UNL A   1      45.292  22.519  26.496  1.00  0.00     0.010 A 
ATOM     42  C   UNL A   1      44.835  23.397  24.280  1.00  0.00     0.010 A 
ATOM     43  C   UNL A   1      45.146  21.217  26.009  1.00  0.00     0.020 A 
ATOM     44  C   UNL A   1      44.665  22.098  23.794  1.00  0.00     0.020 A 
ATOM     45  C   UNL A   1      44.845  21.015  24.657  1.00  0.00     0.054 A 
BRANCH  45  46
ATOM     46  S   UNL A   1      44.682  19.318  24.041  1.00  0.00     0.124 S 
ATOM     47  O   UNL A   1      43.450  18.879  24.691  1.00  0.00    -0.237 OA
ATOM     48  O   UNL A   1      44.596  19.507  22.595  1.00  0.00    -0.237 OA
ATOM     49  O   UNL A   1      45.900  18.661  24.508  1.00  0.00    -0.744 OA
ENDBRANCH  45  46
ENDBRANCH  26  40
BRANCH  27  50
ATOM     50  C   UNL A   1      46.307  33.080  28.878  1.00  0.00    -0.014 A 
ATOM     51  C   UNL A   1      46.598  33.385  30.220  1.00  0.00     0.010 A 
ATOM     52  C   UNL A   1      46.168  34.138  27.958  1.00  0.00     0.010 A 
ATOM     53  C   UNL A   1      46.727  34.716  30.635  1.00  0.00     0.020 A 
ATOM     54  C   UNL A   1      46.320  35.467  28.364  1.00  0.00     0.020 A 
ATOM     55  C   UNL A   1      46.588  35.749  29.704  1.00  0.00     0.054 A 
BRANCH  55  56
ATOM     56  S   UNL A   1      46.807  37.466  30.251  1.00  0.00     0.124 S 
ATOM     57  O   UNL A   1      45.465  38.014  30.083  1.00  0.00    -0.237 OA
ATOM     58  O   UNL A   1      47.258  37.303  31.632  1.00  0.00    -0.237 OA
ATOM     59  O   UNL A   1      47.818  37.990  29.335  1.00  0.00    -0.744 OA
ENDBRANCH  55  56
ENDBRANCH  27  50
BRANCH  39  60
ATOM     60  C   UNL A   1      50.636  28.304  26.206  1.00  0.00    -0.014 A 
ATOM     61  C   UNL A   1      51.610  27.968  27.161  1.00  0.00     0.010 A 
ATOM     62  C   UNL A   1      51.029  28.635  24.898  1.00  0.00     0.010 A 
ATOM     63  C   UNL A   1      52.963  27.995  26.819  1.00  0.00     0.020 A 
ATOM     64  C   UNL A   1      52.379  28.637  24.546  1.00  0.00     0.020 A 
ATOM     65  C   UNL A   1      53.339  28.332  25.513  1.00  0.00     0.054 A 
BRANCH  65  66
ATOM     66  S   UNL A   1      55.097  28.320  25.079  1.00  0.00     0.124 S 
ATOM     67  O   UNL A   1      55.734  28.374  26.391  1.00  0.00    -0.237 OA
ATOM     68  O   UNL A   1      55.244  27.057  24.360  1.00  0.00    -0.237 OA
ATOM     69  O   UNL A   1      55.257  29.518  24.257  1.00  0.00    -0.744 OA
ENDBRANCH  65  66
ENDBRANCH  39  60
ENDBRANCH  13  14
ENDBRANCH   6   8
ENDBRANCH   5   6
ENDBRANCH   4   5
ENDBRANCH   3   4
ENDBRANCH   2   3
ENDBRANCH   1   2
BRANCH   1  70
ATOM     70  C   UNL A   1      34.312  32.959  29.358  1.00  0.00     0.188 C 
BRANCH  70  71
ATOM     71  O   UNL A   1      34.454  32.210  28.155  1.00  0.00    -0.376 OA
BRANCH  71  72
ATOM     72  C   UNL A   1      33.269  31.768  27.519  1.00  0.00     0.202 C 
BRANCH  72  73
ATOM     73  C   UNL A   1      33.386  30.310  27.072  1.00  0.00     0.261 C 
BRANCH  73  74
ATOM     74  O   UNL A   1      33.079  30.041  25.693  1.00  0.00    -0.462 OA
BRANCH  74  75
ATOM     75  C   UNL A   1      33.361  28.778  25.236  1.00  0.00     0.329 C 
ATOM     76  O   UNL A   1      34.466  28.388  24.888  1.00  0.00    -0.250 OA
BRANCH  75  77
ATOM     77  C   UNL A   1      32.056  27.998  25.041  1.00  0.00     0.206 C 
ATOM     78  C   UNL A   1      31.589  28.279  23.611  1.00  0.00     0.109 C 
ATOM     79  N   UNL A   1      32.009  26.536  25.189  1.00  0.00    -0.309 N 
ATOM     80  S   UNL A   1      32.290  26.918  22.616  1.00  0.00    -0.126 SA
ATOM     81  C   UNL A   1      32.320  25.736  24.014  1.00  0.00     0.116 C 
ATOM     82  C   UNL A   1      30.864  26.067  25.835  1.00  0.00     0.224 C 
ATOM     83  C   UNL A   1      31.140  24.735  23.915  1.00  0.00     0.055 C 
ATOM     84  C   UNL A   1      30.077  25.239  24.861  1.00  0.00     0.104 C 
ATOM     85  O   UNL A   1      30.454  26.466  26.894  1.00  0.00    -0.275 OA
BRANCH  81  86
ATOM     86  C   UNL A   1      33.639  24.958  24.115  1.00  0.00    -0.012 A 
ATOM     87  C   UNL A   1      34.413  24.933  25.287  1.00  0.00     0.007 A 
ATOM     88  C   UNL A   1      34.084  24.161  23.036  1.00  0.00     0.007 A 
ATOM     89  C   UNL A   1      35.545  24.114  25.396  1.00  0.00     0.000 A 
ATOM     90  C   UNL A   1      35.195  23.320  23.154  1.00  0.00     0.000 A 
ATOM     91  C   UNL A   1      35.924  23.294  24.337  1.00  0.00     0.000 A 
ENDBRANCH  81  86
ENDBRANCH  75  77
ENDBRANCH  74  75
ENDBRANCH  73  74
ENDBRANCH  72  73
ENDBRANCH  71  72
ENDBRANCH  70  71
ENDBRANCH   1  70
TORSDOF 21
ENDMDL
