MODEL 1
REMARK VINA RESULT:      -9.5      0.000      0.000
REMARK SMILES C#CC[N@@H+](CC(=O)OCCOCCOCCOC(=O)c1ccc(-c2c3nc(c(-c4ccc(S(=O)(=O)[O-])cc4)c4ccc([nH]4)c(-c4ccc(S(=O)(=O)[O-])cc4)c4nc(c(-c5ccc(S(=O)(=O)[O-])cc5)c5ccc2[nH]5)C=C4)C=C3)cc1)Cc1ccc(C(C)C)cc1
REMARK SMILES IDX 12 1 11 2 10 3 9 4 8 5 6 6 7 7 5 8 4 9 3 11 2 12 1 13 80 14
REMARK SMILES IDX 81 15 82 16 89 17 83 18 88 19 84 20 85 21 86 22 87 23 13 24
REMARK SMILES IDX 14 25 15 26 16 27 17 28 18 29 19 30 20 31 21 32 79 33 22 34
REMARK SMILES IDX 78 35 23 36 24 37 25 38 72 39 26 40 77 41 71 42 73 43 27 44
REMARK SMILES IDX 76 45 70 46 69 47 28 49 58 50 39 51 57 52 40 53 43 54 56 55
REMARK SMILES IDX 74 56 41 57 42 58 55 60 75 61 44 62 29 63 30 64 38 65 31 66
REMARK SMILES IDX 37 67 32 68 33 69 34 70 35 71 36 72 59 73 60 74 68 75 61 76
REMARK SMILES IDX 67 77 62 78 63 79 64 80 65 81 66 82 45 83 46 84 54 85 47 86
REMARK SMILES IDX 53 87 48 88 49 89 50 90 51 91 52 92
REMARK H PARENT 4 10 73 48 43 59
REMARK Flexibility Score: inf
ROOT
ATOM      1  C   UNL A   1      31.709  26.281  25.235  1.00  0.00     0.188 C 
ENDROOT
BRANCH   1   2
ATOM      2  O   UNL A   1      32.870  25.374  24.901  1.00  0.00    -0.376 OA
BRANCH   2   3
ATOM      3  C   UNL A   1      33.416  25.251  23.596  1.00  0.00     0.202 C 
BRANCH   3   4
ATOM      4  C   UNL A   1      33.707  24.008  22.702  1.00  0.00     0.261 C 
BRANCH   4   5
ATOM      5  O   UNL A   1      32.721  23.026  22.350  1.00  0.00    -0.459 OA
BRANCH   5   6
ATOM      6  C   UNL A   1      31.672  22.860  23.204  1.00  0.00     0.361 C 
ATOM      7  O   UNL A   1      30.635  23.509  23.137  1.00  0.00    -0.245 OA
BRANCH   6   8
ATOM      8  C   UNL A   1      31.960  21.852  24.328  1.00  0.00     0.387 C 
BRANCH   8   9
ATOM      9  N   UNL A   1      32.902  20.721  24.084  1.00  0.00    -0.312 N 
ATOM     10  H   UNL A   1      33.558  21.108  23.406  1.00  0.00     0.349 HD
BRANCH   9  11
ATOM     11  C   UNL A   1      32.341  19.596  23.380  1.00  0.00     0.354 C 
BRANCH  11  12
ATOM     12  C   UNL A   1      32.986  18.222  23.309  1.00  0.00    -0.047 C 
ATOM     13  C   UNL A   1      33.540  17.043  23.247  1.00  0.00     0.010 C 
ENDBRANCH  11  12
ENDBRANCH   9  11
BRANCH   9  14
ATOM     14  C   UNL A   1      33.741  20.383  25.205  1.00  0.00     0.300 C 
BRANCH  14  15
ATOM     15  C   UNL A   1      35.022  21.159  25.305  1.00  0.00     0.006 A 
ATOM     16  C   UNL A   1      35.103  22.881  25.880  1.00  0.00     0.010 A 
ATOM     17  C   UNL A   1      36.567  20.277  24.983  1.00  0.00     0.010 A 
ATOM     18  C   UNL A   1      36.657  23.663  26.246  1.00  0.00     0.004 A 
ATOM     19  C   UNL A   1      38.146  21.083  25.342  1.00  0.00     0.004 A 
ATOM     20  C   UNL A   1      38.182  22.782  25.956  1.00  0.00    -0.045 A 
BRANCH  20  21
ATOM     21  C   UNL A   1      39.458  23.464  26.360  1.00  0.00     0.013 C 
ATOM     22  C   UNL A   1      39.185  24.228  27.643  1.00  0.00     0.012 C 
ATOM     23  C   UNL A   1      40.610  22.468  26.565  1.00  0.00     0.012 C 
ENDBRANCH  20  21
ENDBRANCH  14  15
ENDBRANCH   9  14
ENDBRANCH   8   9
ENDBRANCH   6   8
ENDBRANCH   5   6
ENDBRANCH   4   5
ENDBRANCH   3   4
ENDBRANCH   2   3
ENDBRANCH   1   2
BRANCH   1  24
ATOM     24  C   UNL A   1      31.692  28.294  26.111  1.00  0.00     0.188 C 
BRANCH  24  25
ATOM     25  O   UNL A   1      31.282  29.670  25.490  1.00  0.00    -0.376 OA
BRANCH  25  26
ATOM     26  C   UNL A   1      31.648  30.803  26.278  1.00  0.00     0.202 C 
BRANCH  26  27
ATOM     27  C   UNL A   1      33.136  31.136  26.574  1.00  0.00     0.261 C 
BRANCH  27  28
ATOM     28  O   UNL A   1      33.683  30.771  27.855  1.00  0.00    -0.460 OA
BRANCH  28  29
ATOM     29  C   UNL A   1      34.480  31.703  28.441  1.00  0.00     0.338 C 
ATOM     30  O   UNL A   1      34.106  32.782  28.874  1.00  0.00    -0.246 OA
BRANCH  29  31
ATOM     31  C   UNL A   1      35.877  31.192  28.618  1.00  0.00     0.060 A 
ATOM     32  C   UNL A   1      36.042  29.808  28.777  1.00  0.00     0.016 A 
ATOM     33  C   UNL A   1      37.016  32.012  28.617  1.00  0.00     0.016 A 
ATOM     34  C   UNL A   1      37.310  29.252  28.992  1.00  0.00     0.010 A 
ATOM     35  C   UNL A   1      38.293  31.455  28.840  1.00  0.00     0.010 A 
ATOM     36  C   UNL A   1      38.442  30.076  29.084  1.00  0.00    -0.014 A 
BRANCH  36  37
ATOM     37  C   UNL A   1      39.643  29.525  29.787  1.00  0.00     0.031 A 
ATOM     38  C   UNL A   1      39.825  29.941  31.231  1.00  0.00     0.074 A 
ATOM     39  C   UNL A   1      40.466  28.596  29.259  1.00  0.00     0.049 A 
ATOM     40  N   UNL A   1      40.682  29.519  32.125  1.00  0.00    -0.248 NA
ATOM     41  C   UNL A   1      38.894  30.967  31.734  1.00  0.00     0.031 C 
ATOM     42  C   UNL A   1      40.383  28.048  27.907  1.00  0.00     0.029 A 
ATOM     43  N   UNL A   1      41.533  27.924  29.821  1.00  0.00    -0.354 N 
ATOM     44  C   UNL A   1      40.379  30.214  33.291  1.00  0.00     0.074 A 
ATOM     45  C   UNL A   1      39.298  31.119  32.982  1.00  0.00     0.031 C 
ATOM     46  C   UNL A   1      41.344  27.116  27.750  1.00  0.00     0.029 A 
ATOM     47  C   UNL A   1      42.129  27.009  28.980  1.00  0.00     0.049 A 
ATOM     48  H   UNL A   1      41.842  28.086  30.742  1.00  0.00     0.167 HD
ATOM     49  C   UNL A   1      40.933  30.107  34.522  1.00  0.00     0.031 A 
ATOM     50  C   UNL A   1      43.180  26.181  29.180  1.00  0.00     0.031 A 
ATOM     51  C   UNL A   1      42.032  29.237  34.835  1.00  0.00     0.049 A 
ATOM     52  C   UNL A   1      43.855  26.155  30.536  1.00  0.00     0.074 A 
ATOM     53  C   UNL A   1      42.680  29.074  36.046  1.00  0.00     0.029 A 
ATOM     54  N   UNL A   1      42.656  28.395  33.928  1.00  0.00    -0.354 N 
ATOM     55  N   UNL A   1      43.539  26.805  31.632  1.00  0.00    -0.248 NA
ATOM     56  C   UNL A   1      45.021  25.270  30.684  1.00  0.00     0.031 C 
ATOM     57  C   UNL A   1      43.745  28.189  35.852  1.00  0.00     0.029 A 
ATOM     58  C   UNL A   1      43.706  27.735  34.543  1.00  0.00     0.049 A 
ATOM     59  H   UNL A   1      42.392  28.283  32.987  1.00  0.00     0.167 HD
ATOM     60  C   UNL A   1      44.447  26.384  32.603  1.00  0.00     0.074 A 
ATOM     61  C   UNL A   1      45.306  25.405  31.972  1.00  0.00     0.031 C 
ATOM     62  C   UNL A   1      44.561  26.769  33.900  1.00  0.00     0.031 A 
BRANCH  49  63
ATOM     63  C   UNL A   1      40.383  31.002  35.602  1.00  0.00    -0.014 A 
ATOM     64  C   UNL A   1      41.183  31.978  36.227  1.00  0.00     0.010 A 
ATOM     65  C   UNL A   1      39.041  30.861  35.998  1.00  0.00     0.010 A 
ATOM     66  C   UNL A   1      40.662  32.764  37.259  1.00  0.00     0.020 A 
ATOM     67  C   UNL A   1      38.507  31.669  37.005  1.00  0.00     0.020 A 
ATOM     68  C   UNL A   1      39.326  32.604  37.641  1.00  0.00     0.054 A 
BRANCH  68  69
ATOM     69  S   UNL A   1      38.670  33.652  38.967  1.00  0.00     0.124 S 
ATOM     70  O   UNL A   1      37.407  32.989  39.281  1.00  0.00    -0.237 OA
ATOM     71  O   UNL A   1      39.705  33.550  39.994  1.00  0.00    -0.237 OA
ATOM     72  O   UNL A   1      38.545  34.965  38.341  1.00  0.00    -0.744 OA
ENDBRANCH  68  69
ENDBRANCH  49  63
BRANCH  50  73
ATOM     73  C   UNL A   1      43.695  25.312  28.073  1.00  0.00    -0.014 A 
ATOM     74  C   UNL A   1      43.354  23.948  27.988  1.00  0.00     0.010 A 
ATOM     75  C   UNL A   1      44.584  25.840  27.118  1.00  0.00     0.010 A 
ATOM     76  C   UNL A   1      43.902  23.132  26.987  1.00  0.00     0.020 A 
ATOM     77  C   UNL A   1      45.108  25.039  26.098  1.00  0.00     0.020 A 
ATOM     78  C   UNL A   1      44.771  23.686  26.043  1.00  0.00     0.054 A 
BRANCH  78  79
ATOM     79  S   UNL A   1      45.430  22.625  24.724  1.00  0.00     0.124 S 
ATOM     80  O   UNL A   1      44.223  21.983  24.213  1.00  0.00    -0.237 OA
ATOM     81  O   UNL A   1      46.059  23.594  23.830  1.00  0.00    -0.237 OA
ATOM     82  O   UNL A   1      46.359  21.742  25.425  1.00  0.00    -0.744 OA
ENDBRANCH  78  79
ENDBRANCH  50  73
BRANCH  62  83
ATOM     83  C   UNL A   1      45.628  26.108  34.739  1.00  0.00    -0.014 A 
ATOM     84  C   UNL A   1      46.880  26.711  34.950  1.00  0.00     0.010 A 
ATOM     85  C   UNL A   1      45.355  24.874  35.360  1.00  0.00     0.010 A 
ATOM     86  C   UNL A   1      47.858  26.067  35.716  1.00  0.00     0.020 A 
ATOM     87  C   UNL A   1      46.314  24.246  36.159  1.00  0.00     0.020 A 
ATOM     88  C   UNL A   1      47.569  24.836  36.312  1.00  0.00     0.054 A 
BRANCH  88  89
ATOM     89  S   UNL A   1      48.850  24.024  37.306  1.00  0.00     0.124 S 
ATOM     90  O   UNL A   1      48.847  22.671  36.757  1.00  0.00    -0.237 OA
ATOM     91  O   UNL A   1      50.039  24.821  37.007  1.00  0.00    -0.237 OA
ATOM     92  O   UNL A   1      48.356  24.141  38.675  1.00  0.00    -0.744 OA
ENDBRANCH  88  89
ENDBRANCH  62  83
ENDBRANCH  36  37
ENDBRANCH  29  31
ENDBRANCH  28  29
ENDBRANCH  27  28
ENDBRANCH  26  27
ENDBRANCH  25  26
ENDBRANCH  24  25
ENDBRANCH   1  24
TORSDOF 26
ENDMDL
MODEL 2
REMARK VINA RESULT:      -9.2      1.821      3.406
REMARK SMILES C#CC[N@@H+](CC(=O)OCCOCCOCCOC(=O)c1ccc(-c2c3nc(c(-c4ccc(S(=O)(=O)[O-])cc4)c4ccc([nH]4)c(-c4ccc(S(=O)(=O)[O-])cc4)c4nc(c(-c5ccc(S(=O)(=O)[O-])cc5)c5ccc2[nH]5)C=C4)C=C3)cc1)Cc1ccc(C(C)C)cc1
REMARK SMILES IDX 12 1 11 2 10 3 9 4 8 5 6 6 7 7 5 8 4 9 3 11 2 12 1 13 80 14
REMARK SMILES IDX 81 15 82 16 89 17 83 18 88 19 84 20 85 21 86 22 87 23 13 24
REMARK SMILES IDX 14 25 15 26 16 27 17 28 18 29 19 30 20 31 21 32 79 33 22 34
REMARK SMILES IDX 78 35 23 36 24 37 25 38 72 39 26 40 77 41 71 42 73 43 27 44
REMARK SMILES IDX 76 45 70 46 69 47 28 49 58 50 39 51 57 52 40 53 43 54 56 55
REMARK SMILES IDX 74 56 41 57 42 58 55 60 75 61 44 62 29 63 30 64 38 65 31 66
REMARK SMILES IDX 37 67 32 68 33 69 34 70 35 71 36 72 59 73 60 74 68 75 61 76
REMARK SMILES IDX 67 77 62 78 63 79 64 80 65 81 66 82 45 83 46 84 54 85 47 86
REMARK SMILES IDX 53 87 48 88 49 89 50 90 51 91 52 92
REMARK H PARENT 4 10 73 48 43 59
REMARK Flexibility Score: inf
ROOT
ATOM      1  C   UNL A   1      31.462  30.355  25.210  1.00  0.00     0.188 C 
ENDROOT
BRANCH   1   2
ATOM      2  O   UNL A   1      32.471  29.351  24.704  1.00  0.00    -0.376 OA
BRANCH   2   3
ATOM      3  C   UNL A   1      32.416  27.965  25.011  1.00  0.00     0.202 C 
BRANCH   3   4
ATOM      4  C   UNL A   1      32.487  27.197  26.365  1.00  0.00     0.261 C 
BRANCH   4   5
ATOM      5  O   UNL A   1      31.486  26.270  26.813  1.00  0.00    -0.459 OA
BRANCH   5   6
ATOM      6  C   UNL A   1      30.970  25.412  25.888  1.00  0.00     0.361 C 
ATOM      7  O   UNL A   1      29.908  25.604  25.306  1.00  0.00    -0.245 OA
BRANCH   6   8
ATOM      8  C   UNL A   1      31.797  24.128  25.723  1.00  0.00     0.387 C 
BRANCH   8   9
ATOM      9  N   UNL A   1      33.284  24.191  25.813  1.00  0.00    -0.312 N 
ATOM     10  H   UNL A   1      33.449  25.030  26.369  1.00  0.00     0.349 HD
BRANCH   9  11
ATOM     11  C   UNL A   1      33.962  24.488  24.577  1.00  0.00     0.354 C 
BRANCH  11  12
ATOM     12  C   UNL A   1      33.552  23.938  23.221  1.00  0.00    -0.047 C 
ATOM     13  C   UNL A   1      33.200  23.465  22.058  1.00  0.00     0.010 C 
ENDBRANCH  11  12
ENDBRANCH   9  11
BRANCH   9  14
ATOM     14  C   UNL A   1      33.885  23.146  26.602  1.00  0.00     0.300 C 
BRANCH  14  15
ATOM     15  C   UNL A   1      34.074  21.835  25.897  1.00  0.00     0.006 A 
ATOM     16  C   UNL A   1      35.700  21.194  25.400  1.00  0.00     0.010 A 
ATOM     17  C   UNL A   1      32.620  20.783  25.673  1.00  0.00     0.010 A 
ATOM     18  C   UNL A   1      35.900  19.524  24.821  1.00  0.00     0.004 A 
ATOM     19  C   UNL A   1      32.827  19.091  25.070  1.00  0.00     0.004 A 
ATOM     20  C   UNL A   1      34.468  18.476  24.630  1.00  0.00    -0.045 A 
BRANCH  20  21
ATOM     21  C   UNL A   1      34.709  17.052  24.217  1.00  0.00     0.013 C 
ATOM     22  C   UNL A   1      34.064  16.155  25.257  1.00  0.00     0.012 C 
ATOM     23  C   UNL A   1      34.143  16.747  22.821  1.00  0.00     0.012 C 
ENDBRANCH  20  21
ENDBRANCH  14  15
ENDBRANCH   9  14
ENDBRANCH   8   9
ENDBRANCH   6   8
ENDBRANCH   5   6
ENDBRANCH   4   5
ENDBRANCH   3   4
ENDBRANCH   2   3
ENDBRANCH   1   2
BRANCH   1  24
ATOM     24  C   UNL A   1      31.562  31.721  26.925  1.00  0.00     0.188 C 
BRANCH  24  25
ATOM     25  O   UNL A   1      31.754  33.272  26.980  1.00  0.00    -0.376 OA
BRANCH  25  26
ATOM     26  C   UNL A   1      32.927  33.695  27.678  1.00  0.00     0.202 C 
BRANCH  26  27
ATOM     27  C   UNL A   1      33.850  32.676  28.399  1.00  0.00     0.261 C 
BRANCH  27  28
ATOM     28  O   UNL A   1      35.003  32.172  27.698  1.00  0.00    -0.460 OA
BRANCH  28  29
ATOM     29  C   UNL A   1      35.227  30.837  27.818  1.00  0.00     0.338 C 
ATOM     30  O   UNL A   1      34.632  29.963  27.207  1.00  0.00    -0.246 OA
BRANCH  29  31
ATOM     31  C   UNL A   1      36.401  30.558  28.705  1.00  0.00     0.060 A 
ATOM     32  C   UNL A   1      37.542  31.355  28.534  1.00  0.00     0.016 A 
ATOM     33  C   UNL A   1      36.413  29.565  29.697  1.00  0.00     0.016 A 
ATOM     34  C   UNL A   1      38.699  31.132  29.292  1.00  0.00     0.010 A 
ATOM     35  C   UNL A   1      37.579  29.334  30.458  1.00  0.00     0.010 A 
ATOM     36  C   UNL A   1      38.750  30.082  30.222  1.00  0.00    -0.014 A 
BRANCH  36  37
ATOM     37  C   UNL A   1      40.101  29.579  30.623  1.00  0.00     0.031 A 
ATOM     38  C   UNL A   1      40.691  30.172  31.884  1.00  0.00     0.074 A 
ATOM     39  C   UNL A   1      40.736  28.555  30.015  1.00  0.00     0.049 A 
ATOM     40  N   UNL A   1      41.768  29.835  32.546  1.00  0.00    -0.248 NA
ATOM     41  C   UNL A   1      39.946  31.293  32.485  1.00  0.00     0.031 C 
ATOM     42  C   UNL A   1      40.266  27.839  28.831  1.00  0.00     0.029 A 
ATOM     43  N   UNL A   1      41.917  27.919  30.337  1.00  0.00    -0.354 N 
ATOM     44  C   UNL A   1      41.815  30.690  33.644  1.00  0.00     0.074 A 
ATOM     45  C   UNL A   1      40.692  31.590  33.534  1.00  0.00     0.031 C 
ATOM     46  C   UNL A   1      41.140  26.855  28.536  1.00  0.00     0.029 A 
ATOM     47  C   UNL A   1      42.245  26.878  29.496  1.00  0.00     0.049 A 
ATOM     48  H   UNL A   1      42.478  28.188  31.101  1.00  0.00     0.167 HD
ATOM     49  C   UNL A   1      42.699  30.721  34.669  1.00  0.00     0.031 A 
ATOM     50  C   UNL A   1      43.308  26.041  29.500  1.00  0.00     0.031 A 
ATOM     51  C   UNL A   1      43.840  29.855  34.773  1.00  0.00     0.049 A 
ATOM     52  C   UNL A   1      44.344  26.164  30.598  1.00  0.00     0.074 A 
ATOM     53  C   UNL A   1      44.809  29.825  35.759  1.00  0.00     0.029 A 
ATOM     54  N   UNL A   1      44.175  28.877  33.850  1.00  0.00    -0.354 N 
ATOM     55  N   UNL A   1      44.358  26.965  31.638  1.00  0.00    -0.248 NA
ATOM     56  C   UNL A   1      45.502  25.259  30.528  1.00  0.00     0.031 C 
ATOM     57  C   UNL A   1      45.771  28.879  35.394  1.00  0.00     0.029 A 
ATOM     58  C   UNL A   1      45.356  28.260  34.225  1.00  0.00     0.049 A 
ATOM     59  H   UNL A   1      43.651  28.654  33.047  1.00  0.00     0.167 HD
ATOM     60  C   UNL A   1      45.506  26.637  32.359  1.00  0.00     0.074 A 
ATOM     61  C   UNL A   1      46.144  25.549  31.650  1.00  0.00     0.031 C 
ATOM     62  C   UNL A   1      45.988  27.184  33.505  1.00  0.00     0.031 A 
BRANCH  49  63
ATOM     63  C   UNL A   1      42.484  31.772  35.727  1.00  0.00    -0.014 A 
ATOM     64  C   UNL A   1      41.479  31.638  36.703  1.00  0.00     0.010 A 
ATOM     65  C   UNL A   1      43.304  32.914  35.742  1.00  0.00     0.010 A 
ATOM     66  C   UNL A   1      41.268  32.649  37.646  1.00  0.00     0.020 A 
ATOM     67  C   UNL A   1      43.120  33.911  36.704  1.00  0.00     0.020 A 
ATOM     68  C   UNL A   1      42.092  33.780  37.639  1.00  0.00     0.054 A 
BRANCH  68  69
ATOM     69  S   UNL A   1      41.812  35.065  38.887  1.00  0.00     0.124 S 
ATOM     70  O   UNL A   1      42.134  36.282  38.145  1.00  0.00    -0.237 OA
ATOM     71  O   UNL A   1      40.401  34.885  39.217  1.00  0.00    -0.237 OA
ATOM     72  O   UNL A   1      42.748  34.722  39.955  1.00  0.00    -0.744 OA
ENDBRANCH  68  69
ENDBRANCH  49  63
BRANCH  50  73
ATOM     73  C   UNL A   1      43.481  25.014  28.422  1.00  0.00    -0.014 A 
ATOM     74  C   UNL A   1      42.988  23.702  28.568  1.00  0.00     0.010 A 
ATOM     75  C   UNL A   1      44.197  25.333  27.253  1.00  0.00     0.010 A 
ATOM     76  C   UNL A   1      43.222  22.734  27.581  1.00  0.00     0.020 A 
ATOM     77  C   UNL A   1      44.404  24.380  26.250  1.00  0.00     0.020 A 
ATOM     78  C   UNL A   1      43.923  23.082  26.424  1.00  0.00     0.054 A 
BRANCH  78  79
ATOM     79  S   UNL A   1      44.171  21.827  25.133  1.00  0.00     0.124 S 
ATOM     80  O   UNL A   1      45.534  21.378  25.399  1.00  0.00    -0.237 OA
ATOM     81  O   UNL A   1      43.117  20.861  25.430  1.00  0.00    -0.237 OA
ATOM     82  O   UNL A   1      43.990  22.573  23.890  1.00  0.00    -0.744 OA
ENDBRANCH  78  79
ENDBRANCH  50  73
BRANCH  62  83
ATOM     83  C   UNL A   1      47.250  26.595  34.088  1.00  0.00    -0.014 A 
ATOM     84  C   UNL A   1      47.222  25.450  34.904  1.00  0.00     0.010 A 
ATOM     85  C   UNL A   1      48.494  27.179  33.779  1.00  0.00     0.010 A 
ATOM     86  C   UNL A   1      48.405  24.937  35.447  1.00  0.00     0.020 A 
ATOM     87  C   UNL A   1      49.682  26.646  34.286  1.00  0.00     0.020 A 
ATOM     88  C   UNL A   1      49.627  25.541  35.137  1.00  0.00     0.054 A 
BRANCH  88  89
ATOM     89  S   UNL A   1      51.147  24.854  35.848  1.00  0.00     0.124 S 
ATOM     90  O   UNL A   1      51.714  26.013  36.531  1.00  0.00    -0.237 OA
ATOM     91  O   UNL A   1      50.641  23.796  36.720  1.00  0.00    -0.237 OA
ATOM     92  O   UNL A   1      51.897  24.389  34.684  1.00  0.00    -0.744 OA
ENDBRANCH  88  89
ENDBRANCH  62  83
ENDBRANCH  36  37
ENDBRANCH  29  31
ENDBRANCH  28  29
ENDBRANCH  27  28
ENDBRANCH  26  27
ENDBRANCH  25  26
ENDBRANCH  24  25
ENDBRANCH   1  24
TORSDOF 26
ENDMDL
MODEL 3
REMARK VINA RESULT:      -8.4      5.583     10.263
REMARK SMILES C#CC[N@@H+](CC(=O)OCCOCCOCCOC(=O)c1ccc(-c2c3nc(c(-c4ccc(S(=O)(=O)[O-])cc4)c4ccc([nH]4)c(-c4ccc(S(=O)(=O)[O-])cc4)c4nc(c(-c5ccc(S(=O)(=O)[O-])cc5)c5ccc2[nH]5)C=C4)C=C3)cc1)Cc1ccc(C(C)C)cc1
REMARK SMILES IDX 12 1 11 2 10 3 9 4 8 5 6 6 7 7 5 8 4 9 3 11 2 12 1 13 80 14
REMARK SMILES IDX 81 15 82 16 89 17 83 18 88 19 84 20 85 21 86 22 87 23 13 24
REMARK SMILES IDX 14 25 15 26 16 27 17 28 18 29 19 30 20 31 21 32 79 33 22 34
REMARK SMILES IDX 78 35 23 36 24 37 25 38 72 39 26 40 77 41 71 42 73 43 27 44
REMARK SMILES IDX 76 45 70 46 69 47 28 49 58 50 39 51 57 52 40 53 43 54 56 55
REMARK SMILES IDX 74 56 41 57 42 58 55 60 75 61 44 62 29 63 30 64 38 65 31 66
REMARK SMILES IDX 37 67 32 68 33 69 34 70 35 71 36 72 59 73 60 74 68 75 61 76
REMARK SMILES IDX 67 77 62 78 63 79 64 80 65 81 66 82 45 83 46 84 54 85 47 86
REMARK SMILES IDX 53 87 48 88 49 89 50 90 51 91 52 92
REMARK H PARENT 4 10 73 48 43 59
REMARK Flexibility Score: inf
ROOT
ATOM      1  C   UNL A   1      32.060  26.028  26.758  1.00  0.00     0.188 C 
ENDROOT
BRANCH   1   2
ATOM      2  O   UNL A   1      32.462  24.672  26.226  1.00  0.00    -0.376 OA
BRANCH   2   3
ATOM      3  C   UNL A   1      33.378  23.813  26.889  1.00  0.00     0.202 C 
BRANCH   3   4
ATOM      4  C   UNL A   1      34.822  23.354  26.526  1.00  0.00     0.261 C 
BRANCH   4   5
ATOM      5  O   UNL A   1      35.146  22.045  26.032  1.00  0.00    -0.459 OA
BRANCH   5   6
ATOM      6  C   UNL A   1      34.386  21.556  25.012  1.00  0.00     0.361 C 
ATOM      7  O   UNL A   1      33.836  20.460  25.043  1.00  0.00    -0.245 OA
BRANCH   6   8
ATOM      8  C   UNL A   1      34.372  22.467  23.775  1.00  0.00     0.387 C 
BRANCH   8   9
ATOM      9  N   UNL A   1      33.213  23.376  23.540  1.00  0.00    -0.312 N 
ATOM     10  H   UNL A   1      32.946  23.662  24.482  1.00  0.00     0.349 HD
BRANCH   9  11
ATOM     11  C   UNL A   1      32.020  22.735  23.050  1.00  0.00     0.354 C 
BRANCH  11  12
ATOM     12  C   UNL A   1      31.991  21.363  22.396  1.00  0.00    -0.047 C 
ATOM     13  C   UNL A   1      31.967  20.186  21.834  1.00  0.00     0.010 C 
ENDBRANCH  11  12
ENDBRANCH   9  11
BRANCH   9  14
ATOM     14  C   UNL A   1      33.545  24.622  22.896  1.00  0.00     0.300 C 
BRANCH  14  15
ATOM     15  C   UNL A   1      32.443  25.640  22.860  1.00  0.00     0.006 A 
ATOM     16  C   UNL A   1      30.737  25.282  23.373  1.00  0.00     0.010 A 
ATOM     17  C   UNL A   1      32.883  27.340  22.428  1.00  0.00     0.010 A 
ATOM     18  C   UNL A   1      29.540  26.582  23.575  1.00  0.00     0.004 A 
ATOM     19  C   UNL A   1      31.657  28.655  22.622  1.00  0.00     0.004 A 
ATOM     20  C   UNL A   1      29.983  28.264  23.179  1.00  0.00    -0.045 A 
BRANCH  20  21
ATOM     21  C   UNL A   1      28.956  29.327  23.448  1.00  0.00     0.013 C 
ATOM     22  C   UNL A   1      29.697  30.614  23.760  1.00  0.00     0.012 C 
ATOM     23  C   UNL A   1      28.005  29.532  22.259  1.00  0.00     0.012 C 
ENDBRANCH  20  21
ENDBRANCH  14  15
ENDBRANCH   9  14
ENDBRANCH   8   9
ENDBRANCH   6   8
ENDBRANCH   5   6
ENDBRANCH   4   5
ENDBRANCH   3   4
ENDBRANCH   2   3
ENDBRANCH   1   2
BRANCH   1  24
ATOM     24  C   UNL A   1      33.190  27.908  26.837  1.00  0.00     0.188 C 
BRANCH  24  25
ATOM     25  O   UNL A   1      32.729  29.383  26.594  1.00  0.00    -0.376 OA
BRANCH  25  26
ATOM     26  C   UNL A   1      33.768  30.354  26.727  1.00  0.00     0.202 C 
BRANCH  26  27
ATOM     27  C   UNL A   1      34.692  30.383  27.975  1.00  0.00     0.261 C 
BRANCH  27  28
ATOM     28  O   UNL A   1      36.092  30.091  27.803  1.00  0.00    -0.460 OA
BRANCH  28  29
ATOM     29  C   UNL A   1      36.719  29.559  28.885  1.00  0.00     0.338 C 
ATOM     30  O   UNL A   1      36.199  29.347  29.970  1.00  0.00    -0.246 OA
BRANCH  29  31
ATOM     31  C   UNL A   1      38.115  29.129  28.551  1.00  0.00     0.060 A 
ATOM     32  C   UNL A   1      38.885  28.581  29.587  1.00  0.00     0.016 A 
ATOM     33  C   UNL A   1      38.679  29.230  27.270  1.00  0.00     0.016 A 
ATOM     34  C   UNL A   1      40.214  28.195  29.371  1.00  0.00     0.010 A 
ATOM     35  C   UNL A   1      40.020  28.847  27.052  1.00  0.00     0.010 A 
ATOM     36  C   UNL A   1      40.814  28.377  28.116  1.00  0.00    -0.014 A 
BRANCH  36  37
ATOM     37  C   UNL A   1      42.309  28.426  28.065  1.00  0.00     0.031 A 
ATOM     38  C   UNL A   1      43.001  27.206  27.498  1.00  0.00     0.074 A 
ATOM     39  C   UNL A   1      43.039  29.522  28.359  1.00  0.00     0.049 A 
ATOM     40  N   UNL A   1      44.262  27.017  27.202  1.00  0.00    -0.248 NA
ATOM     41  C   UNL A   1      42.140  26.044  27.210  1.00  0.00     0.031 C 
ATOM     42  C   UNL A   1      42.513  30.792  28.855  1.00  0.00     0.029 A 
ATOM     43  N   UNL A   1      44.396  29.746  28.254  1.00  0.00    -0.354 N 
ATOM     44  C   UNL A   1      44.335  25.728  26.682  1.00  0.00     0.074 A 
ATOM     45  C   UNL A   1      43.008  25.163  26.747  1.00  0.00     0.031 C 
ATOM     46  C   UNL A   1      43.531  31.665  28.996  1.00  0.00     0.029 A 
ATOM     47  C   UNL A   1      44.788  31.015  28.620  1.00  0.00     0.049 A 
ATOM     48  H   UNL A   1      45.030  29.058  27.946  1.00  0.00     0.167 HD
ATOM     49  C   UNL A   1      45.403  25.068  26.175  1.00  0.00     0.031 A 
ATOM     50  C   UNL A   1      46.014  31.588  28.647  1.00  0.00     0.031 A 
ATOM     51  C   UNL A   1      46.735  25.603  26.136  1.00  0.00     0.049 A 
ATOM     52  C   UNL A   1      47.214  30.791  28.175  1.00  0.00     0.074 A 
ATOM     53  C   UNL A   1      47.889  25.003  25.665  1.00  0.00     0.029 A 
ATOM     54  N   UNL A   1      47.094  26.859  26.599  1.00  0.00    -0.354 N 
ATOM     55  N   UNL A   1      47.257  29.582  27.667  1.00  0.00    -0.248 NA
ATOM     56  C   UNL A   1      48.528  31.447  28.269  1.00  0.00     0.031 C 
ATOM     57  C   UNL A   1      48.959  25.867  25.913  1.00  0.00     0.029 A 
ATOM     58  C   UNL A   1      48.459  27.040  26.458  1.00  0.00     0.049 A 
ATOM     59  H   UNL A   1      46.472  27.524  26.973  1.00  0.00     0.167 HD
ATOM     60  C   UNL A   1      48.596  29.346  27.353  1.00  0.00     0.074 A 
ATOM     61  C   UNL A   1      49.322  30.548  27.704  1.00  0.00     0.031 C 
ATOM     62  C   UNL A   1      49.173  28.239  26.821  1.00  0.00     0.031 A 
BRANCH  49  63
ATOM     63  C   UNL A   1      45.168  23.666  25.676  1.00  0.00    -0.014 A 
ATOM     64  C   UNL A   1      44.425  22.733  26.424  1.00  0.00     0.010 A 
ATOM     65  C   UNL A   1      45.702  23.276  24.435  1.00  0.00     0.010 A 
ATOM     66  C   UNL A   1      44.261  21.424  25.962  1.00  0.00     0.020 A 
ATOM     67  C   UNL A   1      45.510  21.979  23.952  1.00  0.00     0.020 A 
ATOM     68  C   UNL A   1      44.805  21.056  24.726  1.00  0.00     0.054 A 
BRANCH  68  69
ATOM     69  S   UNL A   1      44.558  19.358  24.139  1.00  0.00     0.124 S 
ATOM     70  O   UNL A   1      45.770  18.695  24.613  1.00  0.00    -0.237 OA
ATOM     71  O   UNL A   1      43.323  18.966  24.814  1.00  0.00    -0.237 OA
ATOM     72  O   UNL A   1      44.454  19.504  22.690  1.00  0.00    -0.744 OA
ENDBRANCH  68  69
ENDBRANCH  49  63
BRANCH  50  73
ATOM     73  C   UNL A   1      46.199  32.985  29.157  1.00  0.00    -0.014 A 
ATOM     74  C   UNL A   1      46.379  33.251  30.528  1.00  0.00     0.010 A 
ATOM     75  C   UNL A   1      46.139  34.073  28.266  1.00  0.00     0.010 A 
ATOM     76  C   UNL A   1      46.478  34.570  30.996  1.00  0.00     0.020 A 
ATOM     77  C   UNL A   1      46.271  35.389  28.724  1.00  0.00     0.020 A 
ATOM     78  C   UNL A   1      46.430  35.630  30.089  1.00  0.00     0.054 A 
BRANCH  78  79
ATOM     79  S   UNL A   1      46.611  37.329  30.708  1.00  0.00     0.124 S 
ATOM     80  O   UNL A   1      45.629  38.055  29.909  1.00  0.00    -0.237 OA
ATOM     81  O   UNL A   1      46.290  37.180  32.125  1.00  0.00    -0.237 OA
ATOM     82  O   UNL A   1      48.008  37.650  30.424  1.00  0.00    -0.744 OA
ENDBRANCH  78  79
ENDBRANCH  50  73
BRANCH  62  83
ATOM     83  C   UNL A   1      50.658  28.280  26.550  1.00  0.00    -0.014 A 
ATOM     84  C   UNL A   1      51.168  28.612  25.283  1.00  0.00     0.010 A 
ATOM     85  C   UNL A   1      51.561  28.019  27.599  1.00  0.00     0.010 A 
ATOM     86  C   UNL A   1      52.548  28.624  25.055  1.00  0.00     0.020 A 
ATOM     87  C   UNL A   1      52.941  28.070  27.387  1.00  0.00     0.020 A 
ATOM     88  C   UNL A   1      53.425  28.349  26.108  1.00  0.00     0.054 A 
BRANCH  88  89
ATOM     89  S   UNL A   1      55.210  28.377  25.789  1.00  0.00     0.124 S 
ATOM     90  O   UNL A   1      55.363  27.292  24.823  1.00  0.00    -0.237 OA
ATOM     91  O   UNL A   1      55.419  29.723  25.260  1.00  0.00    -0.237 OA
ATOM     92  O   UNL A   1      55.803  28.130  27.101  1.00  0.00    -0.744 OA
ENDBRANCH  88  89
ENDBRANCH  62  83
ENDBRANCH  36  37
ENDBRANCH  29  31
ENDBRANCH  28  29
ENDBRANCH  27  28
ENDBRANCH  26  27
ENDBRANCH  25  26
ENDBRANCH  24  25
ENDBRANCH   1  24
TORSDOF 26
ENDMDL
