MODEL 1
REMARK VINA RESULT:     -10.7      0.000      0.000
REMARK SMILES Cc1cc2[nH]c(=O)[nH]c2cc1S(=O)(=O)NCCC(=O)OCCOCCOCCOC(=O)c1ccc(-c2c3nc(c(-c4ccc(S(=O)(=O)[O-])cc4)c4ccc([nH]4)c(-c4ccc(S(=O)(=O)[O-])cc4)c4nc(c(-c5ccc(S(=O)(=O)[O-])cc5)c5ccc2[nH]5)C=C4)C=C3)cc1
REMARK SMILES IDX 24 1 23 2 22 3 21 4 20 5 18 6 19 7 17 8 16 9 15 10 12 12
REMARK SMILES IDX 13 13 14 14 11 15 1 16 2 17 3 18 4 19 10 20 5 21 9 22 6 23
REMARK SMILES IDX 8 25 7 26 25 28 26 29 27 30 28 31 29 32 30 33 31 34 32 35
REMARK SMILES IDX 33 36 91 37 34 38 90 39 35 40 36 41 37 42 84 43 38 44 89 45
REMARK SMILES IDX 83 46 85 47 39 48 88 49 82 50 81 51 40 53 70 54 51 55 69 56
REMARK SMILES IDX 52 57 55 58 68 59 86 60 53 61 54 62 67 64 87 65 56 66 41 67
REMARK SMILES IDX 42 68 50 69 43 70 49 71 44 72 45 73 46 74 47 75 48 76 71 77
REMARK SMILES IDX 72 78 80 79 73 80 79 81 74 82 75 83 76 84 77 85 78 86 57 87
REMARK SMILES IDX 58 88 66 89 59 90 65 91 60 92 61 93 62 94 63 95 64 96
REMARK H PARENT 15 11 5 24 8 27 85 52 55 63
REMARK Flexibility Score: inf
ROOT
ATOM      1  C   UNL A   1      31.115  28.358  24.561  1.00  0.00     0.188 C 
ENDROOT
BRANCH   1   2
ATOM      2  O   UNL A   1      30.995  27.225  25.405  1.00  0.00    -0.376 OA
BRANCH   2   3
ATOM      3  C   UNL A   1      30.810  25.955  24.790  1.00  0.00     0.202 C 
BRANCH   3   4
ATOM      4  C   UNL A   1      30.969  25.891  23.268  1.00  0.00     0.261 C 
BRANCH   4   5
ATOM      5  O   UNL A   1      32.027  24.993  22.856  1.00  0.00    -0.463 OA
BRANCH   5   6
ATOM      6  C   UNL A   1      33.258  25.551  22.762  1.00  0.00     0.307 C 
ATOM      7  O   UNL A   1      33.668  26.155  21.779  1.00  0.00    -0.252 OA
BRANCH   6   8
ATOM      8  C   UNL A   1      34.136  25.364  23.972  1.00  0.00     0.139 C 
BRANCH   8   9
ATOM      9  C   UNL A   1      34.337  23.993  24.571  1.00  0.00     0.110 C 
BRANCH   9  10
ATOM     10  N   UNL A   1      33.417  22.925  24.214  1.00  0.00    -0.211 NA
ATOM     11  H   UNL A   1      32.695  23.357  23.636  1.00  0.00     0.141 HD
BRANCH  10  12
ATOM     12  S   UNL A   1      32.611  22.008  25.346  1.00  0.00     0.240 S 
ATOM     13  O   UNL A   1      31.252  22.492  25.377  1.00  0.00    -0.207 OA
ATOM     14  O   UNL A   1      33.433  22.014  26.539  1.00  0.00    -0.207 OA
BRANCH  12  15
ATOM     15  C   UNL A   1      32.581  20.316  24.746  1.00  0.00     0.087 A 
ATOM     16  C   UNL A   1      31.975  20.934  22.308  1.00  0.00     0.046 C 
ATOM     17  C   UNL A   1      32.322  19.948  23.388  1.00  0.00    -0.029 A 
ATOM     18  C   UNL A   1      32.371  18.579  23.022  1.00  0.00     0.033 A 
ATOM     19  C   UNL A   1      32.729  17.664  23.985  1.00  0.00     0.067 A 
ATOM     20  C   UNL A   1      32.899  19.343  25.716  1.00  0.00     0.050 A 
ATOM     21  N   UNL A   1      32.953  16.296  23.882  1.00  0.00    -0.306 N 
ATOM     22  C   UNL A   1      32.984  18.040  25.297  1.00  0.00     0.068 A 
ATOM     23  C   UNL A   1      33.391  15.817  25.128  1.00  0.00     0.323 A 
ATOM     24  H   UNL A   1      32.829  15.754  23.070  1.00  0.00     0.171 HD
ATOM     25  N   UNL A   1      33.369  16.909  26.005  1.00  0.00    -0.306 N 
ATOM     26  O   UNL A   1      33.771  14.691  25.382  1.00  0.00    -0.248 OA
ATOM     27  H   UNL A   1      33.590  16.880  26.964  1.00  0.00     0.171 HD
ENDBRANCH  12  15
ENDBRANCH  10  12
ENDBRANCH   9  10
ENDBRANCH   8   9
ENDBRANCH   6   8
ENDBRANCH   5   6
ENDBRANCH   4   5
ENDBRANCH   3   4
ENDBRANCH   2   3
ENDBRANCH   1   2
BRANCH   1  28
ATOM     28  C   UNL A   1      31.912  29.565  25.094  1.00  0.00     0.188 C 
BRANCH  28  29
ATOM     29  O   UNL A   1      33.275  29.453  25.480  1.00  0.00    -0.376 OA
BRANCH  29  30
ATOM     30  C   UNL A   1      33.587  29.614  26.852  1.00  0.00     0.202 C 
BRANCH  30  31
ATOM     31  C   UNL A   1      33.550  31.056  27.370  1.00  0.00     0.261 C 
BRANCH  31  32
ATOM     32  O   UNL A   1      34.869  31.552  27.645  1.00  0.00    -0.460 OA
BRANCH  32  33
ATOM     33  C   UNL A   1      35.169  31.770  28.951  1.00  0.00     0.338 C 
ATOM     34  O   UNL A   1      34.443  32.265  29.795  1.00  0.00    -0.246 OA
BRANCH  33  35
ATOM     35  C   UNL A   1      36.433  31.057  29.260  1.00  0.00     0.060 A 
ATOM     36  C   UNL A   1      37.646  31.734  29.368  1.00  0.00     0.016 A 
ATOM     37  C   UNL A   1      36.411  29.652  29.281  1.00  0.00     0.016 A 
ATOM     38  C   UNL A   1      38.828  30.999  29.444  1.00  0.00     0.010 A 
ATOM     39  C   UNL A   1      37.601  28.917  29.379  1.00  0.00     0.010 A 
ATOM     40  C   UNL A   1      38.822  29.585  29.452  1.00  0.00    -0.014 A 
BRANCH  40  41
ATOM     41  C   UNL A   1      40.115  28.931  29.722  1.00  0.00     0.031 A 
ATOM     42  C   UNL A   1      40.568  29.084  31.121  1.00  0.00     0.074 A 
ATOM     43  C   UNL A   1      40.899  28.138  28.960  1.00  0.00     0.049 A 
ATOM     44  N   UNL A   1      41.531  29.818  31.563  1.00  0.00    -0.248 NA
ATOM     45  C   UNL A   1      39.789  28.388  32.154  1.00  0.00     0.031 C 
ATOM     46  C   UNL A   1      40.524  27.422  27.751  1.00  0.00     0.029 A 
ATOM     47  N   UNL A   1      42.213  27.769  29.146  1.00  0.00    -0.354 N 
ATOM     48  C   UNL A   1      41.616  29.527  32.916  1.00  0.00     0.074 A 
ATOM     49  C   UNL A   1      40.440  28.761  33.255  1.00  0.00     0.031 C 
ATOM     50  C   UNL A   1      41.546  26.646  27.336  1.00  0.00     0.029 A 
ATOM     51  C   UNL A   1      42.680  26.844  28.220  1.00  0.00     0.049 A 
ATOM     52  H   UNL A   1      42.772  28.130  29.871  1.00  0.00     0.167 HD
ATOM     53  C   UNL A   1      42.760  29.732  33.617  1.00  0.00     0.031 A 
ATOM     54  C   UNL A   1      43.889  26.234  28.161  1.00  0.00     0.031 A 
ATOM     55  C   UNL A   1      43.718  30.537  32.911  1.00  0.00     0.049 A 
ATOM     56  C   UNL A   1      44.903  27.060  28.858  1.00  0.00     0.074 A 
ATOM     57  C   UNL A   1      43.954  31.879  32.722  1.00  0.00     0.029 A 
ATOM     58  N   UNL A   1      44.484  29.856  32.004  1.00  0.00    -0.354 N 
ATOM     59  N   UNL A   1      45.266  28.251  28.462  1.00  0.00    -0.248 NA
ATOM     60  C   UNL A   1      45.403  26.657  30.170  1.00  0.00     0.031 C 
ATOM     61  C   UNL A   1      44.797  31.989  31.577  1.00  0.00     0.029 A 
ATOM     62  C   UNL A   1      45.062  30.710  31.095  1.00  0.00     0.049 A 
ATOM     63  H   UNL A   1      44.606  28.880  32.004  1.00  0.00     0.167 HD
ATOM     64  C   UNL A   1      45.711  28.875  29.607  1.00  0.00     0.074 A 
ATOM     65  C   UNL A   1      45.914  27.818  30.585  1.00  0.00     0.031 C 
ATOM     66  C   UNL A   1      45.524  30.208  29.813  1.00  0.00     0.031 A 
BRANCH  53  67
ATOM     67  C   UNL A   1      43.156  28.892  34.797  1.00  0.00    -0.014 A 
ATOM     68  C   UNL A   1      43.290  27.489  34.713  1.00  0.00     0.010 A 
ATOM     69  C   UNL A   1      43.636  29.517  35.961  1.00  0.00     0.010 A 
ATOM     70  C   UNL A   1      43.812  26.734  35.762  1.00  0.00     0.020 A 
ATOM     71  C   UNL A   1      44.202  28.771  37.005  1.00  0.00     0.020 A 
ATOM     72  C   UNL A   1      44.268  27.382  36.905  1.00  0.00     0.054 A 
BRANCH  72  73
ATOM     73  S   UNL A   1      45.015  26.377  38.211  1.00  0.00     0.124 S 
ATOM     74  O   UNL A   1      44.411  25.071  37.963  1.00  0.00    -0.237 OA
ATOM     75  O   UNL A   1      46.440  26.479  37.910  1.00  0.00    -0.237 OA
ATOM     76  O   UNL A   1      44.588  27.040  39.440  1.00  0.00    -0.744 OA
ENDBRANCH  72  73
ENDBRANCH  53  67
BRANCH  54  77
ATOM     77  C   UNL A   1      44.170  24.846  27.703  1.00  0.00    -0.014 A 
ATOM     78  C   UNL A   1      45.330  24.580  26.944  1.00  0.00     0.010 A 
ATOM     79  C   UNL A   1      43.183  23.844  27.758  1.00  0.00     0.010 A 
ATOM     80  C   UNL A   1      45.462  23.408  26.195  1.00  0.00     0.020 A 
ATOM     81  C   UNL A   1      43.302  22.669  26.998  1.00  0.00     0.020 A 
ATOM     82  C   UNL A   1      44.421  22.485  26.183  1.00  0.00     0.054 A 
BRANCH  82  83
ATOM     83  S   UNL A   1      44.494  21.127  24.978  1.00  0.00     0.124 S 
ATOM     84  O   UNL A   1      43.226  20.445  25.225  1.00  0.00    -0.237 OA
ATOM     85  O   UNL A   1      44.585  21.831  23.702  1.00  0.00    -0.237 OA
ATOM     86  O   UNL A   1      45.690  20.385  25.367  1.00  0.00    -0.744 OA
ENDBRANCH  82  83
ENDBRANCH  54  77
BRANCH  66  87
ATOM     87  C   UNL A   1      45.590  31.157  28.649  1.00  0.00    -0.014 A 
ATOM     88  C   UNL A   1      46.710  32.007  28.591  1.00  0.00     0.010 A 
ATOM     89  C   UNL A   1      44.579  31.317  27.686  1.00  0.00     0.010 A 
ATOM     90  C   UNL A   1      46.804  33.020  27.636  1.00  0.00     0.020 A 
ATOM     91  C   UNL A   1      44.675  32.324  26.708  1.00  0.00     0.020 A 
ATOM     92  C   UNL A   1      45.775  33.186  26.707  1.00  0.00     0.054 A 
BRANCH  92  93
ATOM     93  S   UNL A   1      45.915  34.552  25.519  1.00  0.00     0.124 S 
ATOM     94  O   UNL A   1      45.367  35.677  26.274  1.00  0.00    -0.237 OA
ATOM     95  O   UNL A   1      47.354  34.618  25.271  1.00  0.00    -0.237 OA
ATOM     96  O   UNL A   1      45.116  34.120  24.375  1.00  0.00    -0.744 OA
ENDBRANCH  92  93
ENDBRANCH  66  87
ENDBRANCH  40  41
ENDBRANCH  33  35
ENDBRANCH  32  33
ENDBRANCH  31  32
ENDBRANCH  30  31
ENDBRANCH  29  30
ENDBRANCH  28  29
ENDBRANCH   1  28
TORSDOF 24
ENDMDL
MODEL 2
REMARK VINA RESULT:     -10.3      4.127      6.086
REMARK SMILES Cc1cc2[nH]c(=O)[nH]c2cc1S(=O)(=O)NCCC(=O)OCCOCCOCCOC(=O)c1ccc(-c2c3nc(c(-c4ccc(S(=O)(=O)[O-])cc4)c4ccc([nH]4)c(-c4ccc(S(=O)(=O)[O-])cc4)c4nc(c(-c5ccc(S(=O)(=O)[O-])cc5)c5ccc2[nH]5)C=C4)C=C3)cc1
REMARK SMILES IDX 24 1 23 2 22 3 21 4 20 5 18 6 19 7 17 8 16 9 15 10 12 12
REMARK SMILES IDX 13 13 14 14 11 15 1 16 2 17 3 18 4 19 10 20 5 21 9 22 6 23
REMARK SMILES IDX 8 25 7 26 25 28 26 29 27 30 28 31 29 32 30 33 31 34 32 35
REMARK SMILES IDX 33 36 91 37 34 38 90 39 35 40 36 41 37 42 84 43 38 44 89 45
REMARK SMILES IDX 83 46 85 47 39 48 88 49 82 50 81 51 40 53 70 54 51 55 69 56
REMARK SMILES IDX 52 57 55 58 68 59 86 60 53 61 54 62 67 64 87 65 56 66 41 67
REMARK SMILES IDX 42 68 50 69 43 70 49 71 44 72 45 73 46 74 47 75 48 76 71 77
REMARK SMILES IDX 72 78 80 79 73 80 79 81 74 82 75 83 76 84 77 85 78 86 57 87
REMARK SMILES IDX 58 88 66 89 59 90 65 91 60 92 61 93 62 94 63 95 64 96
REMARK H PARENT 15 11 5 24 8 27 85 52 55 63
REMARK Flexibility Score: inf
ROOT
ATOM      1  C   UNL A   1      33.680  36.356  29.537  1.00  0.00     0.188 C 
ENDROOT
BRANCH   1   2
ATOM      2  O   UNL A   1      33.836  35.794  28.245  1.00  0.00    -0.376 OA
BRANCH   2   3
ATOM      3  C   UNL A   1      34.053  34.391  28.152  1.00  0.00     0.202 C 
BRANCH   3   4
ATOM      4  C   UNL A   1      35.482  33.892  28.385  1.00  0.00     0.261 C 
BRANCH   4   5
ATOM      5  O   UNL A   1      35.714  32.582  27.815  1.00  0.00    -0.463 OA
BRANCH   5   6
ATOM      6  C   UNL A   1      35.819  31.570  28.711  1.00  0.00     0.307 C 
ATOM      7  O   UNL A   1      35.332  31.591  29.834  1.00  0.00    -0.252 OA
BRANCH   6   8
ATOM      8  C   UNL A   1      36.612  30.380  28.238  1.00  0.00     0.139 C 
BRANCH   8   9
ATOM      9  C   UNL A   1      35.971  29.323  27.371  1.00  0.00     0.110 C 
BRANCH   9  10
ATOM     10  N   UNL A   1      34.869  29.700  26.500  1.00  0.00    -0.211 NA
ATOM     11  H   UNL A   1      34.964  30.704  26.343  1.00  0.00     0.141 HD
BRANCH  10  12
ATOM     12  S   UNL A   1      33.272  29.446  26.897  1.00  0.00     0.240 S 
ATOM     13  O   UNL A   1      32.787  30.682  27.463  1.00  0.00    -0.207 OA
ATOM     14  O   UNL A   1      33.230  28.211  27.654  1.00  0.00    -0.207 OA
BRANCH  12  15
ATOM     15  C   UNL A   1      32.377  29.149  25.370  1.00  0.00     0.087 A 
ATOM     16  C   UNL A   1      33.675  27.001  24.742  1.00  0.00     0.046 C 
ATOM     17  C   UNL A   1      32.605  28.031  24.507  1.00  0.00    -0.029 A 
ATOM     18  C   UNL A   1      31.802  27.876  23.350  1.00  0.00     0.033 A 
ATOM     19  C   UNL A   1      30.789  28.783  23.138  1.00  0.00     0.067 A 
ATOM     20  C   UNL A   1      31.358  30.084  25.094  1.00  0.00     0.050 A 
ATOM     21  N   UNL A   1      29.802  28.812  22.161  1.00  0.00    -0.306 N 
ATOM     22  C   UNL A   1      30.577  29.858  23.990  1.00  0.00     0.068 A 
ATOM     23  C   UNL A   1      28.941  29.890  22.423  1.00  0.00     0.323 A 
ATOM     24  H   UNL A   1      29.719  28.180  21.410  1.00  0.00     0.171 HD
ATOM     25  N   UNL A   1      29.459  30.550  23.544  1.00  0.00    -0.306 N 
ATOM     26  O   UNL A   1      27.913  30.161  21.832  1.00  0.00    -0.248 OA
ATOM     27  H   UNL A   1      29.092  31.369  23.949  1.00  0.00     0.171 HD
ENDBRANCH  12  15
ENDBRANCH  10  12
ENDBRANCH   9  10
ENDBRANCH   8   9
ENDBRANCH   6   8
ENDBRANCH   5   6
ENDBRANCH   4   5
ENDBRANCH   3   4
ENDBRANCH   2   3
ENDBRANCH   1   2
BRANCH   1  28
ATOM     28  C   UNL A   1      32.575  35.773  30.441  1.00  0.00     0.188 C 
BRANCH  28  29
ATOM     29  O   UNL A   1      32.878  35.073  31.640  1.00  0.00    -0.376 OA
BRANCH  29  30
ATOM     30  C   UNL A   1      34.191  34.563  31.791  1.00  0.00     0.202 C 
BRANCH  30  31
ATOM     31  C   UNL A   1      34.347  33.445  32.828  1.00  0.00     0.261 C 
BRANCH  31  32
ATOM     32  O   UNL A   1      35.403  32.540  32.473  1.00  0.00    -0.460 OA
BRANCH  32  33
ATOM     33  C   UNL A   1      36.384  32.370  33.397  1.00  0.00     0.338 C 
ATOM     34  O   UNL A   1      36.352  32.705  34.568  1.00  0.00    -0.246 OA
BRANCH  33  35
ATOM     35  C   UNL A   1      37.406  31.459  32.823  1.00  0.00     0.060 A 
ATOM     36  C   UNL A   1      37.229  30.077  32.815  1.00  0.00     0.016 A 
ATOM     37  C   UNL A   1      38.638  32.010  32.432  1.00  0.00     0.016 A 
ATOM     38  C   UNL A   1      38.303  29.259  32.465  1.00  0.00     0.010 A 
ATOM     39  C   UNL A   1      39.708  31.184  32.061  1.00  0.00     0.010 A 
ATOM     40  C   UNL A   1      39.552  29.799  32.084  1.00  0.00    -0.014 A 
BRANCH  40  41
ATOM     41  C   UNL A   1      40.543  28.840  31.562  1.00  0.00     0.031 A 
ATOM     42  C   UNL A   1      41.648  28.568  32.507  1.00  0.00     0.074 A 
ATOM     43  C   UNL A   1      40.567  28.093  30.437  1.00  0.00     0.049 A 
ATOM     44  N   UNL A   1      42.873  28.959  32.420  1.00  0.00    -0.248 NA
ATOM     45  C   UNL A   1      41.311  27.838  33.736  1.00  0.00     0.031 C 
ATOM     46  C   UNL A   1      39.449  27.770  29.566  1.00  0.00     0.029 A 
ATOM     47  N   UNL A   1      41.620  27.419  29.857  1.00  0.00    -0.354 N 
ATOM     48  C   UNL A   1      43.522  28.355  33.486  1.00  0.00     0.074 A 
ATOM     49  C   UNL A   1      42.497  27.801  34.340  1.00  0.00     0.031 C 
ATOM     50  C   UNL A   1      39.844  26.909  28.605  1.00  0.00     0.029 A 
ATOM     51  C   UNL A   1      41.266  26.653  28.754  1.00  0.00     0.049 A 
ATOM     52  H   UNL A   1      42.542  27.477  30.195  1.00  0.00     0.167 HD
ATOM     53  C   UNL A   1      44.862  28.145  33.477  1.00  0.00     0.031 A 
ATOM     54  C   UNL A   1      42.038  25.829  28.006  1.00  0.00     0.031 A 
ATOM     55  C   UNL A   1      45.540  28.866  32.435  1.00  0.00     0.049 A 
ATOM     56  C   UNL A   1      43.459  26.237  28.113  1.00  0.00     0.074 A 
ATOM     57  C   UNL A   1      46.044  30.134  32.259  1.00  0.00     0.029 A 
ATOM     58  N   UNL A   1      45.512  28.263  31.207  1.00  0.00    -0.354 N 
ATOM     59  N   UNL A   1      43.919  27.381  27.682  1.00  0.00    -0.248 NA
ATOM     60  C   UNL A   1      44.391  25.448  28.914  1.00  0.00     0.031 C 
ATOM     61  C   UNL A   1      46.201  30.319  30.854  1.00  0.00     0.029 A 
ATOM     62  C   UNL A   1      45.794  29.158  30.203  1.00  0.00     0.049 A 
ATOM     63  H   UNL A   1      45.317  27.310  31.062  1.00  0.00     0.167 HD
ATOM     64  C   UNL A   1      45.036  27.617  28.456  1.00  0.00     0.074 A 
ATOM     65  C   UNL A   1      45.364  26.346  29.081  1.00  0.00     0.031 C 
ATOM     66  C   UNL A   1      45.387  28.876  28.837  1.00  0.00     0.031 A 
BRANCH  53  67
ATOM     67  C   UNL A   1      45.513  26.993  34.187  1.00  0.00    -0.014 A 
ATOM     68  C   UNL A   1      45.284  25.650  33.813  1.00  0.00     0.010 A 
ATOM     69  C   UNL A   1      46.558  27.240  35.094  1.00  0.00     0.010 A 
ATOM     70  C   UNL A   1      46.011  24.597  34.366  1.00  0.00     0.020 A 
ATOM     71  C   UNL A   1      47.323  26.191  35.624  1.00  0.00     0.020 A 
ATOM     72  C   UNL A   1      47.031  24.875  35.269  1.00  0.00     0.054 A 
BRANCH  72  73
ATOM     73  S   UNL A   1      48.007  23.489  35.902  1.00  0.00     0.124 S 
ATOM     74  O   UNL A   1      49.110  23.442  34.947  1.00  0.00    -0.237 OA
ATOM     75  O   UNL A   1      48.356  23.938  37.247  1.00  0.00    -0.237 OA
ATOM     76  O   UNL A   1      47.080  22.362  35.843  1.00  0.00    -0.744 OA
ENDBRANCH  72  73
ENDBRANCH  53  67
BRANCH  54  77
ATOM     77  C   UNL A   1      41.622  24.555  27.357  1.00  0.00    -0.014 A 
ATOM     78  C   UNL A   1      40.700  23.707  28.007  1.00  0.00     0.010 A 
ATOM     79  C   UNL A   1      42.324  24.033  26.255  1.00  0.00     0.010 A 
ATOM     80  C   UNL A   1      40.550  22.368  27.636  1.00  0.00     0.020 A 
ATOM     81  C   UNL A   1      42.189  22.685  25.884  1.00  0.00     0.020 A 
ATOM     82  C   UNL A   1      41.339  21.851  26.613  1.00  0.00     0.054 A 
BRANCH  82  83
ATOM     83  S   UNL A   1      41.337  20.052  26.356  1.00  0.00     0.124 S 
ATOM     84  O   UNL A   1      42.392  19.896  25.358  1.00  0.00    -0.237 OA
ATOM     85  O   UNL A   1      41.655  19.535  27.684  1.00  0.00    -0.237 OA
ATOM     86  O   UNL A   1      39.984  19.772  25.885  1.00  0.00    -0.744 OA
ENDBRANCH  82  83
ENDBRANCH  54  77
BRANCH  66  87
ATOM     87  C   UNL A   1      45.154  30.029  27.902  1.00  0.00    -0.014 A 
ATOM     88  C   UNL A   1      46.275  30.504  27.195  1.00  0.00     0.010 A 
ATOM     89  C   UNL A   1      43.936  30.715  27.762  1.00  0.00     0.010 A 
ATOM     90  C   UNL A   1      46.203  31.655  26.409  1.00  0.00     0.020 A 
ATOM     91  C   UNL A   1      43.851  31.866  26.957  1.00  0.00     0.020 A 
ATOM     92  C   UNL A   1      44.993  32.343  26.307  1.00  0.00     0.054 A 
BRANCH  92  93
ATOM     93  S   UNL A   1      44.961  33.866  25.319  1.00  0.00     0.124 S 
ATOM     94  O   UNL A   1      44.078  34.727  26.103  1.00  0.00    -0.237 OA
ATOM     95  O   UNL A   1      46.366  34.271  25.306  1.00  0.00    -0.237 OA
ATOM     96  O   UNL A   1      44.433  33.446  24.023  1.00  0.00    -0.744 OA
ENDBRANCH  92  93
ENDBRANCH  66  87
ENDBRANCH  40  41
ENDBRANCH  33  35
ENDBRANCH  32  33
ENDBRANCH  31  32
ENDBRANCH  30  31
ENDBRANCH  29  30
ENDBRANCH  28  29
ENDBRANCH   1  28
TORSDOF 24
ENDMDL
MODEL 3
REMARK VINA RESULT:     -10.1      2.009      2.514
REMARK SMILES Cc1cc2[nH]c(=O)[nH]c2cc1S(=O)(=O)NCCC(=O)OCCOCCOCCOC(=O)c1ccc(-c2c3nc(c(-c4ccc(S(=O)(=O)[O-])cc4)c4ccc([nH]4)c(-c4ccc(S(=O)(=O)[O-])cc4)c4nc(c(-c5ccc(S(=O)(=O)[O-])cc5)c5ccc2[nH]5)C=C4)C=C3)cc1
REMARK SMILES IDX 24 1 23 2 22 3 21 4 20 5 18 6 19 7 17 8 16 9 15 10 12 12
REMARK SMILES IDX 13 13 14 14 11 15 1 16 2 17 3 18 4 19 10 20 5 21 9 22 6 23
REMARK SMILES IDX 8 25 7 26 25 28 26 29 27 30 28 31 29 32 30 33 31 34 32 35
REMARK SMILES IDX 33 36 91 37 34 38 90 39 35 40 36 41 37 42 84 43 38 44 89 45
REMARK SMILES IDX 83 46 85 47 39 48 88 49 82 50 81 51 40 53 70 54 51 55 69 56
REMARK SMILES IDX 52 57 55 58 68 59 86 60 53 61 54 62 67 64 87 65 56 66 41 67
REMARK SMILES IDX 42 68 50 69 43 70 49 71 44 72 45 73 46 74 47 75 48 76 71 77
REMARK SMILES IDX 72 78 80 79 73 80 79 81 74 82 75 83 76 84 77 85 78 86 57 87
REMARK SMILES IDX 58 88 66 89 59 90 65 91 60 92 61 93 62 94 63 95 64 96
REMARK H PARENT 15 11 5 24 8 27 85 52 55 63
REMARK Flexibility Score: inf
ROOT
ATOM      1  C   UNL A   1      30.575  28.060  23.736  1.00  0.00     0.188 C 
ENDROOT
BRANCH   1   2
ATOM      2  O   UNL A   1      30.221  26.719  24.027  1.00  0.00    -0.376 OA
BRANCH   2   3
ATOM      3  C   UNL A   1      30.751  25.696  23.192  1.00  0.00     0.202 C 
BRANCH   3   4
ATOM      4  C   UNL A   1      32.021  26.033  22.404  1.00  0.00     0.261 C 
BRANCH   4   5
ATOM      5  O   UNL A   1      33.208  25.439  22.981  1.00  0.00    -0.463 OA
BRANCH   5   6
ATOM      6  C   UNL A   1      33.802  26.162  23.961  1.00  0.00     0.307 C 
ATOM      7  O   UNL A   1      33.979  27.372  23.912  1.00  0.00    -0.252 OA
BRANCH   6   8
ATOM      8  C   UNL A   1      34.266  25.364  25.151  1.00  0.00     0.139 C 
BRANCH   8   9
ATOM      9  C   UNL A   1      34.510  23.879  25.032  1.00  0.00     0.110 C 
BRANCH   9  10
ATOM     10  N   UNL A   1      33.467  23.036  24.471  1.00  0.00    -0.211 NA
ATOM     11  H   UNL A   1      32.867  23.655  23.924  1.00  0.00     0.141 HD
BRANCH  10  12
ATOM     12  S   UNL A   1      32.443  22.116  25.408  1.00  0.00     0.240 S 
ATOM     13  O   UNL A   1      31.114  22.636  25.199  1.00  0.00    -0.207 OA
ATOM     14  O   UNL A   1      33.029  22.073  26.733  1.00  0.00    -0.207 OA
BRANCH  12  15
ATOM     15  C   UNL A   1      32.487  20.439  24.768  1.00  0.00     0.087 A 
ATOM     16  C   UNL A   1      32.007  21.103  22.315  1.00  0.00     0.046 C 
ATOM     17  C   UNL A   1      32.315  20.098  23.389  1.00  0.00    -0.029 A 
ATOM     18  C   UNL A   1      32.417  18.741  22.995  1.00  0.00     0.033 A 
ATOM     19  C   UNL A   1      32.741  17.810  23.955  1.00  0.00     0.067 A 
ATOM     20  C   UNL A   1      32.773  19.449  25.732  1.00  0.00     0.050 A 
ATOM     21  N   UNL A   1      33.004  16.451  23.833  1.00  0.00    -0.306 N 
ATOM     22  C   UNL A   1      32.912  18.159  25.288  1.00  0.00     0.068 A 
ATOM     23  C   UNL A   1      33.381  15.951  25.090  1.00  0.00     0.323 A 
ATOM     24  H   UNL A   1      32.938  15.926  23.003  1.00  0.00     0.171 HD
ATOM     25  N   UNL A   1      33.284  17.021  25.990  1.00  0.00    -0.306 N 
ATOM     26  O   UNL A   1      33.773  14.828  25.339  1.00  0.00    -0.248 OA
ATOM     27  H   UNL A   1      33.450  16.973  26.959  1.00  0.00     0.171 HD
ENDBRANCH  12  15
ENDBRANCH  10  12
ENDBRANCH   9  10
ENDBRANCH   8   9
ENDBRANCH   6   8
ENDBRANCH   5   6
ENDBRANCH   4   5
ENDBRANCH   3   4
ENDBRANCH   2   3
ENDBRANCH   1   2
BRANCH   1  28
ATOM     28  C   UNL A   1      31.213  28.892  24.866  1.00  0.00     0.188 C 
BRANCH  28  29
ATOM     29  O   UNL A   1      31.685  28.293  26.065  1.00  0.00    -0.376 OA
BRANCH  29  30
ATOM     30  C   UNL A   1      31.826  29.121  27.205  1.00  0.00     0.202 C 
BRANCH  30  31
ATOM     31  C   UNL A   1      32.007  30.615  26.913  1.00  0.00     0.261 C 
BRANCH  31  32
ATOM     32  O   UNL A   1      33.395  30.985  26.893  1.00  0.00    -0.460 OA
BRANCH  32  33
ATOM     33  C   UNL A   1      33.844  31.690  27.963  1.00  0.00     0.338 C 
ATOM     34  O   UNL A   1      33.192  32.431  28.677  1.00  0.00    -0.246 OA
BRANCH  33  35
ATOM     35  C   UNL A   1      35.205  31.202  28.298  1.00  0.00     0.060 A 
ATOM     36  C   UNL A   1      36.183  32.056  28.804  1.00  0.00     0.016 A 
ATOM     37  C   UNL A   1      35.543  29.886  27.939  1.00  0.00     0.016 A 
ATOM     38  C   UNL A   1      37.497  31.602  28.899  1.00  0.00     0.010 A 
ATOM     39  C   UNL A   1      36.863  29.427  28.055  1.00  0.00     0.010 A 
ATOM     40  C   UNL A   1      37.854  30.285  28.527  1.00  0.00    -0.014 A 
BRANCH  40  41
ATOM     41  C   UNL A   1      39.232  29.871  28.846  1.00  0.00     0.031 A 
ATOM     42  C   UNL A   1      39.442  29.594  30.284  1.00  0.00     0.074 A 
ATOM     43  C   UNL A   1      40.295  29.598  28.059  1.00  0.00     0.049 A 
ATOM     44  N   UNL A   1      40.100  30.304  31.135  1.00  0.00    -0.248 NA
ATOM     45  C   UNL A   1      38.761  28.420  30.844  1.00  0.00     0.031 C 
ATOM     46  C   UNL A   1      40.290  29.312  26.634  1.00  0.00     0.029 A 
ATOM     47  N   UNL A   1      41.626  29.478  28.397  1.00  0.00    -0.354 N 
ATOM     48  C   UNL A   1      40.090  29.564  32.308  1.00  0.00     0.074 A 
ATOM     49  C   UNL A   1      39.138  28.495  32.119  1.00  0.00     0.031 C 
ATOM     50  C   UNL A   1      41.532  28.979  26.224  1.00  0.00     0.029 A 
ATOM     51  C   UNL A   1      42.445  29.079  27.348  1.00  0.00     0.049 A 
ATOM     52  H   UNL A   1      41.966  29.659  29.302  1.00  0.00     0.167 HD
ATOM     53  C   UNL A   1      41.033  29.738  33.268  1.00  0.00     0.031 A 
ATOM     54  C   UNL A   1      43.772  28.807  27.360  1.00  0.00     0.031 A 
ATOM     55  C   UNL A   1      41.813  30.931  33.083  1.00  0.00     0.049 A 
ATOM     56  C   UNL A   1      44.421  29.517  28.487  1.00  0.00     0.074 A 
ATOM     57  C   UNL A   1      41.690  32.266  33.390  1.00  0.00     0.029 A 
ATOM     58  N   UNL A   1      42.847  30.809  32.195  1.00  0.00    -0.354 N 
ATOM     59  N   UNL A   1      44.487  30.818  28.582  1.00  0.00    -0.248 NA
ATOM     60  C   UNL A   1      44.840  28.779  29.676  1.00  0.00     0.031 C 
ATOM     61  C   UNL A   1      42.609  32.965  32.553  1.00  0.00     0.029 A 
ATOM     62  C   UNL A   1      43.277  32.039  31.755  1.00  0.00     0.049 A 
ATOM     63  H   UNL A   1      43.233  29.952  31.907  1.00  0.00     0.167 HD
ATOM     64  C   UNL A   1      44.593  31.060  29.935  1.00  0.00     0.074 A 
ATOM     65  C   UNL A   1      44.954  29.788  30.541  1.00  0.00     0.031 C 
ATOM     66  C   UNL A   1      44.020  32.152  30.512  1.00  0.00     0.031 A 
BRANCH  53  67
ATOM     67  C   UNL A   1      41.492  28.631  34.172  1.00  0.00    -0.014 A 
ATOM     68  C   UNL A   1      42.445  27.672  33.765  1.00  0.00     0.010 A 
ATOM     69  C   UNL A   1      41.155  28.667  35.537  1.00  0.00     0.010 A 
ATOM     70  C   UNL A   1      42.986  26.746  34.657  1.00  0.00     0.020 A 
ATOM     71  C   UNL A   1      41.725  27.769  36.449  1.00  0.00     0.020 A 
ATOM     72  C   UNL A   1      42.624  26.803  35.998  1.00  0.00     0.054 A 
BRANCH  72  73
ATOM     73  S   UNL A   1      43.409  25.639  37.140  1.00  0.00     0.124 S 
ATOM     74  O   UNL A   1      44.454  25.059  36.301  1.00  0.00    -0.237 OA
ATOM     75  O   UNL A   1      43.875  26.516  38.211  1.00  0.00    -0.237 OA
ATOM     76  O   UNL A   1      42.325  24.732  37.505  1.00  0.00    -0.744 OA
ENDBRANCH  72  73
ENDBRANCH  53  67
BRANCH  54  77
ATOM     77  C   UNL A   1      44.482  27.777  26.553  1.00  0.00    -0.014 A 
ATOM     78  C   UNL A   1      44.063  26.430  26.610  1.00  0.00     0.010 A 
ATOM     79  C   UNL A   1      45.727  28.048  25.954  1.00  0.00     0.010 A 
ATOM     80  C   UNL A   1      44.887  25.388  26.176  1.00  0.00     0.020 A 
ATOM     81  C   UNL A   1      46.567  27.005  25.528  1.00  0.00     0.020 A 
ATOM     82  C   UNL A   1      46.158  25.680  25.690  1.00  0.00     0.054 A 
BRANCH  82  83
ATOM     83  S   UNL A   1      47.308  24.301  25.417  1.00  0.00     0.124 S 
ATOM     84  O   UNL A   1      46.577  23.185  26.012  1.00  0.00    -0.237 OA
ATOM     85  O   UNL A   1      47.427  24.262  23.962  1.00  0.00    -0.237 OA
ATOM     86  O   UNL A   1      48.514  24.710  26.130  1.00  0.00    -0.744 OA
ENDBRANCH  82  83
ENDBRANCH  54  77
BRANCH  66  87
ATOM     87  C   UNL A   1      43.968  33.451  29.758  1.00  0.00    -0.014 A 
ATOM     88  C   UNL A   1      44.908  34.432  30.127  1.00  0.00     0.010 A 
ATOM     89  C   UNL A   1      43.000  33.782  28.794  1.00  0.00     0.010 A 
ATOM     90  C   UNL A   1      44.860  35.720  29.593  1.00  0.00     0.020 A 
ATOM     91  C   UNL A   1      42.958  35.073  28.237  1.00  0.00     0.020 A 
ATOM     92  C   UNL A   1      43.872  36.041  28.660  1.00  0.00     0.054 A 
BRANCH  92  93
ATOM     93  S   UNL A   1      43.815  37.745  28.034  1.00  0.00     0.124 S 
ATOM     94  O   UNL A   1      43.914  37.548  26.589  1.00  0.00    -0.237 OA
ATOM     95  O   UNL A   1      42.514  38.217  28.505  1.00  0.00    -0.237 OA
ATOM     96  O   UNL A   1      44.964  38.398  28.654  1.00  0.00    -0.744 OA
ENDBRANCH  92  93
ENDBRANCH  66  87
ENDBRANCH  40  41
ENDBRANCH  33  35
ENDBRANCH  32  33
ENDBRANCH  31  32
ENDBRANCH  30  31
ENDBRANCH  29  30
ENDBRANCH  28  29
ENDBRANCH   1  28
TORSDOF 24
ENDMDL
