MODEL 1
REMARK VINA RESULT:      -9.2      0.000      0.000
REMARK SMILES COc1cc(F)ccc1-c1ccc(=O)n(CC(=O)NCc2ccc(C(=O)OCCOCCOCCOC(=O)c3ccc(-c4c5nc(c(-c6ccc(S(=O)(=O)[O-])cc6)c6ccc([nH]6)c(-c6ccc(S(=O)(=O)[O-])cc6)c6nc(c(-c7ccc(S(=O)(=O)[O-])cc7)c7ccc4[nH]7)C=C6)C=C5)cc3)cc2)n1
REMARK SMILES IDX 30 1 29 2 28 3 27 4 25 5 26 6 24 7 21 8 22 9 100 10 23 11
REMARK SMILES IDX 99 12 20 13 19 14 17 15 18 16 16 18 15 19 10 20 11 21 101 22
REMARK SMILES IDX 12 23 13 24 14 25 9 26 3 27 4 28 5 29 8 30 6 31 7 32 2 33
REMARK SMILES IDX 1 34 31 35 32 36 33 37 34 38 35 39 36 40 37 41 38 42 39 43
REMARK SMILES IDX 40 44 98 45 41 46 97 47 42 48 43 49 44 50 91 51 45 52 96 53
REMARK SMILES IDX 90 54 92 55 46 56 95 57 89 58 88 59 47 61 77 62 58 63 76 64
REMARK SMILES IDX 59 65 62 66 75 67 93 68 60 69 61 70 74 72 94 73 63 74 48 75
REMARK SMILES IDX 49 76 57 77 50 78 56 79 51 80 52 81 53 82 54 83 55 84 78 85
REMARK SMILES IDX 79 86 87 87 80 88 86 89 81 90 82 91 83 92 84 93 85 94 64 95
REMARK SMILES IDX 65 96 73 97 66 98 72 99 67 100 68 101 69 102 70 103 71 104
REMARK H PARENT 19 17 92 60 62 71
REMARK Flexibility Score: inf
ROOT
ATOM      1  O   UNL A   1      37.187  28.750  31.692  1.00  0.00    -0.376 OA
ENDROOT
BRANCH   1   2
ATOM      2  C   UNL A   1      36.841  29.728  30.724  1.00  0.00     0.202 C 
BRANCH   2   3
ATOM      3  C   UNL A   1      37.769  30.271  29.619  1.00  0.00     0.261 C 
BRANCH   3   4
ATOM      4  O   UNL A   1      37.183  30.549  28.343  1.00  0.00    -0.460 OA
BRANCH   4   5
ATOM      5  C   UNL A   1      36.073  31.332  28.387  1.00  0.00     0.338 C 
ATOM      6  O   UNL A   1      36.012  32.492  28.757  1.00  0.00    -0.246 OA
BRANCH   5   7
ATOM      7  C   UNL A   1      34.956  30.665  27.691  1.00  0.00     0.060 A 
ATOM      8  C   UNL A   1      32.917  29.270  26.353  1.00  0.00    -0.029 A 
ATOM      9  C   UNL A   1      34.169  28.688  26.563  1.00  0.00     0.006 A 
ATOM     10  C   UNL A   1      32.686  30.559  26.860  1.00  0.00     0.006 A 
ATOM     11  C   UNL A   1      35.190  29.376  27.209  1.00  0.00     0.016 A 
ATOM     12  C   UNL A   1      33.698  31.252  27.539  1.00  0.00     0.016 A 
BRANCH   8  13
ATOM     13  C   UNL A   1      31.881  28.541  25.533  1.00  0.00     0.151 C 
BRANCH  13  14
ATOM     14  N   UNL A   1      31.038  29.480  24.828  1.00  0.00    -0.350 N 
ATOM     15  C   UNL A   1      30.452  29.414  23.601  1.00  0.00     0.242 C 
ATOM     16  O   UNL A   1      29.585  30.267  23.364  1.00  0.00    -0.273 OA
ATOM     17  H   UNL A   1      30.856  30.314  25.320  1.00  0.00     0.163 HD
BRANCH  15  18
ATOM     18  C   UNL A   1      30.662  28.239  22.642  1.00  0.00     0.248 C 
BRANCH  18  19
ATOM     19  N   UNL A   1      30.779  26.928  23.260  1.00  0.00    -0.220 N 
ATOM     20  C   UNL A   1      32.192  25.305  24.036  1.00  0.00     0.095 A 
ATOM     21  C   UNL A   1      31.091  24.539  24.653  1.00  0.00     0.037 A 
ATOM     22  N   UNL A   1      32.053  26.414  23.378  1.00  0.00    -0.169 NA
ATOM     23  C   UNL A   1      29.867  25.061  24.530  1.00  0.00     0.075 A 
ATOM     24  C   UNL A   1      29.654  26.354  23.841  1.00  0.00     0.267 A 
ATOM     25  O   UNL A   1      28.526  26.835  23.795  1.00  0.00    -0.268 OA
BRANCH  20  26
ATOM     26  C   UNL A   1      33.531  24.697  24.100  1.00  0.00     0.044 A 
ATOM     27  C   UNL A   1      33.946  23.760  23.151  1.00  0.00     0.131 A 
ATOM     28  C   UNL A   1      35.213  23.184  23.245  1.00  0.00     0.086 A 
ATOM     29  C   UNL A   1      35.998  23.455  24.358  1.00  0.00     0.126 A 
ATOM     30  C   UNL A   1      34.324  24.960  25.221  1.00  0.00     0.017 A 
ATOM     31  F   UNL A   1      37.189  22.863  24.492  1.00  0.00    -0.207 F 
ATOM     32  C   UNL A   1      35.544  24.300  25.364  1.00  0.00     0.040 A 
BRANCH  27  33
ATOM     33  O   UNL A   1      33.084  23.373  22.159  1.00  0.00    -0.496 OA
ATOM     34  C   UNL A   1      32.588  22.060  22.444  1.00  0.00     0.278 C 
ENDBRANCH  27  33
ENDBRANCH  20  26
ENDBRANCH  18  19
ENDBRANCH  15  18
ENDBRANCH  13  14
ENDBRANCH   8  13
ENDBRANCH   5   7
ENDBRANCH   4   5
ENDBRANCH   3   4
ENDBRANCH   2   3
ENDBRANCH   1   2
BRANCH   1  35
ATOM     35  C   UNL A   1      37.748  29.134  32.924  1.00  0.00     0.188 C 
BRANCH  35  36
ATOM     36  C   UNL A   1      38.183  30.610  33.054  1.00  0.00     0.188 C 
BRANCH  36  37
ATOM     37  O   UNL A   1      37.465  31.500  33.890  1.00  0.00    -0.376 OA
BRANCH  37  38
ATOM     38  C   UNL A   1      38.195  32.358  34.757  1.00  0.00     0.202 C 
BRANCH  38  39
ATOM     39  C   UNL A   1      38.263  33.881  34.537  1.00  0.00     0.261 C 
BRANCH  39  40
ATOM     40  O   UNL A   1      39.339  34.354  33.714  1.00  0.00    -0.460 OA
BRANCH  40  41
ATOM     41  C   UNL A   1      39.141  34.253  32.373  1.00  0.00     0.338 C 
ATOM     42  O   UNL A   1      38.204  34.677  31.727  1.00  0.00    -0.246 OA
BRANCH  41  43
ATOM     43  C   UNL A   1      40.355  33.681  31.762  1.00  0.00     0.060 A 
ATOM     44  C   UNL A   1      41.205  32.861  32.498  1.00  0.00     0.016 A 
ATOM     45  C   UNL A   1      40.627  33.952  30.419  1.00  0.00     0.016 A 
ATOM     46  C   UNL A   1      42.328  32.300  31.876  1.00  0.00     0.010 A 
ATOM     47  C   UNL A   1      41.771  33.428  29.822  1.00  0.00     0.010 A 
ATOM     48  C   UNL A   1      42.612  32.562  30.522  1.00  0.00    -0.014 A 
BRANCH  48  49
ATOM     49  C   UNL A   1      43.683  31.828  29.791  1.00  0.00     0.031 A 
ATOM     50  C   UNL A   1      45.043  32.422  29.550  1.00  0.00     0.074 A 
ATOM     51  C   UNL A   1      43.385  30.624  29.259  1.00  0.00     0.049 A 
ATOM     52  N   UNL A   1      46.094  31.860  29.006  1.00  0.00    -0.248 NA
ATOM     53  C   UNL A   1      45.250  33.829  29.929  1.00  0.00     0.031 C 
ATOM     54  C   UNL A   1      42.064  29.995  29.298  1.00  0.00     0.029 A 
ATOM     55  N   UNL A   1      44.167  29.709  28.594  1.00  0.00    -0.354 N 
ATOM     56  C   UNL A   1      47.089  32.829  29.002  1.00  0.00     0.074 A 
ATOM     57  C   UNL A   1      46.491  34.044  29.514  1.00  0.00     0.031 C 
ATOM     58  C   UNL A   1      42.142  28.773  28.754  1.00  0.00     0.029 A 
ATOM     59  C   UNL A   1      43.508  28.538  28.295  1.00  0.00     0.049 A 
ATOM     60  H   UNL A   1      45.107  29.877  28.355  1.00  0.00     0.167 HD
ATOM     61  C   UNL A   1      48.391  32.702  28.651  1.00  0.00     0.031 A 
ATOM     62  C   UNL A   1      43.952  27.388  27.746  1.00  0.00     0.031 A 
ATOM     63  C   UNL A   1      48.978  31.481  28.157  1.00  0.00     0.049 A 
ATOM     64  C   UNL A   1      45.408  27.254  27.398  1.00  0.00     0.074 A 
ATOM     65  C   UNL A   1      50.307  31.232  27.857  1.00  0.00     0.029 A 
ATOM     66  N   UNL A   1      48.286  30.308  27.894  1.00  0.00    -0.354 N 
ATOM     67  N   UNL A   1      46.368  28.139  27.527  1.00  0.00    -0.248 NA
ATOM     68  C   UNL A   1      45.852  25.960  26.859  1.00  0.00     0.031 C 
ATOM     69  C   UNL A   1      50.407  29.938  27.344  1.00  0.00     0.029 A 
ATOM     70  C   UNL A   1      49.158  29.343  27.413  1.00  0.00     0.049 A 
ATOM     71  H   UNL A   1      47.321  30.179  28.030  1.00  0.00     0.167 HD
ATOM     72  C   UNL A   1      47.533  27.497  27.120  1.00  0.00     0.074 A 
ATOM     73  C   UNL A   1      47.162  26.148  26.753  1.00  0.00     0.031 C 
ATOM     74  C   UNL A   1      48.795  27.991  27.059  1.00  0.00     0.031 A 
BRANCH  61  75
ATOM     75  C   UNL A   1      49.310  33.887  28.847  1.00  0.00    -0.014 A 
ATOM     76  C   UNL A   1      49.566  34.773  27.784  1.00  0.00     0.010 A 
ATOM     77  C   UNL A   1      50.039  34.030  30.042  1.00  0.00     0.010 A 
ATOM     78  C   UNL A   1      50.558  35.752  27.898  1.00  0.00     0.020 A 
ATOM     79  C   UNL A   1      51.006  35.031  30.173  1.00  0.00     0.020 A 
ATOM     80  C   UNL A   1      51.279  35.867  29.090  1.00  0.00     0.054 A 
BRANCH  80  81
ATOM     81  S   UNL A   1      52.594  37.112  29.205  1.00  0.00     0.124 S 
ATOM     82  O   UNL A   1      53.722  36.324  29.691  1.00  0.00    -0.237 OA
ATOM     83  O   UNL A   1      52.699  37.587  27.827  1.00  0.00    -0.237 OA
ATOM     84  O   UNL A   1      52.059  38.088  30.152  1.00  0.00    -0.744 OA
ENDBRANCH  80  81
ENDBRANCH  61  75
BRANCH  62  85
ATOM     85  C   UNL A   1      43.007  26.244  27.604  1.00  0.00    -0.014 A 
ATOM     86  C   UNL A   1      42.815  25.333  28.660  1.00  0.00     0.010 A 
ATOM     87  C   UNL A   1      42.370  26.001  26.374  1.00  0.00     0.010 A 
ATOM     88  C   UNL A   1      42.057  24.175  28.470  1.00  0.00     0.020 A 
ATOM     89  C   UNL A   1      41.578  24.862  26.191  1.00  0.00     0.020 A 
ATOM     90  C   UNL A   1      41.454  23.941  27.232  1.00  0.00     0.054 A 
BRANCH  90  91
ATOM     91  S   UNL A   1      40.532  22.398  26.992  1.00  0.00     0.124 S 
ATOM     92  O   UNL A   1      39.165  22.887  26.835  1.00  0.00    -0.237 OA
ATOM     93  O   UNL A   1      41.146  21.846  25.787  1.00  0.00    -0.237 OA
ATOM     94  O   UNL A   1      40.790  21.647  28.218  1.00  0.00    -0.744 OA
ENDBRANCH  90  91
ENDBRANCH  62  85
BRANCH  74  95
ATOM     95  C   UNL A   1      49.908  27.080  26.599  1.00  0.00    -0.014 A 
ATOM     96  C   UNL A   1      50.671  26.381  27.554  1.00  0.00     0.010 A 
ATOM     97  C   UNL A   1      50.298  27.030  25.249  1.00  0.00     0.010 A 
ATOM     98  C   UNL A   1      51.828  25.693  27.179  1.00  0.00     0.020 A 
ATOM     99  C   UNL A   1      51.435  26.311  24.863  1.00  0.00     0.020 A 
ATOM    100  C   UNL A   1      52.208  25.672  25.836  1.00  0.00     0.054 A 
BRANCH 100 101
ATOM    101  S   UNL A   1      53.743  24.821  25.377  1.00  0.00     0.124 S 
ATOM    102  O   UNL A   1      54.221  25.629  24.258  1.00  0.00    -0.237 OA
ATOM    103  O   UNL A   1      54.536  24.910  26.601  1.00  0.00    -0.237 OA
ATOM    104  O   UNL A   1      53.298  23.474  25.028  1.00  0.00    -0.744 OA
ENDBRANCH 100 101
ENDBRANCH  74  95
ENDBRANCH  48  49
ENDBRANCH  41  43
ENDBRANCH  40  41
ENDBRANCH  39  40
ENDBRANCH  38  39
ENDBRANCH  37  38
ENDBRANCH  36  37
ENDBRANCH  35  36
ENDBRANCH   1  35
TORSDOF 26
ENDMDL
MODEL 2
REMARK VINA RESULT:      -9.0      3.534      8.718
REMARK SMILES COc1cc(F)ccc1-c1ccc(=O)n(CC(=O)NCc2ccc(C(=O)OCCOCCOCCOC(=O)c3ccc(-c4c5nc(c(-c6ccc(S(=O)(=O)[O-])cc6)c6ccc([nH]6)c(-c6ccc(S(=O)(=O)[O-])cc6)c6nc(c(-c7ccc(S(=O)(=O)[O-])cc7)c7ccc4[nH]7)C=C6)C=C5)cc3)cc2)n1
REMARK SMILES IDX 30 1 29 2 28 3 27 4 25 5 26 6 24 7 21 8 22 9 100 10 23 11
REMARK SMILES IDX 99 12 20 13 19 14 17 15 18 16 16 18 15 19 10 20 11 21 101 22
REMARK SMILES IDX 12 23 13 24 14 25 9 26 3 27 4 28 5 29 8 30 6 31 7 32 2 33
REMARK SMILES IDX 1 34 31 35 32 36 33 37 34 38 35 39 36 40 37 41 38 42 39 43
REMARK SMILES IDX 40 44 98 45 41 46 97 47 42 48 43 49 44 50 91 51 45 52 96 53
REMARK SMILES IDX 90 54 92 55 46 56 95 57 89 58 88 59 47 61 77 62 58 63 76 64
REMARK SMILES IDX 59 65 62 66 75 67 93 68 60 69 61 70 74 72 94 73 63 74 48 75
REMARK SMILES IDX 49 76 57 77 50 78 56 79 51 80 52 81 53 82 54 83 55 84 78 85
REMARK SMILES IDX 79 86 87 87 80 88 86 89 81 90 82 91 83 92 84 93 85 94 64 95
REMARK SMILES IDX 65 96 73 97 66 98 72 99 67 100 68 101 69 102 70 103 71 104
REMARK H PARENT 19 17 92 60 62 71
REMARK Flexibility Score: inf
ROOT
ATOM      1  O   UNL A   1      34.151  32.643  28.176  1.00  0.00    -0.376 OA
ENDROOT
BRANCH   1   2
ATOM      2  C   UNL A   1      33.792  31.383  27.632  1.00  0.00     0.202 C 
BRANCH   2   3
ATOM      3  C   UNL A   1      32.471  31.057  26.907  1.00  0.00     0.261 C 
BRANCH   3   4
ATOM      4  O   UNL A   1      32.510  30.063  25.878  1.00  0.00    -0.460 OA
BRANCH   4   5
ATOM      5  C   UNL A   1      31.306  29.782  25.314  1.00  0.00     0.338 C 
ATOM      6  O   UNL A   1      30.607  30.544  24.668  1.00  0.00    -0.246 OA
BRANCH   5   7
ATOM      7  C   UNL A   1      31.043  28.332  25.378  1.00  0.00     0.060 A 
ATOM      8  C   UNL A   1      30.598  25.570  25.644  1.00  0.00    -0.029 A 
ATOM      9  C   UNL A   1      31.200  26.304  26.669  1.00  0.00     0.006 A 
ATOM     10  C   UNL A   1      30.186  26.252  24.488  1.00  0.00     0.006 A 
ATOM     11  C   UNL A   1      31.440  27.667  26.541  1.00  0.00     0.016 A 
ATOM     12  C   UNL A   1      30.395  27.632  24.358  1.00  0.00     0.016 A 
BRANCH   8  13
ATOM     13  C   UNL A   1      30.476  24.071  25.769  1.00  0.00     0.151 C 
BRANCH  13  14
ATOM     14  N   UNL A   1      31.137  23.606  26.968  1.00  0.00    -0.350 N 
ATOM     15  C   UNL A   1      32.060  22.624  27.161  1.00  0.00     0.242 C 
ATOM     16  O   UNL A   1      32.625  22.616  28.263  1.00  0.00    -0.273 OA
ATOM     17  H   UNL A   1      30.872  24.081  27.789  1.00  0.00     0.163 HD
BRANCH  15  18
ATOM     18  C   UNL A   1      32.555  21.717  26.032  1.00  0.00     0.248 C 
BRANCH  18  19
ATOM     19  N   UNL A   1      33.503  22.316  25.105  1.00  0.00    -0.220 N 
ATOM     20  C   UNL A   1      34.211  24.231  24.074  1.00  0.00     0.095 A 
ATOM     21  C   UNL A   1      35.422  23.581  23.536  1.00  0.00     0.037 A 
ATOM     22  N   UNL A   1      33.308  23.646  24.799  1.00  0.00    -0.169 NA
ATOM     23  C   UNL A   1      35.591  22.293  23.852  1.00  0.00     0.075 A 
ATOM     24  C   UNL A   1      34.625  21.588  24.724  1.00  0.00     0.267 A 
ATOM     25  O   UNL A   1      34.838  20.422  25.043  1.00  0.00    -0.268 OA
BRANCH  20  26
ATOM     26  C   UNL A   1      33.978  25.625  23.666  1.00  0.00     0.044 A 
ATOM     27  C   UNL A   1      33.562  25.940  22.370  1.00  0.00     0.131 A 
ATOM     28  C   UNL A   1      33.368  27.272  22.003  1.00  0.00     0.086 A 
ATOM     29  C   UNL A   1      33.716  28.277  22.895  1.00  0.00     0.126 A 
ATOM     30  C   UNL A   1      34.333  26.644  24.556  1.00  0.00     0.017 A 
ATOM     31  F   UNL A   1      33.592  29.559  22.534  1.00  0.00    -0.207 F 
ATOM     32  C   UNL A   1      34.237  27.973  24.147  1.00  0.00     0.040 A 
BRANCH  27  33
ATOM     33  O   UNL A   1      33.397  24.939  21.450  1.00  0.00    -0.496 OA
ATOM     34  C   UNL A   1      32.539  25.395  20.398  1.00  0.00     0.278 C 
ENDBRANCH  27  33
ENDBRANCH  20  26
ENDBRANCH  18  19
ENDBRANCH  15  18
ENDBRANCH  13  14
ENDBRANCH   8  13
ENDBRANCH   5   7
ENDBRANCH   4   5
ENDBRANCH   3   4
ENDBRANCH   2   3
ENDBRANCH   1   2
BRANCH   1  35
ATOM     35  C   UNL A   1      33.321  33.764  27.986  1.00  0.00     0.188 C 
BRANCH  35  36
ATOM     36  C   UNL A   1      33.341  34.834  29.099  1.00  0.00     0.188 C 
BRANCH  36  37
ATOM     37  O   UNL A   1      34.339  34.806  30.104  1.00  0.00    -0.376 OA
BRANCH  37  38
ATOM     38  C   UNL A   1      34.114  34.016  31.265  1.00  0.00     0.202 C 
BRANCH  38  39
ATOM     39  C   UNL A   1      35.050  32.859  31.664  1.00  0.00     0.261 C 
BRANCH  39  40
ATOM     40  O   UNL A   1      36.425  33.205  31.884  1.00  0.00    -0.460 OA
BRANCH  40  41
ATOM     41  C   UNL A   1      37.148  32.307  32.604  1.00  0.00     0.338 C 
ATOM     42  O   UNL A   1      36.743  31.534  33.449  1.00  0.00    -0.246 OA
BRANCH  41  43
ATOM     43  C   UNL A   1      38.524  32.281  32.074  1.00  0.00     0.060 A 
ATOM     44  C   UNL A   1      38.758  32.215  30.703  1.00  0.00     0.016 A 
ATOM     45  C   UNL A   1      39.594  32.354  32.968  1.00  0.00     0.016 A 
ATOM     46  C   UNL A   1      40.076  32.233  30.229  1.00  0.00     0.010 A 
ATOM     47  C   UNL A   1      40.902  32.324  32.490  1.00  0.00     0.010 A 
ATOM     48  C   UNL A   1      41.165  32.310  31.119  1.00  0.00    -0.014 A 
BRANCH  48  49
ATOM     49  C   UNL A   1      42.557  32.527  30.636  1.00  0.00     0.031 A 
ATOM     50  C   UNL A   1      43.371  31.426  30.013  1.00  0.00     0.074 A 
ATOM     51  C   UNL A   1      43.128  33.731  30.846  1.00  0.00     0.049 A 
ATOM     52  N   UNL A   1      44.561  31.499  29.470  1.00  0.00    -0.248 NA
ATOM     53  C   UNL A   1      42.805  30.068  30.026  1.00  0.00     0.031 C 
ATOM     54  C   UNL A   1      42.499  34.842  31.564  1.00  0.00     0.029 A 
ATOM     55  N   UNL A   1      44.351  34.232  30.469  1.00  0.00    -0.354 N 
ATOM     56  C   UNL A   1      44.874  30.211  29.055  1.00  0.00     0.074 A 
ATOM     57  C   UNL A   1      43.788  29.357  29.489  1.00  0.00     0.031 C 
ATOM     58  C   UNL A   1      43.305  35.911  31.513  1.00  0.00     0.029 A 
ATOM     59  C   UNL A   1      44.523  35.559  30.788  1.00  0.00     0.049 A 
ATOM     60  H   UNL A   1      45.038  33.692  30.016  1.00  0.00     0.167 HD
ATOM     61  C   UNL A   1      45.942  29.790  28.336  1.00  0.00     0.031 A 
ATOM     62  C   UNL A   1      45.527  36.415  30.505  1.00  0.00     0.031 A 
ATOM     63  C   UNL A   1      47.009  30.655  27.897  1.00  0.00     0.049 A 
ATOM     64  C   UNL A   1      46.687  35.940  29.674  1.00  0.00     0.074 A 
ATOM     65  C   UNL A   1      48.090  30.336  27.091  1.00  0.00     0.029 A 
ATOM     66  N   UNL A   1      47.135  31.999  28.215  1.00  0.00    -0.354 N 
ATOM     67  N   UNL A   1      46.902  34.746  29.173  1.00  0.00    -0.248 NA
ATOM     68  C   UNL A   1      47.724  36.926  29.343  1.00  0.00     0.031 C 
ATOM     69  C   UNL A   1      48.905  31.463  26.983  1.00  0.00     0.029 A 
ATOM     70  C   UNL A   1      48.287  32.514  27.642  1.00  0.00     0.049 A 
ATOM     71  H   UNL A   1      46.500  32.511  28.765  1.00  0.00     0.167 HD
ATOM     72  C   UNL A   1      48.079  34.850  28.438  1.00  0.00     0.074 A 
ATOM     73  C   UNL A   1      48.522  36.222  28.549  1.00  0.00     0.031 C 
ATOM     74  C   UNL A   1      48.726  33.887  27.737  1.00  0.00     0.031 A 
BRANCH  61  75
ATOM     75  C   UNL A   1      45.997  28.342  27.906  1.00  0.00    -0.014 A 
ATOM     76  C   UNL A   1      45.257  27.901  26.793  1.00  0.00     0.010 A 
ATOM     77  C   UNL A   1      46.660  27.389  28.702  1.00  0.00     0.010 A 
ATOM     78  C   UNL A   1      45.149  26.536  26.507  1.00  0.00     0.020 A 
ATOM     79  C   UNL A   1      46.585  26.028  28.398  1.00  0.00     0.020 A 
ATOM     80  C   UNL A   1      45.806  25.608  27.319  1.00  0.00     0.054 A 
BRANCH  80  81
ATOM     81  S   UNL A   1      45.617  23.839  26.961  1.00  0.00     0.124 S 
ATOM     82  O   UNL A   1      46.975  23.452  26.594  1.00  0.00    -0.237 OA
ATOM     83  O   UNL A   1      45.129  23.311  28.233  1.00  0.00    -0.237 OA
ATOM     84  O   UNL A   1      44.644  23.813  25.871  1.00  0.00    -0.744 OA
ENDBRANCH  80  81
ENDBRANCH  61  75
BRANCH  62  85
ATOM     85  C   UNL A   1      45.405  37.839  30.930  1.00  0.00    -0.014 A 
ATOM     86  C   UNL A   1      46.011  38.291  32.117  1.00  0.00     0.010 A 
ATOM     87  C   UNL A   1      44.595  38.728  30.200  1.00  0.00     0.010 A 
ATOM     88  C   UNL A   1      45.762  39.580  32.596  1.00  0.00     0.020 A 
ATOM     89  C   UNL A   1      44.373  40.032  30.655  1.00  0.00     0.020 A 
ATOM     90  C   UNL A   1      44.934  40.437  31.869  1.00  0.00     0.054 A 
BRANCH  90  91
ATOM     91  S   UNL A   1      44.572  42.080  32.546  1.00  0.00     0.124 S 
ATOM     92  O   UNL A   1      43.174  42.261  32.164  1.00  0.00    -0.237 OA
ATOM     93  O   UNL A   1      44.815  41.895  33.974  1.00  0.00    -0.237 OA
ATOM     94  O   UNL A   1      45.524  42.952  31.863  1.00  0.00    -0.744 OA
ENDBRANCH  90  91
ENDBRANCH  62  85
BRANCH  74  95
ATOM     95  C   UNL A   1      49.990  34.256  26.996  1.00  0.00    -0.014 A 
ATOM     96  C   UNL A   1      49.942  34.457  25.603  1.00  0.00     0.010 A 
ATOM     97  C   UNL A   1      51.239  34.257  27.640  1.00  0.00     0.010 A 
ATOM     98  C   UNL A   1      51.118  34.599  24.861  1.00  0.00     0.020 A 
ATOM     99  C   UNL A   1      52.418  34.438  26.907  1.00  0.00     0.020 A 
ATOM    100  C   UNL A   1      52.350  34.577  25.519  1.00  0.00     0.054 A 
BRANCH 100 101
ATOM    101  S   UNL A   1      53.867  34.708  24.533  1.00  0.00     0.124 S 
ATOM    102  O   UNL A   1      53.342  34.862  23.179  1.00  0.00    -0.237 OA
ATOM    103  O   UNL A   1      54.513  35.891  25.095  1.00  0.00    -0.237 OA
ATOM    104  O   UNL A   1      54.557  33.447  24.795  1.00  0.00    -0.744 OA
ENDBRANCH 100 101
ENDBRANCH  74  95
ENDBRANCH  48  49
ENDBRANCH  41  43
ENDBRANCH  40  41
ENDBRANCH  39  40
ENDBRANCH  38  39
ENDBRANCH  37  38
ENDBRANCH  36  37
ENDBRANCH  35  36
ENDBRANCH   1  35
TORSDOF 26
ENDMDL
MODEL 3
REMARK VINA RESULT:      -8.8      5.553     10.923
REMARK SMILES COc1cc(F)ccc1-c1ccc(=O)n(CC(=O)NCc2ccc(C(=O)OCCOCCOCCOC(=O)c3ccc(-c4c5nc(c(-c6ccc(S(=O)(=O)[O-])cc6)c6ccc([nH]6)c(-c6ccc(S(=O)(=O)[O-])cc6)c6nc(c(-c7ccc(S(=O)(=O)[O-])cc7)c7ccc4[nH]7)C=C6)C=C5)cc3)cc2)n1
REMARK SMILES IDX 30 1 29 2 28 3 27 4 25 5 26 6 24 7 21 8 22 9 100 10 23 11
REMARK SMILES IDX 99 12 20 13 19 14 17 15 18 16 16 18 15 19 10 20 11 21 101 22
REMARK SMILES IDX 12 23 13 24 14 25 9 26 3 27 4 28 5 29 8 30 6 31 7 32 2 33
REMARK SMILES IDX 1 34 31 35 32 36 33 37 34 38 35 39 36 40 37 41 38 42 39 43
REMARK SMILES IDX 40 44 98 45 41 46 97 47 42 48 43 49 44 50 91 51 45 52 96 53
REMARK SMILES IDX 90 54 92 55 46 56 95 57 89 58 88 59 47 61 77 62 58 63 76 64
REMARK SMILES IDX 59 65 62 66 75 67 93 68 60 69 61 70 74 72 94 73 63 74 48 75
REMARK SMILES IDX 49 76 57 77 50 78 56 79 51 80 52 81 53 82 54 83 55 84 78 85
REMARK SMILES IDX 79 86 87 87 80 88 86 89 81 90 82 91 83 92 84 93 85 94 64 95
REMARK SMILES IDX 65 96 73 97 66 98 72 99 67 100 68 101 69 102 70 103 71 104
REMARK H PARENT 19 17 92 60 62 71
REMARK Flexibility Score: inf
ROOT
ATOM      1  O   UNL A   1      36.655  35.042  33.512  1.00  0.00    -0.376 OA
ENDROOT
BRANCH   1   2
ATOM      2  C   UNL A   1      37.546  34.220  34.249  1.00  0.00     0.202 C 
BRANCH   2   3
ATOM      3  C   UNL A   1      38.996  34.578  34.633  1.00  0.00     0.261 C 
BRANCH   3   4
ATOM      4  O   UNL A   1      39.523  33.998  35.831  1.00  0.00    -0.460 OA
BRANCH   4   5
ATOM      5  C   UNL A   1      40.167  34.873  36.648  1.00  0.00     0.338 C 
ATOM      6  O   UNL A   1      39.790  35.989  36.964  1.00  0.00    -0.246 OA
BRANCH   5   7
ATOM      7  C   UNL A   1      41.297  34.202  37.317  1.00  0.00     0.060 A 
ATOM      8  C   UNL A   1      43.487  33.059  38.655  1.00  0.00    -0.029 A 
ATOM      9  C   UNL A   1      43.224  34.428  38.745  1.00  0.00     0.006 A 
ATOM     10  C   UNL A   1      42.609  32.257  37.908  1.00  0.00     0.006 A 
ATOM     11  C   UNL A   1      42.153  35.005  38.073  1.00  0.00     0.016 A 
ATOM     12  C   UNL A   1      41.508  32.823  37.251  1.00  0.00     0.016 A 
BRANCH   8  13
ATOM     13  C   UNL A   1      44.734  32.494  39.291  1.00  0.00     0.151 C 
BRANCH  13  14
ATOM     14  N   UNL A   1      44.432  31.275  40.007  1.00  0.00    -0.350 N 
ATOM     15  C   UNL A   1      45.150  30.130  40.172  1.00  0.00     0.242 C 
ATOM     16  O   UNL A   1      44.738  29.349  41.041  1.00  0.00    -0.273 OA
ATOM     17  H   UNL A   1      43.554  31.271  40.453  1.00  0.00     0.163 HD
BRANCH  15  18
ATOM     18  C   UNL A   1      46.508  29.897  39.505  1.00  0.00     0.248 C 
BRANCH  18  19
ATOM     19  N   UNL A   1      46.483  29.696  38.065  1.00  0.00    -0.220 N 
ATOM     20  C   UNL A   1      45.188  29.352  36.211  1.00  0.00     0.095 A 
ATOM     21  C   UNL A   1      46.326  29.546  35.291  1.00  0.00     0.037 A 
ATOM     22  N   UNL A   1      45.256  29.412  37.505  1.00  0.00    -0.169 NA
ATOM     23  C   UNL A   1      47.503  29.827  35.858  1.00  0.00     0.075 A 
ATOM     24  C   UNL A   1      47.629  29.966  37.326  1.00  0.00     0.267 A 
ATOM     25  O   UNL A   1      48.711  30.281  37.812  1.00  0.00    -0.268 OA
BRANCH  20  26
ATOM     26  C   UNL A   1      43.907  28.966  35.598  1.00  0.00     0.044 A 
ATOM     27  C   UNL A   1      43.527  27.625  35.501  1.00  0.00     0.131 A 
ATOM     28  C   UNL A   1      42.316  27.285  34.897  1.00  0.00     0.086 A 
ATOM     29  C   UNL A   1      41.563  28.277  34.285  1.00  0.00     0.126 A 
ATOM     30  C   UNL A   1      43.147  29.959  34.973  1.00  0.00     0.017 A 
ATOM     31  F   UNL A   1      40.430  27.957  33.650  1.00  0.00    -0.207 F 
ATOM     32  C   UNL A   1      41.991  29.599  34.280  1.00  0.00     0.040 A 
BRANCH  27  33
ATOM     33  O   UNL A   1      44.371  26.647  35.954  1.00  0.00    -0.496 OA
ATOM     34  C   UNL A   1      43.928  25.373  35.472  1.00  0.00     0.278 C 
ENDBRANCH  27  33
ENDBRANCH  20  26
ENDBRANCH  18  19
ENDBRANCH  15  18
ENDBRANCH  13  14
ENDBRANCH   8  13
ENDBRANCH   5   7
ENDBRANCH   4   5
ENDBRANCH   3   4
ENDBRANCH   2   3
ENDBRANCH   1   2
BRANCH   1  35
ATOM     35  C   UNL A   1      35.263  34.866  33.626  1.00  0.00     0.188 C 
BRANCH  35  36
ATOM     36  C   UNL A   1      34.414  36.149  33.759  1.00  0.00     0.188 C 
BRANCH  36  37
ATOM     37  O   UNL A   1      33.205  36.288  33.035  1.00  0.00    -0.376 OA
BRANCH  37  38
ATOM     38  C   UNL A   1      33.217  37.039  31.827  1.00  0.00     0.202 C 
BRANCH  38  39
ATOM     39  C   UNL A   1      32.975  36.386  30.453  1.00  0.00     0.261 C 
BRANCH  39  40
ATOM     40  O   UNL A   1      33.005  34.951  30.420  1.00  0.00    -0.460 OA
BRANCH  40  41
ATOM     41  C   UNL A   1      33.222  34.397  29.198  1.00  0.00     0.338 C 
ATOM     42  O   UNL A   1      32.579  34.564  28.182  1.00  0.00    -0.246 OA
BRANCH  41  43
ATOM     43  C   UNL A   1      34.503  33.667  29.237  1.00  0.00     0.060 A 
ATOM     44  C   UNL A   1      35.372  33.693  28.150  1.00  0.00     0.016 A 
ATOM     45  C   UNL A   1      34.847  32.968  30.396  1.00  0.00     0.016 A 
ATOM     46  C   UNL A   1      36.599  33.023  28.234  1.00  0.00     0.010 A 
ATOM     47  C   UNL A   1      36.049  32.266  30.454  1.00  0.00     0.010 A 
ATOM     48  C   UNL A   1      36.961  32.318  29.398  1.00  0.00    -0.014 A 
BRANCH  48  49
ATOM     49  C   UNL A   1      38.331  31.766  29.583  1.00  0.00     0.031 A 
ATOM     50  C   UNL A   1      39.432  32.553  30.240  1.00  0.00     0.074 A 
ATOM     51  C   UNL A   1      38.608  30.550  29.066  1.00  0.00     0.049 A 
ATOM     52  N   UNL A   1      40.645  32.162  30.544  1.00  0.00    -0.248 NA
ATOM     53  C   UNL A   1      39.161  33.962  30.568  1.00  0.00     0.031 C 
ATOM     54  C   UNL A   1      37.673  29.741  28.284  1.00  0.00     0.029 A 
ATOM     55  N   UNL A   1      39.742  29.777  29.128  1.00  0.00    -0.354 N 
ATOM     56  C   UNL A   1      41.269  33.261  31.120  1.00  0.00     0.074 A 
ATOM     57  C   UNL A   1      40.333  34.362  31.042  1.00  0.00     0.031 C 
ATOM     58  C   UNL A   1      38.241  28.561  28.002  1.00  0.00     0.029 A 
ATOM     59  C   UNL A   1      39.593  28.535  28.553  1.00  0.00     0.049 A 
ATOM     60  H   UNL A   1      40.582  30.082  29.543  1.00  0.00     0.167 HD
ATOM     61  C   UNL A   1      42.489  33.330  31.704  1.00  0.00     0.031 A 
ATOM     62  C   UNL A   1      40.429  27.478  28.499  1.00  0.00     0.031 A 
ATOM     63  C   UNL A   1      43.406  32.220  31.789  1.00  0.00     0.049 A 
ATOM     64  C   UNL A   1      41.764  27.560  29.185  1.00  0.00     0.074 A 
ATOM     65  C   UNL A   1      44.630  32.170  32.437  1.00  0.00     0.029 A 
ATOM     66  N   UNL A   1      43.209  30.971  31.220  1.00  0.00    -0.354 N 
ATOM     67  N   UNL A   1      42.287  28.567  29.845  1.00  0.00    -0.248 NA
ATOM     68  C   UNL A   1      42.612  26.361  29.149  1.00  0.00     0.031 C 
ATOM     69  C   UNL A   1      45.204  30.921  32.199  1.00  0.00     0.029 A 
ATOM     70  C   UNL A   1      44.298  30.154  31.482  1.00  0.00     0.049 A 
ATOM     71  H   UNL A   1      42.413  30.703  30.708  1.00  0.00     0.167 HD
ATOM     72  C   UNL A   1      43.507  28.109  30.332  1.00  0.00     0.074 A 
ATOM     73  C   UNL A   1      43.639  26.733  29.903  1.00  0.00     0.031 C 
ATOM     74  C   UNL A   1      44.428  28.777  31.069  1.00  0.00     0.031 A 
BRANCH  61  75
ATOM     75  C   UNL A   1      42.899  34.625  32.368  1.00  0.00    -0.014 A 
ATOM     76  C   UNL A   1      43.592  35.610  31.640  1.00  0.00     0.010 A 
ATOM     77  C   UNL A   1      42.733  34.795  33.755  1.00  0.00     0.010 A 
ATOM     78  C   UNL A   1      44.143  36.719  32.291  1.00  0.00     0.020 A 
ATOM     79  C   UNL A   1      43.250  35.921  34.403  1.00  0.00     0.020 A 
ATOM     80  C   UNL A   1      43.975  36.861  33.671  1.00  0.00     0.054 A 
BRANCH  80  81
ATOM     81  S   UNL A   1      44.735  38.282  34.506  1.00  0.00     0.124 S 
ATOM     82  O   UNL A   1      45.698  38.744  33.513  1.00  0.00    -0.237 OA
ATOM     83  O   UNL A   1      43.591  39.160  34.737  1.00  0.00    -0.237 OA
ATOM     84  O   UNL A   1      45.315  37.698  35.714  1.00  0.00    -0.744 OA
ENDBRANCH  80  81
ENDBRANCH  61  75
BRANCH  62  85
ATOM     85  C   UNL A   1      39.959  26.217  27.856  1.00  0.00    -0.014 A 
ATOM     86  C   UNL A   1      40.305  25.915  26.526  1.00  0.00     0.010 A 
ATOM     87  C   UNL A   1      39.079  25.360  28.541  1.00  0.00     0.010 A 
ATOM     88  C   UNL A   1      39.734  24.819  25.874  1.00  0.00     0.020 A 
ATOM     89  C   UNL A   1      38.534  24.239  27.905  1.00  0.00     0.020 A 
ATOM     90  C   UNL A   1      38.842  23.995  26.564  1.00  0.00     0.054 A 
BRANCH  90  91
ATOM     91  S   UNL A   1      38.063  22.619  25.676  1.00  0.00     0.124 S 
ATOM     92  O   UNL A   1      37.704  23.247  24.407  1.00  0.00    -0.237 OA
ATOM     93  O   UNL A   1      39.140  21.635  25.610  1.00  0.00    -0.237 OA
ATOM     94  O   UNL A   1      36.937  22.251  26.530  1.00  0.00    -0.744 OA
ENDBRANCH  90  91
ENDBRANCH  62  85
BRANCH  74  95
ATOM     95  C   UNL A   1      45.679  28.047  31.500  1.00  0.00    -0.014 A 
ATOM     96  C   UNL A   1      45.627  27.177  32.606  1.00  0.00     0.010 A 
ATOM     97  C   UNL A   1      46.926  28.330  30.916  1.00  0.00     0.010 A 
ATOM     98  C   UNL A   1      46.798  26.645  33.152  1.00  0.00     0.020 A 
ATOM     99  C   UNL A   1      48.098  27.770  31.436  1.00  0.00     0.020 A 
ATOM    100  C   UNL A   1      48.028  26.955  32.569  1.00  0.00     0.054 A 
BRANCH 100 101
ATOM    101  S   UNL A   1      49.542  26.301  33.326  1.00  0.00     0.124 S 
ATOM    102  O   UNL A   1      49.587  27.021  34.596  1.00  0.00    -0.237 OA
ATOM    103  O   UNL A   1      49.258  24.871  33.423  1.00  0.00    -0.237 OA
ATOM    104  O   UNL A   1      50.586  26.658  32.370  1.00  0.00    -0.744 OA
ENDBRANCH 100 101
ENDBRANCH  74  95
ENDBRANCH  48  49
ENDBRANCH  41  43
ENDBRANCH  40  41
ENDBRANCH  39  40
ENDBRANCH  38  39
ENDBRANCH  37  38
ENDBRANCH  36  37
ENDBRANCH  35  36
ENDBRANCH   1  35
TORSDOF 26
ENDMDL
