MODEL 1
REMARK VINA RESULT:     -10.4      0.000      0.000
REMARK SMILES Cc1cc(C)c2c(c1)C=C(C(=O)OCCOCCOCCOC(=O)c1ccc(-c3c4nc(c(-c5ccc(S(=O)(=O)[O-])cc5)c5ccc([nH]5)c(-c5ccc(S(=O)(=O)[O-])cc5)c5nc(c(-c6ccc(S(=O)(=O)[O-])cc6)c6ccc3[nH]6)C=C5)C=C4)cc1)[C@@H](C(F)(F)F)O2
REMARK SMILES IDX 18 1 17 2 16 3 15 4 14 5 13 6 11 7 12 8 10 9 1 10 2 11 3 12
REMARK SMILES IDX 8 13 4 14 7 15 5 16 6 17 9 18 90 19 85 20 86 21 87 22 88 23
REMARK SMILES IDX 89 24 19 25 20 26 21 27 22 28 23 29 24 30 25 31 26 32 84 33
REMARK SMILES IDX 27 34 83 35 28 36 29 37 30 38 77 39 31 40 82 41 76 42 78 43
REMARK SMILES IDX 32 44 81 45 75 46 74 47 33 49 63 50 44 51 62 52 45 53 48 54
REMARK SMILES IDX 61 55 79 56 46 57 47 58 60 60 80 61 49 62 34 63 35 64 43 65
REMARK SMILES IDX 36 66 42 67 37 68 38 69 39 70 40 71 41 72 64 73 65 74 73 75
REMARK SMILES IDX 66 76 72 77 67 78 68 79 69 80 70 81 71 82 50 83 51 84 59 85
REMARK SMILES IDX 52 86 58 87 53 88 54 89 55 90 56 91 57 92
REMARK H PARENT 78 48 48 59
REMARK Flexibility Score: inf
ROOT
ATOM      1  C   UNL A   1      41.609  20.315  26.066  1.00  0.00     0.188 C 
ENDROOT
BRANCH   1   2
ATOM      2  C   UNL A   1      40.174  20.668  26.517  1.00  0.00     0.188 C 
BRANCH   2   3
ATOM      3  O   UNL A   1      39.431  21.671  25.856  1.00  0.00    -0.376 OA
BRANCH   3   4
ATOM      4  C   UNL A   1      38.164  21.401  25.283  1.00  0.00     0.202 C 
BRANCH   4   5
ATOM      5  C   UNL A   1      36.905  22.187  25.661  1.00  0.00     0.261 C 
BRANCH   5   6
ATOM      6  O   UNL A   1      36.765  23.448  25.001  1.00  0.00    -0.460 OA
BRANCH   6   7
ATOM      7  C   UNL A   1      35.866  23.460  23.987  1.00  0.00     0.338 C 
ATOM      8  O   UNL A   1      35.989  22.930  22.895  1.00  0.00    -0.246 OA
BRANCH   7   9
ATOM      9  C   UNL A   1      34.633  24.135  24.426  1.00  0.00     0.087 C 
ATOM     10  C   UNL A   1      32.719  29.208  27.346  1.00  0.00     0.044 C 
ATOM     11  C   UNL A   1      32.585  27.890  26.642  1.00  0.00    -0.050 A 
ATOM     12  C   UNL A   1      31.359  27.215  26.629  1.00  0.00     0.010 A 
ATOM     13  C   UNL A   1      33.704  27.278  26.066  1.00  0.00     0.015 A 
ATOM     14  C   UNL A   1      31.232  25.957  26.020  1.00  0.00    -0.008 A 
ATOM     15  C   UNL A   1      33.595  26.019  25.465  1.00  0.00     0.018 A 
ATOM     16  C   UNL A   1      29.909  25.244  26.036  1.00  0.00     0.048 C 
ATOM     17  C   UNL A   1      32.358  25.371  25.419  1.00  0.00     0.130 A 
ATOM     18  C   UNL A   1      34.781  25.357  24.951  1.00  0.00     0.027 C 
ATOM     19  O   UNL A   1      32.169  24.157  24.815  1.00  0.00    -0.475 OA
ATOM     20  C   UNL A   1      33.312  23.435  24.283  1.00  0.00     0.316 C 
BRANCH  20  21
ATOM     21  C   UNL A   1      33.318  22.031  24.902  1.00  0.00     0.430 C 
ATOM     22  F   UNL A   1      34.101  21.183  24.188  1.00  0.00    -0.167 F 
ATOM     23  F   UNL A   1      33.817  22.036  26.162  1.00  0.00    -0.167 F 
ATOM     24  F   UNL A   1      32.082  21.488  24.960  1.00  0.00    -0.167 F 
ENDBRANCH  20  21
ENDBRANCH   7   9
ENDBRANCH   6   7
ENDBRANCH   5   6
ENDBRANCH   4   5
ENDBRANCH   3   4
ENDBRANCH   2   3
ENDBRANCH   1   2
BRANCH   1  25
ATOM     25  O   UNL A   1      42.672  21.238  26.214  1.00  0.00    -0.376 OA
BRANCH  25  26
ATOM     26  C   UNL A   1      42.641  22.456  25.488  1.00  0.00     0.202 C 
BRANCH  26  27
ATOM     27  C   UNL A   1      43.028  23.781  26.153  1.00  0.00     0.261 C 
BRANCH  27  28
ATOM     28  O   UNL A   1      41.944  24.447  26.813  1.00  0.00    -0.460 OA
BRANCH  28  29
ATOM     29  C   UNL A   1      41.594  25.643  26.274  1.00  0.00     0.338 C 
ATOM     30  O   UNL A   1      41.437  25.903  25.094  1.00  0.00    -0.246 OA
BRANCH  29  31
ATOM     31  C   UNL A   1      41.237  26.575  27.357  1.00  0.00     0.060 A 
ATOM     32  C   UNL A   1      41.934  27.788  27.443  1.00  0.00     0.016 A 
ATOM     33  C   UNL A   1      40.264  26.242  28.301  1.00  0.00     0.016 A 
ATOM     34  C   UNL A   1      41.672  28.667  28.491  1.00  0.00     0.010 A 
ATOM     35  C   UNL A   1      40.024  27.113  29.367  1.00  0.00     0.010 A 
ATOM     36  C   UNL A   1      40.745  28.315  29.480  1.00  0.00    -0.014 A 
BRANCH  36  37
ATOM     37  C   UNL A   1      40.664  29.116  30.723  1.00  0.00     0.031 A 
ATOM     38  C   UNL A   1      39.646  30.221  30.798  1.00  0.00     0.074 A 
ATOM     39  C   UNL A   1      41.456  28.850  31.777  1.00  0.00     0.049 A 
ATOM     40  N   UNL A   1      39.409  31.062  31.770  1.00  0.00    -0.248 NA
ATOM     41  C   UNL A   1      38.777  30.396  29.621  1.00  0.00     0.031 C 
ATOM     42  C   UNL A   1      42.438  27.769  31.848  1.00  0.00     0.029 A 
ATOM     43  N   UNL A   1      41.554  29.477  32.994  1.00  0.00    -0.354 N 
ATOM     44  C   UNL A   1      38.361  31.860  31.328  1.00  0.00     0.074 A 
ATOM     45  C   UNL A   1      38.026  31.423  29.990  1.00  0.00     0.031 C 
ATOM     46  C   UNL A   1      43.044  27.811  33.048  1.00  0.00     0.029 A 
ATOM     47  C   UNL A   1      42.516  28.939  33.816  1.00  0.00     0.049 A 
ATOM     48  H   UNL A   1      40.989  30.240  33.253  1.00  0.00     0.167 HD
ATOM     49  C   UNL A   1      37.727  32.863  31.979  1.00  0.00     0.031 A 
ATOM     50  C   UNL A   1      42.933  29.325  35.038  1.00  0.00     0.031 A 
ATOM     51  C   UNL A   1      38.081  33.319  33.295  1.00  0.00     0.049 A 
ATOM     52  C   UNL A   1      42.287  30.517  35.699  1.00  0.00     0.074 A 
ATOM     53  C   UNL A   1      37.508  34.341  34.034  1.00  0.00     0.029 A 
ATOM     54  N   UNL A   1      39.104  32.792  34.068  1.00  0.00    -0.354 N 
ATOM     55  N   UNL A   1      41.293  31.260  35.271  1.00  0.00    -0.248 NA
ATOM     56  C   UNL A   1      42.818  30.921  37.010  1.00  0.00     0.031 C 
ATOM     57  C   UNL A   1      38.219  34.464  35.231  1.00  0.00     0.029 A 
ATOM     58  C   UNL A   1      39.195  33.481  35.264  1.00  0.00     0.049 A 
ATOM     59  H   UNL A   1      39.680  32.039  33.804  1.00  0.00     0.167 HD
ATOM     60  C   UNL A   1      41.064  32.201  36.270  1.00  0.00     0.074 A 
ATOM     61  C   UNL A   1      42.016  31.929  37.327  1.00  0.00     0.031 C 
ATOM     62  C   UNL A   1      40.147  33.199  36.309  1.00  0.00     0.031 A 
BRANCH  49  63
ATOM     63  C   UNL A   1      36.599  33.550  31.263  1.00  0.00    -0.014 A 
ATOM     64  C   UNL A   1      36.718  33.910  29.909  1.00  0.00     0.010 A 
ATOM     65  C   UNL A   1      35.389  33.798  31.936  1.00  0.00     0.010 A 
ATOM     66  C   UNL A   1      35.655  34.530  29.247  1.00  0.00     0.020 A 
ATOM     67  C   UNL A   1      34.316  34.397  31.272  1.00  0.00     0.020 A 
ATOM     68  C   UNL A   1      34.461  34.769  29.933  1.00  0.00     0.054 A 
BRANCH  68  69
ATOM     69  S   UNL A   1      33.087  35.545  29.038  1.00  0.00     0.124 S 
ATOM     70  O   UNL A   1      32.571  34.427  28.252  1.00  0.00    -0.237 OA
ATOM     71  O   UNL A   1      32.221  36.004  30.121  1.00  0.00    -0.237 OA
ATOM     72  O   UNL A   1      33.729  36.604  28.265  1.00  0.00    -0.744 OA
ENDBRANCH  68  69
ENDBRANCH  49  63
BRANCH  50  73
ATOM     73  C   UNL A   1      44.029  28.584  35.720  1.00  0.00    -0.014 A 
ATOM     74  C   UNL A   1      43.737  27.511  36.580  1.00  0.00     0.010 A 
ATOM     75  C   UNL A   1      45.371  28.952  35.516  1.00  0.00     0.010 A 
ATOM     76  C   UNL A   1      44.767  26.826  37.232  1.00  0.00     0.020 A 
ATOM     77  C   UNL A   1      46.406  28.254  36.147  1.00  0.00     0.020 A 
ATOM     78  C   UNL A   1      46.095  27.200  37.008  1.00  0.00     0.054 A 
BRANCH  78  79
ATOM     79  S   UNL A   1      47.416  26.264  37.828  1.00  0.00     0.124 S 
ATOM     80  O   UNL A   1      48.428  26.183  36.779  1.00  0.00    -0.237 OA
ATOM     81  O   UNL A   1      47.749  27.121  38.962  1.00  0.00    -0.237 OA
ATOM     82  O   UNL A   1      46.773  24.999  38.178  1.00  0.00    -0.744 OA
ENDBRANCH  78  79
ENDBRANCH  50  73
BRANCH  62  83
ATOM     83  C   UNL A   1      40.097  34.060  37.543  1.00  0.00    -0.014 A 
ATOM     84  C   UNL A   1      40.909  35.201  37.668  1.00  0.00     0.010 A 
ATOM     85  C   UNL A   1      39.159  33.772  38.552  1.00  0.00     0.010 A 
ATOM     86  C   UNL A   1      40.797  36.027  38.789  1.00  0.00     0.020 A 
ATOM     87  C   UNL A   1      39.025  34.610  39.661  1.00  0.00     0.020 A 
ATOM     88  C   UNL A   1      39.853  35.729  39.778  1.00  0.00     0.054 A 
BRANCH  88  89
ATOM     89  S   UNL A   1      39.685  36.854  41.190  1.00  0.00     0.124 S 
ATOM     90  O   UNL A   1      38.683  37.801  40.709  1.00  0.00    -0.237 OA
ATOM     91  O   UNL A   1      39.243  35.962  42.260  1.00  0.00    -0.237 OA
ATOM     92  O   UNL A   1      41.029  37.401  41.359  1.00  0.00    -0.744 OA
ENDBRANCH  88  89
ENDBRANCH  62  83
ENDBRANCH  36  37
ENDBRANCH  29  31
ENDBRANCH  28  29
ENDBRANCH  27  28
ENDBRANCH  26  27
ENDBRANCH  25  26
ENDBRANCH   1  25
TORSDOF 21
ENDMDL
MODEL 2
REMARK VINA RESULT:     -10.4      6.540     12.120
REMARK SMILES Cc1cc(C)c2c(c1)C=C(C(=O)OCCOCCOCCOC(=O)c1ccc(-c3c4nc(c(-c5ccc(S(=O)(=O)[O-])cc5)c5ccc([nH]5)c(-c5ccc(S(=O)(=O)[O-])cc5)c5nc(c(-c6ccc(S(=O)(=O)[O-])cc6)c6ccc3[nH]6)C=C5)C=C4)cc1)[C@@H](C(F)(F)F)O2
REMARK SMILES IDX 18 1 17 2 16 3 15 4 14 5 13 6 11 7 12 8 10 9 1 10 2 11 3 12
REMARK SMILES IDX 8 13 4 14 7 15 5 16 6 17 9 18 90 19 85 20 86 21 87 22 88 23
REMARK SMILES IDX 89 24 19 25 20 26 21 27 22 28 23 29 24 30 25 31 26 32 84 33
REMARK SMILES IDX 27 34 83 35 28 36 29 37 30 38 77 39 31 40 82 41 76 42 78 43
REMARK SMILES IDX 32 44 81 45 75 46 74 47 33 49 63 50 44 51 62 52 45 53 48 54
REMARK SMILES IDX 61 55 79 56 46 57 47 58 60 60 80 61 49 62 34 63 35 64 43 65
REMARK SMILES IDX 36 66 42 67 37 68 38 69 39 70 40 71 41 72 64 73 65 74 73 75
REMARK SMILES IDX 66 76 72 77 67 78 68 79 69 80 70 81 71 82 50 83 51 84 59 85
REMARK SMILES IDX 52 86 58 87 53 88 54 89 55 90 56 91 57 92
REMARK H PARENT 78 48 48 59
REMARK Flexibility Score: inf
ROOT
ATOM      1  C   UNL A   1      33.319  32.326  27.869  1.00  0.00     0.188 C 
ENDROOT
BRANCH   1   2
ATOM      2  C   UNL A   1      32.408  31.289  27.176  1.00  0.00     0.188 C 
BRANCH   2   3
ATOM      3  O   UNL A   1      32.944  30.335  26.280  1.00  0.00    -0.376 OA
BRANCH   3   4
ATOM      4  C   UNL A   1      32.112  29.561  25.435  1.00  0.00     0.202 C 
BRANCH   4   5
ATOM      5  C   UNL A   1      32.187  28.033  25.379  1.00  0.00     0.261 C 
BRANCH   5   6
ATOM      6  O   UNL A   1      33.470  27.508  25.026  1.00  0.00    -0.460 OA
BRANCH   6   7
ATOM      7  C   UNL A   1      33.489  26.780  23.884  1.00  0.00     0.338 C 
ATOM      8  O   UNL A   1      33.568  27.209  22.744  1.00  0.00    -0.246 OA
BRANCH   7   9
ATOM      9  C   UNL A   1      33.504  25.344  24.212  1.00  0.00     0.087 C 
ATOM     10  C   UNL A   1      37.397  20.625  24.915  1.00  0.00     0.044 C 
ATOM     11  C   UNL A   1      36.067  21.319  24.866  1.00  0.00    -0.050 A 
ATOM     12  C   UNL A   1      34.880  20.578  24.883  1.00  0.00     0.010 A 
ATOM     13  C   UNL A   1      35.999  22.708  24.714  1.00  0.00     0.015 A 
ATOM     14  C   UNL A   1      33.631  21.211  24.785  1.00  0.00    -0.008 A 
ATOM     15  C   UNL A   1      34.762  23.352  24.603  1.00  0.00     0.018 A 
ATOM     16  C   UNL A   1      32.371  20.392  24.787  1.00  0.00     0.048 C 
ATOM     17  C   UNL A   1      33.580  22.609  24.664  1.00  0.00     0.130 A 
ATOM     18  C   UNL A   1      34.709  24.782  24.356  1.00  0.00     0.027 C 
ATOM     19  O   UNL A   1      32.335  23.175  24.601  1.00  0.00    -0.475 OA
ATOM     20  C   UNL A   1      32.206  24.600  24.351  1.00  0.00     0.316 C 
BRANCH  20  21
ATOM     21  C   UNL A   1      31.286  24.788  23.137  1.00  0.00     0.430 C 
ATOM     22  F   UNL A   1      31.988  24.736  21.977  1.00  0.00    -0.167 F 
ATOM     23  F   UNL A   1      30.349  23.814  23.057  1.00  0.00    -0.167 F 
ATOM     24  F   UNL A   1      30.636  25.973  23.163  1.00  0.00    -0.167 F 
ENDBRANCH  20  21
ENDBRANCH   7   9
ENDBRANCH   6   7
ENDBRANCH   5   6
ENDBRANCH   4   5
ENDBRANCH   3   4
ENDBRANCH   2   3
ENDBRANCH   1   2
BRANCH   1  25
ATOM     25  O   UNL A   1      34.649  32.540  27.435  1.00  0.00    -0.376 OA
BRANCH  25  26
ATOM     26  C   UNL A   1      35.598  33.082  28.341  1.00  0.00     0.202 C 
BRANCH  26  27
ATOM     27  C   UNL A   1      36.296  32.194  29.376  1.00  0.00     0.261 C 
BRANCH  27  28
ATOM     28  O   UNL A   1      37.464  31.523  28.884  1.00  0.00    -0.460 OA
BRANCH  28  29
ATOM     29  C   UNL A   1      37.421  30.169  28.961  1.00  0.00     0.338 C 
ATOM     30  O   UNL A   1      36.439  29.469  29.136  1.00  0.00    -0.246 OA
BRANCH  29  31
ATOM     31  C   UNL A   1      38.743  29.622  28.609  1.00  0.00     0.060 A 
ATOM     32  C   UNL A   1      39.669  29.414  29.641  1.00  0.00     0.016 A 
ATOM     33  C   UNL A   1      39.084  29.363  27.281  1.00  0.00     0.016 A 
ATOM     34  C   UNL A   1      40.952  28.961  29.342  1.00  0.00     0.010 A 
ATOM     35  C   UNL A   1      40.381  28.936  26.981  1.00  0.00     0.010 A 
ATOM     36  C   UNL A   1      41.326  28.760  28.007  1.00  0.00    -0.014 A 
BRANCH  36  37
ATOM     37  C   UNL A   1      42.752  28.543  27.673  1.00  0.00     0.031 A 
ATOM     38  C   UNL A   1      43.719  29.674  27.891  1.00  0.00     0.074 A 
ATOM     39  C   UNL A   1      43.188  27.356  27.212  1.00  0.00     0.049 A 
ATOM     40  N   UNL A   1      45.003  29.722  27.651  1.00  0.00    -0.248 NA
ATOM     41  C   UNL A   1      43.163  30.914  28.461  1.00  0.00     0.031 C 
ATOM     42  C   UNL A   1      42.360  26.167  27.015  1.00  0.00     0.029 A 
ATOM     43  N   UNL A   1      44.445  26.961  26.827  1.00  0.00    -0.354 N 
ATOM     44  C   UNL A   1      45.411  30.990  28.047  1.00  0.00     0.074 A 
ATOM     45  C   UNL A   1      44.235  31.690  28.516  1.00  0.00     0.031 C 
ATOM     46  C   UNL A   1      43.133  25.174  26.541  1.00  0.00     0.029 A 
ATOM     47  C   UNL A   1      44.500  25.666  26.371  1.00  0.00     0.049 A 
ATOM     48  H   UNL A   1      45.232  27.550  26.874  1.00  0.00     0.167 HD
ATOM     49  C   UNL A   1      46.655  31.522  28.031  1.00  0.00     0.031 A 
ATOM     50  C   UNL A   1      45.532  24.965  25.860  1.00  0.00     0.031 A 
ATOM     51  C   UNL A   1      47.819  30.838  27.536  1.00  0.00     0.049 A 
ATOM     52  C   UNL A   1      46.887  25.618  25.748  1.00  0.00     0.074 A 
ATOM     53  C   UNL A   1      49.121  31.301  27.462  1.00  0.00     0.029 A 
ATOM     54  N   UNL A   1      47.821  29.551  27.021  1.00  0.00    -0.354 N 
ATOM     55  N   UNL A   1      47.259  26.817  26.130  1.00  0.00    -0.248 NA
ATOM     56  C   UNL A   1      47.961  24.822  25.135  1.00  0.00     0.031 C 
ATOM     57  C   UNL A   1      49.901  30.312  26.856  1.00  0.00     0.029 A 
ATOM     58  C   UNL A   1      49.096  29.211  26.607  1.00  0.00     0.049 A 
ATOM     59  H   UNL A   1      47.032  28.966  26.960  1.00  0.00     0.167 HD
ATOM     60  C   UNL A   1      48.615  26.908  25.829  1.00  0.00     0.074 A 
ATOM     61  C   UNL A   1      48.999  25.641  25.241  1.00  0.00     0.031 C 
ATOM     62  C   UNL A   1      49.465  27.946  26.024  1.00  0.00     0.031 A 
BRANCH  49  63
ATOM     63  C   UNL A   1      46.815  32.926  28.544  1.00  0.00    -0.014 A 
ATOM     64  C   UNL A   1      47.136  33.169  29.891  1.00  0.00     0.010 A 
ATOM     65  C   UNL A   1      46.689  34.013  27.660  1.00  0.00     0.010 A 
ATOM     66  C   UNL A   1      47.303  34.477  30.351  1.00  0.00     0.020 A 
ATOM     67  C   UNL A   1      46.878  35.321  28.112  1.00  0.00     0.020 A 
ATOM     68  C   UNL A   1      47.173  35.545  29.459  1.00  0.00     0.054 A 
BRANCH  68  69
ATOM     69  S   UNL A   1      47.428  37.231  30.079  1.00  0.00     0.124 S 
ATOM     70  O   UNL A   1      46.058  37.731  30.162  1.00  0.00    -0.237 OA
ATOM     71  O   UNL A   1      48.091  37.001  31.360  1.00  0.00    -0.237 OA
ATOM     72  O   UNL A   1      48.257  37.857  29.053  1.00  0.00    -0.744 OA
ENDBRANCH  68  69
ENDBRANCH  49  63
BRANCH  50  73
ATOM     73  C   UNL A   1      45.327  23.564  25.402  1.00  0.00    -0.014 A 
ATOM     74  C   UNL A   1      44.793  23.300  24.129  1.00  0.00     0.010 A 
ATOM     75  C   UNL A   1      45.662  22.485  26.240  1.00  0.00     0.010 A 
ATOM     76  C   UNL A   1      44.586  21.983  23.707  1.00  0.00     0.020 A 
ATOM     77  C   UNL A   1      45.481  21.166  25.812  1.00  0.00     0.020 A 
ATOM     78  C   UNL A   1      44.935  20.925  24.550  1.00  0.00     0.054 A 
BRANCH  78  79
ATOM     79  S   UNL A   1      44.704  19.224  23.960  1.00  0.00     0.124 S 
ATOM     80  O   UNL A   1      45.930  18.575  24.413  1.00  0.00    -0.237 OA
ATOM     81  O   UNL A   1      43.482  18.818  24.648  1.00  0.00    -0.237 OA
ATOM     82  O   UNL A   1      44.574  19.379  22.513  1.00  0.00    -0.744 OA
ENDBRANCH  78  79
ENDBRANCH  50  73
BRANCH  62  83
ATOM     83  C   UNL A   1      50.906  27.758  25.629  1.00  0.00    -0.014 A 
ATOM     84  C   UNL A   1      51.851  27.257  26.542  1.00  0.00     0.010 A 
ATOM     85  C   UNL A   1      51.299  28.004  24.300  1.00  0.00     0.010 A 
ATOM     86  C   UNL A   1      53.167  27.022  26.136  1.00  0.00     0.020 A 
ATOM     87  C   UNL A   1      52.607  27.746  23.884  1.00  0.00     0.020 A 
ATOM     88  C   UNL A   1      53.537  27.265  24.808  1.00  0.00     0.054 A 
BRANCH  88  89
ATOM     89  S   UNL A   1      55.235  26.892  24.294  1.00  0.00     0.124 S 
ATOM     90  O   UNL A   1      55.131  26.939  22.838  1.00  0.00    -0.237 OA
ATOM     91  O   UNL A   1      56.001  27.976  24.905  1.00  0.00    -0.237 OA
ATOM     92  O   UNL A   1      55.486  25.567  24.857  1.00  0.00    -0.744 OA
ENDBRANCH  88  89
ENDBRANCH  62  83
ENDBRANCH  36  37
ENDBRANCH  29  31
ENDBRANCH  28  29
ENDBRANCH  27  28
ENDBRANCH  26  27
ENDBRANCH  25  26
ENDBRANCH   1  25
TORSDOF 21
ENDMDL
MODEL 3
REMARK VINA RESULT:      -9.9      7.225     14.053
REMARK SMILES Cc1cc(C)c2c(c1)C=C(C(=O)OCCOCCOCCOC(=O)c1ccc(-c3c4nc(c(-c5ccc(S(=O)(=O)[O-])cc5)c5ccc([nH]5)c(-c5ccc(S(=O)(=O)[O-])cc5)c5nc(c(-c6ccc(S(=O)(=O)[O-])cc6)c6ccc3[nH]6)C=C5)C=C4)cc1)[C@@H](C(F)(F)F)O2
REMARK SMILES IDX 18 1 17 2 16 3 15 4 14 5 13 6 11 7 12 8 10 9 1 10 2 11 3 12
REMARK SMILES IDX 8 13 4 14 7 15 5 16 6 17 9 18 90 19 85 20 86 21 87 22 88 23
REMARK SMILES IDX 89 24 19 25 20 26 21 27 22 28 23 29 24 30 25 31 26 32 84 33
REMARK SMILES IDX 27 34 83 35 28 36 29 37 30 38 77 39 31 40 82 41 76 42 78 43
REMARK SMILES IDX 32 44 81 45 75 46 74 47 33 49 63 50 44 51 62 52 45 53 48 54
REMARK SMILES IDX 61 55 79 56 46 57 47 58 60 60 80 61 49 62 34 63 35 64 43 65
REMARK SMILES IDX 36 66 42 67 37 68 38 69 39 70 40 71 41 72 64 73 65 74 73 75
REMARK SMILES IDX 66 76 72 77 67 78 68 79 69 80 70 81 71 82 50 83 51 84 59 85
REMARK SMILES IDX 52 86 58 87 53 88 54 89 55 90 56 91 57 92
REMARK H PARENT 78 48 48 59
REMARK Flexibility Score: inf
ROOT
ATOM      1  C   UNL A   1      47.262  20.885  38.582  1.00  0.00     0.188 C 
ENDROOT
BRANCH   1   2
ATOM      2  C   UNL A   1      46.983  19.474  39.144  1.00  0.00     0.188 C 
BRANCH   2   3
ATOM      3  O   UNL A   1      47.974  18.769  39.863  1.00  0.00    -0.376 OA
BRANCH   3   4
ATOM      4  C   UNL A   1      47.644  17.932  40.958  1.00  0.00     0.202 C 
BRANCH   4   5
ATOM      5  C   UNL A   1      46.560  18.296  41.976  1.00  0.00     0.261 C 
BRANCH   5   6
ATOM      6  O   UNL A   1      45.844  17.180  42.513  1.00  0.00    -0.460 OA
BRANCH   6   7
ATOM      7  C   UNL A   1      44.501  17.346  42.574  1.00  0.00     0.338 C 
ATOM      8  O   UNL A   1      43.880  18.372  42.345  1.00  0.00    -0.246 OA
BRANCH   7   9
ATOM      9  C   UNL A   1      43.854  16.055  42.862  1.00  0.00     0.087 C 
ATOM     10  C   UNL A   1      44.644  10.933  46.188  1.00  0.00     0.044 C 
ATOM     11  C   UNL A   1      43.967  11.855  45.216  1.00  0.00    -0.050 A 
ATOM     12  C   UNL A   1      42.902  11.398  44.431  1.00  0.00     0.010 A 
ATOM     13  C   UNL A   1      44.448  13.154  45.020  1.00  0.00     0.015 A 
ATOM     14  C   UNL A   1      42.293  12.234  43.481  1.00  0.00    -0.008 A 
ATOM     15  C   UNL A   1      43.859  13.994  44.069  1.00  0.00     0.018 A 
ATOM     16  C   UNL A   1      41.164  11.714  42.638  1.00  0.00     0.048 C 
ATOM     17  C   UNL A   1      42.768  13.545  43.319  1.00  0.00     0.130 A 
ATOM     18  C   UNL A   1      44.425  15.307  43.813  1.00  0.00     0.027 C 
ATOM     19  O   UNL A   1      42.119  14.323  42.399  1.00  0.00    -0.475 OA
ATOM     20  C   UNL A   1      42.633  15.646  42.090  1.00  0.00     0.316 C 
BRANCH  20  21
ATOM     21  C   UNL A   1      42.840  15.732  40.571  1.00  0.00     0.430 C 
ATOM     22  F   UNL A   1      42.229  14.701  39.934  1.00  0.00    -0.167 F 
ATOM     23  F   UNL A   1      42.309  16.865  40.052  1.00  0.00    -0.167 F 
ATOM     24  F   UNL A   1      44.146  15.704  40.227  1.00  0.00    -0.167 F 
ENDBRANCH  20  21
ENDBRANCH   7   9
ENDBRANCH   6   7
ENDBRANCH   5   6
ENDBRANCH   4   5
ENDBRANCH   3   4
ENDBRANCH   2   3
ENDBRANCH   1   2
BRANCH   1  25
ATOM     25  O   UNL A   1      46.302  21.919  38.687  1.00  0.00    -0.376 OA
BRANCH  25  26
ATOM     26  C   UNL A   1      46.042  22.744  37.562  1.00  0.00     0.202 C 
BRANCH  26  27
ATOM     27  C   UNL A   1      47.034  23.831  37.134  1.00  0.00     0.261 C 
BRANCH  27  28
ATOM     28  O   UNL A   1      46.815  25.105  37.755  1.00  0.00    -0.460 OA
BRANCH  28  29
ATOM     29  C   UNL A   1      47.349  26.163  37.094  1.00  0.00     0.338 C 
ATOM     30  O   UNL A   1      48.507  26.306  36.743  1.00  0.00    -0.246 OA
BRANCH  29  31
ATOM     31  C   UNL A   1      46.267  27.071  36.679  1.00  0.00     0.060 A 
ATOM     32  C   UNL A   1      44.959  26.772  37.086  1.00  0.00     0.016 A 
ATOM     33  C   UNL A   1      46.526  28.172  35.862  1.00  0.00     0.016 A 
ATOM     34  C   UNL A   1      43.899  27.568  36.659  1.00  0.00     0.010 A 
ATOM     35  C   UNL A   1      45.457  28.953  35.412  1.00  0.00     0.010 A 
ATOM     36  C   UNL A   1      44.140  28.638  35.787  1.00  0.00    -0.014 A 
BRANCH  36  37
ATOM     37  C   UNL A   1      42.998  29.310  35.124  1.00  0.00     0.031 A 
ATOM     38  C   UNL A   1      42.571  28.825  33.766  1.00  0.00     0.074 A 
ATOM     39  C   UNL A   1      42.334  30.313  35.727  1.00  0.00     0.049 A 
ATOM     40  N   UNL A   1      41.619  29.272  32.990  1.00  0.00    -0.248 NA
ATOM     41  C   UNL A   1      43.314  27.679  33.213  1.00  0.00     0.031 C 
ATOM     42  C   UNL A   1      42.614  30.832  37.065  1.00  0.00     0.029 A 
ATOM     43  N   UNL A   1      41.281  31.073  35.283  1.00  0.00    -0.354 N 
ATOM     44  C   UNL A   1      41.641  28.460  31.863  1.00  0.00     0.074 A 
ATOM     45  C   UNL A   1      42.719  27.511  32.042  1.00  0.00     0.031 C 
ATOM     46  C   UNL A   1      41.754  31.831  37.332  1.00  0.00     0.029 A 
ATOM     47  C   UNL A   1      40.886  32.042  36.174  1.00  0.00     0.049 A 
ATOM     48  H   UNL A   1      40.849  30.936  34.409  1.00  0.00     0.167 HD
ATOM     49  C   UNL A   1      40.832  28.494  30.779  1.00  0.00     0.031 A 
ATOM     50  C   UNL A   1      39.944  33.000  36.059  1.00  0.00     0.031 A 
ATOM     51  C   UNL A   1      39.783  29.457  30.586  1.00  0.00     0.049 A 
ATOM     52  C   UNL A   1      39.129  33.089  34.793  1.00  0.00     0.074 A 
ATOM     53  C   UNL A   1      38.919  29.583  29.512  1.00  0.00     0.029 A 
ATOM     54  N   UNL A   1      39.458  30.463  31.482  1.00  0.00    -0.354 N 
ATOM     55  N   UNL A   1      39.159  32.311  33.736  1.00  0.00    -0.248 NA
ATOM     56  C   UNL A   1      38.153  34.185  34.705  1.00  0.00     0.031 C 
ATOM     57  C   UNL A   1      38.106  30.698  29.735  1.00  0.00     0.029 A 
ATOM     58  C   UNL A   1      38.423  31.229  30.975  1.00  0.00     0.049 A 
ATOM     59  H   UNL A   1      39.898  30.611  32.350  1.00  0.00     0.167 HD
ATOM     60  C   UNL A   1      38.189  32.808  32.871  1.00  0.00     0.074 A 
ATOM     61  C   UNL A   1      37.584  33.947  33.531  1.00  0.00     0.031 C 
ATOM     62  C   UNL A   1      37.829  32.360  31.643  1.00  0.00     0.031 A 
BRANCH  49  63
ATOM     63  C   UNL A   1      41.071  27.471  29.704  1.00  0.00    -0.014 A 
ATOM     64  C   UNL A   1      40.129  26.458  29.451  1.00  0.00     0.010 A 
ATOM     65  C   UNL A   1      42.227  27.550  28.906  1.00  0.00     0.010 A 
ATOM     66  C   UNL A   1      40.352  25.526  28.435  1.00  0.00     0.020 A 
ATOM     67  C   UNL A   1      42.442  26.633  27.875  1.00  0.00     0.020 A 
ATOM     68  C   UNL A   1      41.507  25.619  27.653  1.00  0.00     0.054 A 
BRANCH  68  69
ATOM     69  S   UNL A   1      41.752  24.413  26.320  1.00  0.00     0.124 S 
ATOM     70  O   UNL A   1      40.533  23.614  26.409  1.00  0.00    -0.237 OA
ATOM     71  O   UNL A   1      41.861  25.264  25.138  1.00  0.00    -0.237 OA
ATOM     72  O   UNL A   1      42.979  23.719  26.700  1.00  0.00    -0.744 OA
ENDBRANCH  68  69
ENDBRANCH  49  63
BRANCH  50  73
ATOM     73  C   UNL A   1      39.722  33.964  37.170  1.00  0.00    -0.014 A 
ATOM     74  C   UNL A   1      38.892  33.626  38.253  1.00  0.00     0.010 A 
ATOM     75  C   UNL A   1      40.338  35.229  37.149  1.00  0.00     0.010 A 
ATOM     76  C   UNL A   1      38.672  34.540  39.289  1.00  0.00     0.020 A 
ATOM     77  C   UNL A   1      40.141  36.136  38.195  1.00  0.00     0.020 A 
ATOM     78  C   UNL A   1      39.301  35.787  39.255  1.00  0.00     0.054 A 
BRANCH  78  79
ATOM     79  S   UNL A   1      39.039  36.936  40.635  1.00  0.00     0.124 S 
ATOM     80  O   UNL A   1      38.224  37.976  40.015  1.00  0.00    -0.237 OA
ATOM     81  O   UNL A   1      38.355  36.096  41.615  1.00  0.00    -0.237 OA
ATOM     82  O   UNL A   1      40.393  37.339  41.007  1.00  0.00    -0.744 OA
ENDBRANCH  78  79
ENDBRANCH  50  73
BRANCH  62  83
ATOM     83  C   UNL A   1      36.711  33.076  30.932  1.00  0.00    -0.014 A 
ATOM     84  C   UNL A   1      35.382  32.973  31.378  1.00  0.00     0.010 A 
ATOM     85  C   UNL A   1      37.010  33.935  29.858  1.00  0.00     0.010 A 
ATOM     86  C   UNL A   1      34.369  33.702  30.750  1.00  0.00     0.020 A 
ATOM     87  C   UNL A   1      36.004  34.684  29.244  1.00  0.00     0.020 A 
ATOM     88  C   UNL A   1      34.687  34.556  29.688  1.00  0.00     0.054 A 
BRANCH  88  89
ATOM     89  S   UNL A   1      33.362  35.538  28.932  1.00  0.00     0.124 S 
ATOM     90  O   UNL A   1      34.095  36.341  27.958  1.00  0.00    -0.237 OA
ATOM     91  O   UNL A   1      32.486  34.513  28.369  1.00  0.00    -0.237 OA
ATOM     92  O   UNL A   1      32.797  36.282  30.055  1.00  0.00    -0.744 OA
ENDBRANCH  88  89
ENDBRANCH  62  83
ENDBRANCH  36  37
ENDBRANCH  29  31
ENDBRANCH  28  29
ENDBRANCH  27  28
ENDBRANCH  26  27
ENDBRANCH  25  26
ENDBRANCH   1  25
TORSDOF 21
ENDMDL
