MODEL 1
REMARK VINA RESULT:      -9.0      0.000      0.000
REMARK SMILES O=C(CCn1ccnc1)N[C@H]1C=C[C@H](C(=O)OCCOCCOCCOC(=O)c2ccc(-c3c4nc(c(-c5ccc(S(=O)(=O)[O-])cc5)c5ccc([nH]5)c(-c5ccc(S(=O)(=O)[O-])cc5)c5nc(c(-c6ccc(S(=O)(=O)[O-])cc6)c6ccc3[nH]6)C=C5)C=C4)cc2)C1
REMARK SMILES IDX 21 1 20 2 19 3 18 4 17 5 15 6 16 7 14 8 11 9 12 10 89 11
REMARK SMILES IDX 13 12 10 13 1 14 2 15 3 17 4 18 5 19 6 20 9 21 7 22 8 23
REMARK SMILES IDX 22 24 23 25 24 26 25 27 26 28 27 29 28 30 29 31 30 32 88 33
REMARK SMILES IDX 31 34 87 35 32 36 33 37 34 38 81 39 35 40 86 41 80 42 82 43
REMARK SMILES IDX 36 44 85 45 79 46 78 47 37 49 67 50 48 51 66 52 49 53 52 54
REMARK SMILES IDX 65 55 83 56 50 57 51 58 64 60 84 61 53 62 38 63 39 64 47 65
REMARK SMILES IDX 40 66 46 67 41 68 42 69 43 70 44 71 45 72 68 73 69 74 77 75
REMARK SMILES IDX 70 76 76 77 71 78 72 79 73 80 74 81 75 82 54 83 55 84 63 85
REMARK SMILES IDX 56 86 62 87 57 88 58 89 59 90 60 91 61 92
REMARK H PARENT 10 16 82 48 52 59
REMARK Flexibility Score: inf
ROOT
ATOM      1  C   UNL A   1      32.907  35.812  28.924  1.00  0.00     0.188 C 
ENDROOT
BRANCH   1   2
ATOM      2  O   UNL A   1      33.487  34.587  29.347  1.00  0.00    -0.376 OA
BRANCH   2   3
ATOM      3  C   UNL A   1      33.933  33.668  28.348  1.00  0.00     0.202 C 
BRANCH   3   4
ATOM      4  C   UNL A   1      32.932  32.686  27.707  1.00  0.00     0.261 C 
BRANCH   4   5
ATOM      5  O   UNL A   1      33.501  31.400  27.390  1.00  0.00    -0.463 OA
BRANCH   5   6
ATOM      6  C   UNL A   1      32.681  30.464  26.861  1.00  0.00     0.312 C 
ATOM      7  O   UNL A   1      31.883  30.684  25.955  1.00  0.00    -0.252 OA
BRANCH   6   8
ATOM      8  C   UNL A   1      32.892  29.056  27.437  1.00  0.00     0.124 C 
ATOM      9  C   UNL A   1      33.229  27.327  25.740  1.00  0.00     0.106 C 
ATOM     10  C   UNL A   1      31.960  27.108  26.476  1.00  0.00    -0.006 C 
ATOM     11  C   UNL A   1      33.973  28.335  26.625  1.00  0.00     0.048 C 
ATOM     12  C   UNL A   1      31.773  28.052  27.398  1.00  0.00    -0.014 C 
BRANCH   9  13
ATOM     13  N   UNL A   1      33.926  26.075  25.701  1.00  0.00    -0.350 N 
ATOM     14  O   UNL A   1      33.110  25.384  23.668  1.00  0.00    -0.275 OA
ATOM     15  C   UNL A   1      33.842  25.219  24.637  1.00  0.00     0.222 C 
ATOM     16  H   UNL A   1      34.487  25.821  26.469  1.00  0.00     0.164 HD
BRANCH  15  17
ATOM     17  C   UNL A   1      34.794  24.055  24.723  1.00  0.00     0.122 C 
BRANCH  17  18
ATOM     18  C   UNL A   1      34.496  23.060  23.606  1.00  0.00     0.133 C 
BRANCH  18  19
ATOM     19  N   UNL A   1      33.856  21.827  24.026  1.00  0.00    -0.337 N 
ATOM     20  C   UNL A   1      32.625  21.385  23.624  1.00  0.00     0.107 A 
ATOM     21  C   UNL A   1      34.344  20.915  24.919  1.00  0.00     0.199 A 
ATOM     22  C   UNL A   1      32.445  20.187  24.273  1.00  0.00     0.130 A 
ATOM     23  N   UNL A   1      33.526  19.897  25.062  1.00  0.00    -0.245 NA
ENDBRANCH  18  19
ENDBRANCH  17  18
ENDBRANCH  15  17
ENDBRANCH   9  13
ENDBRANCH   6   8
ENDBRANCH   5   6
ENDBRANCH   4   5
ENDBRANCH   3   4
ENDBRANCH   2   3
ENDBRANCH   1   2
BRANCH   1  24
ATOM     24  C   UNL A   1      33.427  37.109  29.560  1.00  0.00     0.188 C 
BRANCH  24  25
ATOM     25  O   UNL A   1      32.808  37.420  30.792  1.00  0.00    -0.376 OA
BRANCH  25  26
ATOM     26  C   UNL A   1      33.479  37.975  31.912  1.00  0.00     0.202 C 
BRANCH  26  27
ATOM     27  C   UNL A   1      34.019  37.095  33.039  1.00  0.00     0.261 C 
BRANCH  27  28
ATOM     28  O   UNL A   1      34.691  35.935  32.601  1.00  0.00    -0.460 OA
BRANCH  28  29
ATOM     29  C   UNL A   1      34.064  34.766  32.848  1.00  0.00     0.338 C 
ATOM     30  O   UNL A   1      32.897  34.498  32.645  1.00  0.00    -0.246 OA
BRANCH  29  31
ATOM     31  C   UNL A   1      35.093  33.832  33.328  1.00  0.00     0.060 A 
ATOM     32  C   UNL A   1      36.081  34.340  34.173  1.00  0.00     0.016 A 
ATOM     33  C   UNL A   1      35.153  32.533  32.799  1.00  0.00     0.016 A 
ATOM     34  C   UNL A   1      37.267  33.648  34.265  1.00  0.00     0.010 A 
ATOM     35  C   UNL A   1      36.340  31.855  32.870  1.00  0.00     0.010 A 
ATOM     36  C   UNL A   1      37.407  32.487  33.503  1.00  0.00    -0.014 A 
BRANCH  36  37
ATOM     37  C   UNL A   1      38.748  32.068  33.165  1.00  0.00     0.031 A 
ATOM     38  C   UNL A   1      39.692  31.954  34.285  1.00  0.00     0.074 A 
ATOM     39  C   UNL A   1      39.009  31.673  31.904  1.00  0.00     0.049 A 
ATOM     40  N   UNL A   1      40.789  32.609  34.468  1.00  0.00    -0.248 NA
ATOM     41  C   UNL A   1      39.310  31.071  35.399  1.00  0.00     0.031 C 
ATOM     42  C   UNL A   1      38.034  31.447  30.827  1.00  0.00     0.029 A 
ATOM     43  N   UNL A   1      40.179  31.247  31.360  1.00  0.00    -0.354 N 
ATOM     44  C   UNL A   1      41.342  32.070  35.622  1.00  0.00     0.074 A 
ATOM     45  C   UNL A   1      40.311  31.282  36.249  1.00  0.00     0.031 C 
ATOM     46  C   UNL A   1      38.614  30.712  29.855  1.00  0.00     0.029 A 
ATOM     47  C   UNL A   1      40.015  30.520  30.189  1.00  0.00     0.049 A 
ATOM     48  H   UNL A   1      41.060  31.436  31.757  1.00  0.00     0.167 HD
ATOM     49  C   UNL A   1      42.682  32.070  35.845  1.00  0.00     0.031 A 
ATOM     50  C   UNL A   1      40.941  29.729  29.598  1.00  0.00     0.031 A 
ATOM     51  C   UNL A   1      43.382  32.997  34.999  1.00  0.00     0.049 A 
ATOM     52  C   UNL A   1      42.269  30.123  30.130  1.00  0.00     0.074 A 
ATOM     53  C   UNL A   1      43.344  34.364  34.815  1.00  0.00     0.029 A 
ATOM     54  N   UNL A   1      44.036  32.476  33.907  1.00  0.00    -0.354 N 
ATOM     55  N   UNL A   1      42.826  31.281  29.905  1.00  0.00    -0.248 NA
ATOM     56  C   UNL A   1      42.825  29.379  31.251  1.00  0.00     0.031 C 
ATOM     57  C   UNL A   1      43.619  34.569  33.433  1.00  0.00     0.029 A 
ATOM     58  C   UNL A   1      43.830  33.320  32.843  1.00  0.00     0.049 A 
ATOM     59  H   UNL A   1      44.561  31.644  33.890  1.00  0.00     0.167 HD
ATOM     60  C   UNL A   1      43.505  31.589  31.076  1.00  0.00     0.074 A 
ATOM     61  C   UNL A   1      43.582  30.330  31.807  1.00  0.00     0.031 C 
ATOM     62  C   UNL A   1      43.686  32.886  31.466  1.00  0.00     0.031 A 
BRANCH  49  63
ATOM     63  C   UNL A   1      43.369  30.933  36.553  1.00  0.00    -0.014 A 
ATOM     64  C   UNL A   1      44.234  31.208  37.626  1.00  0.00     0.010 A 
ATOM     65  C   UNL A   1      43.387  29.621  36.029  1.00  0.00     0.010 A 
ATOM     66  C   UNL A   1      45.100  30.223  38.122  1.00  0.00     0.020 A 
ATOM     67  C   UNL A   1      44.204  28.621  36.548  1.00  0.00     0.020 A 
ATOM     68  C   UNL A   1      45.084  28.940  37.570  1.00  0.00     0.054 A 
BRANCH  68  69
ATOM     69  S   UNL A   1      46.279  27.706  38.135  1.00  0.00     0.124 S 
ATOM     70  O   UNL A   1      47.369  27.893  37.182  1.00  0.00    -0.237 OA
ATOM     71  O   UNL A   1      46.549  28.136  39.503  1.00  0.00    -0.237 OA
ATOM     72  O   UNL A   1      45.550  26.445  38.017  1.00  0.00    -0.744 OA
ENDBRANCH  68  69
ENDBRANCH  49  63
BRANCH  50  73
ATOM     73  C   UNL A   1      40.691  28.462  28.865  1.00  0.00    -0.014 A 
ATOM     74  C   UNL A   1      41.544  28.040  27.832  1.00  0.00     0.010 A 
ATOM     75  C   UNL A   1      39.739  27.536  29.346  1.00  0.00     0.010 A 
ATOM     76  C   UNL A   1      41.481  26.728  27.334  1.00  0.00     0.020 A 
ATOM     77  C   UNL A   1      39.657  26.234  28.844  1.00  0.00     0.020 A 
ATOM     78  C   UNL A   1      40.546  25.828  27.855  1.00  0.00     0.054 A 
BRANCH  78  79
ATOM     79  S   UNL A   1      40.577  24.093  27.323  1.00  0.00     0.124 S 
ATOM     80  O   UNL A   1      39.166  23.723  27.388  1.00  0.00    -0.237 OA
ATOM     81  O   UNL A   1      41.149  24.182  25.983  1.00  0.00    -0.237 OA
ATOM     82  O   UNL A   1      41.433  23.444  28.315  1.00  0.00    -0.744 OA
ENDBRANCH  78  79
ENDBRANCH  50  73
BRANCH  62  83
ATOM     83  C   UNL A   1      43.431  33.975  30.446  1.00  0.00    -0.014 A 
ATOM     84  C   UNL A   1      42.147  34.493  30.186  1.00  0.00     0.010 A 
ATOM     85  C   UNL A   1      44.540  34.613  29.862  1.00  0.00     0.010 A 
ATOM     86  C   UNL A   1      41.976  35.611  29.357  1.00  0.00     0.020 A 
ATOM     87  C   UNL A   1      44.378  35.737  29.047  1.00  0.00     0.020 A 
ATOM     88  C   UNL A   1      43.096  36.230  28.797  1.00  0.00     0.054 A 
BRANCH  88  89
ATOM     89  S   UNL A   1      42.873  37.734  27.803  1.00  0.00     0.124 S 
ATOM     90  O   UNL A   1      44.176  37.887  27.161  1.00  0.00    -0.237 OA
ATOM     91  O   UNL A   1      41.771  37.378  26.913  1.00  0.00    -0.237 OA
ATOM     92  O   UNL A   1      42.549  38.760  28.793  1.00  0.00    -0.744 OA
ENDBRANCH  88  89
ENDBRANCH  62  83
ENDBRANCH  36  37
ENDBRANCH  29  31
ENDBRANCH  28  29
ENDBRANCH  27  28
ENDBRANCH  26  27
ENDBRANCH  25  26
ENDBRANCH  24  25
ENDBRANCH   1  24
TORSDOF 24
ENDMDL
MODEL 2
REMARK VINA RESULT:      -8.6      3.824      9.264
REMARK SMILES O=C(CCn1ccnc1)N[C@H]1C=C[C@H](C(=O)OCCOCCOCCOC(=O)c2ccc(-c3c4nc(c(-c5ccc(S(=O)(=O)[O-])cc5)c5ccc([nH]5)c(-c5ccc(S(=O)(=O)[O-])cc5)c5nc(c(-c6ccc(S(=O)(=O)[O-])cc6)c6ccc3[nH]6)C=C5)C=C4)cc2)C1
REMARK SMILES IDX 21 1 20 2 19 3 18 4 17 5 15 6 16 7 14 8 11 9 12 10 89 11
REMARK SMILES IDX 13 12 10 13 1 14 2 15 3 17 4 18 5 19 6 20 9 21 7 22 8 23
REMARK SMILES IDX 22 24 23 25 24 26 25 27 26 28 27 29 28 30 29 31 30 32 88 33
REMARK SMILES IDX 31 34 87 35 32 36 33 37 34 38 81 39 35 40 86 41 80 42 82 43
REMARK SMILES IDX 36 44 85 45 79 46 78 47 37 49 67 50 48 51 66 52 49 53 52 54
REMARK SMILES IDX 65 55 83 56 50 57 51 58 64 60 84 61 53 62 38 63 39 64 47 65
REMARK SMILES IDX 40 66 46 67 41 68 42 69 43 70 44 71 45 72 68 73 69 74 77 75
REMARK SMILES IDX 70 76 76 77 71 78 72 79 73 80 74 81 75 82 54 83 55 84 63 85
REMARK SMILES IDX 56 86 62 87 57 88 58 89 59 90 60 91 61 92
REMARK H PARENT 10 16 82 48 52 59
REMARK Flexibility Score: inf
ROOT
ATOM      1  C   UNL A   1      33.223  34.944  28.725  1.00  0.00     0.188 C 
ENDROOT
BRANCH   1   2
ATOM      2  O   UNL A   1      33.880  34.019  29.580  1.00  0.00    -0.376 OA
BRANCH   2   3
ATOM      3  C   UNL A   1      35.285  33.822  29.411  1.00  0.00     0.202 C 
BRANCH   3   4
ATOM      4  C   UNL A   1      35.806  32.521  28.767  1.00  0.00     0.261 C 
BRANCH   4   5
ATOM      5  O   UNL A   1      36.891  31.909  29.491  1.00  0.00    -0.463 OA
BRANCH   5   6
ATOM      6  C   UNL A   1      37.141  30.600  29.258  1.00  0.00     0.312 C 
ATOM      7  O   UNL A   1      36.362  29.845  28.684  1.00  0.00    -0.252 OA
BRANCH   6   8
ATOM      8  C   UNL A   1      38.539  30.145  29.700  1.00  0.00     0.124 C 
ATOM      9  C   UNL A   1      39.046  27.814  29.159  1.00  0.00     0.106 C 
ATOM     10  C   UNL A   1      38.980  28.016  30.628  1.00  0.00    -0.006 C 
ATOM     11  C   UNL A   1      39.144  29.245  28.617  1.00  0.00     0.048 C 
ATOM     12  C   UNL A   1      38.700  29.285  30.923  1.00  0.00    -0.014 C 
BRANCH   9  13
ATOM     13  N   UNL A   1      40.246  27.082  28.879  1.00  0.00    -0.350 N 
ATOM     14  O   UNL A   1      39.221  25.102  28.325  1.00  0.00    -0.275 OA
ATOM     15  C   UNL A   1      40.232  25.787  28.439  1.00  0.00     0.222 C 
ATOM     16  H   UNL A   1      41.114  27.527  29.009  1.00  0.00     0.164 HD
BRANCH  15  17
ATOM     17  C   UNL A   1      41.588  25.274  28.031  1.00  0.00     0.122 C 
BRANCH  17  18
ATOM     18  C   UNL A   1      41.897  25.710  26.602  1.00  0.00     0.133 C 
BRANCH  18  19
ATOM     19  N   UNL A   1      43.167  25.248  26.073  1.00  0.00    -0.337 N 
ATOM     20  C   UNL A   1      44.405  25.644  26.500  1.00  0.00     0.107 A 
ATOM     21  C   UNL A   1      43.353  24.374  25.039  1.00  0.00     0.199 A 
ATOM     22  C   UNL A   1      45.294  24.946  25.716  1.00  0.00     0.130 A 
ATOM     23  N   UNL A   1      44.629  24.148  24.823  1.00  0.00    -0.245 NA
ENDBRANCH  18  19
ENDBRANCH  17  18
ENDBRANCH  15  17
ENDBRANCH   9  13
ENDBRANCH   6   8
ENDBRANCH   5   6
ENDBRANCH   4   5
ENDBRANCH   3   4
ENDBRANCH   2   3
ENDBRANCH   1   2
BRANCH   1  24
ATOM     24  C   UNL A   1      33.072  36.392  29.215  1.00  0.00     0.188 C 
BRANCH  24  25
ATOM     25  O   UNL A   1      32.613  36.489  30.548  1.00  0.00    -0.376 OA
BRANCH  25  26
ATOM     26  C   UNL A   1      33.232  37.271  31.557  1.00  0.00     0.202 C 
BRANCH  26  27
ATOM     27  C   UNL A   1      33.923  36.626  32.759  1.00  0.00     0.261 C 
BRANCH  27  28
ATOM     28  O   UNL A   1      34.584  35.415  32.469  1.00  0.00    -0.460 OA
BRANCH  28  29
ATOM     29  C   UNL A   1      34.048  34.308  33.025  1.00  0.00     0.338 C 
ATOM     30  O   UNL A   1      32.884  33.963  33.005  1.00  0.00    -0.246 OA
BRANCH  29  31
ATOM     31  C   UNL A   1      35.167  33.538  33.586  1.00  0.00     0.060 A 
ATOM     32  C   UNL A   1      35.797  34.049  34.722  1.00  0.00     0.016 A 
ATOM     33  C   UNL A   1      35.671  32.432  32.883  1.00  0.00     0.016 A 
ATOM     34  C   UNL A   1      37.079  33.628  34.992  1.00  0.00     0.010 A 
ATOM     35  C   UNL A   1      36.955  32.028  33.135  1.00  0.00     0.010 A 
ATOM     36  C   UNL A   1      37.670  32.722  34.109  1.00  0.00    -0.014 A 
BRANCH  36  37
ATOM     37  C   UNL A   1      39.113  32.689  34.051  1.00  0.00     0.031 A 
ATOM     38  C   UNL A   1      39.717  33.042  32.760  1.00  0.00     0.074 A 
ATOM     39  C   UNL A   1      39.806  32.491  35.189  1.00  0.00     0.049 A 
ATOM     40  N   UNL A   1      40.457  32.303  32.002  1.00  0.00    -0.248 NA
ATOM     41  C   UNL A   1      39.364  34.350  32.187  1.00  0.00     0.031 C 
ATOM     42  C   UNL A   1      39.271  32.467  36.559  1.00  0.00     0.029 A 
ATOM     43  N   UNL A   1      41.149  32.419  35.378  1.00  0.00    -0.354 N 
ATOM     44  C   UNL A   1      40.834  33.129  30.952  1.00  0.00     0.074 A 
ATOM     45  C   UNL A   1      39.987  34.293  31.012  1.00  0.00     0.031 C 
ATOM     46  C   UNL A   1      40.289  32.623  37.432  1.00  0.00     0.029 A 
ATOM     47  C   UNL A   1      41.539  32.640  36.692  1.00  0.00     0.049 A 
ATOM     48  H   UNL A   1      41.786  32.227  34.652  1.00  0.00     0.167 HD
ATOM     49  C   UNL A   1      41.996  32.944  30.272  1.00  0.00     0.031 A 
ATOM     50  C   UNL A   1      42.790  32.927  37.121  1.00  0.00     0.031 A 
ATOM     51  C   UNL A   1      42.554  31.636  30.481  1.00  0.00     0.049 A 
ATOM     52  C   UNL A   1      43.734  32.513  36.053  1.00  0.00     0.074 A 
ATOM     53  C   UNL A   1      42.126  30.347  30.238  1.00  0.00     0.029 A 
ATOM     54  N   UNL A   1      43.601  31.537  31.367  1.00  0.00    -0.354 N 
ATOM     55  N   UNL A   1      43.927  31.273  35.696  1.00  0.00    -0.248 NA
ATOM     56  C   UNL A   1      44.188  33.509  35.092  1.00  0.00     0.031 C 
ATOM     57  C   UNL A   1      42.670  29.561  31.293  1.00  0.00     0.029 A 
ATOM     58  C   UNL A   1      43.419  30.403  32.120  1.00  0.00     0.049 A 
ATOM     59  H   UNL A   1      44.351  32.170  31.448  1.00  0.00     0.167 HD
ATOM     60  C   UNL A   1      44.140  31.322  34.325  1.00  0.00     0.074 A 
ATOM     61  C   UNL A   1      44.426  32.723  34.039  1.00  0.00     0.031 C 
ATOM     62  C   UNL A   1      43.786  30.278  33.518  1.00  0.00     0.031 A 
BRANCH  49  63
ATOM     63  C   UNL A   1      42.803  34.102  29.749  1.00  0.00    -0.014 A 
ATOM     64  C   UNL A   1      43.460  34.952  30.655  1.00  0.00     0.010 A 
ATOM     65  C   UNL A   1      42.722  34.528  28.405  1.00  0.00     0.010 A 
ATOM     66  C   UNL A   1      43.978  36.186  30.236  1.00  0.00     0.020 A 
ATOM     67  C   UNL A   1      43.280  35.726  27.967  1.00  0.00     0.020 A 
ATOM     68  C   UNL A   1      43.873  36.567  28.896  1.00  0.00     0.054 A 
BRANCH  68  69
ATOM     69  S   UNL A   1      44.440  38.204  28.382  1.00  0.00     0.124 S 
ATOM     70  O   UNL A   1      45.881  38.097  28.592  1.00  0.00    -0.237 OA
ATOM     71  O   UNL A   1      44.003  38.266  26.992  1.00  0.00    -0.237 OA
ATOM     72  O   UNL A   1      43.739  39.109  29.291  1.00  0.00    -0.744 OA
ENDBRANCH  68  69
ENDBRANCH  49  63
BRANCH  50  73
ATOM     73  C   UNL A   1      43.162  33.823  38.245  1.00  0.00    -0.014 A 
ATOM     74  C   UNL A   1      44.069  33.408  39.235  1.00  0.00     0.010 A 
ATOM     75  C   UNL A   1      42.806  35.189  38.215  1.00  0.00     0.010 A 
ATOM     76  C   UNL A   1      44.635  34.334  40.128  1.00  0.00     0.020 A 
ATOM     77  C   UNL A   1      43.350  36.114  39.112  1.00  0.00     0.020 A 
ATOM     78  C   UNL A   1      44.282  35.685  40.051  1.00  0.00     0.054 A 
BRANCH  78  79
ATOM     79  S   UNL A   1      45.136  36.897  41.097  1.00  0.00     0.124 S 
ATOM     80  O   UNL A   1      46.540  36.607  40.825  1.00  0.00    -0.237 OA
ATOM     81  O   UNL A   1      44.639  38.169  40.580  1.00  0.00    -0.237 OA
ATOM     82  O   UNL A   1      44.685  36.565  42.448  1.00  0.00    -0.744 OA
ENDBRANCH  78  79
ENDBRANCH  50  73
BRANCH  62  83
ATOM     83  C   UNL A   1      43.468  28.951  34.174  1.00  0.00    -0.014 A 
ATOM     84  C   UNL A   1      42.151  28.484  34.354  1.00  0.00     0.010 A 
ATOM     85  C   UNL A   1      44.532  28.077  34.458  1.00  0.00     0.010 A 
ATOM     86  C   UNL A   1      41.905  27.183  34.815  1.00  0.00     0.020 A 
ATOM     87  C   UNL A   1      44.295  26.772  34.903  1.00  0.00     0.020 A 
ATOM     88  C   UNL A   1      42.982  26.332  35.081  1.00  0.00     0.054 A 
BRANCH  88  89
ATOM     89  S   UNL A   1      42.654  24.617  35.584  1.00  0.00     0.124 S 
ATOM     90  O   UNL A   1      41.283  24.689  36.082  1.00  0.00    -0.237 OA
ATOM     91  O   UNL A   1      42.833  23.872  34.340  1.00  0.00    -0.237 OA
ATOM     92  O   UNL A   1      43.668  24.354  36.603  1.00  0.00    -0.744 OA
ENDBRANCH  88  89
ENDBRANCH  62  83
ENDBRANCH  36  37
ENDBRANCH  29  31
ENDBRANCH  28  29
ENDBRANCH  27  28
ENDBRANCH  26  27
ENDBRANCH  25  26
ENDBRANCH  24  25
ENDBRANCH   1  24
TORSDOF 24
ENDMDL
MODEL 3
REMARK VINA RESULT:      -8.6      5.126     10.706
REMARK SMILES O=C(CCn1ccnc1)N[C@H]1C=C[C@H](C(=O)OCCOCCOCCOC(=O)c2ccc(-c3c4nc(c(-c5ccc(S(=O)(=O)[O-])cc5)c5ccc([nH]5)c(-c5ccc(S(=O)(=O)[O-])cc5)c5nc(c(-c6ccc(S(=O)(=O)[O-])cc6)c6ccc3[nH]6)C=C5)C=C4)cc2)C1
REMARK SMILES IDX 21 1 20 2 19 3 18 4 17 5 15 6 16 7 14 8 11 9 12 10 89 11
REMARK SMILES IDX 13 12 10 13 1 14 2 15 3 17 4 18 5 19 6 20 9 21 7 22 8 23
REMARK SMILES IDX 22 24 23 25 24 26 25 27 26 28 27 29 28 30 29 31 30 32 88 33
REMARK SMILES IDX 31 34 87 35 32 36 33 37 34 38 81 39 35 40 86 41 80 42 82 43
REMARK SMILES IDX 36 44 85 45 79 46 78 47 37 49 67 50 48 51 66 52 49 53 52 54
REMARK SMILES IDX 65 55 83 56 50 57 51 58 64 60 84 61 53 62 38 63 39 64 47 65
REMARK SMILES IDX 40 66 46 67 41 68 42 69 43 70 44 71 45 72 68 73 69 74 77 75
REMARK SMILES IDX 70 76 76 77 71 78 72 79 73 80 74 81 75 82 54 83 55 84 63 85
REMARK SMILES IDX 56 86 62 87 57 88 58 89 59 90 60 91 61 92
REMARK H PARENT 10 16 82 48 52 59
REMARK Flexibility Score: inf
ROOT
ATOM      1  C   UNL A   1      42.646  18.717  26.269  1.00  0.00     0.188 C 
ENDROOT
BRANCH   1   2
ATOM      2  O   UNL A   1      43.978  18.412  25.884  1.00  0.00    -0.376 OA
BRANCH   2   3
ATOM      3  C   UNL A   1      44.409  18.793  24.576  1.00  0.00     0.202 C 
BRANCH   3   4
ATOM      4  C   UNL A   1      45.593  19.767  24.411  1.00  0.00     0.261 C 
BRANCH   4   5
ATOM      5  O   UNL A   1      45.467  20.972  25.193  1.00  0.00    -0.463 OA
BRANCH   5   6
ATOM      6  C   UNL A   1      45.262  22.131  24.528  1.00  0.00     0.312 C 
ATOM      7  O   UNL A   1      44.599  22.225  23.499  1.00  0.00    -0.252 OA
BRANCH   6   8
ATOM      8  C   UNL A   1      45.864  23.361  25.223  1.00  0.00     0.124 C 
ATOM      9  C   UNL A   1      44.675  24.042  27.249  1.00  0.00     0.106 C 
ATOM     10  C   UNL A   1      44.556  25.075  26.191  1.00  0.00    -0.006 C 
ATOM     11  C   UNL A   1      45.820  23.157  26.740  1.00  0.00     0.048 C 
ATOM     12  C   UNL A   1      45.200  24.704  25.085  1.00  0.00    -0.014 C 
BRANCH   9  13
ATOM     13  N   UNL A   1      45.049  24.709  28.462  1.00  0.00    -0.350 N 
ATOM     14  O   UNL A   1      44.263  23.099  29.898  1.00  0.00    -0.275 OA
ATOM     15  C   UNL A   1      44.849  24.156  29.697  1.00  0.00     0.222 C 
ATOM     16  H   UNL A   1      45.466  25.598  28.404  1.00  0.00     0.164 HD
BRANCH  15  17
ATOM     17  C   UNL A   1      45.481  24.939  30.817  1.00  0.00     0.122 C 
BRANCH  17  18
ATOM     18  C   UNL A   1      44.944  24.447  32.158  1.00  0.00     0.133 C 
BRANCH  18  19
ATOM     19  N   UNL A   1      44.181  25.422  32.916  1.00  0.00    -0.337 N 
ATOM     20  C   UNL A   1      43.561  25.197  34.115  1.00  0.00     0.107 A 
ATOM     21  C   UNL A   1      43.914  26.712  32.556  1.00  0.00     0.199 A 
ATOM     22  C   UNL A   1      42.974  26.395  34.445  1.00  0.00     0.130 A 
ATOM     23  N   UNL A   1      43.213  27.334  33.477  1.00  0.00    -0.245 NA
ENDBRANCH  18  19
ENDBRANCH  17  18
ENDBRANCH  15  17
ENDBRANCH   9  13
ENDBRANCH   6   8
ENDBRANCH   5   6
ENDBRANCH   4   5
ENDBRANCH   3   4
ENDBRANCH   2   3
ENDBRANCH   1   2
BRANCH   1  24
ATOM     24  C   UNL A   1      42.117  20.128  25.970  1.00  0.00     0.188 C 
BRANCH  24  25
ATOM     25  O   UNL A   1      42.135  20.985  27.094  1.00  0.00    -0.376 OA
BRANCH  25  26
ATOM     26  C   UNL A   1      40.977  21.529  27.708  1.00  0.00     0.202 C 
BRANCH  26  27
ATOM     27  C   UNL A   1      39.806  22.060  26.880  1.00  0.00     0.261 C 
BRANCH  27  28
ATOM     28  O   UNL A   1      40.001  23.356  26.360  1.00  0.00    -0.460 OA
BRANCH  28  29
ATOM     29  C   UNL A   1      39.442  24.360  27.067  1.00  0.00     0.338 C 
ATOM     30  O   UNL A   1      38.298  24.431  27.471  1.00  0.00    -0.246 OA
BRANCH  29  31
ATOM     31  C   UNL A   1      40.516  25.325  27.344  1.00  0.00     0.060 A 
ATOM     32  C   UNL A   1      41.416  25.014  28.364  1.00  0.00     0.016 A 
ATOM     33  C   UNL A   1      40.503  26.579  26.712  1.00  0.00     0.016 A 
ATOM     34  C   UNL A   1      42.118  26.047  28.941  1.00  0.00     0.010 A 
ATOM     35  C   UNL A   1      41.182  27.612  27.300  1.00  0.00     0.010 A 
ATOM     36  C   UNL A   1      41.879  27.341  28.474  1.00  0.00    -0.014 A 
BRANCH  36  37
ATOM     37  C   UNL A   1      42.160  28.437  29.373  1.00  0.00     0.031 A 
ATOM     38  C   UNL A   1      41.017  28.959  30.134  1.00  0.00     0.074 A 
ATOM     39  C   UNL A   1      43.441  28.808  29.568  1.00  0.00     0.049 A 
ATOM     40  N   UNL A   1      40.519  30.150  30.100  1.00  0.00    -0.248 NA
ATOM     41  C   UNL A   1      40.266  28.001  30.960  1.00  0.00     0.031 C 
ATOM     42  C   UNL A   1      44.646  28.110  29.096  1.00  0.00     0.029 A 
ATOM     43  N   UNL A   1      43.940  29.799  30.352  1.00  0.00    -0.354 N 
ATOM     44  C   UNL A   1      39.516  30.147  31.060  1.00  0.00     0.074 A 
ATOM     45  C   UNL A   1      39.277  28.769  31.409  1.00  0.00     0.031 C 
ATOM     46  C   UNL A   1      45.713  28.556  29.792  1.00  0.00     0.029 A 
ATOM     47  C   UNL A   1      45.284  29.638  30.661  1.00  0.00     0.049 A 
ATOM     48  H   UNL A   1      43.401  30.559  30.669  1.00  0.00     0.167 HD
ATOM     49  C   UNL A   1      39.143  31.278  31.712  1.00  0.00     0.031 A 
ATOM     50  C   UNL A   1      45.964  30.277  31.642  1.00  0.00     0.031 A 
ATOM     51  C   UNL A   1      39.588  32.472  31.048  1.00  0.00     0.049 A 
ATOM     52  C   UNL A   1      45.184  31.484  32.013  1.00  0.00     0.074 A 
ATOM     53  C   UNL A   1      39.367  33.033  29.807  1.00  0.00     0.029 A 
ATOM     54  N   UNL A   1      40.698  33.099  31.565  1.00  0.00    -0.354 N 
ATOM     55  N   UNL A   1      44.991  32.497  31.214  1.00  0.00    -0.248 NA
ATOM     56  C   UNL A   1      44.270  31.409  33.144  1.00  0.00     0.031 C 
ATOM     57  C   UNL A   1      40.585  33.686  29.463  1.00  0.00     0.029 A 
ATOM     58  C   UNL A   1      41.485  33.510  30.517  1.00  0.00     0.049 A 
ATOM     59  H   UNL A   1      40.894  33.230  32.521  1.00  0.00     0.167 HD
ATOM     60  C   UNL A   1      43.707  32.943  31.499  1.00  0.00     0.074 A 
ATOM     61  C   UNL A   1      43.373  32.330  32.780  1.00  0.00     0.031 C 
ATOM     62  C   UNL A   1      42.935  33.534  30.540  1.00  0.00     0.031 A 
BRANCH  49  63
ATOM     63  C   UNL A   1      38.721  31.259  33.157  1.00  0.00    -0.014 A 
ATOM     64  C   UNL A   1      37.514  31.872  33.535  1.00  0.00     0.010 A 
ATOM     65  C   UNL A   1      39.603  30.878  34.193  1.00  0.00     0.010 A 
ATOM     66  C   UNL A   1      37.226  32.123  34.884  1.00  0.00     0.020 A 
ATOM     67  C   UNL A   1      39.303  31.073  35.539  1.00  0.00     0.020 A 
ATOM     68  C   UNL A   1      38.130  31.730  35.874  1.00  0.00     0.054 A 
BRANCH  68  69
ATOM     69  S   UNL A   1      37.808  32.156  37.601  1.00  0.00     0.124 S 
ATOM     70  O   UNL A   1      39.152  32.449  38.089  1.00  0.00    -0.237 OA
ATOM     71  O   UNL A   1      36.911  33.301  37.479  1.00  0.00    -0.237 OA
ATOM     72  O   UNL A   1      37.194  30.945  38.142  1.00  0.00    -0.744 OA
ENDBRANCH  68  69
ENDBRANCH  49  63
BRANCH  50  73
ATOM     73  C   UNL A   1      47.060  29.719  32.473  1.00  0.00    -0.014 A 
ATOM     74  C   UNL A   1      47.029  28.386  32.916  1.00  0.00     0.010 A 
ATOM     75  C   UNL A   1      48.268  30.433  32.633  1.00  0.00     0.010 A 
ATOM     76  C   UNL A   1      48.176  27.777  33.452  1.00  0.00     0.020 A 
ATOM     77  C   UNL A   1      49.409  29.840  33.182  1.00  0.00     0.020 A 
ATOM     78  C   UNL A   1      49.364  28.505  33.568  1.00  0.00     0.054 A 
BRANCH  78  79
ATOM     79  S   UNL A   1      50.881  27.668  34.109  1.00  0.00     0.124 S 
ATOM     80  O   UNL A   1      50.464  27.051  35.365  1.00  0.00    -0.237 OA
ATOM     81  O   UNL A   1      51.145  26.747  33.007  1.00  0.00    -0.237 OA
ATOM     82  O   UNL A   1      51.847  28.758  34.245  1.00  0.00    -0.744 OA
ENDBRANCH  78  79
ENDBRANCH  50  73
BRANCH  62  83
ATOM     83  C   UNL A   1      43.614  33.989  29.266  1.00  0.00    -0.014 A 
ATOM     84  C   UNL A   1      44.098  35.300  29.084  1.00  0.00     0.010 A 
ATOM     85  C   UNL A   1      43.926  33.021  28.294  1.00  0.00     0.010 A 
ATOM     86  C   UNL A   1      44.864  35.635  27.958  1.00  0.00     0.020 A 
ATOM     87  C   UNL A   1      44.702  33.344  27.177  1.00  0.00     0.020 A 
ATOM     88  C   UNL A   1      45.167  34.651  27.013  1.00  0.00     0.054 A 
BRANCH  88  89
ATOM     89  S   UNL A   1      46.239  35.070  25.609  1.00  0.00     0.124 S 
ATOM     90  O   UNL A   1      45.393  34.762  24.460  1.00  0.00    -0.237 OA
ATOM     91  O   UNL A   1      46.519  36.488  25.823  1.00  0.00    -0.237 OA
ATOM     92  O   UNL A   1      47.394  34.190  25.779  1.00  0.00    -0.744 OA
ENDBRANCH  88  89
ENDBRANCH  62  83
ENDBRANCH  36  37
ENDBRANCH  29  31
ENDBRANCH  28  29
ENDBRANCH  27  28
ENDBRANCH  26  27
ENDBRANCH  25  26
ENDBRANCH  24  25
ENDBRANCH   1  24
TORSDOF 24
ENDMDL
