MODEL 1
REMARK VINA RESULT:      -8.3      0.000      0.000
REMARK SMILES CCCCCC[C@H]1OCC[C@H]1C(=O)OCCOCCOCCOC(=O)c1ccc(-c2c3nc(c(-c4ccc(S(=O)(=O)[O-])cc4)c4ccc([nH]4)c(-c4ccc(S(=O)(=O)[O-])cc4)c4nc(c(-c5ccc(S(=O)(=O)[O-])cc5)c5ccc2[nH]5)C=C4)C=C3)cc1
REMARK SMILES IDX 18 1 17 2 16 3 15 4 14 5 12 6 13 7 11 8 7 9 8 10 9 11 10 12
REMARK SMILES IDX 6 13 5 14 4 15 3 16 2 17 1 18 19 19 20 20 21 21 22 22 23 23
REMARK SMILES IDX 24 24 25 25 26 26 27 27 85 28 28 29 84 30 29 31 30 32 31 33
REMARK SMILES IDX 78 34 32 35 83 36 77 37 79 38 33 39 82 40 76 41 75 42 34 44
REMARK SMILES IDX 64 45 45 46 63 47 46 48 49 49 62 50 80 51 47 52 48 53 61 55
REMARK SMILES IDX 81 56 50 57 35 58 36 59 44 60 37 61 43 62 38 63 39 64 40 65
REMARK SMILES IDX 41 66 42 67 65 68 66 69 74 70 67 71 73 72 68 73 69 74 70 75
REMARK SMILES IDX 71 76 72 77 51 78 52 79 60 80 53 81 59 82 54 83 55 84 56 85
REMARK SMILES IDX 57 86 58 87
REMARK H PARENT 79 43 49 54
REMARK Flexibility Score: inf
ROOT
ATOM      1  C   UNL A   1      31.885  25.149  26.462  1.00  0.00     0.188 C 
ENDROOT
BRANCH   1   2
ATOM      2  O   UNL A   1      31.146  24.456  25.466  1.00  0.00    -0.376 OA
BRANCH   2   3
ATOM      3  C   UNL A   1      31.787  23.328  24.882  1.00  0.00     0.202 C 
BRANCH   3   4
ATOM      4  C   UNL A   1      32.675  23.601  23.657  1.00  0.00     0.261 C 
BRANCH   4   5
ATOM      5  O   UNL A   1      33.626  22.548  23.327  1.00  0.00    -0.463 OA
BRANCH   5   6
ATOM      6  C   UNL A   1      34.903  22.785  23.728  1.00  0.00     0.311 C 
ATOM      7  O   UNL A   1      35.748  23.310  23.002  1.00  0.00    -0.252 OA
BRANCH   6   8
ATOM      8  C   UNL A   1      35.315  22.274  25.106  1.00  0.00     0.130 C 
ATOM      9  C   UNL A   1      36.560  21.452  25.405  1.00  0.00     0.132 C 
ATOM     10  O   UNL A   1      37.655  22.395  25.365  1.00  0.00    -0.377 OA
ATOM     11  C   UNL A   1      37.130  23.693  25.672  1.00  0.00     0.161 C 
ATOM     12  C   UNL A   1      35.648  23.513  25.936  1.00  0.00     0.046 C 
BRANCH   9  13
ATOM     13  C   UNL A   1      36.946  20.217  24.613  1.00  0.00     0.033 C 
BRANCH  13  14
ATOM     14  C   UNL A   1      36.290  18.863  24.955  1.00  0.00     0.003 C 
BRANCH  14  15
ATOM     15  C   UNL A   1      34.834  18.643  24.529  1.00  0.00     0.000 C 
BRANCH  15  16
ATOM     16  C   UNL A   1      34.510  17.312  23.805  1.00  0.00    -0.000 C 
BRANCH  16  17
ATOM     17  C   UNL A   1      33.149  16.678  24.092  1.00  0.00    -0.003 C 
ATOM     18  C   UNL A   1      32.533  17.067  25.427  1.00  0.00     0.004 C 
ENDBRANCH  16  17
ENDBRANCH  15  16
ENDBRANCH  14  15
ENDBRANCH  13  14
ENDBRANCH   9  13
ENDBRANCH   6   8
ENDBRANCH   5   6
ENDBRANCH   4   5
ENDBRANCH   3   4
ENDBRANCH   2   3
ENDBRANCH   1   2
BRANCH   1  19
ATOM     19  C   UNL A   1      32.475  26.505  26.048  1.00  0.00     0.188 C 
BRANCH  19  20
ATOM     20  O   UNL A   1      31.633  27.345  25.258  1.00  0.00    -0.376 OA
BRANCH  20  21
ATOM     21  C   UNL A   1      32.422  28.412  24.684  1.00  0.00     0.202 C 
BRANCH  21  22
ATOM     22  C   UNL A   1      32.594  29.580  25.659  1.00  0.00     0.261 C 
BRANCH  22  23
ATOM     23  O   UNL A   1      33.940  29.674  26.176  1.00  0.00    -0.460 OA
BRANCH  23  24
ATOM     24  C   UNL A   1      34.127  30.416  27.304  1.00  0.00     0.338 C 
ATOM     25  O   UNL A   1      33.308  31.148  27.816  1.00  0.00    -0.246 OA
BRANCH  24  26
ATOM     26  C   UNL A   1      35.452  30.068  27.916  1.00  0.00     0.060 A 
ATOM     27  C   UNL A   1      36.619  30.278  27.169  1.00  0.00     0.016 A 
ATOM     28  C   UNL A   1      35.564  29.645  29.246  1.00  0.00     0.016 A 
ATOM     29  C   UNL A   1      37.883  30.126  27.760  1.00  0.00     0.010 A 
ATOM     30  C   UNL A   1      36.828  29.500  29.840  1.00  0.00     0.010 A 
ATOM     31  C   UNL A   1      37.999  29.735  29.103  1.00  0.00    -0.014 A 
BRANCH  31  32
ATOM     32  C   UNL A   1      39.315  29.268  29.623  1.00  0.00     0.031 A 
ATOM     33  C   UNL A   1      39.844  30.001  30.828  1.00  0.00     0.074 A 
ATOM     34  C   UNL A   1      40.020  28.236  29.114  1.00  0.00     0.049 A 
ATOM     35  N   UNL A   1      40.867  29.718  31.590  1.00  0.00    -0.248 NA
ATOM     36  C   UNL A   1      39.105  31.212  31.229  1.00  0.00     0.031 C 
ATOM     37  C   UNL A   1      39.664  27.435  27.947  1.00  0.00     0.029 A 
ATOM     38  N   UNL A   1      41.207  27.678  29.539  1.00  0.00    -0.354 N 
ATOM     39  C   UNL A   1      40.859  30.684  32.587  1.00  0.00     0.074 A 
ATOM     40  C   UNL A   1      39.785  31.604  32.292  1.00  0.00     0.031 C 
ATOM     41  C   UNL A   1      40.599  26.485  27.754  1.00  0.00     0.029 A 
ATOM     42  C   UNL A   1      41.627  26.604  28.785  1.00  0.00     0.049 A 
ATOM     43  H   UNL A   1      41.712  28.017  30.313  1.00  0.00     0.167 HD
ATOM     44  C   UNL A   1      41.650  30.793  33.677  1.00  0.00     0.031 A 
ATOM     45  C   UNL A   1      42.703  25.800  28.920  1.00  0.00     0.031 A 
ATOM     46  C   UNL A   1      42.770  29.943  33.949  1.00  0.00     0.049 A 
ATOM     47  C   UNL A   1      43.642  26.005  30.086  1.00  0.00     0.074 A 
ATOM     48  C   UNL A   1      43.655  29.999  35.009  1.00  0.00     0.029 A 
ATOM     49  N   UNL A   1      43.176  28.898  33.135  1.00  0.00    -0.354 N 
ATOM     50  N   UNL A   1      43.564  26.870  31.070  1.00  0.00    -0.248 NA
ATOM     51  C   UNL A   1      44.803  25.104  30.172  1.00  0.00     0.031 C 
ATOM     52  C   UNL A   1      44.629  29.014  34.811  1.00  0.00     0.029 A 
ATOM     53  C   UNL A   1      44.314  28.312  33.657  1.00  0.00     0.049 A 
ATOM     54  H   UNL A   1      42.721  28.615  32.309  1.00  0.00     0.167 HD
ATOM     55  C   UNL A   1      44.638  26.587  31.912  1.00  0.00     0.074 A 
ATOM     56  C   UNL A   1      45.345  25.468  31.326  1.00  0.00     0.031 C 
ATOM     57  C   UNL A   1      45.001  27.192  33.069  1.00  0.00     0.031 A 
BRANCH  44  58
ATOM     58  C   UNL A   1      41.311  31.899  34.631  1.00  0.00    -0.014 A 
ATOM     59  C   UNL A   1      40.499  31.645  35.752  1.00  0.00     0.010 A 
ATOM     60  C   UNL A   1      41.748  33.208  34.373  1.00  0.00     0.010 A 
ATOM     61  C   UNL A   1      40.086  32.694  36.573  1.00  0.00     0.020 A 
ATOM     62  C   UNL A   1      41.356  34.256  35.208  1.00  0.00     0.020 A 
ATOM     63  C   UNL A   1      40.510  33.996  36.289  1.00  0.00     0.054 A 
BRANCH  63  64
ATOM     64  S   UNL A   1      39.945  35.344  37.360  1.00  0.00     0.124 S 
ATOM     65  O   UNL A   1      38.752  34.762  37.969  1.00  0.00    -0.237 OA
ATOM     66  O   UNL A   1      41.079  35.537  38.258  1.00  0.00    -0.237 OA
ATOM     67  O   UNL A   1      39.697  36.443  36.429  1.00  0.00    -0.744 OA
ENDBRANCH  63  64
ENDBRANCH  44  58
BRANCH  45  68
ATOM     68  C   UNL A   1      42.967  24.692  27.952  1.00  0.00    -0.014 A 
ATOM     69  C   UNL A   1      42.703  23.355  28.304  1.00  0.00     0.010 A 
ATOM     70  C   UNL A   1      43.561  24.959  26.705  1.00  0.00     0.010 A 
ATOM     71  C   UNL A   1      43.064  22.306  27.450  1.00  0.00     0.020 A 
ATOM     72  C   UNL A   1      43.901  23.915  25.837  1.00  0.00     0.020 A 
ATOM     73  C   UNL A   1      43.667  22.593  26.223  1.00  0.00     0.054 A 
BRANCH  73  74
ATOM     74  S   UNL A   1      44.124  21.219  25.126  1.00  0.00     0.124 S 
ATOM     75  O   UNL A   1      42.986  20.317  25.278  1.00  0.00    -0.237 OA
ATOM     76  O   UNL A   1      44.241  21.877  23.827  1.00  0.00    -0.237 OA
ATOM     77  O   UNL A   1      45.383  20.738  25.688  1.00  0.00    -0.744 OA
ENDBRANCH  73  74
ENDBRANCH  45  68
BRANCH  57  78
ATOM     78  C   UNL A   1      46.185  26.633  33.814  1.00  0.00    -0.014 A 
ATOM     79  C   UNL A   1      46.035  25.623  34.780  1.00  0.00     0.010 A 
ATOM     80  C   UNL A   1      47.478  27.088  33.492  1.00  0.00     0.010 A 
ATOM     81  C   UNL A   1      47.155  25.105  35.438  1.00  0.00     0.020 A 
ATOM     82  C   UNL A   1      48.600  26.552  34.126  1.00  0.00     0.020 A 
ATOM     83  C   UNL A   1      48.430  25.576  35.109  1.00  0.00     0.054 A 
BRANCH  83  84
ATOM     84  S   UNL A   1      49.873  24.863  35.946  1.00  0.00     0.124 S 
ATOM     85  O   UNL A   1      49.495  23.456  36.053  1.00  0.00    -0.237 OA
ATOM     86  O   UNL A   1      50.963  25.153  35.018  1.00  0.00    -0.237 OA
ATOM     87  O   UNL A   1      49.931  25.590  37.212  1.00  0.00    -0.744 OA
ENDBRANCH  83  84
ENDBRANCH  57  78
ENDBRANCH  31  32
ENDBRANCH  24  26
ENDBRANCH  23  24
ENDBRANCH  22  23
ENDBRANCH  21  22
ENDBRANCH  20  21
ENDBRANCH  19  20
ENDBRANCH   1  19
TORSDOF 25
ENDMDL
MODEL 2
REMARK VINA RESULT:      -8.0      5.408     11.140
REMARK SMILES CCCCCC[C@H]1OCC[C@H]1C(=O)OCCOCCOCCOC(=O)c1ccc(-c2c3nc(c(-c4ccc(S(=O)(=O)[O-])cc4)c4ccc([nH]4)c(-c4ccc(S(=O)(=O)[O-])cc4)c4nc(c(-c5ccc(S(=O)(=O)[O-])cc5)c5ccc2[nH]5)C=C4)C=C3)cc1
REMARK SMILES IDX 18 1 17 2 16 3 15 4 14 5 12 6 13 7 11 8 7 9 8 10 9 11 10 12
REMARK SMILES IDX 6 13 5 14 4 15 3 16 2 17 1 18 19 19 20 20 21 21 22 22 23 23
REMARK SMILES IDX 24 24 25 25 26 26 27 27 85 28 28 29 84 30 29 31 30 32 31 33
REMARK SMILES IDX 78 34 32 35 83 36 77 37 79 38 33 39 82 40 76 41 75 42 34 44
REMARK SMILES IDX 64 45 45 46 63 47 46 48 49 49 62 50 80 51 47 52 48 53 61 55
REMARK SMILES IDX 81 56 50 57 35 58 36 59 44 60 37 61 43 62 38 63 39 64 40 65
REMARK SMILES IDX 41 66 42 67 65 68 66 69 74 70 67 71 73 72 68 73 69 74 70 75
REMARK SMILES IDX 71 76 72 77 51 78 52 79 60 80 53 81 59 82 54 83 55 84 56 85
REMARK SMILES IDX 57 86 58 87
REMARK H PARENT 79 43 49 54
REMARK Flexibility Score: inf
ROOT
ATOM      1  C   UNL A   1      36.941  22.040  23.940  1.00  0.00     0.188 C 
ENDROOT
BRANCH   1   2
ATOM      2  O   UNL A   1      35.552  22.271  24.131  1.00  0.00    -0.376 OA
BRANCH   2   3
ATOM      3  C   UNL A   1      35.146  23.632  24.200  1.00  0.00     0.202 C 
BRANCH   3   4
ATOM      4  C   UNL A   1      34.142  24.103  23.135  1.00  0.00     0.261 C 
BRANCH   4   5
ATOM      5  O   UNL A   1      32.867  24.588  23.649  1.00  0.00    -0.463 OA
BRANCH   5   6
ATOM      6  C   UNL A   1      32.457  25.777  23.131  1.00  0.00     0.311 C 
ATOM      7  O   UNL A   1      31.874  25.873  22.051  1.00  0.00    -0.252 OA
BRANCH   6   8
ATOM      8  C   UNL A   1      32.842  27.045  23.888  1.00  0.00     0.130 C 
ATOM      9  C   UNL A   1      31.932  28.243  24.119  1.00  0.00     0.132 C 
ATOM     10  O   UNL A   1      31.020  27.830  25.161  1.00  0.00    -0.377 OA
ATOM     11  C   UNL A   1      31.668  26.812  25.936  1.00  0.00     0.161 C 
ATOM     12  C   UNL A   1      33.051  26.626  25.342  1.00  0.00     0.046 C 
BRANCH   9  13
ATOM     13  C   UNL A   1      31.141  28.907  23.009  1.00  0.00     0.033 C 
BRANCH  13  14
ATOM     14  C   UNL A   1      29.733  29.462  23.310  1.00  0.00     0.003 C 
BRANCH  14  15
ATOM     15  C   UNL A   1      29.631  30.844  23.964  1.00  0.00     0.000 C 
BRANCH  15  16
ATOM     16  C   UNL A   1      28.487  31.768  23.477  1.00  0.00    -0.000 C 
BRANCH  16  17
ATOM     17  C   UNL A   1      27.503  31.183  22.465  1.00  0.00    -0.003 C 
ATOM     18  C   UNL A   1      28.127  30.748  21.147  1.00  0.00     0.004 C 
ENDBRANCH  16  17
ENDBRANCH  15  16
ENDBRANCH  14  15
ENDBRANCH  13  14
ENDBRANCH   9  13
ENDBRANCH   6   8
ENDBRANCH   5   6
ENDBRANCH   4   5
ENDBRANCH   3   4
ENDBRANCH   2   3
ENDBRANCH   1   2
BRANCH   1  19
ATOM     19  C   UNL A   1      37.580  20.970  24.837  1.00  0.00     0.188 C 
BRANCH  19  20
ATOM     20  O   UNL A   1      38.252  21.444  26.005  1.00  0.00    -0.376 OA
BRANCH  20  21
ATOM     21  C   UNL A   1      39.681  21.322  25.820  1.00  0.00     0.202 C 
BRANCH  21  22
ATOM     22  C   UNL A   1      40.198  19.954  26.272  1.00  0.00     0.261 C 
BRANCH  22  23
ATOM     23  O   UNL A   1      41.290  19.478  25.453  1.00  0.00    -0.460 OA
BRANCH  23  24
ATOM     24  C   UNL A   1      42.531  19.454  26.017  1.00  0.00     0.338 C 
ATOM     25  O   UNL A   1      43.239  18.478  26.132  1.00  0.00    -0.246 OA
BRANCH  24  26
ATOM     26  C   UNL A   1      42.962  20.856  26.332  1.00  0.00     0.060 A 
ATOM     27  C   UNL A   1      42.901  21.301  27.660  1.00  0.00     0.016 A 
ATOM     28  C   UNL A   1      43.523  21.693  25.361  1.00  0.00     0.016 A 
ATOM     29  C   UNL A   1      43.450  22.540  28.024  1.00  0.00     0.010 A 
ATOM     30  C   UNL A   1      44.079  22.930  25.725  1.00  0.00     0.010 A 
ATOM     31  C   UNL A   1      44.044  23.367  27.059  1.00  0.00    -0.014 A 
BRANCH  31  32
ATOM     32  C   UNL A   1      44.327  24.794  27.384  1.00  0.00     0.031 A 
ATOM     33  C   UNL A   1      45.767  25.222  27.272  1.00  0.00     0.074 A 
ATOM     34  C   UNL A   1      43.392  25.704  27.728  1.00  0.00     0.049 A 
ATOM     35  N   UNL A   1      46.286  26.420  27.332  1.00  0.00    -0.248 NA
ATOM     36  C   UNL A   1      46.750  24.146  27.051  1.00  0.00     0.031 C 
ATOM     37  C   UNL A   1      41.963  25.456  27.898  1.00  0.00     0.029 A 
ATOM     38  N   UNL A   1      43.519  27.051  27.992  1.00  0.00    -0.354 N 
ATOM     39  C   UNL A   1      47.643  26.243  27.103  1.00  0.00     0.074 A 
ATOM     40  C   UNL A   1      47.882  24.824  26.982  1.00  0.00     0.031 C 
ATOM     41  C   UNL A   1      41.344  26.607  28.225  1.00  0.00     0.029 A 
ATOM     42  C   UNL A   1      42.330  27.682  28.288  1.00  0.00     0.049 A 
ATOM     43  H   UNL A   1      44.383  27.521  27.971  1.00  0.00     0.167 HD
ATOM     44  C   UNL A   1      48.615  27.173  26.970  1.00  0.00     0.031 A 
ATOM     45  C   UNL A   1      42.066  28.979  28.560  1.00  0.00     0.031 A 
ATOM     46  C   UNL A   1      48.419  28.578  27.164  1.00  0.00     0.049 A 
ATOM     47  C   UNL A   1      43.187  29.991  28.515  1.00  0.00     0.074 A 
ATOM     48  C   UNL A   1      49.351  29.595  27.089  1.00  0.00     0.029 A 
ATOM     49  N   UNL A   1      47.208  29.160  27.502  1.00  0.00    -0.354 N 
ATOM     50  N   UNL A   1      44.450  29.815  28.206  1.00  0.00    -0.248 NA
ATOM     51  C   UNL A   1      42.837  31.385  28.832  1.00  0.00     0.031 C 
ATOM     52  C   UNL A   1      48.713  30.792  27.429  1.00  0.00     0.029 A 
ATOM     53  C   UNL A   1      47.372  30.523  27.661  1.00  0.00     0.049 A 
ATOM     54  H   UNL A   1      46.358  28.675  27.611  1.00  0.00     0.167 HD
ATOM     55  C   UNL A   1      45.032  31.080  28.248  1.00  0.00     0.074 A 
ATOM     56  C   UNL A   1      43.984  32.012  28.605  1.00  0.00     0.031 C 
ATOM     57  C   UNL A   1      46.317  31.440  28.005  1.00  0.00     0.031 A 
BRANCH  44  58
ATOM     58  C   UNL A   1      49.977  26.657  26.613  1.00  0.00    -0.014 A 
ATOM     59  C   UNL A   1      50.362  26.547  25.264  1.00  0.00     0.010 A 
ATOM     60  C   UNL A   1      50.848  26.218  27.622  1.00  0.00     0.010 A 
ATOM     61  C   UNL A   1      51.581  25.959  24.927  1.00  0.00     0.020 A 
ATOM     62  C   UNL A   1      52.080  25.651  27.287  1.00  0.00     0.020 A 
ATOM     63  C   UNL A   1      52.428  25.505  25.941  1.00  0.00     0.054 A 
BRANCH  63  64
ATOM     64  S   UNL A   1      53.997  24.727  25.478  1.00  0.00     0.124 S 
ATOM     65  O   UNL A   1      54.464  25.609  24.410  1.00  0.00    -0.237 OA
ATOM     66  O   UNL A   1      54.763  24.784  26.720  1.00  0.00    -0.237 OA
ATOM     67  O   UNL A   1      53.606  23.386  25.052  1.00  0.00    -0.744 OA
ENDBRANCH  63  64
ENDBRANCH  44  58
BRANCH  45  68
ATOM     68  C   UNL A   1      40.679  29.434  28.877  1.00  0.00    -0.014 A 
ATOM     69  C   UNL A   1      40.308  29.731  30.202  1.00  0.00     0.010 A 
ATOM     70  C   UNL A   1      39.698  29.493  27.871  1.00  0.00     0.010 A 
ATOM     71  C   UNL A   1      38.979  30.037  30.521  1.00  0.00     0.020 A 
ATOM     72  C   UNL A   1      38.373  29.822  28.182  1.00  0.00     0.020 A 
ATOM     73  C   UNL A   1      38.018  30.074  29.508  1.00  0.00     0.054 A 
BRANCH  73  74
ATOM     74  S   UNL A   1      36.301  30.478  29.941  1.00  0.00     0.124 S 
ATOM     75  O   UNL A   1      36.095  29.679  31.145  1.00  0.00    -0.237 OA
ATOM     76  O   UNL A   1      36.357  31.923  30.143  1.00  0.00    -0.237 OA
ATOM     77  O   UNL A   1      35.544  30.049  28.768  1.00  0.00    -0.744 OA
ENDBRANCH  73  74
ENDBRANCH  45  68
BRANCH  57  78
ATOM     78  C   UNL A   1      46.659  32.905  28.064  1.00  0.00    -0.014 A 
ATOM     79  C   UNL A   1      47.000  33.627  26.907  1.00  0.00     0.010 A 
ATOM     80  C   UNL A   1      46.578  33.582  29.296  1.00  0.00     0.010 A 
ATOM     81  C   UNL A   1      47.289  34.993  26.987  1.00  0.00     0.020 A 
ATOM     82  C   UNL A   1      46.838  34.952  29.375  1.00  0.00     0.020 A 
ATOM     83  C   UNL A   1      47.209  35.646  28.222  1.00  0.00     0.054 A 
BRANCH  83  84
ATOM     84  S   UNL A   1      47.550  37.426  28.298  1.00  0.00     0.124 S 
ATOM     85  O   UNL A   1      48.894  37.500  27.731  1.00  0.00    -0.237 OA
ATOM     86  O   UNL A   1      46.487  37.995  27.474  1.00  0.00    -0.237 OA
ATOM     87  O   UNL A   1      47.458  37.734  29.723  1.00  0.00    -0.744 OA
ENDBRANCH  83  84
ENDBRANCH  57  78
ENDBRANCH  31  32
ENDBRANCH  24  26
ENDBRANCH  23  24
ENDBRANCH  22  23
ENDBRANCH  21  22
ENDBRANCH  20  21
ENDBRANCH  19  20
ENDBRANCH   1  19
TORSDOF 25
ENDMDL
MODEL 3
REMARK VINA RESULT:      -7.8      2.979      9.862
REMARK SMILES CCCCCC[C@H]1OCC[C@H]1C(=O)OCCOCCOCCOC(=O)c1ccc(-c2c3nc(c(-c4ccc(S(=O)(=O)[O-])cc4)c4ccc([nH]4)c(-c4ccc(S(=O)(=O)[O-])cc4)c4nc(c(-c5ccc(S(=O)(=O)[O-])cc5)c5ccc2[nH]5)C=C4)C=C3)cc1
REMARK SMILES IDX 18 1 17 2 16 3 15 4 14 5 12 6 13 7 11 8 7 9 8 10 9 11 10 12
REMARK SMILES IDX 6 13 5 14 4 15 3 16 2 17 1 18 19 19 20 20 21 21 22 22 23 23
REMARK SMILES IDX 24 24 25 25 26 26 27 27 85 28 28 29 84 30 29 31 30 32 31 33
REMARK SMILES IDX 78 34 32 35 83 36 77 37 79 38 33 39 82 40 76 41 75 42 34 44
REMARK SMILES IDX 64 45 45 46 63 47 46 48 49 49 62 50 80 51 47 52 48 53 61 55
REMARK SMILES IDX 81 56 50 57 35 58 36 59 44 60 37 61 43 62 38 63 39 64 40 65
REMARK SMILES IDX 41 66 42 67 65 68 66 69 74 70 67 71 73 72 68 73 69 74 70 75
REMARK SMILES IDX 71 76 72 77 51 78 52 79 60 80 53 81 59 82 54 83 55 84 56 85
REMARK SMILES IDX 57 86 58 87
REMARK H PARENT 79 43 49 54
REMARK Flexibility Score: inf
ROOT
ATOM      1  C   UNL A   1      37.952  21.828  25.773  1.00  0.00     0.188 C 
ENDROOT
BRANCH   1   2
ATOM      2  O   UNL A   1      37.493  23.075  25.270  1.00  0.00    -0.376 OA
BRANCH   2   3
ATOM      3  C   UNL A   1      36.560  23.012  24.198  1.00  0.00     0.202 C 
BRANCH   3   4
ATOM      4  C   UNL A   1      35.072  22.959  24.586  1.00  0.00     0.261 C 
BRANCH   4   5
ATOM      5  O   UNL A   1      34.455  24.247  24.876  1.00  0.00    -0.463 OA
BRANCH   5   6
ATOM      6  C   UNL A   1      33.100  24.221  24.981  1.00  0.00     0.311 C 
ATOM      7  O   UNL A   1      32.506  23.583  25.850  1.00  0.00    -0.252 OA
BRANCH   6   8
ATOM      8  C   UNL A   1      32.296  24.936  23.898  1.00  0.00     0.130 C 
ATOM      9  C   UNL A   1      32.848  25.974  22.932  1.00  0.00     0.132 C 
ATOM     10  O   UNL A   1      33.601  25.220  21.955  1.00  0.00    -0.377 OA
ATOM     11  C   UNL A   1      33.055  23.895  21.905  1.00  0.00     0.161 C 
ATOM     12  C   UNL A   1      31.898  23.863  22.886  1.00  0.00     0.046 C 
BRANCH   9  13
ATOM     13  C   UNL A   1      33.677  27.163  23.380  1.00  0.00     0.033 C 
BRANCH  13  14
ATOM     14  C   UNL A   1      32.969  28.483  23.750  1.00  0.00     0.003 C 
BRANCH  14  15
ATOM     15  C   UNL A   1      31.978  28.461  24.919  1.00  0.00     0.000 C 
BRANCH  15  16
ATOM     16  C   UNL A   1      32.093  29.605  25.957  1.00  0.00    -0.000 C 
BRANCH  16  17
ATOM     17  C   UNL A   1      33.485  29.903  26.512  1.00  0.00    -0.003 C 
ATOM     18  C   UNL A   1      34.192  28.709  27.137  1.00  0.00     0.004 C 
ENDBRANCH  16  17
ENDBRANCH  15  16
ENDBRANCH  14  15
ENDBRANCH  13  14
ENDBRANCH   9  13
ENDBRANCH   6   8
ENDBRANCH   5   6
ENDBRANCH   4   5
ENDBRANCH   3   4
ENDBRANCH   2   3
ENDBRANCH   1   2
BRANCH   1  19
ATOM     19  C   UNL A   1      39.475  21.643  25.838  1.00  0.00     0.188 C 
BRANCH  19  20
ATOM     20  O   UNL A   1      40.061  21.679  27.140  1.00  0.00    -0.376 OA
BRANCH  20  21
ATOM     21  C   UNL A   1      40.210  23.053  27.561  1.00  0.00     0.202 C 
BRANCH  21  22
ATOM     22  C   UNL A   1      40.910  23.902  26.497  1.00  0.00     0.261 C 
BRANCH  22  23
ATOM     23  O   UNL A   1      42.348  23.758  26.532  1.00  0.00    -0.460 OA
BRANCH  23  24
ATOM     24  C   UNL A   1      43.093  24.895  26.434  1.00  0.00     0.338 C 
ATOM     25  O   UNL A   1      43.874  25.157  25.546  1.00  0.00    -0.246 OA
BRANCH  24  26
ATOM     26  C   UNL A   1      42.684  25.854  27.512  1.00  0.00     0.060 A 
ATOM     27  C   UNL A   1      42.645  25.405  28.840  1.00  0.00     0.016 A 
ATOM     28  C   UNL A   1      42.445  27.208  27.247  1.00  0.00     0.016 A 
ATOM     29  C   UNL A   1      42.433  26.308  29.893  1.00  0.00     0.010 A 
ATOM     30  C   UNL A   1      42.240  28.112  28.300  1.00  0.00     0.010 A 
ATOM     31  C   UNL A   1      42.227  27.671  29.633  1.00  0.00    -0.014 A 
BRANCH  31  32
ATOM     32  C   UNL A   1      41.688  28.554  30.706  1.00  0.00     0.031 A 
ATOM     33  C   UNL A   1      42.439  28.537  32.012  1.00  0.00     0.074 A 
ATOM     34  C   UNL A   1      40.620  29.367  30.568  1.00  0.00     0.049 A 
ATOM     35  N   UNL A   1      42.307  29.309  33.057  1.00  0.00    -0.248 NA
ATOM     36  C   UNL A   1      43.491  27.512  32.144  1.00  0.00     0.031 C 
ATOM     37  C   UNL A   1      39.774  29.493  29.385  1.00  0.00     0.029 A 
ATOM     38  N   UNL A   1      40.067  30.263  31.458  1.00  0.00    -0.354 N 
ATOM     39  C   UNL A   1      43.291  28.896  33.944  1.00  0.00     0.074 A 
ATOM     40  C   UNL A   1      43.960  27.760  33.354  1.00  0.00     0.031 C 
ATOM     41  C   UNL A   1      38.819  30.415  29.614  1.00  0.00     0.029 A 
ATOM     42  C   UNL A   1      38.983  30.953  30.961  1.00  0.00     0.049 A 
ATOM     43  H   UNL A   1      40.416  30.398  32.368  1.00  0.00     0.167 HD
ATOM     44  C   UNL A   1      43.643  29.426  35.137  1.00  0.00     0.031 A 
ATOM     45  C   UNL A   1      38.221  31.918  31.522  1.00  0.00     0.031 A 
ATOM     46  C   UNL A   1      42.946  30.499  35.780  1.00  0.00     0.049 A 
ATOM     47  C   UNL A   1      38.562  32.423  32.905  1.00  0.00     0.074 A 
ATOM     48  C   UNL A   1      43.204  31.079  37.007  1.00  0.00     0.029 A 
ATOM     49  N   UNL A   1      41.833  31.134  35.256  1.00  0.00    -0.354 N 
ATOM     50  N   UNL A   1      39.556  32.081  33.690  1.00  0.00    -0.248 NA
ATOM     51  C   UNL A   1      37.688  33.468  33.465  1.00  0.00     0.031 C 
ATOM     52  C   UNL A   1      42.214  32.038  37.249  1.00  0.00     0.029 A 
ATOM     53  C   UNL A   1      41.375  32.089  36.145  1.00  0.00     0.049 A 
ATOM     54  H   UNL A   1      41.428  30.936  34.380  1.00  0.00     0.167 HD
ATOM     55  C   UNL A   1      39.451  32.899  34.814  1.00  0.00     0.074 A 
ATOM     56  C   UNL A   1      38.304  33.755  34.604  1.00  0.00     0.031 C 
ATOM     57  C   UNL A   1      40.239  32.942  35.917  1.00  0.00     0.031 A 
BRANCH  44  58
ATOM     58  C   UNL A   1      44.835  28.810  35.807  1.00  0.00    -0.014 A 
ATOM     59  C   UNL A   1      46.133  29.251  35.491  1.00  0.00     0.010 A 
ATOM     60  C   UNL A   1      44.664  27.744  36.704  1.00  0.00     0.010 A 
ATOM     61  C   UNL A   1      47.246  28.602  36.024  1.00  0.00     0.020 A 
ATOM     62  C   UNL A   1      45.776  27.107  37.258  1.00  0.00     0.020 A 
ATOM     63  C   UNL A   1      47.060  27.526  36.896  1.00  0.00     0.054 A 
BRANCH  63  64
ATOM     64  S   UNL A   1      48.521  26.685  37.561  1.00  0.00     0.124 S 
ATOM     65  O   UNL A   1      48.258  26.720  38.998  1.00  0.00    -0.237 OA
ATOM     66  O   UNL A   1      48.443  25.366  36.940  1.00  0.00    -0.237 OA
ATOM     67  O   UNL A   1      49.633  27.518  37.110  1.00  0.00    -0.744 OA
ENDBRANCH  63  64
ENDBRANCH  44  58
BRANCH  45  68
ATOM     68  C   UNL A   1      37.065  32.514  30.787  1.00  0.00    -0.014 A 
ATOM     69  C   UNL A   1      37.263  33.575  29.881  1.00  0.00     0.010 A 
ATOM     70  C   UNL A   1      35.752  32.084  31.048  1.00  0.00     0.010 A 
ATOM     71  C   UNL A   1      36.171  34.218  29.285  1.00  0.00     0.020 A 
ATOM     72  C   UNL A   1      34.660  32.708  30.436  1.00  0.00     0.020 A 
ATOM     73  C   UNL A   1      34.874  33.784  29.572  1.00  0.00     0.054 A 
BRANCH  73  74
ATOM     74  S   UNL A   1      33.472  34.628  28.785  1.00  0.00     0.124 S 
ATOM     75  O   UNL A   1      34.107  35.816  28.224  1.00  0.00    -0.237 OA
ATOM     76  O   UNL A   1      33.011  33.638  27.814  1.00  0.00    -0.237 OA
ATOM     77  O   UNL A   1      32.555  34.873  29.896  1.00  0.00    -0.744 OA
ENDBRANCH  73  74
ENDBRANCH  45  68
BRANCH  57  78
ATOM     78  C   UNL A   1      39.926  33.979  36.964  1.00  0.00    -0.014 A 
ATOM     79  C   UNL A   1      39.161  33.668  38.101  1.00  0.00     0.010 A 
ATOM     80  C   UNL A   1      40.462  35.274  36.831  1.00  0.00     0.010 A 
ATOM     81  C   UNL A   1      38.908  34.645  39.069  1.00  0.00     0.020 A 
ATOM     82  C   UNL A   1      40.235  36.243  37.810  1.00  0.00     0.020 A 
ATOM     83  C   UNL A   1      39.444  35.928  38.915  1.00  0.00     0.054 A 
BRANCH  83  84
ATOM     84  S   UNL A   1      39.135  37.169  40.201  1.00  0.00     0.124 S 
ATOM     85  O   UNL A   1      38.360  36.407  41.176  1.00  0.00    -0.237 OA
ATOM     86  O   UNL A   1      40.484  37.542  40.622  1.00  0.00    -0.237 OA
ATOM     87  O   UNL A   1      38.396  38.217  39.500  1.00  0.00    -0.744 OA
ENDBRANCH  83  84
ENDBRANCH  57  78
ENDBRANCH  31  32
ENDBRANCH  24  26
ENDBRANCH  23  24
ENDBRANCH  22  23
ENDBRANCH  21  22
ENDBRANCH  20  21
ENDBRANCH  19  20
ENDBRANCH   1  19
TORSDOF 25
ENDMDL
