MODEL 1
REMARK VINA RESULT:      -9.4      0.000      0.000
REMARK SMILES COc1cc(/C=C/C(=O)OCCOCCOCCOC(=O)c2ccc(-c3c4nc(c(-c5ccc(S(=O)(=O)[O-])cc5)c5ccc([nH]5)c(-c5ccc(S(=O)(=O)[O-])cc5)c5nc(c(-c6ccc(S(=O)(=O)[O-])cc6)c6ccc3[nH]6)C=C5)C=C4)cc2)cc(OC)c1O
REMARK SMILES IDX 15 1 14 2 13 3 12 4 11 5 10 6 8 7 9 8 7 9 6 10 5 11 3 12
REMARK SMILES IDX 4 13 86 14 83 15 82 16 2 17 1 18 87 19 84 21 85 22 16 23
REMARK SMILES IDX 17 24 18 25 19 26 20 27 21 28 22 29 23 30 81 31 24 32 80 33
REMARK SMILES IDX 25 34 26 35 27 36 74 37 28 38 79 39 73 40 75 41 29 42 78 43
REMARK SMILES IDX 72 44 71 45 30 47 60 48 41 49 59 50 42 51 45 52 58 53 76 54
REMARK SMILES IDX 43 55 44 56 57 58 77 59 46 60 31 61 32 62 40 63 33 64 39 65
REMARK SMILES IDX 34 66 35 67 36 68 37 69 38 70 61 71 62 72 70 73 63 74 69 75
REMARK SMILES IDX 64 76 65 77 66 78 67 79 68 80 47 81 48 82 56 83 49 84 55 85
REMARK SMILES IDX 50 86 51 87 52 88 53 89 54 90
REMARK H PARENT 87 20 75 46 45 57
REMARK Flexibility Score: inf
ROOT
ATOM      1  C   UNL A   1      37.479  20.865  24.896  1.00  0.00     0.188 C 
ENDROOT
BRANCH   1   2
ATOM      2  C   UNL A   1      36.061  21.413  24.639  1.00  0.00     0.188 C 
BRANCH   2   3
ATOM      3  O   UNL A   1      35.015  21.138  25.554  1.00  0.00    -0.376 OA
BRANCH   3   4
ATOM      4  C   UNL A   1      34.789  22.006  26.653  1.00  0.00     0.202 C 
BRANCH   4   5
ATOM      5  C   UNL A   1      33.624  21.791  27.629  1.00  0.00     0.261 C 
BRANCH   5   6
ATOM      6  O   UNL A   1      32.905  22.974  28.011  1.00  0.00    -0.460 OA
BRANCH   6   7
ATOM      7  C   UNL A   1      31.792  23.229  27.278  1.00  0.00     0.330 C 
ATOM      8  O   UNL A   1      30.690  22.728  27.444  1.00  0.00    -0.247 OA
BRANCH   7   9
ATOM      9  C   UNL A   1      31.996  24.286  26.266  1.00  0.00     0.094 C 
ATOM     10  C   UNL A   1      33.126  24.978  26.059  1.00  0.00     0.016 C 
BRANCH  10  11
ATOM     11  C   UNL A   1      33.254  26.001  25.004  1.00  0.00    -0.018 A 
ATOM     12  C   UNL A   1      33.555  26.672  22.679  1.00  0.00     0.165 A 
ATOM     13  C   UNL A   1      33.452  25.674  23.656  1.00  0.00     0.058 A 
ATOM     14  C   UNL A   1      33.414  28.020  23.039  1.00  0.00     0.200 A 
ATOM     15  C   UNL A   1      33.224  28.371  24.382  1.00  0.00     0.165 A 
ATOM     16  C   UNL A   1      33.126  27.353  25.345  1.00  0.00     0.058 A 
BRANCH  12  17
ATOM     17  O   UNL A   1      33.680  26.212  21.392  1.00  0.00    -0.493 OA
ATOM     18  C   UNL A   1      32.544  25.544  20.843  1.00  0.00     0.278 C 
ENDBRANCH  12  17
BRANCH  14  19
ATOM     19  O   UNL A   1      33.367  28.977  22.061  1.00  0.00    -0.502 OA
ATOM     20  H   UNL A   1      34.031  29.637  22.019  1.00  0.00     0.293 HD
ENDBRANCH  14  19
BRANCH  15  21
ATOM     21  O   UNL A   1      33.050  29.623  24.912  1.00  0.00    -0.493 OA
ATOM     22  C   UNL A   1      31.778  29.944  25.457  1.00  0.00     0.278 C 
ENDBRANCH  15  21
ENDBRANCH  10  11
ENDBRANCH   7   9
ENDBRANCH   6   7
ENDBRANCH   5   6
ENDBRANCH   4   5
ENDBRANCH   3   4
ENDBRANCH   2   3
ENDBRANCH   1   2
BRANCH   1  23
ATOM     23  O   UNL A   1      38.186  21.360  26.008  1.00  0.00    -0.376 OA
BRANCH  23  24
ATOM     24  C   UNL A   1      38.945  22.554  25.926  1.00  0.00     0.202 C 
BRANCH  24  25
ATOM     25  C   UNL A   1      38.602  23.913  26.564  1.00  0.00     0.261 C 
BRANCH  25  26
ATOM     26  O   UNL A   1      39.543  24.504  27.457  1.00  0.00    -0.460 OA
BRANCH  26  27
ATOM     27  C   UNL A   1      40.078  25.673  27.044  1.00  0.00     0.338 C 
ATOM     28  O   UNL A   1      40.494  25.944  25.921  1.00  0.00    -0.246 OA
BRANCH  27  29
ATOM     29  C   UNL A   1      39.942  26.662  28.121  1.00  0.00     0.060 A 
ATOM     30  C   UNL A   1      40.711  27.831  28.062  1.00  0.00     0.016 A 
ATOM     31  C   UNL A   1      39.086  26.422  29.197  1.00  0.00     0.016 A 
ATOM     32  C   UNL A   1      40.640  28.761  29.096  1.00  0.00     0.010 A 
ATOM     33  C   UNL A   1      39.031  27.346  30.243  1.00  0.00     0.010 A 
ATOM     34  C   UNL A   1      39.827  28.505  30.209  1.00  0.00    -0.014 A 
BRANCH  34  35
ATOM     35  C   UNL A   1      39.928  29.367  31.409  1.00  0.00     0.031 A 
ATOM     36  C   UNL A   1      41.059  29.133  32.372  1.00  0.00     0.074 A 
ATOM     37  C   UNL A   1      39.033  30.345  31.638  1.00  0.00     0.049 A 
ATOM     38  N   UNL A   1      41.321  29.733  33.504  1.00  0.00    -0.248 NA
ATOM     39  C   UNL A   1      42.020  28.078  32.009  1.00  0.00     0.031 C 
ATOM     40  C   UNL A   1      37.918  30.694  30.761  1.00  0.00     0.029 A 
ATOM     41  N   UNL A   1      38.920  31.216  32.692  1.00  0.00    -0.354 N 
ATOM     42  C   UNL A   1      42.470  29.125  33.994  1.00  0.00     0.074 A 
ATOM     43  C   UNL A   1      42.840  28.092  33.050  1.00  0.00     0.031 C 
ATOM     44  C   UNL A   1      37.225  31.703  31.320  1.00  0.00     0.029 A 
ATOM     45  C   UNL A   1      37.827  32.044  32.608  1.00  0.00     0.049 A 
ATOM     46  H   UNL A   1      39.562  31.246  33.439  1.00  0.00     0.167 HD
ATOM     47  C   UNL A   1      43.158  29.402  35.127  1.00  0.00     0.031 A 
ATOM     48  C   UNL A   1      37.354  32.956  33.480  1.00  0.00     0.031 A 
ATOM     49  C   UNL A   1      42.774  30.413  36.076  1.00  0.00     0.049 A 
ATOM     50  C   UNL A   1      38.092  33.195  34.772  1.00  0.00     0.074 A 
ATOM     51  C   UNL A   1      43.413  30.780  37.247  1.00  0.00     0.029 A 
ATOM     52  N   UNL A   1      41.643  31.208  35.970  1.00  0.00    -0.354 N 
ATOM     53  N   UNL A   1      39.196  32.636  35.209  1.00  0.00    -0.248 NA
ATOM     54  C   UNL A   1      37.523  34.196  35.687  1.00  0.00     0.031 C 
ATOM     55  C   UNL A   1      42.635  31.756  37.879  1.00  0.00     0.029 A 
ATOM     56  C   UNL A   1      41.548  32.043  37.071  1.00  0.00     0.049 A 
ATOM     57  H   UNL A   1      41.002  31.181  35.224  1.00  0.00     0.167 HD
ATOM     58  C   UNL A   1      39.468  33.236  36.434  1.00  0.00     0.074 A 
ATOM     59  C   UNL A   1      38.420  34.210  36.664  1.00  0.00     0.031 C 
ATOM     60  C   UNL A   1      40.496  33.005  37.290  1.00  0.00     0.031 A 
BRANCH  47  61
ATOM     61  C   UNL A   1      44.373  28.562  35.419  1.00  0.00    -0.014 A 
ATOM     62  C   UNL A   1      44.276  27.365  36.152  1.00  0.00     0.010 A 
ATOM     63  C   UNL A   1      45.630  28.969  34.937  1.00  0.00     0.010 A 
ATOM     64  C   UNL A   1      45.421  26.617  36.441  1.00  0.00     0.020 A 
ATOM     65  C   UNL A   1      46.774  28.209  35.198  1.00  0.00     0.020 A 
ATOM     66  C   UNL A   1      46.664  27.048  35.966  1.00  0.00     0.054 A 
BRANCH  66  67
ATOM     67  S   UNL A   1      48.134  26.057  36.350  1.00  0.00     0.124 S 
ATOM     68  O   UNL A   1      48.032  24.977  35.370  1.00  0.00    -0.237 OA
ATOM     69  O   UNL A   1      49.225  27.003  36.130  1.00  0.00    -0.237 OA
ATOM     70  O   UNL A   1      47.929  25.656  37.739  1.00  0.00    -0.744 OA
ENDBRANCH  66  67
ENDBRANCH  47  61
BRANCH  48  71
ATOM     71  C   UNL A   1      36.105  33.702  33.165  1.00  0.00    -0.014 A 
ATOM     72  C   UNL A   1      34.847  33.095  33.321  1.00  0.00     0.010 A 
ATOM     73  C   UNL A   1      36.170  35.035  32.714  1.00  0.00     0.010 A 
ATOM     74  C   UNL A   1      33.677  33.803  33.024  1.00  0.00     0.020 A 
ATOM     75  C   UNL A   1      35.003  35.754  32.442  1.00  0.00     0.020 A 
ATOM     76  C   UNL A   1      33.763  35.130  32.592  1.00  0.00     0.054 A 
BRANCH  76  77
ATOM     77  S   UNL A   1      32.229  36.047  32.276  1.00  0.00     0.124 S 
ATOM     78  O   UNL A   1      31.212  35.030  32.524  1.00  0.00    -0.237 OA
ATOM     79  O   UNL A   1      32.299  37.125  33.258  1.00  0.00    -0.237 OA
ATOM     80  O   UNL A   1      32.366  36.471  30.884  1.00  0.00    -0.744 OA
ENDBRANCH  76  77
ENDBRANCH  48  71
BRANCH  60  81
ATOM     81  C   UNL A   1      40.564  33.842  38.541  1.00  0.00    -0.014 A 
ATOM     82  C   UNL A   1      39.930  33.438  39.729  1.00  0.00     0.010 A 
ATOM     83  C   UNL A   1      41.330  35.023  38.541  1.00  0.00     0.010 A 
ATOM     84  C   UNL A   1      40.036  34.216  40.886  1.00  0.00     0.020 A 
ATOM     85  C   UNL A   1      41.461  35.788  39.703  1.00  0.00     0.020 A 
ATOM     86  C   UNL A   1      40.802  35.386  40.866  1.00  0.00     0.054 A 
BRANCH  86  87
ATOM     87  S   UNL A   1      40.962  36.353  42.392  1.00  0.00     0.124 S 
ATOM     88  O   UNL A   1      39.570  36.677  42.693  1.00  0.00    -0.237 OA
ATOM     89  O   UNL A   1      41.599  35.408  43.305  1.00  0.00    -0.237 OA
ATOM     90  O   UNL A   1      41.794  37.488  41.998  1.00  0.00    -0.744 OA
ENDBRANCH  86  87
ENDBRANCH  60  81
ENDBRANCH  34  35
ENDBRANCH  27  29
ENDBRANCH  26  27
ENDBRANCH  25  26
ENDBRANCH  24  25
ENDBRANCH  23  24
ENDBRANCH   1  23
TORSDOF 24
ENDMDL
MODEL 2
REMARK VINA RESULT:      -9.0      1.995      2.947
REMARK SMILES COc1cc(/C=C/C(=O)OCCOCCOCCOC(=O)c2ccc(-c3c4nc(c(-c5ccc(S(=O)(=O)[O-])cc5)c5ccc([nH]5)c(-c5ccc(S(=O)(=O)[O-])cc5)c5nc(c(-c6ccc(S(=O)(=O)[O-])cc6)c6ccc3[nH]6)C=C5)C=C4)cc2)cc(OC)c1O
REMARK SMILES IDX 15 1 14 2 13 3 12 4 11 5 10 6 8 7 9 8 7 9 6 10 5 11 3 12
REMARK SMILES IDX 4 13 86 14 83 15 82 16 2 17 1 18 87 19 84 21 85 22 16 23
REMARK SMILES IDX 17 24 18 25 19 26 20 27 21 28 22 29 23 30 81 31 24 32 80 33
REMARK SMILES IDX 25 34 26 35 27 36 74 37 28 38 79 39 73 40 75 41 29 42 78 43
REMARK SMILES IDX 72 44 71 45 30 47 60 48 41 49 59 50 42 51 45 52 58 53 76 54
REMARK SMILES IDX 43 55 44 56 57 58 77 59 46 60 31 61 32 62 40 63 33 64 39 65
REMARK SMILES IDX 34 66 35 67 36 68 37 69 38 70 61 71 62 72 70 73 63 74 69 75
REMARK SMILES IDX 64 76 65 77 66 78 67 79 68 80 47 81 48 82 56 83 49 84 55 85
REMARK SMILES IDX 50 86 51 87 52 88 53 89 54 90
REMARK H PARENT 87 20 75 46 45 57
REMARK Flexibility Score: inf
ROOT
ATOM      1  C   UNL A   1      37.743  22.551  25.944  1.00  0.00     0.188 C 
ENDROOT
BRANCH   1   2
ATOM      2  C   UNL A   1      36.525  23.494  25.931  1.00  0.00     0.188 C 
BRANCH   2   3
ATOM      3  O   UNL A   1      35.286  23.063  26.467  1.00  0.00    -0.376 OA
BRANCH   3   4
ATOM      4  C   UNL A   1      34.461  22.182  25.723  1.00  0.00     0.202 C 
BRANCH   4   5
ATOM      5  C   UNL A   1      34.417  22.213  24.188  1.00  0.00     0.261 C 
BRANCH   5   6
ATOM      6  O   UNL A   1      33.184  22.666  23.609  1.00  0.00    -0.460 OA
BRANCH   6   7
ATOM      7  C   UNL A   1      33.295  23.744  22.795  1.00  0.00     0.330 C 
ATOM      8  O   UNL A   1      33.580  23.723  21.606  1.00  0.00    -0.247 OA
BRANCH   7   9
ATOM      9  C   UNL A   1      32.937  25.013  23.462  1.00  0.00     0.094 C 
ATOM     10  C   UNL A   1      33.617  25.605  24.455  1.00  0.00     0.016 C 
BRANCH  10  11
ATOM     11  C   UNL A   1      33.204  26.891  25.048  1.00  0.00    -0.018 A 
ATOM     12  C   UNL A   1      33.439  28.683  26.685  1.00  0.00     0.165 A 
ATOM     13  C   UNL A   1      33.850  27.453  26.157  1.00  0.00     0.058 A 
ATOM     14  C   UNL A   1      32.394  29.392  26.075  1.00  0.00     0.200 A 
ATOM     15  C   UNL A   1      31.727  28.846  24.970  1.00  0.00     0.165 A 
ATOM     16  C   UNL A   1      32.156  27.609  24.459  1.00  0.00     0.058 A 
BRANCH  12  17
ATOM     17  O   UNL A   1      34.199  29.149  27.728  1.00  0.00    -0.493 OA
ATOM     18  C   UNL A   1      35.439  29.768  27.382  1.00  0.00     0.278 C 
ENDBRANCH  12  17
BRANCH  14  19
ATOM     19  O   UNL A   1      32.097  30.657  26.504  1.00  0.00    -0.502 OA
ATOM     20  H   UNL A   1      31.504  30.783  27.219  1.00  0.00     0.293 HD
ENDBRANCH  14  19
BRANCH  15  21
ATOM     21  O   UNL A   1      30.706  29.397  24.241  1.00  0.00    -0.493 OA
ATOM     22  C   UNL A   1      30.760  29.279  22.826  1.00  0.00     0.278 C 
ENDBRANCH  15  21
ENDBRANCH  10  11
ENDBRANCH   7   9
ENDBRANCH   6   7
ENDBRANCH   5   6
ENDBRANCH   4   5
ENDBRANCH   3   4
ENDBRANCH   2   3
ENDBRANCH   1   2
BRANCH   1  23
ATOM     23  O   UNL A   1      38.978  23.073  26.374  1.00  0.00    -0.376 OA
BRANCH  23  24
ATOM     24  C   UNL A   1      40.110  22.238  26.547  1.00  0.00     0.202 C 
BRANCH  24  25
ATOM     25  C   UNL A   1      41.577  22.594  26.240  1.00  0.00     0.261 C 
BRANCH  25  26
ATOM     26  O   UNL A   1      41.934  23.969  26.120  1.00  0.00    -0.460 OA
BRANCH  26  27
ATOM     27  C   UNL A   1      42.962  24.370  26.898  1.00  0.00     0.338 C 
ATOM     28  O   UNL A   1      44.132  24.001  26.833  1.00  0.00    -0.246 OA
BRANCH  27  29
ATOM     29  C   UNL A   1      42.503  25.467  27.760  1.00  0.00     0.060 A 
ATOM     30  C   UNL A   1      43.318  26.597  27.901  1.00  0.00     0.016 A 
ATOM     31  C   UNL A   1      41.294  25.365  28.450  1.00  0.00     0.016 A 
ATOM     32  C   UNL A   1      42.931  27.629  28.753  1.00  0.00     0.010 A 
ATOM     33  C   UNL A   1      40.917  26.392  29.318  1.00  0.00     0.010 A 
ATOM     34  C   UNL A   1      41.746  27.514  29.494  1.00  0.00    -0.014 A 
BRANCH  34  35
ATOM     35  C   UNL A   1      41.451  28.489  30.570  1.00  0.00     0.031 A 
ATOM     36  C   UNL A   1      42.280  28.451  31.824  1.00  0.00     0.074 A 
ATOM     37  C   UNL A   1      40.468  29.396  30.433  1.00  0.00     0.049 A 
ATOM     38  N   UNL A   1      42.176  29.175  32.908  1.00  0.00    -0.248 NA
ATOM     39  C   UNL A   1      43.370  27.461  31.859  1.00  0.00     0.031 C 
ATOM     40  C   UNL A   1      39.623  29.558  29.252  1.00  0.00     0.029 A 
ATOM     41  N   UNL A   1      40.009  30.347  31.310  1.00  0.00    -0.354 N 
ATOM     42  C   UNL A   1      43.178  28.724  33.757  1.00  0.00     0.074 A 
ATOM     43  C   UNL A   1      43.862  27.647  33.075  1.00  0.00     0.031 C 
ATOM     44  C   UNL A   1      38.739  30.545  29.482  1.00  0.00     0.029 A 
ATOM     45  C   UNL A   1      38.933  31.058  30.837  1.00  0.00     0.049 A 
ATOM     46  H   UNL A   1      40.413  30.505  32.194  1.00  0.00     0.167 HD
ATOM     47  C   UNL A   1      43.502  29.167  34.996  1.00  0.00     0.031 A 
ATOM     48  C   UNL A   1      38.177  31.999  31.438  1.00  0.00     0.031 A 
ATOM     49  C   UNL A   1      42.804  30.221  35.683  1.00  0.00     0.049 A 
ATOM     50  C   UNL A   1      38.507  32.424  32.845  1.00  0.00     0.074 A 
ATOM     51  C   UNL A   1      43.065  30.753  36.933  1.00  0.00     0.029 A 
ATOM     52  N   UNL A   1      41.699  30.895  35.183  1.00  0.00    -0.354 N 
ATOM     53  N   UNL A   1      39.478  32.013  33.627  1.00  0.00    -0.248 NA
ATOM     54  C   UNL A   1      37.643  33.448  33.450  1.00  0.00     0.031 C 
ATOM     55  C   UNL A   1      42.080  31.707  37.214  1.00  0.00     0.029 A 
ATOM     56  C   UNL A   1      41.247  31.816  36.113  1.00  0.00     0.049 A 
ATOM     57  H   UNL A   1      41.296  30.739  34.298  1.00  0.00     0.167 HD
ATOM     58  C   UNL A   1      39.357  32.746  34.803  1.00  0.00     0.074 A 
ATOM     59  C   UNL A   1      38.227  33.635  34.626  1.00  0.00     0.031 C 
ATOM     60  C   UNL A   1      40.117  32.692  35.926  1.00  0.00     0.031 A 
BRANCH  47  61
ATOM     61  C   UNL A   1      44.638  28.474  35.701  1.00  0.00    -0.014 A 
ATOM     62  C   UNL A   1      45.971  28.887  35.522  1.00  0.00     0.010 A 
ATOM     63  C   UNL A   1      44.364  27.401  36.569  1.00  0.00     0.010 A 
ATOM     64  C   UNL A   1      47.013  28.208  36.160  1.00  0.00     0.020 A 
ATOM     65  C   UNL A   1      45.401  26.739  37.232  1.00  0.00     0.020 A 
ATOM     66  C   UNL A   1      46.721  27.134  37.006  1.00  0.00     0.054 A 
BRANCH  66  67
ATOM     67  S   UNL A   1      48.092  26.273  37.826  1.00  0.00     0.124 S 
ATOM     68  O   UNL A   1      48.060  26.864  39.162  1.00  0.00    -0.237 OA
ATOM     69  O   UNL A   1      47.683  24.873  37.748  1.00  0.00    -0.237 OA
ATOM     70  O   UNL A   1      49.256  26.626  37.017  1.00  0.00    -0.744 OA
ENDBRANCH  66  67
ENDBRANCH  47  61
BRANCH  48  71
ATOM     71  C   UNL A   1      37.022  32.593  30.711  1.00  0.00    -0.014 A 
ATOM     72  C   UNL A   1      35.754  31.989  30.762  1.00  0.00     0.010 A 
ATOM     73  C   UNL A   1      37.185  33.780  29.970  1.00  0.00     0.010 A 
ATOM     74  C   UNL A   1      34.672  32.555  30.078  1.00  0.00     0.020 A 
ATOM     75  C   UNL A   1      36.101  34.362  29.308  1.00  0.00     0.020 A 
ATOM     76  C   UNL A   1      34.852  33.740  29.360  1.00  0.00     0.054 A 
BRANCH  76  77
ATOM     77  S   UNL A   1      33.419  34.488  28.536  1.00  0.00     0.124 S 
ATOM     78  O   UNL A   1      32.903  33.371  27.751  1.00  0.00    -0.237 OA
ATOM     79  O   UNL A   1      32.590  34.907  29.663  1.00  0.00    -0.237 OA
ATOM     80  O   UNL A   1      34.003  35.581  27.760  1.00  0.00    -0.744 OA
ENDBRANCH  76  77
ENDBRANCH  48  71
BRANCH  60  81
ATOM     81  C   UNL A   1      39.778  33.644  37.044  1.00  0.00    -0.014 A 
ATOM     82  C   UNL A   1      39.030  33.229  38.159  1.00  0.00     0.010 A 
ATOM     83  C   UNL A   1      40.274  34.960  37.004  1.00  0.00     0.010 A 
ATOM     84  C   UNL A   1      38.757  34.122  39.199  1.00  0.00     0.020 A 
ATOM     85  C   UNL A   1      40.028  35.848  38.056  1.00  0.00     0.020 A 
ATOM     86  C   UNL A   1      39.259  35.426  39.141  1.00  0.00     0.054 A 
BRANCH  86  87
ATOM     87  S   UNL A   1      38.931  36.552  40.525  1.00  0.00     0.124 S 
ATOM     88  O   UNL A   1      37.926  35.815  41.285  1.00  0.00    -0.237 OA
ATOM     89  O   UNL A   1      40.241  36.667  41.162  1.00  0.00    -0.237 OA
ATOM     90  O   UNL A   1      38.452  37.771  39.876  1.00  0.00    -0.744 OA
ENDBRANCH  86  87
ENDBRANCH  60  81
ENDBRANCH  34  35
ENDBRANCH  27  29
ENDBRANCH  26  27
ENDBRANCH  25  26
ENDBRANCH  24  25
ENDBRANCH  23  24
ENDBRANCH   1  23
TORSDOF 24
ENDMDL
MODEL 3
REMARK VINA RESULT:      -8.9      2.377      8.010
REMARK SMILES COc1cc(/C=C/C(=O)OCCOCCOCCOC(=O)c2ccc(-c3c4nc(c(-c5ccc(S(=O)(=O)[O-])cc5)c5ccc([nH]5)c(-c5ccc(S(=O)(=O)[O-])cc5)c5nc(c(-c6ccc(S(=O)(=O)[O-])cc6)c6ccc3[nH]6)C=C5)C=C4)cc2)cc(OC)c1O
REMARK SMILES IDX 15 1 14 2 13 3 12 4 11 5 10 6 8 7 9 8 7 9 6 10 5 11 3 12
REMARK SMILES IDX 4 13 86 14 83 15 82 16 2 17 1 18 87 19 84 21 85 22 16 23
REMARK SMILES IDX 17 24 18 25 19 26 20 27 21 28 22 29 23 30 81 31 24 32 80 33
REMARK SMILES IDX 25 34 26 35 27 36 74 37 28 38 79 39 73 40 75 41 29 42 78 43
REMARK SMILES IDX 72 44 71 45 30 47 60 48 41 49 59 50 42 51 45 52 58 53 76 54
REMARK SMILES IDX 43 55 44 56 57 58 77 59 46 60 31 61 32 62 40 63 33 64 39 65
REMARK SMILES IDX 34 66 35 67 36 68 37 69 38 70 61 71 62 72 70 73 63 74 69 75
REMARK SMILES IDX 64 76 65 77 66 78 67 79 68 80 47 81 48 82 56 83 49 84 55 85
REMARK SMILES IDX 50 86 51 87 52 88 53 89 54 90
REMARK H PARENT 87 20 75 46 45 57
REMARK Flexibility Score: inf
ROOT
ATOM      1  C   UNL A   1      32.246  29.663  26.917  1.00  0.00     0.188 C 
ENDROOT
BRANCH   1   2
ATOM      2  C   UNL A   1      31.909  29.028  25.554  1.00  0.00     0.188 C 
BRANCH   2   3
ATOM      3  O   UNL A   1      32.940  28.761  24.619  1.00  0.00    -0.376 OA
BRANCH   3   4
ATOM      4  C   UNL A   1      32.635  28.658  23.238  1.00  0.00     0.202 C 
BRANCH   4   5
ATOM      5  C   UNL A   1      31.965  27.409  22.647  1.00  0.00     0.261 C 
BRANCH   5   6
ATOM      6  O   UNL A   1      30.531  27.383  22.708  1.00  0.00    -0.460 OA
BRANCH   6   7
ATOM      7  C   UNL A   1      30.010  26.492  23.587  1.00  0.00     0.330 C 
ATOM      8  O   UNL A   1      28.843  26.428  23.944  1.00  0.00    -0.247 OA
BRANCH   7   9
ATOM      9  C   UNL A   1      30.993  25.485  24.040  1.00  0.00     0.094 C 
ATOM     10  C   UNL A   1      30.714  24.331  24.666  1.00  0.00     0.016 C 
BRANCH  10  11
ATOM     11  C   UNL A   1      31.757  23.366  25.060  1.00  0.00    -0.018 A 
ATOM     12  C   UNL A   1      32.577  21.092  25.382  1.00  0.00     0.165 A 
ATOM     13  C   UNL A   1      31.558  21.980  25.014  1.00  0.00     0.058 A 
ATOM     14  C   UNL A   1      33.833  21.588  25.762  1.00  0.00     0.200 A 
ATOM     15  C   UNL A   1      34.052  22.970  25.824  1.00  0.00     0.165 A 
ATOM     16  C   UNL A   1      33.015  23.841  25.452  1.00  0.00     0.058 A 
BRANCH  12  17
ATOM     17  O   UNL A   1      32.272  19.763  25.226  1.00  0.00    -0.493 OA
ATOM     18  C   UNL A   1      32.529  19.200  23.940  1.00  0.00     0.278 C 
ENDBRANCH  12  17
BRANCH  14  19
ATOM     19  O   UNL A   1      34.865  20.714  25.976  1.00  0.00    -0.502 OA
ATOM     20  H   UNL A   1      35.457  20.508  25.280  1.00  0.00     0.293 HD
ENDBRANCH  14  19
BRANCH  15  21
ATOM     21  O   UNL A   1      35.208  23.629  26.154  1.00  0.00    -0.493 OA
ATOM     22  C   UNL A   1      36.214  23.746  25.158  1.00  0.00     0.278 C 
ENDBRANCH  15  21
ENDBRANCH  10  11
ENDBRANCH   7   9
ENDBRANCH   6   7
ENDBRANCH   5   6
ENDBRANCH   4   5
ENDBRANCH   3   4
ENDBRANCH   2   3
ENDBRANCH   1   2
BRANCH   1  23
ATOM     23  O   UNL A   1      33.584  30.027  27.162  1.00  0.00    -0.376 OA
BRANCH  23  24
ATOM     24  C   UNL A   1      33.919  31.319  27.638  1.00  0.00     0.202 C 
BRANCH  24  25
ATOM     25  C   UNL A   1      32.992  32.547  27.713  1.00  0.00     0.261 C 
BRANCH  25  26
ATOM     26  O   UNL A   1      33.574  33.846  27.637  1.00  0.00    -0.460 OA
BRANCH  26  27
ATOM     27  C   UNL A   1      33.485  34.586  28.764  1.00  0.00     0.338 C 
ATOM     28  O   UNL A   1      32.569  35.335  29.092  1.00  0.00    -0.246 OA
BRANCH  27  29
ATOM     29  C   UNL A   1      34.604  34.236  29.648  1.00  0.00     0.060 A 
ATOM     30  C   UNL A   1      35.912  34.404  29.178  1.00  0.00     0.016 A 
ATOM     31  C   UNL A   1      34.363  33.714  30.921  1.00  0.00     0.016 A 
ATOM     32  C   UNL A   1      36.990  34.031  29.976  1.00  0.00     0.010 A 
ATOM     33  C   UNL A   1      35.445  33.322  31.712  1.00  0.00     0.010 A 
ATOM     34  C   UNL A   1      36.760  33.454  31.233  1.00  0.00    -0.014 A 
BRANCH  34  35
ATOM     35  C   UNL A   1      37.883  32.842  31.980  1.00  0.00     0.031 A 
ATOM     36  C   UNL A   1      38.578  31.648  31.386  1.00  0.00     0.074 A 
ATOM     37  C   UNL A   1      38.282  33.340  33.164  1.00  0.00     0.049 A 
ATOM     38  N   UNL A   1      39.552  30.927  31.877  1.00  0.00    -0.248 NA
ATOM     39  C   UNL A   1      38.108  31.208  30.062  1.00  0.00     0.031 C 
ATOM     40  C   UNL A   1      37.715  34.515  33.822  1.00  0.00     0.029 A 
ATOM     41  N   UNL A   1      39.258  32.907  34.026  1.00  0.00    -0.354 N 
ATOM     42  C   UNL A   1      39.807  29.944  30.930  1.00  0.00     0.074 A 
ATOM     43  C   UNL A   1      38.868  30.144  29.847  1.00  0.00     0.031 C 
ATOM     44  C   UNL A   1      38.347  34.703  34.995  1.00  0.00     0.029 A 
ATOM     45  C   UNL A   1      39.337  33.643  35.183  1.00  0.00     0.049 A 
ATOM     46  H   UNL A   1      39.846  32.140  33.834  1.00  0.00     0.167 HD
ATOM     47  C   UNL A   1      40.739  28.962  30.956  1.00  0.00     0.031 A 
ATOM     48  C   UNL A   1      40.103  33.468  36.278  1.00  0.00     0.031 A 
ATOM     49  C   UNL A   1      41.655  28.749  32.045  1.00  0.00     0.049 A 
ATOM     50  C   UNL A   1      41.081  32.324  36.320  1.00  0.00     0.074 A 
ATOM     51  C   UNL A   1      42.647  27.792  32.161  1.00  0.00     0.029 A 
ATOM     52  N   UNL A   1      41.681  29.497  33.213  1.00  0.00    -0.354 N 
ATOM     53  N   UNL A   1      41.335  31.419  35.403  1.00  0.00    -0.248 NA
ATOM     54  C   UNL A   1      41.884  32.179  37.543  1.00  0.00     0.031 C 
ATOM     55  C   UNL A   1      43.232  27.923  33.425  1.00  0.00     0.029 A 
ATOM     56  C   UNL A   1      42.651  29.003  34.069  1.00  0.00     0.049 A 
ATOM     57  H   UNL A   1      41.095  30.265  33.406  1.00  0.00     0.167 HD
ATOM     58  C   UNL A   1      42.344  30.617  35.927  1.00  0.00     0.074 A 
ATOM     59  C   UNL A   1      42.662  31.150  37.236  1.00  0.00     0.031 C 
ATOM     60  C   UNL A   1      42.955  29.540  35.373  1.00  0.00     0.031 A 
BRANCH  47  61
ATOM     61  C   UNL A   1      40.778  28.016  29.785  1.00  0.00    -0.014 A 
ATOM     62  C   UNL A   1      39.849  26.966  29.661  1.00  0.00     0.010 A 
ATOM     63  C   UNL A   1      41.751  28.191  28.785  1.00  0.00     0.010 A 
ATOM     64  C   UNL A   1      39.924  26.079  28.583  1.00  0.00     0.020 A 
ATOM     65  C   UNL A   1      41.811  27.324  27.690  1.00  0.00     0.020 A 
ATOM     66  C   UNL A   1      40.909  26.261  27.607  1.00  0.00     0.054 A 
BRANCH  66  67
ATOM     67  S   UNL A   1      40.981  25.099  26.216  1.00  0.00     0.124 S 
ATOM     68  O   UNL A   1      41.964  24.126  26.689  1.00  0.00    -0.237 OA
ATOM     69  O   UNL A   1      39.606  24.613  26.134  1.00  0.00    -0.237 OA
ATOM     70  O   UNL A   1      41.416  25.927  25.094  1.00  0.00    -0.744 OA
ENDBRANCH  66  67
ENDBRANCH  47  61
BRANCH  48  71
ATOM     71  C   UNL A   1      39.964  34.396  37.433  1.00  0.00    -0.014 A 
ATOM     72  C   UNL A   1      39.156  34.059  38.533  1.00  0.00     0.010 A 
ATOM     73  C   UNL A   1      40.652  35.625  37.442  1.00  0.00     0.010 A 
ATOM     74  C   UNL A   1      39.031  34.935  39.616  1.00  0.00     0.020 A 
ATOM     75  C   UNL A   1      40.551  36.491  38.535  1.00  0.00     0.020 A 
ATOM     76  C   UNL A   1      39.734  36.143  39.612  1.00  0.00     0.054 A 
BRANCH  76  77
ATOM     77  S   UNL A   1      39.606  37.233  41.057  1.00  0.00     0.124 S 
ATOM     78  O   UNL A   1      38.844  38.357  40.523  1.00  0.00    -0.237 OA
ATOM     79  O   UNL A   1      38.904  36.394  42.024  1.00  0.00    -0.237 OA
ATOM     80  O   UNL A   1      41.000  37.522  41.391  1.00  0.00    -0.744 OA
ENDBRANCH  76  77
ENDBRANCH  48  71
BRANCH  60  81
ATOM     81  C   UNL A   1      44.058  28.881  36.160  1.00  0.00    -0.014 A 
ATOM     82  C   UNL A   1      43.809  27.765  36.978  1.00  0.00     0.010 A 
ATOM     83  C   UNL A   1      45.378  29.351  36.027  1.00  0.00     0.010 A 
ATOM     84  C   UNL A   1      44.854  27.150  37.673  1.00  0.00     0.020 A 
ATOM     85  C   UNL A   1      46.430  28.722  36.697  1.00  0.00     0.020 A 
ATOM     86  C   UNL A   1      46.160  27.633  37.528  1.00  0.00     0.054 A 
BRANCH  86  87
ATOM     87  S   UNL A   1      47.507  26.790  38.402  1.00  0.00     0.124 S 
ATOM     88  O   UNL A   1      48.448  27.882  38.634  1.00  0.00    -0.237 OA
ATOM     89  O   UNL A   1      46.840  26.272  39.595  1.00  0.00    -0.237 OA
ATOM     90  O   UNL A   1      47.954  25.772  37.454  1.00  0.00    -0.744 OA
ENDBRANCH  86  87
ENDBRANCH  60  81
ENDBRANCH  34  35
ENDBRANCH  27  29
ENDBRANCH  26  27
ENDBRANCH  25  26
ENDBRANCH  24  25
ENDBRANCH  23  24
ENDBRANCH   1  23
TORSDOF 24
ENDMDL
