MODEL 1
REMARK VINA RESULT:     -12.3      0.000      0.000
REMARK SMILES COc1ccc(-c2cc(Cl)cc3c2O[C@@H](C(F)(F)F)C(C(=O)OCCOCCOCCOC(=O)c2ccc(-c4c5nc(c(-c6ccc(S(=O)(=O)[O-])cc6)c6ccc([nH]6)c(-c6ccc(S(=O)(=O)[O-])cc6)c6nc(c(-c7ccc(S(=O)(=O)[O-])cc7)c7ccc4[nH]7)C=C6)C=C5)cc2)=C3)cc1C
REMARK SMILES IDX 28 1 27 2 26 3 25 4 24 5 23 6 21 7 22 8 20 9 7 10 8 11 13 12
REMARK SMILES IDX 9 13 12 14 14 15 10 16 11 17 95 18 15 19 6 20 3 21 4 22
REMARK SMILES IDX 97 23 5 24 96 25 98 26 2 27 1 28 16 29 17 30 18 31 19 32
REMARK SMILES IDX 29 33 30 34 31 35 32 36 33 37 34 38 35 39 36 40 94 41 37 42
REMARK SMILES IDX 93 43 38 44 39 45 40 46 87 47 41 48 92 49 86 50 88 51 42 52
REMARK SMILES IDX 91 53 85 54 84 55 43 57 73 58 54 59 72 60 55 61 58 62 71 63
REMARK SMILES IDX 89 64 56 65 57 66 70 68 90 69 59 70 44 71 45 72 53 73 46 74
REMARK SMILES IDX 52 75 47 76 48 77 49 78 50 79 51 80 74 81 75 82 83 83 76 84
REMARK SMILES IDX 82 85 77 86 78 87 79 88 80 89 81 90 60 91 61 92 69 93 62 94
REMARK SMILES IDX 68 95 63 96 64 97 65 98 66 99 67 100
REMARK H PARENT 88 56 58 67
REMARK Flexibility Score: inf
ROOT
ATOM      1  C   UNL A   1      42.077  22.970  26.031  1.00  0.00     0.188 C 
ENDROOT
BRANCH   1   2
ATOM      2  C   UNL A   1      41.323  22.542  27.265  1.00  0.00     0.188 C 
BRANCH   2   3
ATOM      3  O   UNL A   1      39.876  22.465  27.297  1.00  0.00    -0.376 OA
BRANCH   3   4
ATOM      4  C   UNL A   1      38.900  22.623  26.216  1.00  0.00     0.202 C 
BRANCH   4   5
ATOM      5  C   UNL A   1      37.175  23.232  26.018  1.00  0.00     0.261 C 
BRANCH   5   6
ATOM      6  O   UNL A   1      35.550  22.695  26.859  1.00  0.00    -0.460 OA
BRANCH   6   7
ATOM      7  C   UNL A   1      34.100  22.092  26.630  1.00  0.00     0.338 C 
ATOM      8  O   UNL A   1      33.701  21.023  27.112  1.00  0.00    -0.246 OA
BRANCH   7   9
ATOM      9  C   UNL A   1      32.905  22.777  25.987  1.00  0.00     0.087 C 
ATOM     10  C   UNL A   1      32.308  26.996  25.773  1.00  0.00     0.026 A 
ATOM     11  C   UNL A   1      31.117  27.289  25.128  1.00  0.00     0.033 A 
ATOM     12  C   UNL A   1      32.513  25.549  25.992  1.00  0.00     0.135 A 
ATOM     13  C   UNL A   1      30.114  26.313  25.051  1.00  0.00     0.042 A 
ATOM     14  C   UNL A   1      31.433  24.655  26.249  1.00  0.00     0.019 A 
ATOM     15  O   UNL A   1      33.354  24.819  24.838  1.00  0.00    -0.475 OA
ATOM     16  Cl  UNL A   1      28.707  26.680  24.124  1.00  0.00    -0.084 Cl
ATOM     17  C   UNL A   1      30.216  25.056  25.701  1.00  0.00     0.032 A 
ATOM     18  C   UNL A   1      31.802  23.237  26.650  1.00  0.00     0.027 C 
ATOM     19  C   UNL A   1      32.950  23.386  24.657  1.00  0.00     0.316 C 
BRANCH  10  20
ATOM     20  C   UNL A   1      32.990  28.246  26.458  1.00  0.00    -0.014 A 
ATOM     21  C   UNL A   1      34.224  30.780  27.258  1.00  0.00     0.121 A 
ATOM     22  C   UNL A   1      32.846  30.644  27.132  1.00  0.00     0.047 A 
ATOM     23  C   UNL A   1      34.981  29.610  27.272  1.00  0.00    -0.008 A 
ATOM     24  C   UNL A   1      32.239  29.396  26.794  1.00  0.00     0.013 A 
ATOM     25  C   UNL A   1      34.364  28.362  26.832  1.00  0.00     0.016 A 
ATOM     26  C   UNL A   1      36.415  29.720  27.744  1.00  0.00     0.048 C 
BRANCH  21  27
ATOM     27  O   UNL A   1      34.726  32.046  27.461  1.00  0.00    -0.496 OA
ATOM     28  C   UNL A   1      33.989  32.896  28.356  1.00  0.00     0.278 C 
ENDBRANCH  21  27
ENDBRANCH  10  20
BRANCH  19  29
ATOM     29  C   UNL A   1      33.304  22.232  23.672  1.00  0.00     0.430 C 
ATOM     30  F   UNL A   1      34.651  21.978  23.752  1.00  0.00    -0.167 F 
ATOM     31  F   UNL A   1      32.685  21.069  23.862  1.00  0.00    -0.167 F 
ATOM     32  F   UNL A   1      33.160  22.572  22.356  1.00  0.00    -0.167 F 
ENDBRANCH  19  29
ENDBRANCH   7   9
ENDBRANCH   6   7
ENDBRANCH   5   6
ENDBRANCH   4   5
ENDBRANCH   3   4
ENDBRANCH   2   3
ENDBRANCH   1   2
BRANCH   1  33
ATOM     33  O   UNL A   1      42.290  24.358  26.112  1.00  0.00    -0.376 OA
BRANCH  33  34
ATOM     34  C   UNL A   1      43.620  24.720  26.387  1.00  0.00     0.202 C 
BRANCH  34  35
ATOM     35  C   UNL A   1      44.204  25.652  25.327  1.00  0.00     0.261 C 
BRANCH  35  36
ATOM     36  O   UNL A   1      44.228  27.028  25.764  1.00  0.00    -0.460 OA
BRANCH  36  37
ATOM     37  C   UNL A   1      43.174  27.805  25.341  1.00  0.00     0.338 C 
ATOM     38  O   UNL A   1      42.597  27.621  24.285  1.00  0.00    -0.246 OA
BRANCH  37  39
ATOM     39  C   UNL A   1      42.679  28.642  26.464  1.00  0.00     0.060 A 
ATOM     40  C   UNL A   1      43.383  29.410  27.393  1.00  0.00     0.016 A 
ATOM     41  C   UNL A   1      41.342  28.729  26.581  1.00  0.00     0.016 A 
ATOM     42  C   UNL A   1      42.766  29.912  28.644  1.00  0.00     0.010 A 
ATOM     43  C   UNL A   1      40.848  29.324  27.741  1.00  0.00     0.010 A 
ATOM     44  C   UNL A   1      41.470  29.726  29.041  1.00  0.00    -0.014 A 
BRANCH  44  45
ATOM     45  C   UNL A   1      40.690  30.043  30.719  1.00  0.00     0.031 A 
ATOM     46  C   UNL A   1      39.477  31.363  31.215  1.00  0.00     0.074 A 
ATOM     47  C   UNL A   1      40.743  29.179  31.781  1.00  0.00     0.049 A 
ATOM     48  N   UNL A   1      38.961  31.556  32.397  1.00  0.00    -0.248 NA
ATOM     49  C   UNL A   1      38.899  32.589  30.358  1.00  0.00     0.031 C 
ATOM     50  C   UNL A   1      40.008  29.172  33.069  1.00  0.00     0.029 A 
ATOM     51  N   UNL A   1      41.545  28.061  31.964  1.00  0.00    -0.354 N 
ATOM     52  C   UNL A   1      38.103  32.655  32.389  1.00  0.00     0.074 A 
ATOM     53  C   UNL A   1      38.168  33.301  31.141  1.00  0.00     0.031 C 
ATOM     54  C   UNL A   1      40.689  28.455  33.980  1.00  0.00     0.029 A 
ATOM     55  C   UNL A   1      41.895  28.032  33.324  1.00  0.00     0.049 A 
ATOM     56  H   UNL A   1      41.816  27.414  31.273  1.00  0.00     0.167 HD
ATOM     57  C   UNL A   1      37.416  33.081  33.460  1.00  0.00     0.031 A 
ATOM     58  C   UNL A   1      43.160  28.407  33.632  1.00  0.00     0.031 A 
ATOM     59  C   UNL A   1      38.132  32.674  34.637  1.00  0.00     0.049 A 
ATOM     60  C   UNL A   1      43.159  29.782  34.399  1.00  0.00     0.074 A 
ATOM     61  C   UNL A   1      38.005  31.641  35.539  1.00  0.00     0.029 A 
ATOM     62  N   UNL A   1      39.448  33.124  34.722  1.00  0.00    -0.354 N 
ATOM     63  N   UNL A   1      42.119  30.561  34.618  1.00  0.00    -0.248 NA
ATOM     64  C   UNL A   1      44.321  30.358  35.061  1.00  0.00     0.031 C 
ATOM     65  C   UNL A   1      39.299  31.398  36.088  1.00  0.00     0.029 A 
ATOM     66  C   UNL A   1      40.183  32.327  35.569  1.00  0.00     0.049 A 
ATOM     67  H   UNL A   1      39.803  33.906  34.242  1.00  0.00     0.167 HD
ATOM     68  C   UNL A   1      42.468  31.674  35.371  1.00  0.00     0.074 A 
ATOM     69  C   UNL A   1      43.873  31.491  35.618  1.00  0.00     0.031 C 
ATOM     70  C   UNL A   1      41.588  32.642  35.783  1.00  0.00     0.031 A 
BRANCH  57  71
ATOM     71  C   UNL A   1      36.048  33.720  33.306  1.00  0.00    -0.014 A 
ATOM     72  C   UNL A   1      35.289  33.445  32.163  1.00  0.00     0.010 A 
ATOM     73  C   UNL A   1      35.536  34.749  34.145  1.00  0.00     0.010 A 
ATOM     74  C   UNL A   1      34.139  34.198  31.846  1.00  0.00     0.020 A 
ATOM     75  C   UNL A   1      34.375  35.474  33.868  1.00  0.00     0.020 A 
ATOM     76  C   UNL A   1      33.700  35.218  32.694  1.00  0.00     0.054 A 
BRANCH  76  77
ATOM     77  S   UNL A   1      32.308  36.273  32.220  1.00  0.00     0.124 S 
ATOM     78  O   UNL A   1      32.596  36.556  30.817  1.00  0.00    -0.237 OA
ATOM     79  O   UNL A   1      31.159  35.408  32.473  1.00  0.00    -0.237 OA
ATOM     80  O   UNL A   1      32.421  37.426  33.113  1.00  0.00    -0.744 OA
ENDBRANCH  76  77
ENDBRANCH  57  71
BRANCH  58  81
ATOM     81  C   UNL A   1      44.054  27.872  32.511  1.00  0.00    -0.014 A 
ATOM     82  C   UNL A   1      44.779  28.718  31.610  1.00  0.00     0.010 A 
ATOM     83  C   UNL A   1      44.549  26.589  32.583  1.00  0.00     0.010 A 
ATOM     84  C   UNL A   1      45.853  28.272  30.783  1.00  0.00     0.020 A 
ATOM     85  C   UNL A   1      45.595  26.126  31.730  1.00  0.00     0.020 A 
ATOM     86  C   UNL A   1      46.253  26.951  30.841  1.00  0.00     0.054 A 
BRANCH  86  87
ATOM     87  S   UNL A   1      47.589  26.285  29.801  1.00  0.00     0.124 S 
ATOM     88  O   UNL A   1      46.958  25.135  29.164  1.00  0.00    -0.237 OA
ATOM     89  O   UNL A   1      47.889  27.419  28.929  1.00  0.00    -0.237 OA
ATOM     90  O   UNL A   1      48.645  25.941  30.752  1.00  0.00    -0.744 OA
ENDBRANCH  86  87
ENDBRANCH  58  81
BRANCH  70  91
ATOM     91  C   UNL A   1      41.884  33.970  36.510  1.00  0.00    -0.014 A 
ATOM     92  C   UNL A   1      42.160  35.213  35.920  1.00  0.00     0.010 A 
ATOM     93  C   UNL A   1      41.839  33.978  37.934  1.00  0.00     0.010 A 
ATOM     94  C   UNL A   1      42.446  36.359  36.698  1.00  0.00     0.020 A 
ATOM     95  C   UNL A   1      42.063  35.114  38.717  1.00  0.00     0.020 A 
ATOM     96  C   UNL A   1      42.408  36.297  38.093  1.00  0.00     0.054 A 
BRANCH  96  97
ATOM     97  S   UNL A   1      42.799  37.756  39.090  1.00  0.00     0.124 S 
ATOM     98  O   UNL A   1      43.483  37.162  40.236  1.00  0.00    -0.237 OA
ATOM     99  O   UNL A   1      43.643  38.546  38.196  1.00  0.00    -0.237 OA
ATOM    100  O   UNL A   1      41.491  38.341  39.378  1.00  0.00    -0.744 OA
ENDBRANCH  96  97
ENDBRANCH  70  91
ENDBRANCH  44  45
ENDBRANCH  37  39
ENDBRANCH  36  37
ENDBRANCH  35  36
ENDBRANCH  34  35
ENDBRANCH  33  34
ENDBRANCH   1  33
TORSDOF 23
ENDMDL
MODEL 2
REMARK VINA RESULT:     -11.1      5.998     12.483
REMARK SMILES COc1ccc(-c2cc(Cl)cc3c2O[C@@H](C(F)(F)F)C(C(=O)OCCOCCOCCOC(=O)c2ccc(-c4c5nc(c(-c6ccc(S(=O)(=O)[O-])cc6)c6ccc([nH]6)c(-c6ccc(S(=O)(=O)[O-])cc6)c6nc(c(-c7ccc(S(=O)(=O)[O-])cc7)c7ccc4[nH]7)C=C6)C=C5)cc2)=C3)cc1C
REMARK SMILES IDX 28 1 27 2 26 3 25 4 24 5 23 6 21 7 22 8 20 9 7 10 8 11 13 12
REMARK SMILES IDX 9 13 12 14 14 15 10 16 11 17 95 18 15 19 6 20 3 21 4 22
REMARK SMILES IDX 97 23 5 24 96 25 98 26 2 27 1 28 16 29 17 30 18 31 19 32
REMARK SMILES IDX 29 33 30 34 31 35 32 36 33 37 34 38 35 39 36 40 94 41 37 42
REMARK SMILES IDX 93 43 38 44 39 45 40 46 87 47 41 48 92 49 86 50 88 51 42 52
REMARK SMILES IDX 91 53 85 54 84 55 43 57 73 58 54 59 72 60 55 61 58 62 71 63
REMARK SMILES IDX 89 64 56 65 57 66 70 68 90 69 59 70 44 71 45 72 53 73 46 74
REMARK SMILES IDX 52 75 47 76 48 77 49 78 50 79 51 80 74 81 75 82 83 83 76 84
REMARK SMILES IDX 82 85 77 86 78 87 79 88 80 89 81 90 60 91 61 92 69 93 62 94
REMARK SMILES IDX 68 95 63 96 64 97 65 98 66 99 67 100
REMARK H PARENT 88 56 58 67
REMARK Flexibility Score: inf
ROOT
ATOM      1  C   UNL A   1      39.653  33.658  39.705  1.00  0.00     0.188 C 
ENDROOT
BRANCH   1   2
ATOM      2  C   UNL A   1      38.617  33.452  38.628  1.00  0.00     0.188 C 
BRANCH   2   3
ATOM      3  O   UNL A   1      38.949  33.506  37.218  1.00  0.00    -0.376 OA
BRANCH   3   4
ATOM      4  C   UNL A   1      38.071  33.542  36.045  1.00  0.00     0.202 C 
BRANCH   4   5
ATOM      5  C   UNL A   1      36.305  33.903  35.677  1.00  0.00     0.261 C 
BRANCH   5   6
ATOM      6  O   UNL A   1      35.185  33.350  34.237  1.00  0.00    -0.460 OA
BRANCH   6   7
ATOM      7  C   UNL A   1      35.130  32.590  32.845  1.00  0.00     0.338 C 
ATOM      8  O   UNL A   1      34.177  32.641  32.054  1.00  0.00    -0.246 OA
BRANCH   7   9
ATOM      9  C   UNL A   1      36.265  31.862  32.143  1.00  0.00     0.087 C 
ATOM     10  C   UNL A   1      36.021  30.066  28.281  1.00  0.00     0.026 A 
ATOM     11  C   UNL A   1      37.229  29.481  27.937  1.00  0.00     0.033 A 
ATOM     12  C   UNL A   1      36.001  30.596  29.660  1.00  0.00     0.135 A 
ATOM     13  C   UNL A   1      38.146  29.145  28.942  1.00  0.00     0.042 A 
ATOM     14  C   UNL A   1      36.716  29.977  30.726  1.00  0.00     0.019 A 
ATOM     15  O   UNL A   1      36.395  32.146  29.778  1.00  0.00    -0.475 OA
ATOM     16  Cl  UNL A   1      39.687  28.543  28.454  1.00  0.00    -0.084 Cl
ATOM     17  C   UNL A   1      37.851  29.278  30.323  1.00  0.00     0.032 A 
ATOM     18  C   UNL A   1      36.450  30.508  32.125  1.00  0.00     0.027 C 
ATOM     19  C   UNL A   1      37.068  32.466  31.079  1.00  0.00     0.316 C 
BRANCH  10  20
ATOM     20  C   UNL A   1      34.835  29.714  27.298  1.00  0.00    -0.014 A 
ATOM     21  C   UNL A   1      32.399  28.880  25.899  1.00  0.00     0.121 A 
ATOM     22  C   UNL A   1      32.463  30.073  26.611  1.00  0.00     0.047 A 
ATOM     23  C   UNL A   1      33.604  28.234  25.630  1.00  0.00    -0.008 A 
ATOM     24  C   UNL A   1      33.666  30.507  27.249  1.00  0.00     0.013 A 
ATOM     25  C   UNL A   1      34.802  28.632  26.365  1.00  0.00     0.016 A 
ATOM     26  C   UNL A   1      33.584  27.140  24.584  1.00  0.00     0.048 C 
BRANCH  21  27
ATOM     27  O   UNL A   1      31.169  28.483  25.426  1.00  0.00    -0.496 OA
ATOM     28  C   UNL A   1      30.757  29.028  24.162  1.00  0.00     0.278 C 
ENDBRANCH  21  27
ENDBRANCH  10  20
BRANCH  19  29
ATOM     29  C   UNL A   1      37.751  33.713  31.717  1.00  0.00     0.430 C 
ATOM     30  F   UNL A   1      38.699  34.193  30.847  1.00  0.00    -0.167 F 
ATOM     31  F   UNL A   1      36.960  34.740  32.022  1.00  0.00    -0.167 F 
ATOM     32  F   UNL A   1      38.503  33.423  32.819  1.00  0.00    -0.167 F 
ENDBRANCH  19  29
ENDBRANCH   7   9
ENDBRANCH   6   7
ENDBRANCH   5   6
ENDBRANCH   4   5
ENDBRANCH   3   4
ENDBRANCH   2   3
ENDBRANCH   1   2
BRANCH   1  33
ATOM     33  O   UNL A   1      39.778  35.042  39.928  1.00  0.00    -0.376 OA
BRANCH  33  34
ATOM     34  C   UNL A   1      41.065  35.549  39.681  1.00  0.00     0.202 C 
BRANCH  34  35
ATOM     35  C   UNL A   1      41.161  36.275  38.341  1.00  0.00     0.261 C 
BRANCH  35  36
ATOM     36  O   UNL A   1      41.716  35.437  37.305  1.00  0.00    -0.460 OA
BRANCH  36  37
ATOM     37  C   UNL A   1      42.764  35.981  36.599  1.00  0.00     0.338 C 
ATOM     38  O   UNL A   1      43.848  36.220  37.100  1.00  0.00    -0.246 OA
BRANCH  37  39
ATOM     39  C   UNL A   1      42.477  35.928  35.142  1.00  0.00     0.060 A 
ATOM     40  C   UNL A   1      41.504  35.214  34.442  1.00  0.00     0.016 A 
ATOM     41  C   UNL A   1      43.227  36.736  34.371  1.00  0.00     0.016 A 
ATOM     42  C   UNL A   1      41.565  35.011  32.975  1.00  0.00     0.010 A 
ATOM     43  C   UNL A   1      43.133  36.554  32.992  1.00  0.00     0.010 A 
ATOM     44  C   UNL A   1      42.525  35.494  32.128  1.00  0.00    -0.014 A 
BRANCH  44  45
ATOM     45  C   UNL A   1      42.861  35.040  30.338  1.00  0.00     0.031 A 
ATOM     46  C   UNL A   1      43.519  33.446  29.640  1.00  0.00     0.074 A 
ATOM     47  C   UNL A   1      42.442  35.766  29.255  1.00  0.00     0.049 A 
ATOM     48  N   UNL A   1      43.746  33.169  28.385  1.00  0.00    -0.248 NA
ATOM     49  C   UNL A   1      44.046  32.139  30.404  1.00  0.00     0.031 C 
ATOM     50  C   UNL A   1      42.424  35.438  27.809  1.00  0.00     0.029 A 
ATOM     51  N   UNL A   1      41.935  37.058  29.208  1.00  0.00    -0.354 N 
ATOM     52  C   UNL A   1      44.256  31.879  28.248  1.00  0.00     0.074 A 
ATOM     53  C   UNL A   1      44.500  31.325  29.518  1.00  0.00     0.031 C 
ATOM     54  C   UNL A   1      42.388  36.570  27.085  1.00  0.00     0.029 A 
ATOM     55  C   UNL A   1      42.436  37.646  28.035  1.00  0.00     0.049 A 
ATOM     56  H   UNL A   1      41.340  37.479  29.869  1.00  0.00     0.167 HD
ATOM     57  C   UNL A   1      44.568  31.314  27.072  1.00  0.00     0.031 A 
ATOM     58  C   UNL A   1      43.435  38.548  28.189  1.00  0.00     0.031 A 
ATOM     59  C   UNL A   1      44.878  32.366  26.143  1.00  0.00     0.049 A 
ATOM     60  C   UNL A   1      44.790  37.976  27.625  1.00  0.00     0.074 A 
ATOM     61  C   UNL A   1      44.189  33.001  25.134  1.00  0.00     0.029 A 
ATOM     62  N   UNL A   1      45.905  33.223  26.531  1.00  0.00    -0.354 N 
ATOM     63  N   UNL A   1      45.004  36.755  27.180  1.00  0.00    -0.248 NA
ATOM     64  C   UNL A   1      46.001  38.761  27.437  1.00  0.00     0.031 C 
ATOM     65  C   UNL A   1      44.747  34.307  24.999  1.00  0.00     0.029 A 
ATOM     66  C   UNL A   1      45.811  34.427  25.875  1.00  0.00     0.049 A 
ATOM     67  H   UNL A   1      46.604  32.996  27.187  1.00  0.00     0.167 HD
ATOM     68  C   UNL A   1      46.302  36.607  26.710  1.00  0.00     0.074 A 
ATOM     69  C   UNL A   1      46.884  37.908  26.901  1.00  0.00     0.031 C 
ATOM     70  C   UNL A   1      46.803  35.456  26.155  1.00  0.00     0.031 A 
BRANCH  57  71
ATOM     71  C   UNL A   1      44.410  29.820  26.856  1.00  0.00    -0.014 A 
ATOM     72  C   UNL A   1      43.201  29.203  27.200  1.00  0.00     0.010 A 
ATOM     73  C   UNL A   1      45.469  28.935  26.511  1.00  0.00     0.010 A 
ATOM     74  C   UNL A   1      43.085  27.798  27.263  1.00  0.00     0.020 A 
ATOM     75  C   UNL A   1      45.358  27.543  26.525  1.00  0.00     0.020 A 
ATOM     76  C   UNL A   1      44.170  26.979  26.940  1.00  0.00     0.054 A 
BRANCH  76  77
ATOM     77  S   UNL A   1      44.064  25.186  27.154  1.00  0.00     0.124 S 
ATOM     78  O   UNL A   1      42.789  24.872  26.516  1.00  0.00    -0.237 OA
ATOM     79  O   UNL A   1      45.258  24.716  26.456  1.00  0.00    -0.237 OA
ATOM     80  O   UNL A   1      44.085  25.002  28.605  1.00  0.00    -0.744 OA
ENDBRANCH  76  77
ENDBRANCH  57  71
BRANCH  58  81
ATOM     81  C   UNL A   1      43.118  39.330  29.466  1.00  0.00    -0.014 A 
ATOM     82  C   UNL A   1      43.959  39.319  30.625  1.00  0.00     0.010 A 
ATOM     83  C   UNL A   1      42.262  40.408  29.414  1.00  0.00     0.010 A 
ATOM     84  C   UNL A   1      43.870  40.268  31.688  1.00  0.00     0.020 A 
ATOM     85  C   UNL A   1      42.140  41.337  30.490  1.00  0.00     0.020 A 
ATOM     86  C   UNL A   1      42.935  41.283  31.617  1.00  0.00     0.054 A 
BRANCH  86  87
ATOM     87  S   UNL A   1      42.728  42.518  32.936  1.00  0.00     0.124 S 
ATOM     88  O   UNL A   1      42.232  43.683  32.212  1.00  0.00    -0.237 OA
ATOM     89  O   UNL A   1      41.773  41.857  33.824  1.00  0.00    -0.237 OA
ATOM     90  O   UNL A   1      44.072  42.682  33.488  1.00  0.00    -0.744 OA
ENDBRANCH  86  87
ENDBRANCH  58  81
BRANCH  70  91
ATOM     91  C   UNL A   1      48.248  35.145  25.718  1.00  0.00    -0.014 A 
ATOM     92  C   UNL A   1      48.988  33.988  26.006  1.00  0.00     0.010 A 
ATOM     93  C   UNL A   1      48.918  36.096  24.895  1.00  0.00     0.010 A 
ATOM     94  C   UNL A   1      50.324  33.830  25.571  1.00  0.00     0.020 A 
ATOM     95  C   UNL A   1      50.218  35.930  24.407  1.00  0.00     0.020 A 
ATOM     96  C   UNL A   1      50.934  34.810  24.784  1.00  0.00     0.054 A 
BRANCH  96  97
ATOM     97  S   UNL A   1      52.652  34.622  24.247  1.00  0.00     0.124 S 
ATOM     98  O   UNL A   1      52.558  33.492  23.327  1.00  0.00    -0.237 OA
ATOM     99  O   UNL A   1      52.942  35.914  23.627  1.00  0.00    -0.237 OA
ATOM    100  O   UNL A   1      53.378  34.360  25.488  1.00  0.00    -0.744 OA
ENDBRANCH  96  97
ENDBRANCH  70  91
ENDBRANCH  44  45
ENDBRANCH  37  39
ENDBRANCH  36  37
ENDBRANCH  35  36
ENDBRANCH  34  35
ENDBRANCH  33  34
ENDBRANCH   1  33
TORSDOF 23
ENDMDL
MODEL 3
REMARK VINA RESULT:     -10.6      5.761     13.064
REMARK SMILES COc1ccc(-c2cc(Cl)cc3c2O[C@@H](C(F)(F)F)C(C(=O)OCCOCCOCCOC(=O)c2ccc(-c4c5nc(c(-c6ccc(S(=O)(=O)[O-])cc6)c6ccc([nH]6)c(-c6ccc(S(=O)(=O)[O-])cc6)c6nc(c(-c7ccc(S(=O)(=O)[O-])cc7)c7ccc4[nH]7)C=C6)C=C5)cc2)=C3)cc1C
REMARK SMILES IDX 28 1 27 2 26 3 25 4 24 5 23 6 21 7 22 8 20 9 7 10 8 11 13 12
REMARK SMILES IDX 9 13 12 14 14 15 10 16 11 17 95 18 15 19 6 20 3 21 4 22
REMARK SMILES IDX 97 23 5 24 96 25 98 26 2 27 1 28 16 29 17 30 18 31 19 32
REMARK SMILES IDX 29 33 30 34 31 35 32 36 33 37 34 38 35 39 36 40 94 41 37 42
REMARK SMILES IDX 93 43 38 44 39 45 40 46 87 47 41 48 92 49 86 50 88 51 42 52
REMARK SMILES IDX 91 53 85 54 84 55 43 57 73 58 54 59 72 60 55 61 58 62 71 63
REMARK SMILES IDX 89 64 56 65 57 66 70 68 90 69 59 70 44 71 45 72 53 73 46 74
REMARK SMILES IDX 52 75 47 76 48 77 49 78 50 79 51 80 74 81 75 82 83 83 76 84
REMARK SMILES IDX 82 85 77 86 78 87 79 88 80 89 81 90 60 91 61 92 69 93 62 94
REMARK SMILES IDX 68 95 63 96 64 97 65 98 66 99 67 100
REMARK H PARENT 88 56 58 67
REMARK Flexibility Score: inf
ROOT
ATOM      1  C   UNL A   1      39.143  33.133  38.981  1.00  0.00     0.188 C 
ENDROOT
BRANCH   1   2
ATOM      2  C   UNL A   1      38.210  33.215  37.799  1.00  0.00     0.188 C 
BRANCH   2   3
ATOM      3  O   UNL A   1      38.647  32.924  36.448  1.00  0.00    -0.376 OA
BRANCH   3   4
ATOM      4  C   UNL A   1      37.972  33.155  35.168  1.00  0.00     0.202 C 
BRANCH   4   5
ATOM      5  C   UNL A   1      37.701  34.555  34.005  1.00  0.00     0.261 C 
BRANCH   5   6
ATOM      6  O   UNL A   1      37.341  34.579  32.133  1.00  0.00    -0.460 OA
BRANCH   6   7
ATOM      7  C   UNL A   1      37.338  33.727  30.795  1.00  0.00     0.338 C 
ATOM      8  O   UNL A   1      36.847  34.107  29.722  1.00  0.00    -0.246 OA
BRANCH   7   9
ATOM      9  C   UNL A   1      38.091  32.435  30.519  1.00  0.00     0.087 C 
ATOM     10  C   UNL A   1      41.320  30.922  32.861  1.00  0.00     0.026 A 
ATOM     11  C   UNL A   1      41.786  29.727  32.335  1.00  0.00     0.033 A 
ATOM     12  C   UNL A   1      40.284  31.563  32.024  1.00  0.00     0.135 A 
ATOM     13  C   UNL A   1      41.527  29.413  30.995  1.00  0.00     0.042 A 
ATOM     14  C   UNL A   1      40.287  31.469  30.602  1.00  0.00     0.019 A 
ATOM     15  O   UNL A   1      38.780  31.189  32.433  1.00  0.00    -0.475 OA
ATOM     16  Cl  UNL A   1      42.012  27.858  30.427  1.00  0.00    -0.084 Cl
ATOM     17  C   UNL A   1      40.892  30.317  30.105  1.00  0.00     0.032 A 
ATOM     18  C   UNL A   1      39.284  32.336  29.859  1.00  0.00     0.027 C 
ATOM     19  C   UNL A   1      37.850  31.194  31.256  1.00  0.00     0.316 C 
BRANCH  10  20
ATOM     20  C   UNL A   1      42.233  31.519  34.003  1.00  0.00    -0.014 A 
ATOM     21  C   UNL A   1      44.227  32.213  36.036  1.00  0.00     0.121 A 
ATOM     22  C   UNL A   1      44.436  32.472  34.685  1.00  0.00     0.047 A 
ATOM     23  C   UNL A   1      42.931  31.879  36.426  1.00  0.00    -0.008 A 
ATOM     24  C   UNL A   1      43.444  32.183  33.699  1.00  0.00     0.013 A 
ATOM     25  C   UNL A   1      41.960  31.495  35.405  1.00  0.00     0.016 A 
ATOM     26  C   UNL A   1      42.620  31.930  37.907  1.00  0.00     0.048 C 
BRANCH  21  27
ATOM     27  O   UNL A   1      45.284  32.405  36.896  1.00  0.00    -0.496 OA
ATOM     28  C   UNL A   1      46.153  33.515  36.611  1.00  0.00     0.278 C 
ENDBRANCH  21  27
ENDBRANCH  10  20
BRANCH  19  29
ATOM     29  C   UNL A   1      36.357  30.829  30.999  1.00  0.00     0.430 C 
ATOM     30  F   UNL A   1      36.152  29.521  31.362  1.00  0.00    -0.167 F 
ATOM     31  F   UNL A   1      35.443  31.550  31.645  1.00  0.00    -0.167 F 
ATOM     32  F   UNL A   1      36.017  30.809  29.677  1.00  0.00    -0.167 F 
ENDBRANCH  19  29
ENDBRANCH   7   9
ENDBRANCH   6   7
ENDBRANCH   5   6
ENDBRANCH   4   5
ENDBRANCH   3   4
ENDBRANCH   2   3
ENDBRANCH   1   2
BRANCH   1  33
ATOM     33  O   UNL A   1      39.369  34.441  39.447  1.00  0.00    -0.376 OA
BRANCH  33  34
ATOM     34  C   UNL A   1      40.726  34.796  39.525  1.00  0.00     0.202 C 
BRANCH  34  35
ATOM     35  C   UNL A   1      41.137  35.778  38.430  1.00  0.00     0.261 C 
BRANCH  35  36
ATOM     36  O   UNL A   1      41.613  35.106  37.244  1.00  0.00    -0.460 OA
BRANCH  36  37
ATOM     37  C   UNL A   1      42.651  35.726  36.586  1.00  0.00     0.338 C 
ATOM     38  O   UNL A   1      43.717  35.976  37.116  1.00  0.00    -0.246 OA
BRANCH  37  39
ATOM     39  C   UNL A   1      42.385  35.743  35.124  1.00  0.00     0.060 A 
ATOM     40  C   UNL A   1      41.373  35.128  34.386  1.00  0.00     0.016 A 
ATOM     41  C   UNL A   1      43.208  36.515  34.392  1.00  0.00     0.016 A 
ATOM     42  C   UNL A   1      41.444  34.970  32.914  1.00  0.00     0.010 A 
ATOM     43  C   UNL A   1      43.124  36.386  33.006  1.00  0.00     0.010 A 
ATOM     44  C   UNL A   1      42.453  35.404  32.098  1.00  0.00    -0.014 A 
BRANCH  44  45
ATOM     45  C   UNL A   1      42.784  34.984  30.299  1.00  0.00     0.031 A 
ATOM     46  C   UNL A   1      43.427  33.399  29.567  1.00  0.00     0.074 A 
ATOM     47  C   UNL A   1      42.371  35.736  29.231  1.00  0.00     0.049 A 
ATOM     48  N   UNL A   1      43.652  33.146  28.307  1.00  0.00    -0.248 NA
ATOM     49  C   UNL A   1      43.942  32.072  30.305  1.00  0.00     0.031 C 
ATOM     50  C   UNL A   1      42.351  35.439  27.779  1.00  0.00     0.029 A 
ATOM     51  N   UNL A   1      41.876  37.033  29.211  1.00  0.00    -0.354 N 
ATOM     52  C   UNL A   1      44.150  31.854  28.144  1.00  0.00     0.074 A 
ATOM     53  C   UNL A   1      44.389  31.272  29.402  1.00  0.00     0.031 C 
ATOM     54  C   UNL A   1      42.324  36.586  27.078  1.00  0.00     0.029 A 
ATOM     55  C   UNL A   1      42.382  37.641  28.051  1.00  0.00     0.049 A 
ATOM     56  H   UNL A   1      41.285  37.446  29.881  1.00  0.00     0.167 HD
ATOM     57  C   UNL A   1      44.456  31.311  26.956  1.00  0.00     0.031 A 
ATOM     58  C   UNL A   1      43.390  38.531  28.223  1.00  0.00     0.031 A 
ATOM     59  C   UNL A   1      44.775  32.379  26.049  1.00  0.00     0.049 A 
ATOM     60  C   UNL A   1      44.739  37.958  27.647  1.00  0.00     0.074 A 
ATOM     61  C   UNL A   1      44.092  33.042  25.053  1.00  0.00     0.029 A 
ATOM     62  N   UNL A   1      45.811  33.218  26.455  1.00  0.00    -0.354 N 
ATOM     63  N   UNL A   1      44.942  36.745  27.176  1.00  0.00    -0.248 NA
ATOM     64  C   UNL A   1      45.958  38.736  27.474  1.00  0.00     0.031 C 
ATOM     65  C   UNL A   1      44.663  34.345  24.945  1.00  0.00     0.029 A 
ATOM     66  C   UNL A   1      45.728  34.437  25.824  1.00  0.00     0.049 A 
ATOM     67  H   UNL A   1      46.508  32.971  27.105  1.00  0.00     0.167 HD
ATOM     68  C   UNL A   1      46.239  36.595  26.703  1.00  0.00     0.074 A 
ATOM     69  C   UNL A   1      46.832  37.886  26.921  1.00  0.00     0.031 C 
ATOM     70  C   UNL A   1      46.728  35.451  26.124  1.00  0.00     0.031 A 
BRANCH  57  71
ATOM     71  C   UNL A   1      44.285  29.823  26.709  1.00  0.00    -0.014 A 
ATOM     72  C   UNL A   1      42.994  29.295  26.584  1.00  0.00     0.010 A 
ATOM     73  C   UNL A   1      45.331  28.863  26.790  1.00  0.00     0.010 A 
ATOM     74  C   UNL A   1      42.765  27.903  26.611  1.00  0.00     0.020 A 
ATOM     75  C   UNL A   1      45.125  27.482  26.774  1.00  0.00     0.020 A 
ATOM     76  C   UNL A   1      43.831  27.008  26.722  1.00  0.00     0.054 A 
BRANCH  76  77
ATOM     77  S   UNL A   1      43.528  25.232  26.895  1.00  0.00     0.124 S 
ATOM     78  O   UNL A   1      42.631  25.181  28.046  1.00  0.00    -0.237 OA
ATOM     79  O   UNL A   1      42.931  24.890  25.607  1.00  0.00    -0.237 OA
ATOM     80  O   UNL A   1      44.858  24.669  27.129  1.00  0.00    -0.744 OA
ENDBRANCH  76  77
ENDBRANCH  57  71
BRANCH  58  81
ATOM     81  C   UNL A   1      43.080  39.289  29.516  1.00  0.00    -0.014 A 
ATOM     82  C   UNL A   1      43.922  39.247  30.674  1.00  0.00     0.010 A 
ATOM     83  C   UNL A   1      42.233  40.374  29.487  1.00  0.00     0.010 A 
ATOM     84  C   UNL A   1      43.842  40.176  31.755  1.00  0.00     0.020 A 
ATOM     85  C   UNL A   1      42.119  41.282  30.582  1.00  0.00     0.020 A 
ATOM     86  C   UNL A   1      42.915  41.199  31.706  1.00  0.00     0.054 A 
BRANCH  86  87
ATOM     87  S   UNL A   1      42.719  42.408  33.050  1.00  0.00     0.124 S 
ATOM     88  O   UNL A   1      44.061  42.482  33.616  1.00  0.00    -0.237 OA
ATOM     89  O   UNL A   1      42.259  43.594  32.330  1.00  0.00    -0.237 OA
ATOM     90  O   UNL A   1      41.726  41.800  33.936  1.00  0.00    -0.744 OA
ENDBRANCH  86  87
ENDBRANCH  58  81
BRANCH  70  91
ATOM     91  C   UNL A   1      48.171  35.136  25.680  1.00  0.00    -0.014 A 
ATOM     92  C   UNL A   1      49.025  35.963  24.934  1.00  0.00     0.010 A 
ATOM     93  C   UNL A   1      48.743  33.897  26.091  1.00  0.00     0.010 A 
ATOM     94  C   UNL A   1      50.325  35.548  24.561  1.00  0.00     0.020 A 
ATOM     95  C   UNL A   1      50.046  33.496  25.780  1.00  0.00     0.020 A 
ATOM     96  C   UNL A   1      50.821  34.311  24.977  1.00  0.00     0.054 A 
BRANCH  96  97
ATOM     97  S   UNL A   1      52.474  33.767  24.480  1.00  0.00     0.124 S 
ATOM     98  O   UNL A   1      52.922  34.884  23.653  1.00  0.00    -0.237 OA
ATOM     99  O   UNL A   1      53.165  33.615  25.758  1.00  0.00    -0.237 OA
ATOM    100  O   UNL A   1      52.228  32.517  23.762  1.00  0.00    -0.744 OA
ENDBRANCH  96  97
ENDBRANCH  70  91
ENDBRANCH  44  45
ENDBRANCH  37  39
ENDBRANCH  36  37
ENDBRANCH  35  36
ENDBRANCH  34  35
ENDBRANCH  33  34
ENDBRANCH   1  33
TORSDOF 23
ENDMDL
