MODEL 1
REMARK VINA RESULT:      -9.1      0.000      0.000
REMARK SMILES C[NH2+]C[C@H]1CCCC[N@@H+]1[C@H](C)[C@@H](C)C(=O)OCCOCCOCCOC(=O)c1ccc(-c2c3nc(c(-c4ccc(S(=O)(=O)[O-])cc4)c4ccc([nH]4)c(-c4ccc(S(=O)(=O)[O-])cc4)c4nc(c(-c5ccc(S(=O)(=O)[O-])cc5)c5ccc2[nH]5)C=C4)C=C3)cc1
REMARK SMILES IDX 20 1 19 2 18 3 17 4 16 5 14 6 15 7 12 8 13 9 10 10 11 11
REMARK SMILES IDX 9 12 4 13 5 14 6 15 8 16 7 18 3 19 2 20 1 21 21 24 22 25
REMARK SMILES IDX 23 26 24 27 25 28 26 29 27 30 28 31 29 32 87 33 30 34 86 35
REMARK SMILES IDX 31 36 32 37 33 38 80 39 34 40 85 41 79 42 81 43 35 44 84 45
REMARK SMILES IDX 78 46 77 47 36 49 66 50 47 51 65 52 48 53 51 54 64 55 82 56
REMARK SMILES IDX 49 57 50 58 63 60 83 61 52 62 37 63 38 64 46 65 39 66 45 67
REMARK SMILES IDX 40 68 41 69 42 70 43 71 44 72 67 73 68 74 76 75 69 76 75 77
REMARK SMILES IDX 70 78 71 79 72 80 73 81 74 82 53 83 54 84 62 85 55 86 61 87
REMARK SMILES IDX 56 88 57 89 58 90 59 91 60 92
REMARK H PARENT 9 17 2 22 2 23 81 48 51 59
REMARK Flexibility Score: inf
ROOT
ATOM      1  C   UNL A   1      34.614  21.403  25.180  1.00  0.00     0.188 C 
ENDROOT
BRANCH   1   2
ATOM      2  O   UNL A   1      34.763  21.502  26.581  1.00  0.00    -0.376 OA
BRANCH   2   3
ATOM      3  C   UNL A   1      34.162  22.612  27.217  1.00  0.00     0.202 C 
BRANCH   3   4
ATOM      4  C   UNL A   1      32.722  22.436  27.721  1.00  0.00     0.261 C 
BRANCH   4   5
ATOM      5  O   UNL A   1      31.833  23.583  27.617  1.00  0.00    -0.463 OA
BRANCH   5   6
ATOM      6  C   UNL A   1      30.990  23.584  26.542  1.00  0.00     0.314 C 
ATOM      7  O   UNL A   1      30.253  22.642  26.267  1.00  0.00    -0.252 OA
BRANCH   6   8
ATOM      8  C   UNL A   1      31.190  24.750  25.567  1.00  0.00     0.154 C 
ATOM      9  C   UNL A   1      30.739  24.146  24.220  1.00  0.00     0.026 C 
BRANCH   8  10
ATOM     10  C   UNL A   1      32.562  25.564  25.529  1.00  0.00     0.195 C 
ATOM     11  C   UNL A   1      33.358  25.109  24.281  1.00  0.00     0.076 C 
BRANCH  10  12
ATOM     12  N   UNL A   1      32.381  27.055  25.509  1.00  0.00    -0.325 N 
ATOM     13  C   UNL A   1      33.511  27.990  25.231  1.00  0.00     0.239 C 
ATOM     14  C   UNL A   1      33.953  28.948  26.368  1.00  0.00     0.071 C 
ATOM     15  C   UNL A   1      32.803  29.497  27.182  1.00  0.00     0.012 C 
ATOM     16  C   UNL A   1      31.380  27.598  26.411  1.00  0.00     0.262 C 
ATOM     17  H   UNL A   1      31.987  27.037  24.568  1.00  0.00     0.348 HD
ATOM     18  C   UNL A   1      32.002  28.303  27.611  1.00  0.00     0.062 C 
BRANCH  13  19
ATOM     19  C   UNL A   1      33.280  28.753  23.884  1.00  0.00     0.326 C 
BRANCH  19  20
ATOM     20  N   UNL A   1      31.968  29.335  23.608  1.00  0.00    -0.344 N 
ATOM     21  C   UNL A   1      31.146  28.572  22.683  1.00  0.00     0.331 C 
ATOM     22  H   UNL A   1      31.462  29.414  24.490  1.00  0.00     0.346 HD
ATOM     23  H   UNL A   1      32.139  30.237  23.163  1.00  0.00     0.346 HD
ENDBRANCH  19  20
ENDBRANCH  13  19
ENDBRANCH  10  12
ENDBRANCH   8  10
ENDBRANCH   6   8
ENDBRANCH   5   6
ENDBRANCH   4   5
ENDBRANCH   3   4
ENDBRANCH   2   3
ENDBRANCH   1   2
BRANCH   1  24
ATOM     24  C   UNL A   1      35.798  21.805  24.283  1.00  0.00     0.188 C 
BRANCH  24  25
ATOM     25  O   UNL A   1      36.295  23.128  24.370  1.00  0.00    -0.376 OA
BRANCH  25  26
ATOM     26  C   UNL A   1      37.369  23.322  25.284  1.00  0.00     0.202 C 
BRANCH  26  27
ATOM     27  C   UNL A   1      38.261  22.098  25.553  1.00  0.00     0.261 C 
BRANCH  27  28
ATOM     28  O   UNL A   1      39.119  22.250  26.711  1.00  0.00    -0.460 OA
BRANCH  28  29
ATOM     29  C   UNL A   1      40.245  22.958  26.465  1.00  0.00     0.338 C 
ATOM     30  O   UNL A   1      41.183  22.541  25.771  1.00  0.00    -0.246 OA
BRANCH  29  31
ATOM     31  C   UNL A   1      40.266  24.340  27.027  1.00  0.00     0.060 A 
ATOM     32  C   UNL A   1      41.253  25.280  26.730  1.00  0.00     0.016 A 
ATOM     33  C   UNL A   1      39.380  24.630  28.068  1.00  0.00     0.016 A 
ATOM     34  C   UNL A   1      41.473  26.375  27.586  1.00  0.00     0.010 A 
ATOM     35  C   UNL A   1      39.513  25.805  28.824  1.00  0.00     0.010 A 
ATOM     36  C   UNL A   1      40.599  26.677  28.640  1.00  0.00    -0.014 A 
BRANCH  36  37
ATOM     37  C   UNL A   1      40.788  27.856  29.560  1.00  0.00     0.031 A 
ATOM     38  C   UNL A   1      41.908  27.849  30.587  1.00  0.00     0.074 A 
ATOM     39  C   UNL A   1      39.967  28.931  29.532  1.00  0.00     0.049 A 
ATOM     40  N   UNL A   1      42.018  28.526  31.704  1.00  0.00    -0.248 NA
ATOM     41  C   UNL A   1      43.046  26.951  30.326  1.00  0.00     0.031 C 
ATOM     42  C   UNL A   1      38.902  29.180  28.557  1.00  0.00     0.029 A 
ATOM     43  N   UNL A   1      39.892  30.023  30.370  1.00  0.00    -0.354 N 
ATOM     44  C   UNL A   1      43.192  28.084  32.312  1.00  0.00     0.074 A 
ATOM     45  C   UNL A   1      43.764  27.086  31.435  1.00  0.00     0.031 C 
ATOM     46  C   UNL A   1      38.314  30.354  28.826  1.00  0.00     0.029 A 
ATOM     47  C   UNL A   1      38.844  30.871  30.078  1.00  0.00     0.049 A 
ATOM     48  H   UNL A   1      40.526  30.183  31.107  1.00  0.00     0.167 HD
ATOM     49  C   UNL A   1      43.731  28.465  33.498  1.00  0.00     0.031 A 
ATOM     50  C   UNL A   1      38.292  31.887  30.771  1.00  0.00     0.031 A 
ATOM     51  C   UNL A   1      43.179  29.496  34.341  1.00  0.00     0.049 A 
ATOM     52  C   UNL A   1      38.834  32.225  32.133  1.00  0.00     0.074 A 
ATOM     53  C   UNL A   1      43.620  29.928  35.582  1.00  0.00     0.029 A 
ATOM     54  N   UNL A   1      42.086  30.284  34.016  1.00  0.00    -0.354 N 
ATOM     55  N   UNL A   1      39.854  31.698  32.767  1.00  0.00    -0.248 NA
ATOM     56  C   UNL A   1      38.132  33.274  32.885  1.00  0.00     0.031 C 
ATOM     57  C   UNL A   1      42.769  30.947  36.023  1.00  0.00     0.029 A 
ATOM     58  C   UNL A   1      41.836  31.192  35.030  1.00  0.00     0.049 A 
ATOM     59  H   UNL A   1      41.563  30.207  33.185  1.00  0.00     0.167 HD
ATOM     60  C   UNL A   1      39.926  32.370  33.983  1.00  0.00     0.074 A 
ATOM     61  C   UNL A   1      38.865  33.354  33.985  1.00  0.00     0.031 C 
ATOM     62  C   UNL A   1      40.790  32.181  35.010  1.00  0.00     0.031 A 
BRANCH  49  63
ATOM     63  C   UNL A   1      44.964  27.744  33.993  1.00  0.00    -0.014 A 
ATOM     64  C   UNL A   1      44.895  26.772  35.006  1.00  0.00     0.010 A 
ATOM     65  C   UNL A   1      46.203  27.983  33.364  1.00  0.00     0.010 A 
ATOM     66  C   UNL A   1      46.044  26.073  35.398  1.00  0.00     0.020 A 
ATOM     67  C   UNL A   1      47.347  27.267  33.733  1.00  0.00     0.020 A 
ATOM     68  C   UNL A   1      47.262  26.324  34.758  1.00  0.00     0.054 A 
BRANCH  68  69
ATOM     69  S   UNL A   1      48.724  25.371  35.258  1.00  0.00     0.124 S 
ATOM     70  O   UNL A   1      49.726  26.422  35.426  1.00  0.00    -0.237 OA
ATOM     71  O   UNL A   1      48.279  24.727  36.492  1.00  0.00    -0.237 OA
ATOM     72  O   UNL A   1      48.954  24.467  34.135  1.00  0.00    -0.744 OA
ENDBRANCH  68  69
ENDBRANCH  49  63
BRANCH  50  73
ATOM     73  C   UNL A   1      37.075  32.582  30.252  1.00  0.00    -0.014 A 
ATOM     74  C   UNL A   1      37.171  33.823  29.599  1.00  0.00     0.010 A 
ATOM     75  C   UNL A   1      35.799  32.014  30.443  1.00  0.00     0.010 A 
ATOM     76  C   UNL A   1      36.018  34.496  29.179  1.00  0.00     0.020 A 
ATOM     77  C   UNL A   1      34.649  32.660  29.985  1.00  0.00     0.020 A 
ATOM     78  C   UNL A   1      34.764  33.911  29.376  1.00  0.00     0.054 A 
BRANCH  78  79
ATOM     79  S   UNL A   1      33.281  34.790  28.815  1.00  0.00     0.124 S 
ATOM     80  O   UNL A   1      32.531  34.940  30.057  1.00  0.00    -0.237 OA
ATOM     81  O   UNL A   1      33.833  36.021  28.256  1.00  0.00    -0.237 OA
ATOM     82  O   UNL A   1      32.694  33.879  27.834  1.00  0.00    -0.744 OA
ENDBRANCH  78  79
ENDBRANCH  50  73
BRANCH  62  83
ATOM     83  C   UNL A   1      40.664  33.102  36.194  1.00  0.00    -0.014 A 
ATOM     84  C   UNL A   1      39.800  32.809  37.263  1.00  0.00     0.010 A 
ATOM     85  C   UNL A   1      41.452  34.266  36.248  1.00  0.00     0.010 A 
ATOM     86  C   UNL A   1      39.702  33.682  38.350  1.00  0.00     0.020 A 
ATOM     87  C   UNL A   1      41.380  35.126  37.346  1.00  0.00     0.020 A 
ATOM     88  C   UNL A   1      40.493  34.835  38.385  1.00  0.00     0.054 A 
BRANCH  88  89
ATOM     89  S   UNL A   1      40.378  35.929  39.826  1.00  0.00     0.124 S 
ATOM     90  O   UNL A   1      38.986  36.367  39.767  1.00  0.00    -0.237 OA
ATOM     91  O   UNL A   1      40.709  35.036  40.933  1.00  0.00    -0.237 OA
ATOM     92  O   UNL A   1      41.370  36.967  39.553  1.00  0.00    -0.744 OA
ENDBRANCH  88  89
ENDBRANCH  62  83
ENDBRANCH  36  37
ENDBRANCH  29  31
ENDBRANCH  28  29
ENDBRANCH  27  28
ENDBRANCH  26  27
ENDBRANCH  25  26
ENDBRANCH  24  25
ENDBRANCH   1  24
TORSDOF 24
ENDMDL
MODEL 2
REMARK VINA RESULT:      -8.4      1.373      2.244
REMARK SMILES C[NH2+]C[C@H]1CCCC[N@@H+]1[C@H](C)[C@@H](C)C(=O)OCCOCCOCCOC(=O)c1ccc(-c2c3nc(c(-c4ccc(S(=O)(=O)[O-])cc4)c4ccc([nH]4)c(-c4ccc(S(=O)(=O)[O-])cc4)c4nc(c(-c5ccc(S(=O)(=O)[O-])cc5)c5ccc2[nH]5)C=C4)C=C3)cc1
REMARK SMILES IDX 20 1 19 2 18 3 17 4 16 5 14 6 15 7 12 8 13 9 10 10 11 11
REMARK SMILES IDX 9 12 4 13 5 14 6 15 8 16 7 18 3 19 2 20 1 21 21 24 22 25
REMARK SMILES IDX 23 26 24 27 25 28 26 29 27 30 28 31 29 32 87 33 30 34 86 35
REMARK SMILES IDX 31 36 32 37 33 38 80 39 34 40 85 41 79 42 81 43 35 44 84 45
REMARK SMILES IDX 78 46 77 47 36 49 66 50 47 51 65 52 48 53 51 54 64 55 82 56
REMARK SMILES IDX 49 57 50 58 63 60 83 61 52 62 37 63 38 64 46 65 39 66 45 67
REMARK SMILES IDX 40 68 41 69 42 70 43 71 44 72 67 73 68 74 76 75 69 76 75 77
REMARK SMILES IDX 70 78 71 79 72 80 73 81 74 82 53 83 54 84 62 85 55 86 61 87
REMARK SMILES IDX 56 88 57 89 58 90 59 91 60 92
REMARK H PARENT 9 17 2 22 2 23 81 48 51 59
REMARK Flexibility Score: inf
ROOT
ATOM      1  C   UNL A   1      33.973  22.411  25.682  1.00  0.00     0.188 C 
ENDROOT
BRANCH   1   2
ATOM      2  O   UNL A   1      33.397  23.415  26.493  1.00  0.00    -0.376 OA
BRANCH   2   3
ATOM      3  C   UNL A   1      32.349  23.023  27.357  1.00  0.00     0.202 C 
BRANCH   3   4
ATOM      4  C   UNL A   1      30.997  22.687  26.712  1.00  0.00     0.261 C 
BRANCH   4   5
ATOM      5  O   UNL A   1      30.662  23.366  25.470  1.00  0.00    -0.463 OA
BRANCH   5   6
ATOM      6  C   UNL A   1      30.540  24.725  25.551  1.00  0.00     0.314 C 
ATOM      7  O   UNL A   1      29.803  25.285  26.356  1.00  0.00    -0.252 OA
BRANCH   6   8
ATOM      8  C   UNL A   1      31.214  25.502  24.414  1.00  0.00     0.154 C 
ATOM      9  C   UNL A   1      31.374  24.426  23.319  1.00  0.00     0.026 C 
BRANCH   8  10
ATOM     10  C   UNL A   1      32.503  26.402  24.686  1.00  0.00     0.195 C 
ATOM     11  C   UNL A   1      33.704  25.760  23.948  1.00  0.00     0.076 C 
BRANCH  10  12
ATOM     12  N   UNL A   1      32.343  27.833  24.259  1.00  0.00    -0.325 N 
ATOM     13  C   UNL A   1      31.354  28.749  24.899  1.00  0.00     0.239 C 
ATOM     14  C   UNL A   1      30.191  29.282  24.023  1.00  0.00     0.071 C 
ATOM     15  C   UNL A   1      30.598  29.611  22.605  1.00  0.00     0.012 C 
ATOM     16  C   UNL A   1      32.584  28.120  22.856  1.00  0.00     0.262 C 
ATOM     17  H   UNL A   1      33.163  28.128  24.790  1.00  0.00     0.348 HD
ATOM     18  C   UNL A   1      31.294  28.385  22.088  1.00  0.00     0.062 C 
BRANCH  13  19
ATOM     19  C   UNL A   1      32.081  29.903  25.666  1.00  0.00     0.326 C 
BRANCH  19  20
ATOM     20  N   UNL A   1      33.542  29.910  25.728  1.00  0.00    -0.344 N 
ATOM     21  C   UNL A   1      34.093  30.038  27.067  1.00  0.00     0.331 C 
ATOM     22  H   UNL A   1      33.882  29.035  25.328  1.00  0.00     0.346 HD
ATOM     23  H   UNL A   1      33.849  30.733  25.211  1.00  0.00     0.346 HD
ENDBRANCH  19  20
ENDBRANCH  13  19
ENDBRANCH  10  12
ENDBRANCH   8  10
ENDBRANCH   6   8
ENDBRANCH   5   6
ENDBRANCH   4   5
ENDBRANCH   3   4
ENDBRANCH   2   3
ENDBRANCH   1   2
BRANCH   1  24
ATOM     24  C   UNL A   1      35.409  21.951  25.991  1.00  0.00     0.188 C 
BRANCH  24  25
ATOM     25  O   UNL A   1      36.457  22.386  25.144  1.00  0.00    -0.376 OA
BRANCH  25  26
ATOM     26  C   UNL A   1      37.773  22.227  25.664  1.00  0.00     0.202 C 
BRANCH  26  27
ATOM     27  C   UNL A   1      38.486  23.514  26.110  1.00  0.00     0.261 C 
BRANCH  27  28
ATOM     28  O   UNL A   1      39.643  23.273  26.952  1.00  0.00    -0.460 OA
BRANCH  28  29
ATOM     29  C   UNL A   1      40.582  24.243  26.877  1.00  0.00     0.338 C 
ATOM     30  O   UNL A   1      41.324  24.408  25.899  1.00  0.00    -0.246 OA
BRANCH  29  31
ATOM     31  C   UNL A   1      40.626  25.180  28.038  1.00  0.00     0.060 A 
ATOM     32  C   UNL A   1      39.491  25.608  28.728  1.00  0.00     0.016 A 
ATOM     33  C   UNL A   1      41.835  25.829  28.303  1.00  0.00     0.016 A 
ATOM     34  C   UNL A   1      39.530  26.784  29.499  1.00  0.00     0.010 A 
ATOM     35  C   UNL A   1      41.894  26.910  29.195  1.00  0.00     0.010 A 
ATOM     36  C   UNL A   1      40.733  27.452  29.770  1.00  0.00    -0.014 A 
BRANCH  36  37
ATOM     37  C   UNL A   1      40.815  28.698  30.613  1.00  0.00     0.031 A 
ATOM     38  C   UNL A   1      41.863  28.811  31.707  1.00  0.00     0.074 A 
ATOM     39  C   UNL A   1      39.957  29.732  30.455  1.00  0.00     0.049 A 
ATOM     40  N   UNL A   1      41.873  29.567  32.778  1.00  0.00    -0.248 NA
ATOM     41  C   UNL A   1      43.050  27.947  31.585  1.00  0.00     0.031 C 
ATOM     42  C   UNL A   1      38.951  29.868  29.399  1.00  0.00     0.029 A 
ATOM     43  N   UNL A   1      39.784  30.876  31.207  1.00  0.00    -0.354 N 
ATOM     44  C   UNL A   1      43.019  29.219  33.490  1.00  0.00     0.074 A 
ATOM     45  C   UNL A   1      43.687  28.188  32.724  1.00  0.00     0.031 C 
ATOM     46  C   UNL A   1      38.301  31.031  29.545  1.00  0.00     0.029 A 
ATOM     47  C   UNL A   1      38.726  31.655  30.789  1.00  0.00     0.049 A 
ATOM     48  H   UNL A   1      40.361  31.113  31.970  1.00  0.00     0.167 HD
ATOM     49  C   UNL A   1      43.463  29.704  34.677  1.00  0.00     0.031 A 
ATOM     50  C   UNL A   1      38.090  32.693  31.370  1.00  0.00     0.031 A 
ATOM     51  C   UNL A   1      42.817  30.766  35.407  1.00  0.00     0.049 A 
ATOM     52  C   UNL A   1      38.527  33.146  32.736  1.00  0.00     0.074 A 
ATOM     53  C   UNL A   1      43.157  31.301  36.640  1.00  0.00     0.029 A 
ATOM     54  N   UNL A   1      41.718  31.481  34.957  1.00  0.00    -0.354 N 
ATOM     55  N   UNL A   1      39.522  32.709  33.471  1.00  0.00    -0.248 NA
ATOM     56  C   UNL A   1      37.736  34.213  33.365  1.00  0.00     0.031 C 
ATOM     57  C   UNL A   1      42.240  32.311  36.951  1.00  0.00     0.029 A 
ATOM     58  C   UNL A   1      41.367  32.446  35.885  1.00  0.00     0.049 A 
ATOM     59  H   UNL A   1      41.255  31.325  34.102  1.00  0.00     0.167 HD
ATOM     60  C   UNL A   1      39.487  33.465  34.637  1.00  0.00     0.074 A 
ATOM     61  C   UNL A   1      38.391  34.401  34.501  1.00  0.00     0.031 C 
ATOM     62  C   UNL A   1      40.287  33.385  35.729  1.00  0.00     0.031 A 
BRANCH  49  63
ATOM     63  C   UNL A   1      44.687  29.072  35.300  1.00  0.00    -0.014 A 
ATOM     64  C   UNL A   1      44.593  27.950  36.141  1.00  0.00     0.010 A 
ATOM     65  C   UNL A   1      45.965  29.562  34.962  1.00  0.00     0.010 A 
ATOM     66  C   UNL A   1      45.750  27.346  36.650  1.00  0.00     0.020 A 
ATOM     67  C   UNL A   1      47.124  28.945  35.446  1.00  0.00     0.020 A 
ATOM     68  C   UNL A   1      47.007  27.846  36.298  1.00  0.00     0.054 A 
BRANCH  68  69
ATOM     69  S   UNL A   1      48.488  27.015  36.940  1.00  0.00     0.124 S 
ATOM     70  O   UNL A   1      47.907  25.938  37.738  1.00  0.00    -0.237 OA
ATOM     71  O   UNL A   1      49.172  26.592  35.720  1.00  0.00    -0.237 OA
ATOM     72  O   UNL A   1      49.170  28.056  37.704  1.00  0.00    -0.744 OA
ENDBRANCH  68  69
ENDBRANCH  49  63
BRANCH  50  73
ATOM     73  C   UNL A   1      36.885  33.297  30.726  1.00  0.00    -0.014 A 
ATOM     74  C   UNL A   1      36.978  33.954  29.487  1.00  0.00     0.010 A 
ATOM     75  C   UNL A   1      35.635  33.247  31.375  1.00  0.00     0.010 A 
ATOM     76  C   UNL A   1      35.856  34.576  28.927  1.00  0.00     0.020 A 
ATOM     77  C   UNL A   1      34.502  33.827  30.799  1.00  0.00     0.020 A 
ATOM     78  C   UNL A   1      34.625  34.509  29.588  1.00  0.00     0.054 A 
BRANCH  78  79
ATOM     79  S   UNL A   1      33.179  35.309  28.843  1.00  0.00     0.124 S 
ATOM     80  O   UNL A   1      33.796  36.357  28.036  1.00  0.00    -0.237 OA
ATOM     81  O   UNL A   1      32.559  34.217  28.097  1.00  0.00    -0.237 OA
ATOM     82  O   UNL A   1      32.414  35.777  29.998  1.00  0.00    -0.744 OA
ENDBRANCH  78  79
ENDBRANCH  50  73
BRANCH  62  83
ATOM     83  C   UNL A   1      40.047  34.379  36.833  1.00  0.00    -0.014 A 
ATOM     84  C   UNL A   1      40.691  35.629  36.847  1.00  0.00     0.010 A 
ATOM     85  C   UNL A   1      39.135  34.065  37.857  1.00  0.00     0.010 A 
ATOM     86  C   UNL A   1      40.450  36.533  37.885  1.00  0.00     0.020 A 
ATOM     87  C   UNL A   1      38.869  34.978  38.880  1.00  0.00     0.020 A 
ATOM     88  C   UNL A   1      39.541  36.203  38.895  1.00  0.00     0.054 A 
BRANCH  88  89
ATOM     89  S   UNL A   1      39.216  37.411  40.207  1.00  0.00     0.124 S 
ATOM     90  O   UNL A   1      38.675  36.569  41.270  1.00  0.00    -0.237 OA
ATOM     91  O   UNL A   1      40.540  37.972  40.461  1.00  0.00    -0.237 OA
ATOM     92  O   UNL A   1      38.261  38.335  39.598  1.00  0.00    -0.744 OA
ENDBRANCH  88  89
ENDBRANCH  62  83
ENDBRANCH  36  37
ENDBRANCH  29  31
ENDBRANCH  28  29
ENDBRANCH  27  28
ENDBRANCH  26  27
ENDBRANCH  25  26
ENDBRANCH  24  25
ENDBRANCH   1  24
TORSDOF 24
ENDMDL
MODEL 3
REMARK VINA RESULT:      -8.3      5.140     10.666
REMARK SMILES C[NH2+]C[C@H]1CCCC[N@@H+]1[C@H](C)[C@@H](C)C(=O)OCCOCCOCCOC(=O)c1ccc(-c2c3nc(c(-c4ccc(S(=O)(=O)[O-])cc4)c4ccc([nH]4)c(-c4ccc(S(=O)(=O)[O-])cc4)c4nc(c(-c5ccc(S(=O)(=O)[O-])cc5)c5ccc2[nH]5)C=C4)C=C3)cc1
REMARK SMILES IDX 20 1 19 2 18 3 17 4 16 5 14 6 15 7 12 8 13 9 10 10 11 11
REMARK SMILES IDX 9 12 4 13 5 14 6 15 8 16 7 18 3 19 2 20 1 21 21 24 22 25
REMARK SMILES IDX 23 26 24 27 25 28 26 29 27 30 28 31 29 32 87 33 30 34 86 35
REMARK SMILES IDX 31 36 32 37 33 38 80 39 34 40 85 41 79 42 81 43 35 44 84 45
REMARK SMILES IDX 78 46 77 47 36 49 66 50 47 51 65 52 48 53 51 54 64 55 82 56
REMARK SMILES IDX 49 57 50 58 63 60 83 61 52 62 37 63 38 64 46 65 39 66 45 67
REMARK SMILES IDX 40 68 41 69 42 70 43 71 44 72 67 73 68 74 76 75 69 76 75 77
REMARK SMILES IDX 70 78 71 79 72 80 73 81 74 82 53 83 54 84 62 85 55 86 61 87
REMARK SMILES IDX 56 88 57 89 58 90 59 91 60 92
REMARK H PARENT 9 17 2 22 2 23 81 48 51 59
REMARK Flexibility Score: inf
ROOT
ATOM      1  C   UNL A   1      32.919  31.477  27.004  1.00  0.00     0.188 C 
ENDROOT
BRANCH   1   2
ATOM      2  O   UNL A   1      32.515  30.188  26.591  1.00  0.00    -0.376 OA
BRANCH   2   3
ATOM      3  C   UNL A   1      32.973  29.092  27.356  1.00  0.00     0.202 C 
BRANCH   3   4
ATOM      4  C   UNL A   1      32.061  27.860  27.432  1.00  0.00     0.261 C 
BRANCH   4   5
ATOM      5  O   UNL A   1      32.348  26.760  26.524  1.00  0.00    -0.463 OA
BRANCH   5   6
ATOM      6  C   UNL A   1      31.381  26.488  25.597  1.00  0.00     0.314 C 
ATOM      7  O   UNL A   1      30.783  27.361  24.976  1.00  0.00    -0.252 OA
BRANCH   6   8
ATOM      8  C   UNL A   1      30.930  25.024  25.547  1.00  0.00     0.154 C 
ATOM      9  C   UNL A   1      29.403  25.134  25.742  1.00  0.00     0.026 C 
BRANCH   8  10
ATOM     10  C   UNL A   1      31.655  23.909  26.428  1.00  0.00     0.195 C 
ATOM     11  C   UNL A   1      30.594  22.862  26.850  1.00  0.00     0.076 C 
BRANCH  10  12
ATOM     12  N   UNL A   1      32.796  23.230  25.727  1.00  0.00    -0.325 N 
ATOM     13  C   UNL A   1      34.195  23.280  26.248  1.00  0.00     0.239 C 
ATOM     14  C   UNL A   1      35.260  24.010  25.389  1.00  0.00     0.071 C 
ATOM     15  C   UNL A   1      35.099  23.788  23.902  1.00  0.00     0.012 C 
ATOM     16  C   UNL A   1      32.714  23.157  24.278  1.00  0.00     0.262 C 
ATOM     17  H   UNL A   1      32.544  22.317  26.107  1.00  0.00     0.348 HD
ATOM     18  C   UNL A   1      33.670  24.127  23.593  1.00  0.00     0.062 C 
BRANCH  13  19
ATOM     19  C   UNL A   1      34.674  21.856  26.685  1.00  0.00     0.326 C 
BRANCH  19  20
ATOM     20  N   UNL A   1      34.392  20.710  25.823  1.00  0.00    -0.344 N 
ATOM     21  C   UNL A   1      35.514  20.270  25.010  1.00  0.00     0.331 C 
ATOM     22  H   UNL A   1      34.103  19.931  26.414  1.00  0.00     0.346 HD
ATOM     23  H   UNL A   1      33.666  21.010  25.172  1.00  0.00     0.346 HD
ENDBRANCH  19  20
ENDBRANCH  13  19
ENDBRANCH  10  12
ENDBRANCH   8  10
ENDBRANCH   6   8
ENDBRANCH   5   6
ENDBRANCH   4   5
ENDBRANCH   3   4
ENDBRANCH   2   3
ENDBRANCH   1   2
BRANCH   1  24
ATOM     24  C   UNL A   1      31.882  32.614  26.990  1.00  0.00     0.188 C 
BRANCH  24  25
ATOM     25  O   UNL A   1      32.160  33.796  27.718  1.00  0.00    -0.376 OA
BRANCH  25  26
ATOM     26  C   UNL A   1      33.524  33.986  28.081  1.00  0.00     0.202 C 
BRANCH  26  27
ATOM     27  C   UNL A   1      33.779  34.536  29.495  1.00  0.00     0.261 C 
BRANCH  27  28
ATOM     28  O   UNL A   1      35.063  34.145  30.045  1.00  0.00    -0.460 OA
BRANCH  28  29
ATOM     29  C   UNL A   1      35.032  32.971  30.717  1.00  0.00     0.338 C 
ATOM     30  O   UNL A   1      34.077  32.602  31.414  1.00  0.00    -0.246 OA
BRANCH  29  31
ATOM     31  C   UNL A   1      36.214  32.084  30.507  1.00  0.00     0.060 A 
ATOM     32  C   UNL A   1      36.833  31.368  31.532  1.00  0.00     0.016 A 
ATOM     33  C   UNL A   1      36.861  32.149  29.271  1.00  0.00     0.016 A 
ATOM     34  C   UNL A   1      38.156  30.912  31.381  1.00  0.00     0.010 A 
ATOM     35  C   UNL A   1      38.119  31.557  29.082  1.00  0.00     0.010 A 
ATOM     36  C   UNL A   1      38.824  30.975  30.149  1.00  0.00    -0.014 A 
BRANCH  36  37
ATOM     37  C   UNL A   1      40.230  30.473  29.944  1.00  0.00     0.031 A 
ATOM     38  C   UNL A   1      41.405  31.428  30.057  1.00  0.00     0.074 A 
ATOM     39  C   UNL A   1      40.495  29.185  29.626  1.00  0.00     0.049 A 
ATOM     40  N   UNL A   1      42.610  31.332  29.550  1.00  0.00    -0.248 NA
ATOM     41  C   UNL A   1      41.190  32.662  30.834  1.00  0.00     0.031 C 
ATOM     42  C   UNL A   1      39.524  28.090  29.573  1.00  0.00     0.029 A 
ATOM     43  N   UNL A   1      41.680  28.576  29.267  1.00  0.00    -0.354 N 
ATOM     44  C   UNL A   1      43.267  32.516  29.879  1.00  0.00     0.074 A 
ATOM     45  C   UNL A   1      42.329  33.314  30.640  1.00  0.00     0.031 C 
ATOM     46  C   UNL A   1      40.149  26.950  29.246  1.00  0.00     0.029 A 
ATOM     47  C   UNL A   1      41.532  27.252  28.910  1.00  0.00     0.049 A 
ATOM     48  H   UNL A   1      42.547  29.042  29.265  1.00  0.00     0.167 HD
ATOM     49  C   UNL A   1      44.529  32.905  29.563  1.00  0.00     0.031 A 
ATOM     50  C   UNL A   1      42.365  26.391  28.291  1.00  0.00     0.031 A 
ATOM     51  C   UNL A   1      45.472  32.082  28.848  1.00  0.00     0.049 A 
ATOM     52  C   UNL A   1      43.720  26.873  27.850  1.00  0.00     0.074 A 
ATOM     53  C   UNL A   1      46.758  32.396  28.437  1.00  0.00     0.029 A 
ATOM     54  N   UNL A   1      45.246  30.769  28.467  1.00  0.00    -0.354 N 
ATOM     55  N   UNL A   1      44.277  28.046  28.033  1.00  0.00    -0.248 NA
ATOM     56  C   UNL A   1      44.547  25.924  27.092  1.00  0.00     0.031 C 
ATOM     57  C   UNL A   1      47.292  31.287  27.774  1.00  0.00     0.029 A 
ATOM     58  C   UNL A   1      46.363  30.262  27.825  1.00  0.00     0.049 A 
ATOM     59  H   UNL A   1      44.413  30.269  28.630  1.00  0.00     0.167 HD
ATOM     60  C   UNL A   1      45.529  27.964  27.432  1.00  0.00     0.074 A 
ATOM     61  C   UNL A   1      45.656  26.624  26.902  1.00  0.00     0.031 C 
ATOM     62  C   UNL A   1      46.484  28.919  27.321  1.00  0.00     0.031 A 
BRANCH  49  63
ATOM     63  C   UNL A   1      44.968  34.300  29.946  1.00  0.00    -0.014 A 
ATOM     64  C   UNL A   1      45.681  34.551  31.131  1.00  0.00     0.010 A 
ATOM     65  C   UNL A   1      44.739  35.366  29.053  1.00  0.00     0.010 A 
ATOM     66  C   UNL A   1      46.133  35.844  31.427  1.00  0.00     0.020 A 
ATOM     67  C   UNL A   1      45.213  36.653  29.332  1.00  0.00     0.020 A 
ATOM     68  C   UNL A   1      45.897  36.886  30.525  1.00  0.00     0.054 A 
BRANCH  68  69
ATOM     69  S   UNL A   1      46.533  38.541  30.917  1.00  0.00     0.124 S 
ATOM     70  O   UNL A   1      47.977  38.340  30.815  1.00  0.00    -0.237 OA
ATOM     71  O   UNL A   1      45.940  39.368  29.868  1.00  0.00    -0.237 OA
ATOM     72  O   UNL A   1      46.034  38.796  32.265  1.00  0.00    -0.744 OA
ENDBRANCH  68  69
ENDBRANCH  49  63
BRANCH  50  73
ATOM     73  C   UNL A   1      41.900  25.018  27.930  1.00  0.00    -0.014 A 
ATOM     74  C   UNL A   1      42.245  23.905  28.716  1.00  0.00     0.010 A 
ATOM     75  C   UNL A   1      41.133  24.813  26.765  1.00  0.00     0.010 A 
ATOM     76  C   UNL A   1      41.862  22.615  28.329  1.00  0.00     0.020 A 
ATOM     77  C   UNL A   1      40.709  23.534  26.399  1.00  0.00     0.020 A 
ATOM     78  C   UNL A   1      41.097  22.438  27.172  1.00  0.00     0.054 A 
BRANCH  78  79
ATOM     79  S   UNL A   1      40.598  20.763  26.692  1.00  0.00     0.124 S 
ATOM     80  O   UNL A   1      41.581  20.438  25.664  1.00  0.00    -0.237 OA
ATOM     81  O   UNL A   1      40.723  20.022  27.944  1.00  0.00    -0.237 OA
ATOM     82  O   UNL A   1      39.227  20.938  26.214  1.00  0.00    -0.744 OA
ENDBRANCH  78  79
ENDBRANCH  50  73
BRANCH  62  83
ATOM     83  C   UNL A   1      47.777  28.526  26.657  1.00  0.00    -0.014 A 
ATOM     84  C   UNL A   1      49.002  28.582  27.345  1.00  0.00     0.010 A 
ATOM     85  C   UNL A   1      47.756  28.062  25.329  1.00  0.00     0.010 A 
ATOM     86  C   UNL A   1      50.187  28.212  26.705  1.00  0.00     0.020 A 
ATOM     87  C   UNL A   1      48.935  27.663  24.695  1.00  0.00     0.020 A 
ATOM     88  C   UNL A   1      50.147  27.755  25.384  1.00  0.00     0.054 A 
BRANCH  88  89
ATOM     89  S   UNL A   1      51.694  27.241  24.591  1.00  0.00     0.124 S 
ATOM     90  O   UNL A   1      52.637  28.240  25.085  1.00  0.00    -0.237 OA
ATOM     91  O   UNL A   1      51.883  25.888  25.106  1.00  0.00    -0.237 OA
ATOM     92  O   UNL A   1      51.394  27.321  23.162  1.00  0.00    -0.744 OA
ENDBRANCH  88  89
ENDBRANCH  62  83
ENDBRANCH  36  37
ENDBRANCH  29  31
ENDBRANCH  28  29
ENDBRANCH  27  28
ENDBRANCH  26  27
ENDBRANCH  25  26
ENDBRANCH  24  25
ENDBRANCH   1  24
TORSDOF 24
ENDMDL
