MODEL 1
REMARK VINA RESULT:      -9.7      0.000      0.000
REMARK SMILES COc1ccc([C@H]2[C@@H](C(=O)OCCOCCOCCOC(=O)c3ccc(-c4c5nc(c(-c6ccc(S(=O)(=O)[O-])cc6)c6ccc([nH]6)c(-c6ccc(S(=O)(=O)[O-])cc6)c6nc(c(-c7ccc(S(=O)(=O)[O-])cc7)c7ccc4[nH]7)C=C6)C=C5)cc3)CC(=O)N2Cc2ccccc2)cc1
REMARK SMILES IDX 16 1 15 2 14 3 13 4 12 5 11 6 9 7 10 8 8 9 7 10 86 11 83 12
REMARK SMILES IDX 84 13 85 14 6 15 3 16 4 17 95 18 5 19 94 20 2 21 1 22 87 23
REMARK SMILES IDX 88 24 89 25 93 26 90 27 92 28 91 29 17 30 18 31 19 32 20 33
REMARK SMILES IDX 21 34 22 35 23 36 24 37 82 38 25 39 81 40 26 41 27 42 28 43
REMARK SMILES IDX 75 44 29 45 80 46 74 47 76 48 30 49 79 50 73 51 72 52 31 54
REMARK SMILES IDX 61 55 42 56 60 57 43 58 46 59 59 60 77 61 44 62 45 63 58 65
REMARK SMILES IDX 78 66 47 67 32 68 33 69 41 70 34 71 40 72 35 73 36 74 37 75
REMARK SMILES IDX 38 76 39 77 62 78 63 79 71 80 64 81 70 82 65 83 66 84 67 85
REMARK SMILES IDX 68 86 69 87 48 88 49 89 57 90 50 91 56 92 51 93 52 94 53 95
REMARK SMILES IDX 54 96 55 97
REMARK H PARENT 76 53 46 64
REMARK Flexibility Score: inf
ROOT
ATOM      1  C   UNL A   1      34.237  20.244  24.827  1.00  0.00     0.188 C 
ENDROOT
BRANCH   1   2
ATOM      2  C   UNL A   1      32.790  20.555  24.420  1.00  0.00     0.188 C 
BRANCH   2   3
ATOM      3  O   UNL A   1      32.552  21.191  23.174  1.00  0.00    -0.376 OA
BRANCH   3   4
ATOM      4  C   UNL A   1      32.138  22.550  23.149  1.00  0.00     0.202 C 
BRANCH   4   5
ATOM      5  C   UNL A   1      32.974  23.605  22.411  1.00  0.00     0.261 C 
BRANCH   5   6
ATOM      6  O   UNL A   1      32.235  24.740  21.915  1.00  0.00    -0.463 OA
BRANCH   6   7
ATOM      7  C   UNL A   1      32.878  25.933  21.950  1.00  0.00     0.312 C 
ATOM      8  O   UNL A   1      34.094  26.069  21.867  1.00  0.00    -0.252 OA
BRANCH   7   9
ATOM      9  C   UNL A   1      31.986  27.122  22.209  1.00  0.00     0.135 C 
ATOM     10  C   UNL A   1      32.165  27.598  23.646  1.00  0.00     0.130 C 
ATOM     11  N   UNL A   1      31.071  28.548  23.769  1.00  0.00    -0.330 N 
ATOM     12  C   UNL A   1      30.466  27.077  22.050  1.00  0.00     0.118 C 
ATOM     13  C   UNL A   1      30.033  28.252  22.901  1.00  0.00     0.224 C 
ATOM     14  O   UNL A   1      28.957  28.821  22.826  1.00  0.00    -0.275 OA
BRANCH  10  15
ATOM     15  C   UNL A   1      32.107  26.451  24.659  1.00  0.00    -0.024 A 
ATOM     16  C   UNL A   1      31.891  24.409  26.601  1.00  0.00     0.118 A 
ATOM     17  C   UNL A   1      30.751  24.923  25.986  1.00  0.00     0.047 A 
ATOM     18  C   UNL A   1      33.139  24.923  26.260  1.00  0.00     0.047 A 
ATOM     19  C   UNL A   1      30.857  25.915  25.008  1.00  0.00     0.010 A 
ATOM     20  C   UNL A   1      33.244  25.943  25.308  1.00  0.00     0.010 A 
BRANCH  16  21
ATOM     21  O   UNL A   1      31.657  23.422  27.519  1.00  0.00    -0.497 OA
ATOM     22  C   UNL A   1      32.697  22.468  27.690  1.00  0.00     0.278 C 
ENDBRANCH  16  21
ENDBRANCH  10  15
BRANCH  11  23
ATOM     23  C   UNL A   1      31.109  29.703  24.652  1.00  0.00     0.155 C 
BRANCH  23  24
ATOM     24  C   UNL A   1      32.097  29.519  25.775  1.00  0.00    -0.029 A 
ATOM     25  C   UNL A   1      31.704  28.899  26.968  1.00  0.00     0.005 A 
ATOM     26  C   UNL A   1      33.452  29.826  25.581  1.00  0.00     0.005 A 
ATOM     27  C   UNL A   1      32.657  28.542  27.921  1.00  0.00     0.000 A 
ATOM     28  C   UNL A   1      34.407  29.431  26.514  1.00  0.00     0.000 A 
ATOM     29  C   UNL A   1      34.010  28.783  27.681  1.00  0.00     0.000 A 
ENDBRANCH  23  24
ENDBRANCH  11  23
ENDBRANCH   7   9
ENDBRANCH   6   7
ENDBRANCH   5   6
ENDBRANCH   4   5
ENDBRANCH   3   4
ENDBRANCH   2   3
ENDBRANCH   1   2
BRANCH   1  30
ATOM     30  O   UNL A   1      35.196  21.248  24.628  1.00  0.00    -0.376 OA
BRANCH  30  31
ATOM     31  C   UNL A   1      35.869  21.810  25.737  1.00  0.00     0.202 C 
BRANCH  31  32
ATOM     32  C   UNL A   1      36.370  23.268  25.843  1.00  0.00     0.261 C 
BRANCH  32  33
ATOM     33  O   UNL A   1      37.680  23.593  25.370  1.00  0.00    -0.460 OA
BRANCH  33  34
ATOM     34  C   UNL A   1      38.736  23.186  26.120  1.00  0.00     0.338 C 
ATOM     35  O   UNL A   1      39.294  22.102  26.067  1.00  0.00    -0.246 OA
BRANCH  34  36
ATOM     36  C   UNL A   1      39.260  24.375  26.835  1.00  0.00     0.060 A 
ATOM     37  C   UNL A   1      38.921  24.570  28.185  1.00  0.00     0.016 A 
ATOM     38  C   UNL A   1      40.129  25.260  26.197  1.00  0.00     0.016 A 
ATOM     39  C   UNL A   1      39.459  25.644  28.900  1.00  0.00     0.010 A 
ATOM     40  C   UNL A   1      40.638  26.355  26.906  1.00  0.00     0.010 A 
ATOM     41  C   UNL A   1      40.299  26.561  28.256  1.00  0.00    -0.014 A 
BRANCH  41  42
ATOM     42  C   UNL A   1      40.715  27.817  28.929  1.00  0.00     0.031 A 
ATOM     43  C   UNL A   1      42.056  27.859  29.608  1.00  0.00     0.074 A 
ATOM     44  C   UNL A   1      39.907  28.893  28.973  1.00  0.00     0.049 A 
ATOM     45  N   UNL A   1      42.572  28.788  30.369  1.00  0.00    -0.248 NA
ATOM     46  C   UNL A   1      42.929  26.691  29.403  1.00  0.00     0.031 C 
ATOM     47  C   UNL A   1      38.609  29.006  28.309  1.00  0.00     0.029 A 
ATOM     48  N   UNL A   1      40.056  30.092  29.628  1.00  0.00    -0.354 N 
ATOM     49  C   UNL A   1      43.821  28.312  30.749  1.00  0.00     0.074 A 
ATOM     50  C   UNL A   1      43.977  27.004  30.149  1.00  0.00     0.031 C 
ATOM     51  C   UNL A   1      38.069  30.202  28.611  1.00  0.00     0.029 A 
ATOM     52  C   UNL A   1      38.959  30.916  29.526  1.00  0.00     0.049 A 
ATOM     53  H   UNL A   1      40.871  30.338  30.122  1.00  0.00     0.167 HD
ATOM     54  C   UNL A   1      44.753  28.907  31.533  1.00  0.00     0.031 A 
ATOM     55  C   UNL A   1      38.686  32.090  30.132  1.00  0.00     0.031 A 
ATOM     56  C   UNL A   1      44.585  30.197  32.147  1.00  0.00     0.049 A 
ATOM     57  C   UNL A   1      39.692  32.686  31.086  1.00  0.00     0.074 A 
ATOM     58  C   UNL A   1      45.481  30.893  32.940  1.00  0.00     0.029 A 
ATOM     59  N   UNL A   1      43.445  30.979  32.052  1.00  0.00    -0.354 N 
ATOM     60  N   UNL A   1      40.883  32.241  31.412  1.00  0.00    -0.248 NA
ATOM     61  C   UNL A   1      39.315  33.939  31.758  1.00  0.00     0.031 C 
ATOM     62  C   UNL A   1      44.855  32.061  33.384  1.00  0.00     0.029 A 
ATOM     63  C   UNL A   1      43.594  32.128  32.810  1.00  0.00     0.049 A 
ATOM     64  H   UNL A   1      42.644  30.751  31.525  1.00  0.00     0.167 HD
ATOM     65  C   UNL A   1      41.402  33.168  32.313  1.00  0.00     0.074 A 
ATOM     66  C   UNL A   1      40.406  34.209  32.462  1.00  0.00     0.031 C 
ATOM     67  C   UNL A   1      42.594  33.156  32.959  1.00  0.00     0.031 A 
BRANCH  54  68
ATOM     68  C   UNL A   1      46.021  28.143  31.811  1.00  0.00    -0.014 A 
ATOM     69  C   UNL A   1      47.150  28.273  30.985  1.00  0.00     0.010 A 
ATOM     70  C   UNL A   1      46.094  27.312  32.945  1.00  0.00     0.010 A 
ATOM     71  C   UNL A   1      48.318  27.557  31.267  1.00  0.00     0.020 A 
ATOM     72  C   UNL A   1      47.269  26.619  33.247  1.00  0.00     0.020 A 
ATOM     73  C   UNL A   1      48.369  26.735  32.395  1.00  0.00     0.054 A 
BRANCH  73  74
ATOM     74  S   UNL A   1      49.905  25.837  32.747  1.00  0.00     0.124 S 
ATOM     75  O   UNL A   1      50.143  25.140  31.485  1.00  0.00    -0.237 OA
ATOM     76  O   UNL A   1      50.841  26.914  33.055  1.00  0.00    -0.237 OA
ATOM     77  O   UNL A   1      49.555  24.977  33.875  1.00  0.00    -0.744 OA
ENDBRANCH  73  74
ENDBRANCH  54  68
BRANCH  55  78
ATOM     78  C   UNL A   1      37.378  32.765  29.894  1.00  0.00    -0.014 A 
ATOM     79  C   UNL A   1      37.239  33.722  28.873  1.00  0.00     0.010 A 
ATOM     80  C   UNL A   1      36.262  32.459  30.696  1.00  0.00     0.010 A 
ATOM     81  C   UNL A   1      36.014  34.363  28.663  1.00  0.00     0.020 A 
ATOM     82  C   UNL A   1      35.027  33.075  30.469  1.00  0.00     0.020 A 
ATOM     83  C   UNL A   1      34.914  34.030  29.458  1.00  0.00     0.054 A 
BRANCH  83  84
ATOM     84  S   UNL A   1      33.319  34.830  29.123  1.00  0.00     0.124 S 
ATOM     85  O   UNL A   1      33.733  36.111  28.560  1.00  0.00    -0.237 OA
ATOM     86  O   UNL A   1      32.692  33.899  28.187  1.00  0.00    -0.237 OA
ATOM     87  O   UNL A   1      32.686  34.898  30.439  1.00  0.00    -0.744 OA
ENDBRANCH  83  84
ENDBRANCH  55  78
BRANCH  67  88
ATOM     88  C   UNL A   1      42.906  34.306  33.884  1.00  0.00    -0.014 A 
ATOM     89  C   UNL A   1      42.474  34.299  35.222  1.00  0.00     0.010 A 
ATOM     90  C   UNL A   1      43.714  35.367  33.433  1.00  0.00     0.010 A 
ATOM     91  C   UNL A   1      42.830  35.338  36.087  1.00  0.00     0.020 A 
ATOM     92  C   UNL A   1      44.096  36.393  34.301  1.00  0.00     0.020 A 
ATOM     93  C   UNL A   1      43.645  36.375  35.623  1.00  0.00     0.054 A 
BRANCH  93  94
ATOM     94  S   UNL A   1      44.149  37.674  36.786  1.00  0.00     0.124 S 
ATOM     95  O   UNL A   1      44.266  38.838  35.912  1.00  0.00    -0.237 OA
ATOM     96  O   UNL A   1      43.034  37.705  37.729  1.00  0.00    -0.237 OA
ATOM     97  O   UNL A   1      45.409  37.179  37.336  1.00  0.00    -0.744 OA
ENDBRANCH  93  94
ENDBRANCH  67  88
ENDBRANCH  41  42
ENDBRANCH  34  36
ENDBRANCH  33  34
ENDBRANCH  32  33
ENDBRANCH  31  32
ENDBRANCH  30  31
ENDBRANCH   1  30
TORSDOF 24
ENDMDL
MODEL 2
REMARK VINA RESULT:      -9.3      2.732      8.055
REMARK SMILES COc1ccc([C@H]2[C@@H](C(=O)OCCOCCOCCOC(=O)c3ccc(-c4c5nc(c(-c6ccc(S(=O)(=O)[O-])cc6)c6ccc([nH]6)c(-c6ccc(S(=O)(=O)[O-])cc6)c6nc(c(-c7ccc(S(=O)(=O)[O-])cc7)c7ccc4[nH]7)C=C6)C=C5)cc3)CC(=O)N2Cc2ccccc2)cc1
REMARK SMILES IDX 16 1 15 2 14 3 13 4 12 5 11 6 9 7 10 8 8 9 7 10 86 11 83 12
REMARK SMILES IDX 84 13 85 14 6 15 3 16 4 17 95 18 5 19 94 20 2 21 1 22 87 23
REMARK SMILES IDX 88 24 89 25 93 26 90 27 92 28 91 29 17 30 18 31 19 32 20 33
REMARK SMILES IDX 21 34 22 35 23 36 24 37 82 38 25 39 81 40 26 41 27 42 28 43
REMARK SMILES IDX 75 44 29 45 80 46 74 47 76 48 30 49 79 50 73 51 72 52 31 54
REMARK SMILES IDX 61 55 42 56 60 57 43 58 46 59 59 60 77 61 44 62 45 63 58 65
REMARK SMILES IDX 78 66 47 67 32 68 33 69 41 70 34 71 40 72 35 73 36 74 37 75
REMARK SMILES IDX 38 76 39 77 62 78 63 79 71 80 64 81 70 82 65 83 66 84 67 85
REMARK SMILES IDX 68 86 69 87 48 88 49 89 57 90 50 91 56 92 51 93 52 94 53 95
REMARK SMILES IDX 54 96 55 97
REMARK H PARENT 76 53 46 64
REMARK Flexibility Score: inf
ROOT
ATOM      1  C   UNL A   1      34.376  20.503  25.018  1.00  0.00     0.188 C 
ENDROOT
BRANCH   1   2
ATOM      2  C   UNL A   1      33.127  21.123  24.374  1.00  0.00     0.188 C 
BRANCH   2   3
ATOM      3  O   UNL A   1      33.289  21.972  23.250  1.00  0.00    -0.376 OA
BRANCH   3   4
ATOM      4  C   UNL A   1      32.575  23.200  23.190  1.00  0.00     0.202 C 
BRANCH   4   5
ATOM      5  C   UNL A   1      32.908  24.243  22.115  1.00  0.00     0.261 C 
BRANCH   5   6
ATOM      6  O   UNL A   1      32.522  25.596  22.429  1.00  0.00    -0.463 OA
BRANCH   6   7
ATOM      7  C   UNL A   1      33.361  26.283  23.244  1.00  0.00     0.312 C 
ATOM      8  O   UNL A   1      34.455  25.873  23.618  1.00  0.00    -0.252 OA
BRANCH   7   9
ATOM      9  C   UNL A   1      32.807  27.586  23.764  1.00  0.00     0.135 C 
ATOM     10  C   UNL A   1      32.629  27.504  25.276  1.00  0.00     0.130 C 
ATOM     11  N   UNL A   1      31.870  28.716  25.539  1.00  0.00    -0.330 N 
ATOM     12  C   UNL A   1      31.477  28.177  23.294  1.00  0.00     0.118 C 
ATOM     13  C   UNL A   1      31.137  29.114  24.433  1.00  0.00     0.224 C 
ATOM     14  O   UNL A   1      30.353  30.046  24.372  1.00  0.00    -0.275 OA
BRANCH  10  15
ATOM     15  C   UNL A   1      31.919  26.220  25.717  1.00  0.00    -0.024 A 
ATOM     16  C   UNL A   1      30.720  23.772  26.464  1.00  0.00     0.118 A 
ATOM     17  C   UNL A   1      32.078  23.992  26.689  1.00  0.00     0.047 A 
ATOM     18  C   UNL A   1      29.962  24.767  25.854  1.00  0.00     0.047 A 
ATOM     19  C   UNL A   1      32.668  25.210  26.343  1.00  0.00     0.010 A 
ATOM     20  C   UNL A   1      30.559  25.973  25.472  1.00  0.00     0.010 A 
BRANCH  16  21
ATOM     21  O   UNL A   1      30.257  22.552  26.874  1.00  0.00    -0.497 OA
ATOM     22  C   UNL A   1      28.966  22.541  27.468  1.00  0.00     0.278 C 
ENDBRANCH  16  21
ENDBRANCH  10  15
BRANCH  11  23
ATOM     23  C   UNL A   1      31.939  29.447  26.795  1.00  0.00     0.155 C 
BRANCH  23  24
ATOM     24  C   UNL A   1      33.326  29.962  27.069  1.00  0.00    -0.029 A 
ATOM     25  C   UNL A   1      33.530  31.311  27.390  1.00  0.00     0.005 A 
ATOM     26  C   UNL A   1      34.407  29.071  27.159  1.00  0.00     0.005 A 
ATOM     27  C   UNL A   1      34.774  31.745  27.845  1.00  0.00     0.000 A 
ATOM     28  C   UNL A   1      35.636  29.498  27.653  1.00  0.00     0.000 A 
ATOM     29  C   UNL A   1      35.818  30.833  28.002  1.00  0.00     0.000 A 
ENDBRANCH  23  24
ENDBRANCH  11  23
ENDBRANCH   7   9
ENDBRANCH   6   7
ENDBRANCH   5   6
ENDBRANCH   4   5
ENDBRANCH   3   4
ENDBRANCH   2   3
ENDBRANCH   1   2
BRANCH   1  30
ATOM     30  O   UNL A   1      35.513  21.316  25.140  1.00  0.00    -0.376 OA
BRANCH  30  31
ATOM     31  C   UNL A   1      35.494  22.427  26.015  1.00  0.00     0.202 C 
BRANCH  31  32
ATOM     32  C   UNL A   1      36.406  23.670  25.912  1.00  0.00     0.261 C 
BRANCH  32  33
ATOM     33  O   UNL A   1      37.724  23.526  25.374  1.00  0.00    -0.460 OA
BRANCH  33  34
ATOM     34  C   UNL A   1      38.698  23.088  26.212  1.00  0.00     0.338 C 
ATOM     35  O   UNL A   1      39.093  21.941  26.335  1.00  0.00    -0.246 OA
BRANCH  34  36
ATOM     36  C   UNL A   1      39.379  24.283  26.767  1.00  0.00     0.060 A 
ATOM     37  C   UNL A   1      40.037  25.166  25.894  1.00  0.00     0.016 A 
ATOM     38  C   UNL A   1      39.316  24.566  28.131  1.00  0.00     0.016 A 
ATOM     39  C   UNL A   1      40.624  26.336  26.385  1.00  0.00     0.010 A 
ATOM     40  C   UNL A   1      39.935  25.720  28.625  1.00  0.00     0.010 A 
ATOM     41  C   UNL A   1      40.602  26.606  27.758  1.00  0.00    -0.014 A 
BRANCH  41  42
ATOM     42  C   UNL A   1      41.392  27.726  28.328  1.00  0.00     0.031 A 
ATOM     43  C   UNL A   1      40.656  28.896  28.922  1.00  0.00     0.074 A 
ATOM     44  C   UNL A   1      42.738  27.730  28.289  1.00  0.00     0.049 A 
ATOM     45  N   UNL A   1      41.123  30.039  29.351  1.00  0.00    -0.248 NA
ATOM     46  C   UNL A   1      39.195  28.756  29.043  1.00  0.00     0.031 C 
ATOM     47  C   UNL A   1      43.575  26.638  27.795  1.00  0.00     0.029 A 
ATOM     48  N   UNL A   1      43.636  28.704  28.655  1.00  0.00    -0.354 N 
ATOM     49  C   UNL A   1      40.015  30.763  29.775  1.00  0.00     0.074 A 
ATOM     50  C   UNL A   1      38.852  29.936  29.537  1.00  0.00     0.031 C 
ATOM     51  C   UNL A   1      44.866  27.013  27.867  1.00  0.00     0.029 A 
ATOM     52  C   UNL A   1      44.943  28.385  28.366  1.00  0.00     0.049 A 
ATOM     53  H   UNL A   1      43.370  29.548  29.085  1.00  0.00     0.167 HD
ATOM     54  C   UNL A   1      39.969  32.006  30.311  1.00  0.00     0.031 A 
ATOM     55  C   UNL A   1      46.066  29.128  28.454  1.00  0.00     0.031 A 
ATOM     56  C   UNL A   1      41.125  32.835  30.526  1.00  0.00     0.049 A 
ATOM     57  C   UNL A   1      45.980  30.549  28.952  1.00  0.00     0.074 A 
ATOM     58  C   UNL A   1      41.182  34.101  31.082  1.00  0.00     0.029 A 
ATOM     59  N   UNL A   1      42.423  32.492  30.182  1.00  0.00    -0.354 N 
ATOM     60  N   UNL A   1      44.930  31.211  29.381  1.00  0.00    -0.248 NA
ATOM     61  C   UNL A   1      47.228  31.327  28.974  1.00  0.00     0.031 C 
ATOM     62  C   UNL A   1      42.503  34.552  31.007  1.00  0.00     0.029 A 
ATOM     63  C   UNL A   1      43.282  33.539  30.469  1.00  0.00     0.049 A 
ATOM     64  H   UNL A   1      42.695  31.630  29.788  1.00  0.00     0.167 HD
ATOM     65  C   UNL A   1      45.396  32.474  29.738  1.00  0.00     0.074 A 
ATOM     66  C   UNL A   1      46.823  32.477  29.497  1.00  0.00     0.031 C 
ATOM     67  C   UNL A   1      44.702  33.536  30.219  1.00  0.00     0.031 A 
BRANCH  54  68
ATOM     68  C   UNL A   1      38.614  32.567  30.657  1.00  0.00    -0.014 A 
ATOM     69  C   UNL A   1      37.867  33.305  29.722  1.00  0.00     0.010 A 
ATOM     70  C   UNL A   1      38.064  32.313  31.926  1.00  0.00     0.010 A 
ATOM     71  C   UNL A   1      36.609  33.810  30.065  1.00  0.00     0.020 A 
ATOM     72  C   UNL A   1      36.794  32.790  32.262  1.00  0.00     0.020 A 
ATOM     73  C   UNL A   1      36.082  33.550  31.333  1.00  0.00     0.054 A 
BRANCH  73  74
ATOM     74  S   UNL A   1      34.438  34.200  31.741  1.00  0.00     0.124 S 
ATOM     75  O   UNL A   1      33.833  34.339  30.417  1.00  0.00    -0.237 OA
ATOM     76  O   UNL A   1      33.877  33.145  32.580  1.00  0.00    -0.237 OA
ATOM     77  O   UNL A   1      34.721  35.457  32.429  1.00  0.00    -0.744 OA
ENDBRANCH  73  74
ENDBRANCH  54  68
BRANCH  55  78
ATOM     78  C   UNL A   1      47.372  28.559  28.015  1.00  0.00    -0.014 A 
ATOM     79  C   UNL A   1      48.234  27.943  28.939  1.00  0.00     0.010 A 
ATOM     80  C   UNL A   1      47.766  28.638  26.665  1.00  0.00     0.010 A 
ATOM     81  C   UNL A   1      49.464  27.423  28.524  1.00  0.00     0.020 A 
ATOM     82  C   UNL A   1      48.982  28.093  26.241  1.00  0.00     0.020 A 
ATOM     83  C   UNL A   1      49.827  27.495  27.176  1.00  0.00     0.054 A 
BRANCH  83  84
ATOM     84  S   UNL A   1      51.401  26.756  26.654  1.00  0.00     0.124 S 
ATOM     85  O   UNL A   1      51.674  25.822  27.741  1.00  0.00    -0.237 OA
ATOM     86  O   UNL A   1      51.053  26.151  25.370  1.00  0.00    -0.237 OA
ATOM     87  O   UNL A   1      52.305  27.901  26.569  1.00  0.00    -0.744 OA
ENDBRANCH  83  84
ENDBRANCH  55  78
BRANCH  67  88
ATOM     88  C   UNL A   1      45.470  34.795  30.532  1.00  0.00    -0.014 A 
ATOM     89  C   UNL A   1      46.121  34.960  31.768  1.00  0.00     0.010 A 
ATOM     90  C   UNL A   1      45.615  35.790  29.546  1.00  0.00     0.010 A 
ATOM     91  C   UNL A   1      46.888  36.102  32.018  1.00  0.00     0.020 A 
ATOM     92  C   UNL A   1      46.405  36.919  29.782  1.00  0.00     0.020 A 
ATOM     93  C   UNL A   1      47.031  37.071  31.020  1.00  0.00     0.054 A 
BRANCH  93  94
ATOM     94  S   UNL A   1      48.089  38.509  31.347  1.00  0.00     0.124 S 
ATOM     95  O   UNL A   1      48.488  38.286  32.734  1.00  0.00    -0.237 OA
ATOM     96  O   UNL A   1      49.150  38.354  30.355  1.00  0.00    -0.237 OA
ATOM     97  O   UNL A   1      47.202  39.650  31.130  1.00  0.00    -0.744 OA
ENDBRANCH  93  94
ENDBRANCH  67  88
ENDBRANCH  41  42
ENDBRANCH  34  36
ENDBRANCH  33  34
ENDBRANCH  32  33
ENDBRANCH  31  32
ENDBRANCH  30  31
ENDBRANCH   1  30
TORSDOF 24
ENDMDL
MODEL 3
REMARK VINA RESULT:      -9.2      4.248     10.035
REMARK SMILES COc1ccc([C@H]2[C@@H](C(=O)OCCOCCOCCOC(=O)c3ccc(-c4c5nc(c(-c6ccc(S(=O)(=O)[O-])cc6)c6ccc([nH]6)c(-c6ccc(S(=O)(=O)[O-])cc6)c6nc(c(-c7ccc(S(=O)(=O)[O-])cc7)c7ccc4[nH]7)C=C6)C=C5)cc3)CC(=O)N2Cc2ccccc2)cc1
REMARK SMILES IDX 16 1 15 2 14 3 13 4 12 5 11 6 9 7 10 8 8 9 7 10 86 11 83 12
REMARK SMILES IDX 84 13 85 14 6 15 3 16 4 17 95 18 5 19 94 20 2 21 1 22 87 23
REMARK SMILES IDX 88 24 89 25 93 26 90 27 92 28 91 29 17 30 18 31 19 32 20 33
REMARK SMILES IDX 21 34 22 35 23 36 24 37 82 38 25 39 81 40 26 41 27 42 28 43
REMARK SMILES IDX 75 44 29 45 80 46 74 47 76 48 30 49 79 50 73 51 72 52 31 54
REMARK SMILES IDX 61 55 42 56 60 57 43 58 46 59 59 60 77 61 44 62 45 63 58 65
REMARK SMILES IDX 78 66 47 67 32 68 33 69 41 70 34 71 40 72 35 73 36 74 37 75
REMARK SMILES IDX 38 76 39 77 62 78 63 79 71 80 64 81 70 82 65 83 66 84 67 85
REMARK SMILES IDX 68 86 69 87 48 88 49 89 57 90 50 91 56 92 51 93 52 94 53 95
REMARK SMILES IDX 54 96 55 97
REMARK H PARENT 76 53 46 64
REMARK Flexibility Score: inf
ROOT
ATOM      1  C   UNL A   1      34.650  32.448  29.466  1.00  0.00     0.188 C 
ENDROOT
BRANCH   1   2
ATOM      2  C   UNL A   1      34.104  32.626  28.043  1.00  0.00     0.188 C 
BRANCH   2   3
ATOM      3  O   UNL A   1      33.156  31.692  27.552  1.00  0.00    -0.376 OA
BRANCH   3   4
ATOM      4  C   UNL A   1      33.594  30.415  27.107  1.00  0.00     0.202 C 
BRANCH   4   5
ATOM      5  C   UNL A   1      32.643  29.212  27.134  1.00  0.00     0.261 C 
BRANCH   5   6
ATOM      6  O   UNL A   1      32.685  28.367  25.966  1.00  0.00    -0.463 OA
BRANCH   6   7
ATOM      7  C   UNL A   1      31.524  27.752  25.631  1.00  0.00     0.312 C 
ATOM      8  O   UNL A   1      30.713  28.193  24.825  1.00  0.00    -0.252 OA
BRANCH   7   9
ATOM      9  C   UNL A   1      31.230  26.495  26.412  1.00  0.00     0.135 C 
ATOM     10  C   UNL A   1      32.253  25.419  26.065  1.00  0.00     0.130 C 
ATOM     11  N   UNL A   1      31.663  24.251  26.699  1.00  0.00    -0.330 N 
ATOM     12  C   UNL A   1      29.900  25.745  26.320  1.00  0.00     0.118 C 
ATOM     13  C   UNL A   1      30.288  24.369  26.816  1.00  0.00     0.224 C 
ATOM     14  O   UNL A   1      29.515  23.524  27.236  1.00  0.00    -0.275 OA
BRANCH  10  15
ATOM     15  C   UNL A   1      32.460  25.268  24.555  1.00  0.00    -0.024 A 
ATOM     16  C   UNL A   1      32.929  25.112  21.773  1.00  0.00     0.118 A 
ATOM     17  C   UNL A   1      33.989  25.294  22.659  1.00  0.00     0.047 A 
ATOM     18  C   UNL A   1      31.632  25.022  22.272  1.00  0.00     0.047 A 
ATOM     19  C   UNL A   1      33.763  25.347  24.036  1.00  0.00     0.010 A 
ATOM     20  C   UNL A   1      31.400  25.112  23.648  1.00  0.00     0.010 A 
BRANCH  16  21
ATOM     21  O   UNL A   1      33.284  25.047  20.453  1.00  0.00    -0.497 OA
ATOM     22  C   UNL A   1      32.274  25.395  19.516  1.00  0.00     0.278 C 
ENDBRANCH  16  21
ENDBRANCH  10  15
BRANCH  11  23
ATOM     23  C   UNL A   1      32.447  23.134  27.205  1.00  0.00     0.155 C 
BRANCH  23  24
ATOM     24  C   UNL A   1      32.786  22.148  26.119  1.00  0.00    -0.029 A 
ATOM     25  C   UNL A   1      31.820  21.776  25.175  1.00  0.00     0.005 A 
ATOM     26  C   UNL A   1      34.109  21.711  25.948  1.00  0.00     0.005 A 
ATOM     27  C   UNL A   1      32.183  21.030  24.054  1.00  0.00     0.000 A 
ATOM     28  C   UNL A   1      34.477  21.003  24.807  1.00  0.00     0.000 A 
ATOM     29  C   UNL A   1      33.516  20.668  23.857  1.00  0.00     0.000 A 
ENDBRANCH  23  24
ENDBRANCH  11  23
ENDBRANCH   7   9
ENDBRANCH   6   7
ENDBRANCH   5   6
ENDBRANCH   4   5
ENDBRANCH   3   4
ENDBRANCH   2   3
ENDBRANCH   1   2
BRANCH   1  30
ATOM     30  O   UNL A   1      34.204  33.346  30.448  1.00  0.00    -0.376 OA
BRANCH  30  31
ATOM     31  C   UNL A   1      34.818  33.358  31.722  1.00  0.00     0.202 C 
BRANCH  31  32
ATOM     32  C   UNL A   1      35.669  32.217  32.323  1.00  0.00     0.261 C 
BRANCH  32  33
ATOM     33  O   UNL A   1      36.822  31.755  31.611  1.00  0.00    -0.460 OA
BRANCH  33  34
ATOM     34  C   UNL A   1      37.048  30.417  31.588  1.00  0.00     0.338 C 
ATOM     35  O   UNL A   1      36.237  29.535  31.818  1.00  0.00    -0.246 OA
BRANCH  34  36
ATOM     36  C   UNL A   1      38.385  30.202  30.983  1.00  0.00     0.060 A 
ATOM     37  C   UNL A   1      38.580  30.496  29.623  1.00  0.00     0.016 A 
ATOM     38  C   UNL A   1      39.457  29.773  31.766  1.00  0.00     0.016 A 
ATOM     39  C   UNL A   1      39.847  30.370  29.048  1.00  0.00     0.010 A 
ATOM     40  C   UNL A   1      40.718  29.614  31.179  1.00  0.00     0.010 A 
ATOM     41  C   UNL A   1      40.919  29.900  29.816  1.00  0.00    -0.014 A 
BRANCH  41  42
ATOM     42  C   UNL A   1      42.219  29.560  29.184  1.00  0.00     0.031 A 
ATOM     43  C   UNL A   1      42.419  28.166  28.655  1.00  0.00     0.074 A 
ATOM     44  C   UNL A   1      43.221  30.456  29.111  1.00  0.00     0.049 A 
ATOM     45  N   UNL A   1      43.503  27.603  28.190  1.00  0.00    -0.248 NA
ATOM     46  C   UNL A   1      41.235  27.291  28.656  1.00  0.00     0.031 C 
ATOM     47  C   UNL A   1      43.142  31.853  29.532  1.00  0.00     0.029 A 
ATOM     48  N   UNL A   1      44.516  30.309  28.672  1.00  0.00    -0.354 N 
ATOM     49  C   UNL A   1      43.140  26.303  27.860  1.00  0.00     0.074 A 
ATOM     50  C   UNL A   1      41.739  26.157  28.194  1.00  0.00     0.031 C 
ATOM     51  C   UNL A   1      44.345  32.431  29.353  1.00  0.00     0.029 A 
ATOM     52  C   UNL A   1      45.289  31.433  28.852  1.00  0.00     0.049 A 
ATOM     53  H   UNL A   1      44.857  29.479  28.267  1.00  0.00     0.167 HD
ATOM     54  C   UNL A   1      43.904  25.317  27.332  1.00  0.00     0.031 A 
ATOM     55  C   UNL A   1      46.613  31.623  28.672  1.00  0.00     0.031 A 
ATOM     56  C   UNL A   1      45.302  25.458  27.022  1.00  0.00     0.049 A 
ATOM     57  C   UNL A   1      47.469  30.480  28.184  1.00  0.00     0.074 A 
ATOM     58  C   UNL A   1      46.156  24.523  26.465  1.00  0.00     0.029 A 
ATOM     59  N   UNL A   1      46.056  26.598  27.257  1.00  0.00    -0.354 N 
ATOM     60  N   UNL A   1      47.107  29.265  27.844  1.00  0.00    -0.248 NA
ATOM     61  C   UNL A   1      48.912  30.732  28.059  1.00  0.00     0.031 C 
ATOM     62  C   UNL A   1      47.442  25.072  26.430  1.00  0.00     0.029 A 
ATOM     63  C   UNL A   1      47.375  26.374  26.900  1.00  0.00     0.049 A 
ATOM     64  H   UNL A   1      45.706  27.442  27.625  1.00  0.00     0.167 HD
ATOM     65  C   UNL A   1      48.275  28.616  27.452  1.00  0.00     0.074 A 
ATOM     66  C   UNL A   1      49.349  29.578  27.573  1.00  0.00     0.031 C 
ATOM     67  C   UNL A   1      48.441  27.337  27.031  1.00  0.00     0.031 A 
BRANCH  54  68
ATOM     68  C   UNL A   1      43.253  23.978  27.101  1.00  0.00    -0.014 A 
ATOM     69  C   UNL A   1      42.712  23.634  25.849  1.00  0.00     0.010 A 
ATOM     70  C   UNL A   1      43.221  23.034  28.144  1.00  0.00     0.010 A 
ATOM     71  C   UNL A   1      42.118  22.382  25.658  1.00  0.00     0.020 A 
ATOM     72  C   UNL A   1      42.656  21.772  27.947  1.00  0.00     0.020 A 
ATOM     73  C   UNL A   1      42.093  21.461  26.708  1.00  0.00     0.054 A 
BRANCH  73  74
ATOM     74  S   UNL A   1      41.335  19.838  26.422  1.00  0.00     0.124 S 
ATOM     75  O   UNL A   1      39.974  20.205  26.035  1.00  0.00    -0.237 OA
ATOM     76  O   UNL A   1      42.163  19.283  25.354  1.00  0.00    -0.237 OA
ATOM     77  O   UNL A   1      41.454  19.165  27.713  1.00  0.00    -0.744 OA
ENDBRANCH  73  74
ENDBRANCH  54  68
BRANCH  55  78
ATOM     78  C   UNL A   1      47.228  32.942  29.000  1.00  0.00    -0.014 A 
ATOM     79  C   UNL A   1      47.628  33.240  30.314  1.00  0.00     0.010 A 
ATOM     80  C   UNL A   1      47.409  33.912  27.996  1.00  0.00     0.010 A 
ATOM     81  C   UNL A   1      48.191  34.483  30.619  1.00  0.00     0.020 A 
ATOM     82  C   UNL A   1      48.000  35.145  28.291  1.00  0.00     0.020 A 
ATOM     83  C   UNL A   1      48.380  35.425  29.604  1.00  0.00     0.054 A 
BRANCH  83  84
ATOM     84  S   UNL A   1      49.171  37.007  30.015  1.00  0.00     0.124 S 
ATOM     85  O   UNL A   1      50.432  36.915  29.287  1.00  0.00    -0.237 OA
ATOM     86  O   UNL A   1      48.211  37.981  29.499  1.00  0.00    -0.237 OA
ATOM     87  O   UNL A   1      49.282  36.966  31.471  1.00  0.00    -0.744 OA
ENDBRANCH  83  84
ENDBRANCH  55  78
BRANCH  67  88
ATOM     88  C   UNL A   1      49.832  26.894  26.657  1.00  0.00    -0.014 A 
ATOM     89  C   UNL A   1      50.689  26.308  27.607  1.00  0.00     0.010 A 
ATOM     90  C   UNL A   1      50.259  26.985  25.318  1.00  0.00     0.010 A 
ATOM     91  C   UNL A   1      51.950  25.838  27.229  1.00  0.00     0.020 A 
ATOM     92  C   UNL A   1      51.507  26.490  24.931  1.00  0.00     0.020 A 
ATOM     93  C   UNL A   1      52.349  25.926  25.892  1.00  0.00     0.054 A 
BRANCH  93  94
ATOM     94  S   UNL A   1      53.962  25.244  25.417  1.00  0.00     0.124 S 
ATOM     95  O   UNL A   1      54.557  26.353  24.677  1.00  0.00    -0.237 OA
ATOM     96  O   UNL A   1      54.575  24.950  26.711  1.00  0.00    -0.237 OA
ATOM     97  O   UNL A   1      53.622  24.071  24.615  1.00  0.00    -0.744 OA
ENDBRANCH  93  94
ENDBRANCH  67  88
ENDBRANCH  41  42
ENDBRANCH  34  36
ENDBRANCH  33  34
ENDBRANCH  32  33
ENDBRANCH  31  32
ENDBRANCH  30  31
ENDBRANCH   1  30
TORSDOF 24
ENDMDL
