MODEL 1
REMARK VINA RESULT:      -5.5      0.000      0.000
REMARK SMILES C[C@@H]1[C@@H](C(=O)OCCOCCOCCOC(=O)c2ccc(-c3c4nc(c(-c5ccc(S(=O)(=O)[O-])cc5)c5ccc([nH]5)c(-c5ccc(S(=O)(=O)[O-])cc5)c5nc(c(-c6ccc(S(=O)(=O)[O-])cc6)c6ccc3[nH]6)C=C5)C=C4)cc2)CCN1C(=O)N(C)CCOCC1CC1
REMARK SMILES IDX 8 1 7 2 6 3 4 4 5 5 3 6 1 7 2 8 80 9 78 10 79 11 81 12 82 13
REMARK SMILES IDX 83 14 84 15 85 16 86 17 87 18 88 19 89 20 90 21 91 22 9 23
REMARK SMILES IDX 10 24 11 25 12 26 13 27 14 28 15 29 16 30 17 31 18 32 19 33
REMARK SMILES IDX 77 34 20 35 76 36 21 37 22 38 23 39 70 40 24 41 75 42 69 43
REMARK SMILES IDX 71 44 25 45 74 46 68 47 67 48 26 50 56 51 37 52 55 53 38 54
REMARK SMILES IDX 41 55 54 56 72 57 39 58 40 59 53 61 73 62 42 63 27 64 28 65
REMARK SMILES IDX 36 66 29 67 35 68 30 69 31 70 32 71 33 72 34 73 57 74 58 75
REMARK SMILES IDX 66 76 59 77 65 78 60 79 61 80 62 81 63 82 64 83 43 84 44 85
REMARK SMILES IDX 52 86 45 87 51 88 46 89 47 90 48 91 49 92 50 93
REMARK H PARENT 71 49 41 60
REMARK Flexibility Score: inf
ROOT
ATOM      1  C   UNL A   1      38.699  33.738  37.794  1.00  0.00     0.202 C 
ENDROOT
BRANCH   1   2
ATOM      2  C   UNL A   1      38.365  34.346  36.421  1.00  0.00     0.261 C 
BRANCH   2   3
ATOM      3  O   UNL A   1      38.746  33.538  35.293  1.00  0.00    -0.463 OA
BRANCH   3   4
ATOM      4  C   UNL A   1      38.804  34.189  34.104  1.00  0.00     0.311 C 
ATOM      5  O   UNL A   1      39.672  35.000  33.821  1.00  0.00    -0.252 OA
BRANCH   4   6
ATOM      6  C   UNL A   1      37.718  33.682  33.166  1.00  0.00     0.123 C 
ATOM      7  C   UNL A   1      36.255  31.645  32.829  1.00  0.00     0.032 C 
ATOM      8  C   UNL A   1      37.651  32.144  33.240  1.00  0.00     0.098 C 
ATOM      9  N   UNL A   1      38.697  31.746  32.296  1.00  0.00    -0.321 N 
ATOM     10  C   UNL A   1      38.018  33.966  31.710  1.00  0.00     0.039 C 
ATOM     11  C   UNL A   1      38.965  32.844  31.355  1.00  0.00     0.122 C 
BRANCH   9  12
ATOM     12  C   UNL A   1      39.793  30.938  32.578  1.00  0.00     0.320 C 
ATOM     13  O   UNL A   1      40.820  31.456  33.033  1.00  0.00    -0.248 OA
BRANCH  12  14
ATOM     14  N   UNL A   1      39.835  29.650  32.076  1.00  0.00    -0.325 N 
ATOM     15  C   UNL A   1      38.779  28.897  31.422  1.00  0.00     0.148 C 
BRANCH  14  16
ATOM     16  C   UNL A   1      41.075  28.892  32.349  1.00  0.00     0.149 C 
BRANCH  16  17
ATOM     17  C   UNL A   1      41.075  28.033  33.641  1.00  0.00     0.181 C 
BRANCH  17  18
ATOM     18  O   UNL A   1      42.320  27.708  34.267  1.00  0.00    -0.379 OA
BRANCH  18  19
ATOM     19  C   UNL A   1      42.293  26.904  35.437  1.00  0.00     0.163 C 
BRANCH  19  20
ATOM     20  C   UNL A   1      41.473  25.656  35.319  1.00  0.00     0.015 C 
ATOM     21  C   UNL A   1      42.013  24.248  35.426  1.00  0.00     0.006 C 
ATOM     22  C   UNL A   1      41.237  24.827  36.566  1.00  0.00     0.006 C 
ENDBRANCH  19  20
ENDBRANCH  18  19
ENDBRANCH  17  18
ENDBRANCH  16  17
ENDBRANCH  14  16
ENDBRANCH  12  14
ENDBRANCH   9  12
ENDBRANCH   4   6
ENDBRANCH   3   4
ENDBRANCH   2   3
ENDBRANCH   1   2
BRANCH   1  23
ATOM     23  O   UNL A   1      40.085  33.485  38.014  1.00  0.00    -0.376 OA
BRANCH  23  24
ATOM     24  C   UNL A   1      40.496  33.581  39.371  1.00  0.00     0.188 C 
BRANCH  24  25
ATOM     25  C   UNL A   1      40.139  34.920  40.041  1.00  0.00     0.188 C 
BRANCH  25  26
ATOM     26  O   UNL A   1      40.781  36.116  39.649  1.00  0.00    -0.376 OA
BRANCH  26  27
ATOM     27  C   UNL A   1      41.992  36.454  40.311  1.00  0.00     0.202 C 
BRANCH  27  28
ATOM     28  C   UNL A   1      43.373  36.173  39.668  1.00  0.00     0.261 C 
BRANCH  28  29
ATOM     29  O   UNL A   1      44.023  34.924  39.977  1.00  0.00    -0.460 OA
BRANCH  29  30
ATOM     30  C   UNL A   1      45.275  34.758  39.475  1.00  0.00     0.338 C 
ATOM     31  O   UNL A   1      46.283  35.365  39.810  1.00  0.00    -0.246 OA
BRANCH  30  32
ATOM     32  C   UNL A   1      45.306  33.550  38.613  1.00  0.00     0.060 A 
ATOM     33  C   UNL A   1      46.467  33.264  37.873  1.00  0.00     0.016 A 
ATOM     34  C   UNL A   1      44.191  32.722  38.505  1.00  0.00     0.016 A 
ATOM     35  C   UNL A   1      46.516  32.156  37.024  1.00  0.00     0.010 A 
ATOM     36  C   UNL A   1      44.225  31.636  37.621  1.00  0.00     0.010 A 
ATOM     37  C   UNL A   1      45.376  31.362  36.858  1.00  0.00    -0.014 A 
BRANCH  37  38
ATOM     38  C   UNL A   1      45.310  30.379  35.745  1.00  0.00     0.031 A 
ATOM     39  C   UNL A   1      44.906  30.876  34.381  1.00  0.00     0.074 A 
ATOM     40  C   UNL A   1      45.605  29.079  35.927  1.00  0.00     0.049 A 
ATOM     41  N   UNL A   1      44.684  30.199  33.284  1.00  0.00    -0.248 NA
ATOM     42  C   UNL A   1      44.725  32.331  34.241  1.00  0.00     0.031 C 
ATOM     43  C   UNL A   1      46.071  28.478  37.175  1.00  0.00     0.029 A 
ATOM     44  N   UNL A   1      45.539  28.023  35.050  1.00  0.00    -0.354 N 
ATOM     45  C   UNL A   1      44.325  31.143  32.327  1.00  0.00     0.074 A 
ATOM     46  C   UNL A   1      44.332  32.434  32.979  1.00  0.00     0.031 C 
ATOM     47  C   UNL A   1      46.233  27.155  36.988  1.00  0.00     0.029 A 
ATOM     48  C   UNL A   1      45.843  26.809  35.622  1.00  0.00     0.049 A 
ATOM     49  H   UNL A   1      45.298  28.126  34.100  1.00  0.00     0.167 HD
ATOM     50  C   UNL A   1      44.020  30.955  31.021  1.00  0.00     0.031 A 
ATOM     51  C   UNL A   1      45.782  25.563  35.109  1.00  0.00     0.031 A 
ATOM     52  C   UNL A   1      43.992  29.669  30.376  1.00  0.00     0.049 A 
ATOM     53  C   UNL A   1      45.336  25.367  33.680  1.00  0.00     0.074 A 
ATOM     54  C   UNL A   1      43.693  29.377  29.056  1.00  0.00     0.029 A 
ATOM     55  N   UNL A   1      44.265  28.463  31.001  1.00  0.00    -0.354 N 
ATOM     56  N   UNL A   1      45.009  26.268  32.784  1.00  0.00    -0.248 NA
ATOM     57  C   UNL A   1      45.255  23.981  33.192  1.00  0.00     0.031 C 
ATOM     58  C   UNL A   1      43.725  27.987  28.899  1.00  0.00     0.029 A 
ATOM     59  C   UNL A   1      44.116  27.420  30.100  1.00  0.00     0.049 A 
ATOM     60  H   UNL A   1      44.526  28.362  31.944  1.00  0.00     0.167 HD
ATOM     61  C   UNL A   1      44.724  25.560  31.619  1.00  0.00     0.074 A 
ATOM     62  C   UNL A   1      44.927  24.159  31.920  1.00  0.00     0.031 C 
ATOM     63  C   UNL A   1      44.331  26.029  30.408  1.00  0.00     0.031 A 
BRANCH  50  64
ATOM     64  C   UNL A   1      43.660  32.171  30.207  1.00  0.00    -0.014 A 
ATOM     65  C   UNL A   1      42.386  32.759  30.301  1.00  0.00     0.010 A 
ATOM     66  C   UNL A   1      44.624  32.758  29.367  1.00  0.00     0.010 A 
ATOM     67  C   UNL A   1      42.072  33.892  29.546  1.00  0.00     0.020 A 
ATOM     68  C   UNL A   1      44.324  33.910  28.634  1.00  0.00     0.020 A 
ATOM     69  C   UNL A   1      43.044  34.460  28.717  1.00  0.00     0.054 A 
BRANCH  69  70
ATOM     70  S   UNL A   1      42.617  35.949  27.774  1.00  0.00     0.124 S 
ATOM     71  O   UNL A   1      43.562  35.881  26.661  1.00  0.00    -0.237 OA
ATOM     72  O   UNL A   1      41.219  35.716  27.425  1.00  0.00    -0.237 OA
ATOM     73  O   UNL A   1      42.849  37.039  28.719  1.00  0.00    -0.744 OA
ENDBRANCH  69  70
ENDBRANCH  50  64
BRANCH  51  74
ATOM     74  C   UNL A   1      46.130  24.385  35.954  1.00  0.00    -0.014 A 
ATOM     75  C   UNL A   1      47.416  23.822  35.900  1.00  0.00     0.010 A 
ATOM     76  C   UNL A   1      45.164  23.799  36.794  1.00  0.00     0.010 A 
ATOM     77  C   UNL A   1      47.724  22.683  36.651  1.00  0.00     0.020 A 
ATOM     78  C   UNL A   1      45.478  22.681  37.571  1.00  0.00     0.020 A 
ATOM     79  C   UNL A   1      46.753  22.122  37.484  1.00  0.00     0.054 A 
BRANCH  79  80
ATOM     80  S   UNL A   1      47.192  20.669  38.479  1.00  0.00     0.124 S 
ATOM     81  O   UNL A   1      47.896  21.274  39.605  1.00  0.00    -0.237 OA
ATOM     82  O   UNL A   1      45.883  20.097  38.782  1.00  0.00    -0.237 OA
ATOM     83  O   UNL A   1      48.019  19.873  37.575  1.00  0.00    -0.744 OA
ENDBRANCH  79  80
ENDBRANCH  51  74
BRANCH  63  84
ATOM     84  C   UNL A   1      44.148  25.030  29.292  1.00  0.00    -0.014 A 
ATOM     85  C   UNL A   1      42.870  24.627  28.867  1.00  0.00     0.010 A 
ATOM     86  C   UNL A   1      45.280  24.535  28.615  1.00  0.00     0.010 A 
ATOM     87  C   UNL A   1      42.729  23.725  27.808  1.00  0.00     0.020 A 
ATOM     88  C   UNL A   1      45.141  23.659  27.536  1.00  0.00     0.020 A 
ATOM     89  C   UNL A   1      43.866  23.248  27.147  1.00  0.00     0.054 A 
BRANCH  89  90
ATOM     90  S   UNL A   1      43.652  22.115  25.746  1.00  0.00     0.124 S 
ATOM     91  O   UNL A   1      43.185  23.015  24.696  1.00  0.00    -0.237 OA
ATOM     92  O   UNL A   1      44.999  21.578  25.562  1.00  0.00    -0.237 OA
ATOM     93  O   UNL A   1      42.664  21.152  26.226  1.00  0.00    -0.744 OA
ENDBRANCH  89  90
ENDBRANCH  63  84
ENDBRANCH  37  38
ENDBRANCH  30  32
ENDBRANCH  29  30
ENDBRANCH  28  29
ENDBRANCH  27  28
ENDBRANCH  26  27
ENDBRANCH  25  26
ENDBRANCH  24  25
ENDBRANCH  23  24
ENDBRANCH   1  23
TORSDOF 27
ENDMDL
MODEL 2
REMARK VINA RESULT:      -5.2      5.010     11.517
REMARK SMILES C[C@@H]1[C@@H](C(=O)OCCOCCOCCOC(=O)c2ccc(-c3c4nc(c(-c5ccc(S(=O)(=O)[O-])cc5)c5ccc([nH]5)c(-c5ccc(S(=O)(=O)[O-])cc5)c5nc(c(-c6ccc(S(=O)(=O)[O-])cc6)c6ccc3[nH]6)C=C5)C=C4)cc2)CCN1C(=O)N(C)CCOCC1CC1
REMARK SMILES IDX 8 1 7 2 6 3 4 4 5 5 3 6 1 7 2 8 80 9 78 10 79 11 81 12 82 13
REMARK SMILES IDX 83 14 84 15 85 16 86 17 87 18 88 19 89 20 90 21 91 22 9 23
REMARK SMILES IDX 10 24 11 25 12 26 13 27 14 28 15 29 16 30 17 31 18 32 19 33
REMARK SMILES IDX 77 34 20 35 76 36 21 37 22 38 23 39 70 40 24 41 75 42 69 43
REMARK SMILES IDX 71 44 25 45 74 46 68 47 67 48 26 50 56 51 37 52 55 53 38 54
REMARK SMILES IDX 41 55 54 56 72 57 39 58 40 59 53 61 73 62 42 63 27 64 28 65
REMARK SMILES IDX 36 66 29 67 35 68 30 69 31 70 32 71 33 72 34 73 57 74 58 75
REMARK SMILES IDX 66 76 59 77 65 78 60 79 61 80 62 81 63 82 64 83 43 84 44 85
REMARK SMILES IDX 52 86 45 87 51 88 46 89 47 90 48 91 49 92 50 93
REMARK H PARENT 71 49 41 60
REMARK Flexibility Score: inf
ROOT
ATOM      1  C   UNL A   1      42.450  27.958  34.179  1.00  0.00     0.202 C 
ENDROOT
BRANCH   1   2
ATOM      2  C   UNL A   1      41.798  26.857  35.033  1.00  0.00     0.261 C 
BRANCH   2   3
ATOM      3  O   UNL A   1      42.523  26.506  36.225  1.00  0.00    -0.463 OA
BRANCH   3   4
ATOM      4  C   UNL A   1      43.773  26.021  36.023  1.00  0.00     0.311 C 
ATOM      5  O   UNL A   1      44.753  26.731  35.855  1.00  0.00    -0.252 OA
BRANCH   4   6
ATOM      6  C   UNL A   1      43.783  24.504  36.151  1.00  0.00     0.123 C 
ATOM      7  C   UNL A   1      45.420  22.604  36.482  1.00  0.00     0.032 C 
ATOM      8  C   UNL A   1      45.185  23.967  35.807  1.00  0.00     0.098 C 
ATOM      9  N   UNL A   1      45.130  23.876  34.347  1.00  0.00    -0.321 N 
ATOM     10  C   UNL A   1      42.874  23.825  35.149  1.00  0.00     0.039 C 
ATOM     11  C   UNL A   1      43.729  23.808  33.904  1.00  0.00     0.122 C 
BRANCH   9  12
ATOM     12  C   UNL A   1      45.996  24.495  33.453  1.00  0.00     0.320 C 
ATOM     13  O   UNL A   1      47.198  24.567  33.733  1.00  0.00    -0.248 OA
BRANCH  12  14
ATOM     14  N   UNL A   1      45.478  25.273  32.434  1.00  0.00    -0.325 N 
ATOM     15  C   UNL A   1      45.279  26.711  32.402  1.00  0.00     0.148 C 
BRANCH  14  16
ATOM     16  C   UNL A   1      44.940  24.535  31.270  1.00  0.00     0.149 C 
BRANCH  16  17
ATOM     17  C   UNL A   1      45.152  25.203  29.886  1.00  0.00     0.181 C 
BRANCH  17  18
ATOM     18  O   UNL A   1      46.423  25.089  29.240  1.00  0.00    -0.379 OA
BRANCH  18  19
ATOM     19  C   UNL A   1      47.238  26.249  29.151  1.00  0.00     0.163 C 
BRANCH  19  20
ATOM     20  C   UNL A   1      48.421  26.253  30.069  1.00  0.00     0.015 C 
ATOM     21  C   UNL A   1      49.680  25.443  29.867  1.00  0.00     0.006 C 
ATOM     22  C   UNL A   1      49.701  26.913  29.593  1.00  0.00     0.006 C 
ENDBRANCH  19  20
ENDBRANCH  18  19
ENDBRANCH  17  18
ENDBRANCH  16  17
ENDBRANCH  14  16
ENDBRANCH  12  14
ENDBRANCH   9  12
ENDBRANCH   4   6
ENDBRANCH   3   4
ENDBRANCH   2   3
ENDBRANCH   1   2
BRANCH   1  23
ATOM     23  O   UNL A   1      41.559  28.635  33.295  1.00  0.00    -0.376 OA
BRANCH  23  24
ATOM     24  C   UNL A   1      40.193  28.591  33.685  1.00  0.00     0.188 C 
BRANCH  24  25
ATOM     25  C   UNL A   1      39.257  27.992  32.620  1.00  0.00     0.188 C 
BRANCH  25  26
ATOM     26  O   UNL A   1      38.739  28.796  31.580  1.00  0.00    -0.376 OA
BRANCH  26  27
ATOM     27  C   UNL A   1      37.384  29.209  31.686  1.00  0.00     0.202 C 
BRANCH  27  28
ATOM     28  C   UNL A   1      36.502  29.428  30.432  1.00  0.00     0.261 C 
BRANCH  28  29
ATOM     29  O   UNL A   1      37.093  29.195  29.138  1.00  0.00    -0.460 OA
BRANCH  29  30
ATOM     30  C   UNL A   1      37.789  30.231  28.599  1.00  0.00     0.338 C 
ATOM     31  O   UNL A   1      37.428  31.398  28.534  1.00  0.00    -0.246 OA
BRANCH  30  32
ATOM     32  C   UNL A   1      39.177  29.794  28.303  1.00  0.00     0.060 A 
ATOM     33  C   UNL A   1      40.168  29.940  29.289  1.00  0.00     0.016 A 
ATOM     34  C   UNL A   1      39.510  29.277  27.053  1.00  0.00     0.016 A 
ATOM     35  C   UNL A   1      41.490  29.573  29.030  1.00  0.00     0.010 A 
ATOM     36  C   UNL A   1      40.844  28.950  26.780  1.00  0.00     0.010 A 
ATOM     37  C   UNL A   1      41.845  29.119  27.756  1.00  0.00    -0.014 A 
BRANCH  37  38
ATOM     38  C   UNL A   1      43.277  29.020  27.373  1.00  0.00     0.031 A 
ATOM     39  C   UNL A   1      43.791  27.694  26.876  1.00  0.00     0.074 A 
ATOM     40  C   UNL A   1      44.109  30.075  27.455  1.00  0.00     0.049 A 
ATOM     41  N   UNL A   1      45.013  27.336  26.577  1.00  0.00    -0.248 NA
ATOM     42  C   UNL A   1      42.789  26.629  26.696  1.00  0.00     0.031 C 
ATOM     43  C   UNL A   1      43.731  31.429  27.857  1.00  0.00     0.029 A 
ATOM     44  N   UNL A   1      45.459  30.162  27.213  1.00  0.00    -0.354 N 
ATOM     45  C   UNL A   1      44.930  26.004  26.187  1.00  0.00     0.074 A 
ATOM     46  C   UNL A   1      43.543  25.609  26.313  1.00  0.00     0.031 C 
ATOM     47  C   UNL A   1      44.828  32.207  27.850  1.00  0.00     0.029 A 
ATOM     48  C   UNL A   1      45.991  31.400  27.485  1.00  0.00     0.049 A 
ATOM     49  H   UNL A   1      45.995  29.407  26.876  1.00  0.00     0.167 HD
ATOM     50  C   UNL A   1      45.915  25.180  25.758  1.00  0.00     0.031 A 
ATOM     51  C   UNL A   1      47.273  31.822  27.471  1.00  0.00     0.031 A 
ATOM     52  C   UNL A   1      47.298  25.564  25.652  1.00  0.00     0.049 A 
ATOM     53  C   UNL A   1      48.370  30.857  27.092  1.00  0.00     0.074 A 
ATOM     54  C   UNL A   1      48.372  24.800  25.228  1.00  0.00     0.029 A 
ATOM     55  N   UNL A   1      47.800  26.814  25.976  1.00  0.00    -0.354 N 
ATOM     56  N   UNL A   1      48.276  29.603  26.717  1.00  0.00    -0.248 NA
ATOM     57  C   UNL A   1      49.749  31.368  27.132  1.00  0.00     0.031 C 
ATOM     58  C   UNL A   1      49.533  25.570  25.356  1.00  0.00     0.029 A 
ATOM     59  C   UNL A   1      49.173  26.836  25.788  1.00  0.00     0.049 A 
ATOM     60  H   UNL A   1      47.262  27.575  26.294  1.00  0.00     0.167 HD
ATOM     61  C   UNL A   1      49.578  29.191  26.438  1.00  0.00     0.074 A 
ATOM     62  C   UNL A   1      50.437  30.330  26.677  1.00  0.00     0.031 C 
ATOM     63  C   UNL A   1      50.019  27.979  26.019  1.00  0.00     0.031 A 
BRANCH  50  64
ATOM     64  C   UNL A   1      45.538  23.766  25.400  1.00  0.00    -0.014 A 
ATOM     65  C   UNL A   1      45.102  23.434  24.105  1.00  0.00     0.010 A 
ATOM     66  C   UNL A   1      45.661  22.747  26.362  1.00  0.00     0.010 A 
ATOM     67  C   UNL A   1      44.765  22.116  23.787  1.00  0.00     0.020 A 
ATOM     68  C   UNL A   1      45.355  21.422  26.040  1.00  0.00     0.020 A 
ATOM     69  C   UNL A   1      44.894  21.118  24.757  1.00  0.00     0.054 A 
BRANCH  69  70
ATOM     70  S   UNL A   1      44.480  19.411  24.306  1.00  0.00     0.124 S 
ATOM     71  O   UNL A   1      43.130  19.276  24.849  1.00  0.00    -0.237 OA
ATOM     72  O   UNL A   1      44.571  19.435  22.850  1.00  0.00    -0.237 OA
ATOM     73  O   UNL A   1      45.503  18.615  24.980  1.00  0.00    -0.744 OA
ENDBRANCH  69  70
ENDBRANCH  50  64
BRANCH  51  74
ATOM     74  C   UNL A   1      47.606  33.225  27.850  1.00  0.00    -0.014 A 
ATOM     75  C   UNL A   1      47.681  34.231  26.871  1.00  0.00     0.010 A 
ATOM     76  C   UNL A   1      47.883  33.556  29.190  1.00  0.00     0.010 A 
ATOM     77  C   UNL A   1      48.049  35.534  27.219  1.00  0.00     0.020 A 
ATOM     78  C   UNL A   1      48.218  34.865  29.547  1.00  0.00     0.020 A 
ATOM     79  C   UNL A   1      48.312  35.843  28.556  1.00  0.00     0.054 A 
BRANCH  79  80
ATOM     80  S   UNL A   1      48.746  37.552  28.987  1.00  0.00     0.124 S 
ATOM     81  O   UNL A   1      49.663  37.359  30.106  1.00  0.00    -0.237 OA
ATOM     82  O   UNL A   1      49.348  38.038  27.748  1.00  0.00    -0.237 OA
ATOM     83  O   UNL A   1      47.459  38.155  29.325  1.00  0.00    -0.744 OA
ENDBRANCH  79  80
ENDBRANCH  51  74
BRANCH  63  84
ATOM     84  C   UNL A   1      51.493  27.827  25.734  1.00  0.00    -0.014 A 
ATOM     85  C   UNL A   1      52.041  28.171  24.486  1.00  0.00     0.010 A 
ATOM     86  C   UNL A   1      52.353  27.391  26.761  1.00  0.00     0.010 A 
ATOM     87  C   UNL A   1      53.416  28.052  24.261  1.00  0.00     0.020 A 
ATOM     88  C   UNL A   1      53.731  27.300  26.549  1.00  0.00     0.020 A 
ATOM     89  C   UNL A   1      54.253  27.619  25.295  1.00  0.00     0.054 A 
BRANCH  89  90
ATOM     90  S   UNL A   1      56.039  27.518  24.990  1.00  0.00     0.124 S 
ATOM     91  O   UNL A   1      56.261  28.660  24.108  1.00  0.00    -0.237 OA
ATOM     92  O   UNL A   1      56.599  27.643  26.334  1.00  0.00    -0.237 OA
ATOM     93  O   UNL A   1      56.211  26.208  24.368  1.00  0.00    -0.744 OA
ENDBRANCH  89  90
ENDBRANCH  63  84
ENDBRANCH  37  38
ENDBRANCH  30  32
ENDBRANCH  29  30
ENDBRANCH  28  29
ENDBRANCH  27  28
ENDBRANCH  26  27
ENDBRANCH  25  26
ENDBRANCH  24  25
ENDBRANCH  23  24
ENDBRANCH   1  23
TORSDOF 27
ENDMDL
MODEL 3
REMARK VINA RESULT:      -5.1      5.394     10.445
REMARK SMILES C[C@@H]1[C@@H](C(=O)OCCOCCOCCOC(=O)c2ccc(-c3c4nc(c(-c5ccc(S(=O)(=O)[O-])cc5)c5ccc([nH]5)c(-c5ccc(S(=O)(=O)[O-])cc5)c5nc(c(-c6ccc(S(=O)(=O)[O-])cc6)c6ccc3[nH]6)C=C5)C=C4)cc2)CCN1C(=O)N(C)CCOCC1CC1
REMARK SMILES IDX 8 1 7 2 6 3 4 4 5 5 3 6 1 7 2 8 80 9 78 10 79 11 81 12 82 13
REMARK SMILES IDX 83 14 84 15 85 16 86 17 87 18 88 19 89 20 90 21 91 22 9 23
REMARK SMILES IDX 10 24 11 25 12 26 13 27 14 28 15 29 16 30 17 31 18 32 19 33
REMARK SMILES IDX 77 34 20 35 76 36 21 37 22 38 23 39 70 40 24 41 75 42 69 43
REMARK SMILES IDX 71 44 25 45 74 46 68 47 67 48 26 50 56 51 37 52 55 53 38 54
REMARK SMILES IDX 41 55 54 56 72 57 39 58 40 59 53 61 73 62 42 63 27 64 28 65
REMARK SMILES IDX 36 66 29 67 35 68 30 69 31 70 32 71 33 72 34 73 57 74 58 75
REMARK SMILES IDX 66 76 59 77 65 78 60 79 61 80 62 81 63 82 64 83 43 84 44 85
REMARK SMILES IDX 52 86 45 87 51 88 46 89 47 90 48 91 49 92 50 93
REMARK H PARENT 71 49 41 60
REMARK Flexibility Score: inf
ROOT
ATOM      1  C   UNL A   1      52.611  33.368  30.184  1.00  0.00     0.202 C 
ENDROOT
BRANCH   1   2
ATOM      2  C   UNL A   1      51.412  32.459  30.504  1.00  0.00     0.261 C 
BRANCH   2   3
ATOM      3  O   UNL A   1      51.723  31.057  30.592  1.00  0.00    -0.463 OA
BRANCH   3   4
ATOM      4  C   UNL A   1      50.777  30.288  31.188  1.00  0.00     0.311 C 
ATOM      5  O   UNL A   1      50.390  30.462  32.333  1.00  0.00    -0.252 OA
BRANCH   4   6
ATOM      6  C   UNL A   1      50.211  29.279  30.198  1.00  0.00     0.123 C 
ATOM      7  C   UNL A   1      48.428  27.489  30.073  1.00  0.00     0.032 C 
ATOM      8  C   UNL A   1      49.491  28.153  30.965  1.00  0.00     0.098 C 
ATOM      9  N   UNL A   1      50.596  27.253  31.298  1.00  0.00    -0.321 N 
ATOM     10  C   UNL A   1      51.285  28.559  29.413  1.00  0.00     0.039 C 
ATOM     11  C   UNL A   1      51.723  27.486  30.383  1.00  0.00     0.122 C 
BRANCH   9  12
ATOM     12  C   UNL A   1      50.958  26.835  32.575  1.00  0.00     0.320 C 
ATOM     13  O   UNL A   1      51.754  27.518  33.229  1.00  0.00    -0.248 OA
BRANCH  12  14
ATOM     14  N   UNL A   1      50.673  25.541  32.970  1.00  0.00    -0.325 N 
ATOM     15  C   UNL A   1      51.574  24.539  33.514  1.00  0.00     0.148 C 
BRANCH  14  16
ATOM     16  C   UNL A   1      49.301  25.068  32.689  1.00  0.00     0.149 C 
BRANCH  16  17
ATOM     17  C   UNL A   1      48.192  25.601  33.634  1.00  0.00     0.181 C 
BRANCH  17  18
ATOM     18  O   UNL A   1      46.933  26.000  33.083  1.00  0.00    -0.379 OA
BRANCH  18  19
ATOM     19  C   UNL A   1      45.829  25.118  33.223  1.00  0.00     0.163 C 
BRANCH  19  20
ATOM     20  C   UNL A   1      44.820  25.197  32.119  1.00  0.00     0.015 C 
ATOM     21  C   UNL A   1      44.882  24.415  30.828  1.00  0.00     0.006 C 
ATOM     22  C   UNL A   1      43.909  24.008  31.888  1.00  0.00     0.006 C 
ENDBRANCH  19  20
ENDBRANCH  18  19
ENDBRANCH  17  18
ENDBRANCH  16  17
ENDBRANCH  14  16
ENDBRANCH  12  14
ENDBRANCH   9  12
ENDBRANCH   4   6
ENDBRANCH   3   4
ENDBRANCH   2   3
ENDBRANCH   1   2
BRANCH   1  23
ATOM     23  O   UNL A   1      52.531  34.678  30.739  1.00  0.00    -0.376 OA
BRANCH  23  24
ATOM     24  C   UNL A   1      51.412  35.438  30.303  1.00  0.00     0.188 C 
BRANCH  24  25
ATOM     25  C   UNL A   1      51.580  36.053  28.902  1.00  0.00     0.188 C 
BRANCH  25  26
ATOM     26  O   UNL A   1      51.761  37.445  28.742  1.00  0.00    -0.376 OA
BRANCH  26  27
ATOM     27  C   UNL A   1      50.754  38.300  29.265  1.00  0.00     0.202 C 
BRANCH  27  28
ATOM     28  C   UNL A   1      49.549  38.755  28.405  1.00  0.00     0.261 C 
BRANCH  28  29
ATOM     29  O   UNL A   1      48.574  37.764  28.026  1.00  0.00    -0.460 OA
BRANCH  29  30
ATOM     30  C   UNL A   1      47.801  37.267  29.028  1.00  0.00     0.338 C 
ATOM     31  O   UNL A   1      47.201  37.912  29.877  1.00  0.00    -0.246 OA
BRANCH  30  32
ATOM     32  C   UNL A   1      47.586  35.814  28.812  1.00  0.00     0.060 A 
ATOM     33  C   UNL A   1      47.003  35.377  27.610  1.00  0.00     0.016 A 
ATOM     34  C   UNL A   1      47.922  34.889  29.798  1.00  0.00     0.016 A 
ATOM     35  C   UNL A   1      46.752  34.021  27.390  1.00  0.00     0.010 A 
ATOM     36  C   UNL A   1      47.631  33.534  29.595  1.00  0.00     0.010 A 
ATOM     37  C   UNL A   1      47.023  33.096  28.403  1.00  0.00    -0.014 A 
BRANCH  37  38
ATOM     38  C   UNL A   1      46.486  31.713  28.311  1.00  0.00     0.031 A 
ATOM     39  C   UNL A   1      47.346  30.657  27.666  1.00  0.00     0.074 A 
ATOM     40  C   UNL A   1      45.270  31.389  28.789  1.00  0.00     0.049 A 
ATOM     41  N   UNL A   1      47.060  29.412  27.383  1.00  0.00    -0.248 NA
ATOM     42  C   UNL A   1      48.709  31.065  27.286  1.00  0.00     0.031 C 
ATOM     43  C   UNL A   1      44.363  32.295  29.492  1.00  0.00     0.029 A 
ATOM     44  N   UNL A   1      44.584  30.200  28.738  1.00  0.00    -0.354 N 
ATOM     45  C   UNL A   1      48.202  28.892  26.783  1.00  0.00     0.074 A 
ATOM     46  C   UNL A   1      49.173  29.962  26.716  1.00  0.00     0.031 C 
ATOM     47  C   UNL A   1      43.231  31.632  29.792  1.00  0.00     0.029 A 
ATOM     48  C   UNL A   1      43.316  30.270  29.266  1.00  0.00     0.049 A 
ATOM     49  H   UNL A   1      44.965  29.375  28.359  1.00  0.00     0.167 HD
ATOM     50  C   UNL A   1      48.426  27.636  26.329  1.00  0.00     0.031 A 
ATOM     51  C   UNL A   1      42.330  29.350  29.294  1.00  0.00     0.031 A 
ATOM     52  C   UNL A   1      47.454  26.576  26.375  1.00  0.00     0.049 A 
ATOM     53  C   UNL A   1      42.565  27.988  28.686  1.00  0.00     0.074 A 
ATOM     54  C   UNL A   1      47.588  25.269  25.939  1.00  0.00     0.029 A 
ATOM     55  N   UNL A   1      46.170  26.700  26.880  1.00  0.00    -0.354 N 
ATOM     56  N   UNL A   1      43.652  27.507  28.130  1.00  0.00    -0.248 NA
ATOM     57  C   UNL A   1      41.438  27.043  28.715  1.00  0.00     0.031 C 
ATOM     58  C   UNL A   1      46.362  24.620  26.124  1.00  0.00     0.029 A 
ATOM     59  C   UNL A   1      45.490  25.501  26.743  1.00  0.00     0.049 A 
ATOM     60  H   UNL A   1      45.796  27.519  27.278  1.00  0.00     0.167 HD
ATOM     61  C   UNL A   1      43.350  26.192  27.780  1.00  0.00     0.074 A 
ATOM     62  C   UNL A   1      41.985  25.951  28.197  1.00  0.00     0.031 C 
ATOM     63  C   UNL A   1      44.134  25.268  27.171  1.00  0.00     0.031 A 
BRANCH  50  64
ATOM     64  C   UNL A   1      49.769  27.347  25.711  1.00  0.00    -0.014 A 
ATOM     65  C   UNL A   1      50.782  26.697  26.440  1.00  0.00     0.010 A 
ATOM     66  C   UNL A   1      50.008  27.691  24.368  1.00  0.00     0.010 A 
ATOM     67  C   UNL A   1      52.018  26.427  25.849  1.00  0.00     0.020 A 
ATOM     68  C   UNL A   1      51.233  27.396  23.763  1.00  0.00     0.020 A 
ATOM     69  C   UNL A   1      52.236  26.778  24.513  1.00  0.00     0.054 A 
BRANCH  69  70
ATOM     70  S   UNL A   1      53.840  26.387  23.763  1.00  0.00     0.124 S 
ATOM     71  O   UNL A   1      54.606  27.600  24.041  1.00  0.00    -0.237 OA
ATOM     72  O   UNL A   1      54.256  25.199  24.503  1.00  0.00    -0.237 OA
ATOM     73  O   UNL A   1      53.521  26.163  22.356  1.00  0.00    -0.744 OA
ENDBRANCH  69  70
ENDBRANCH  50  64
BRANCH  51  74
ATOM     74  C   UNL A   1      41.008  29.683  29.899  1.00  0.00    -0.014 A 
ATOM     75  C   UNL A   1      39.945  30.127  29.093  1.00  0.00     0.010 A 
ATOM     76  C   UNL A   1      40.816  29.588  31.290  1.00  0.00     0.010 A 
ATOM     77  C   UNL A   1      38.724  30.493  29.668  1.00  0.00     0.020 A 
ATOM     78  C   UNL A   1      39.586  29.921  31.864  1.00  0.00     0.020 A 
ATOM     79  C   UNL A   1      38.552  30.384  31.050  1.00  0.00     0.054 A 
BRANCH  79  80
ATOM     80  S   UNL A   1      36.944  30.825  31.765  1.00  0.00     0.124 S 
ATOM     81  O   UNL A   1      36.572  31.996  30.977  1.00  0.00    -0.237 OA
ATOM     82  O   UNL A   1      36.157  29.619  31.521  1.00  0.00    -0.237 OA
ATOM     83  O   UNL A   1      37.255  31.085  33.169  1.00  0.00    -0.744 OA
ENDBRANCH  79  80
ENDBRANCH  51  74
BRANCH  63  84
ATOM     84  C   UNL A   1      43.563  23.886  26.965  1.00  0.00    -0.014 A 
ATOM     85  C   UNL A   1      43.850  22.831  27.849  1.00  0.00     0.010 A 
ATOM     86  C   UNL A   1      42.670  23.661  25.900  1.00  0.00     0.010 A 
ATOM     87  C   UNL A   1      43.280  21.570  27.652  1.00  0.00     0.020 A 
ATOM     88  C   UNL A   1      42.074  22.410  25.719  1.00  0.00     0.020 A 
ATOM     89  C   UNL A   1      42.393  21.368  26.589  1.00  0.00     0.054 A 
BRANCH  89  90
ATOM     90  S   UNL A   1      41.632  19.734  26.385  1.00  0.00     0.124 S 
ATOM     91  O   UNL A   1      40.218  20.071  26.254  1.00  0.00    -0.237 OA
ATOM     92  O   UNL A   1      42.274  19.231  25.172  1.00  0.00    -0.237 OA
ATOM     93  O   UNL A   1      41.991  19.027  27.612  1.00  0.00    -0.744 OA
ENDBRANCH  89  90
ENDBRANCH  63  84
ENDBRANCH  37  38
ENDBRANCH  30  32
ENDBRANCH  29  30
ENDBRANCH  28  29
ENDBRANCH  27  28
ENDBRANCH  26  27
ENDBRANCH  25  26
ENDBRANCH  24  25
ENDBRANCH  23  24
ENDBRANCH   1  23
TORSDOF 27
ENDMDL
