MODEL 1
REMARK VINA RESULT:      -9.9      0.000      0.000
REMARK SMILES O=C(OCCOCCOCCOC(=O)[C@@H]1CSCN1C(=O)c1cccc(Cl)c1)c1ccc(-c2c3nc(c(-c4ccc(S(=O)(=O)[O-])cc4)c4ccc([nH]4)c(-c4ccc(S(=O)(=O)[O-])cc4)c4nc(c(-c5ccc(S(=O)(=O)[O-])cc5)c5ccc2[nH]5)C=C4)C=C3)cc1
REMARK SMILES IDX 7 1 6 2 5 3 4 4 3 5 2 6 1 7 29 8 30 9 88 10 31 11 87 12
REMARK SMILES IDX 32 13 33 14 34 15 81 16 35 17 86 18 80 19 82 20 36 21 85 22
REMARK SMILES IDX 79 23 78 24 37 26 67 27 48 28 66 29 49 30 52 31 65 32 83 33
REMARK SMILES IDX 50 34 51 35 64 37 84 38 53 39 38 40 39 41 47 42 40 43 46 44
REMARK SMILES IDX 41 45 42 46 43 47 44 48 45 49 68 50 69 51 77 52 70 53 76 54
REMARK SMILES IDX 71 55 72 56 73 57 74 58 75 59 54 60 55 61 63 62 56 63 62 64
REMARK SMILES IDX 57 65 58 66 59 67 60 68 61 69 8 70 9 71 10 72 11 73 12 74
REMARK SMILES IDX 13 75 14 76 15 77 16 78 19 79 17 80 18 81 20 82 21 83 22 84
REMARK SMILES IDX 23 85 28 86 24 87 26 88 25 89 27 90
REMARK H PARENT 82 25 52 36
REMARK Flexibility Score: inf
ROOT
ATOM      1  C   UNL A   1      36.932  23.364  24.649  1.00  0.00     0.188 C 
ENDROOT
BRANCH   1   2
ATOM      2  O   UNL A   1      37.288  22.700  25.869  1.00  0.00    -0.376 OA
BRANCH   2   3
ATOM      3  C   UNL A   1      38.676  22.354  25.939  1.00  0.00     0.202 C 
BRANCH   3   4
ATOM      4  C   UNL A   1      39.516  23.274  26.837  1.00  0.00     0.261 C 
BRANCH   4   5
ATOM      5  O   UNL A   1      39.196  24.662  26.649  1.00  0.00    -0.460 OA
BRANCH   5   6
ATOM      6  C   UNL A   1      39.994  25.744  26.839  1.00  0.00     0.338 C 
ATOM      7  O   UNL A   1      40.858  25.978  25.994  1.00  0.00    -0.246 OA
BRANCH   6   8
ATOM      8  C   UNL A   1      39.871  26.692  27.994  1.00  0.00     0.060 A 
ATOM      9  C   UNL A   1      40.414  27.976  28.055  1.00  0.00     0.016 A 
ATOM     10  C   UNL A   1      39.104  26.258  29.092  1.00  0.00     0.016 A 
ATOM     11  C   UNL A   1      40.323  28.749  29.208  1.00  0.00     0.010 A 
ATOM     12  C   UNL A   1      38.952  27.055  30.233  1.00  0.00     0.010 A 
ATOM     13  C   UNL A   1      39.609  28.286  30.313  1.00  0.00    -0.014 A 
BRANCH  13  14
ATOM     14  C   UNL A   1      39.693  29.057  31.571  1.00  0.00     0.031 A 
ATOM     15  C   UNL A   1      40.878  28.836  32.461  1.00  0.00     0.074 A 
ATOM     16  C   UNL A   1      38.808  30.039  31.823  1.00  0.00     0.049 A 
ATOM     17  N   UNL A   1      41.217  29.469  33.551  1.00  0.00    -0.248 NA
ATOM     18  C   UNL A   1      41.822  27.780  32.056  1.00  0.00     0.031 C 
ATOM     19  C   UNL A   1      37.688  30.388  30.954  1.00  0.00     0.029 A 
ATOM     20  N   UNL A   1      38.724  30.945  32.845  1.00  0.00    -0.354 N 
ATOM     21  C   UNL A   1      42.408  28.887  33.964  1.00  0.00     0.074 A 
ATOM     22  C   UNL A   1      42.723  27.837  33.023  1.00  0.00     0.031 C 
ATOM     23  C   UNL A   1      37.041  31.450  31.457  1.00  0.00     0.029 A 
ATOM     24  C   UNL A   1      37.678  31.830  32.712  1.00  0.00     0.049 A 
ATOM     25  H   UNL A   1      39.352  30.963  33.603  1.00  0.00     0.167 HD
ATOM     26  C   UNL A   1      43.170  29.205  35.035  1.00  0.00     0.031 A 
ATOM     27  C   UNL A   1      37.277  32.829  33.521  1.00  0.00     0.031 A 
ATOM     28  C   UNL A   1      42.819  30.229  35.977  1.00  0.00     0.049 A 
ATOM     29  C   UNL A   1      38.080  33.086  34.765  1.00  0.00     0.074 A 
ATOM     30  C   UNL A   1      43.474  30.602  37.135  1.00  0.00     0.029 A 
ATOM     31  N   UNL A   1      41.696  31.040  35.868  1.00  0.00    -0.354 N 
ATOM     32  N   UNL A   1      39.191  32.507  35.159  1.00  0.00    -0.248 NA
ATOM     33  C   UNL A   1      37.581  34.125  35.674  1.00  0.00     0.031 C 
ATOM     34  C   UNL A   1      42.721  31.609  37.751  1.00  0.00     0.029 A 
ATOM     35  C   UNL A   1      41.626  31.899  36.949  1.00  0.00     0.049 A 
ATOM     36  H   UNL A   1      41.046  31.009  35.129  1.00  0.00     0.167 HD
ATOM     37  C   UNL A   1      39.538  33.125  36.352  1.00  0.00     0.074 A 
ATOM     38  C   UNL A   1      38.525  34.133  36.607  1.00  0.00     0.031 C 
ATOM     39  C   UNL A   1      40.597  32.887  37.164  1.00  0.00     0.031 A 
BRANCH  26  40
ATOM     40  C   UNL A   1      44.400  28.371  35.256  1.00  0.00    -0.014 A 
ATOM     41  C   UNL A   1      45.618  28.678  34.623  1.00  0.00     0.010 A 
ATOM     42  C   UNL A   1      44.315  27.219  36.058  1.00  0.00     0.010 A 
ATOM     43  C   UNL A   1      46.713  27.817  34.742  1.00  0.00     0.020 A 
ATOM     44  C   UNL A   1      45.415  26.367  36.198  1.00  0.00     0.020 A 
ATOM     45  C   UNL A   1      46.599  26.658  35.517  1.00  0.00     0.054 A 
BRANCH  45  46
ATOM     46  S   UNL A   1      48.017  25.533  35.623  1.00  0.00     0.124 S 
ATOM     47  O   UNL A   1      47.519  24.509  36.538  1.00  0.00    -0.237 OA
ATOM     48  O   UNL A   1      48.193  25.104  34.239  1.00  0.00    -0.237 OA
ATOM     49  O   UNL A   1      49.088  26.375  36.152  1.00  0.00    -0.744 OA
ENDBRANCH  45  46
ENDBRANCH  26  40
BRANCH  27  50
ATOM     50  C   UNL A   1      36.065  33.631  33.190  1.00  0.00    -0.014 A 
ATOM     51  C   UNL A   1      36.167  34.835  32.472  1.00  0.00     0.010 A 
ATOM     52  C   UNL A   1      34.792  33.184  33.591  1.00  0.00     0.010 A 
ATOM     53  C   UNL A   1      35.021  35.582  32.174  1.00  0.00     0.020 A 
ATOM     54  C   UNL A   1      33.642  33.914  33.273  1.00  0.00     0.020 A 
ATOM     55  C   UNL A   1      33.766  35.117  32.577  1.00  0.00     0.054 A 
BRANCH  55  56
ATOM     56  S   UNL A   1      32.290  36.082  32.145  1.00  0.00     0.124 S 
ATOM     57  O   UNL A   1      31.213  35.175  32.526  1.00  0.00    -0.237 OA
ATOM     58  O   UNL A   1      32.439  37.274  32.976  1.00  0.00    -0.237 OA
ATOM     59  O   UNL A   1      32.441  36.310  30.709  1.00  0.00    -0.744 OA
ENDBRANCH  55  56
ENDBRANCH  27  50
BRANCH  39  60
ATOM     60  C   UNL A   1      40.723  33.756  38.382  1.00  0.00    -0.014 A 
ATOM     61  C   UNL A   1      41.408  34.981  38.331  1.00  0.00     0.010 A 
ATOM     62  C   UNL A   1      40.103  33.356  39.579  1.00  0.00     0.010 A 
ATOM     63  C   UNL A   1      41.497  35.783  39.470  1.00  0.00     0.020 A 
ATOM     64  C   UNL A   1      40.168  34.166  40.712  1.00  0.00     0.020 A 
ATOM     65  C   UNL A   1      40.878  35.368  40.654  1.00  0.00     0.054 A 
BRANCH  65  66
ATOM     66  S   UNL A   1      40.966  36.444  42.111  1.00  0.00     0.124 S 
ATOM     67  O   UNL A   1      41.639  35.584  43.079  1.00  0.00    -0.237 OA
ATOM     68  O   UNL A   1      41.748  37.579  41.626  1.00  0.00    -0.237 OA
ATOM     69  O   UNL A   1      39.566  36.740  42.404  1.00  0.00    -0.744 OA
ENDBRANCH  65  66
ENDBRANCH  39  60
ENDBRANCH  13  14
ENDBRANCH   6   8
ENDBRANCH   5   6
ENDBRANCH   4   5
ENDBRANCH   3   4
ENDBRANCH   2   3
ENDBRANCH   1   2
BRANCH   1  70
ATOM     70  C   UNL A   1      35.783  22.649  23.938  1.00  0.00     0.188 C 
BRANCH  70  71
ATOM     71  O   UNL A   1      35.194  23.344  22.840  1.00  0.00    -0.376 OA
BRANCH  71  72
ATOM     72  C   UNL A   1      33.792  23.193  22.647  1.00  0.00     0.202 C 
BRANCH  72  73
ATOM     73  C   UNL A   1      32.969  24.450  22.323  1.00  0.00     0.261 C 
BRANCH  73  74
ATOM     74  O   UNL A   1      33.690  25.514  21.683  1.00  0.00    -0.462 OA
BRANCH  74  75
ATOM     75  C   UNL A   1      33.382  26.772  22.119  1.00  0.00     0.329 C 
ATOM     76  O   UNL A   1      34.041  27.761  21.816  1.00  0.00    -0.250 OA
BRANCH  75  77
ATOM     77  C   UNL A   1      32.087  26.823  22.966  1.00  0.00     0.206 C 
ATOM     78  C   UNL A   1      30.884  27.445  22.251  1.00  0.00     0.108 C 
ATOM     79  N   UNL A   1      32.304  27.523  24.251  1.00  0.00    -0.315 N 
ATOM     80  S   UNL A   1      30.105  28.587  23.422  1.00  0.00    -0.138 SA
ATOM     81  C   UNL A   1      31.607  28.784  24.380  1.00  0.00     0.191 C 
BRANCH  79  82
ATOM     82  C   UNL A   1      32.992  26.883  25.262  1.00  0.00     0.255 C 
ATOM     83  O   UNL A   1      34.049  27.288  25.748  1.00  0.00    -0.269 OA
BRANCH  82  84
ATOM     84  C   UNL A   1      32.451  25.635  25.813  1.00  0.00     0.041 A 
ATOM     85  C   UNL A   1      31.065  25.479  25.940  1.00  0.00     0.014 A 
ATOM     86  C   UNL A   1      33.326  24.589  26.110  1.00  0.00     0.034 A 
ATOM     87  C   UNL A   1      30.552  24.267  26.398  1.00  0.00     0.002 A 
ATOM     88  C   UNL A   1      32.800  23.381  26.558  1.00  0.00     0.041 A 
ATOM     89  C   UNL A   1      31.421  23.217  26.707  1.00  0.00     0.020 A 
ATOM     90  Cl  UNL A   1      33.855  22.070  26.918  1.00  0.00    -0.084 Cl
ENDBRANCH  82  84
ENDBRANCH  79  82
ENDBRANCH  75  77
ENDBRANCH  74  75
ENDBRANCH  73  74
ENDBRANCH  72  73
ENDBRANCH  71  72
ENDBRANCH  70  71
ENDBRANCH   1  70
TORSDOF 22
ENDMDL
MODEL 2
REMARK VINA RESULT:      -9.8      4.528     10.335
REMARK SMILES O=C(OCCOCCOCCOC(=O)[C@@H]1CSCN1C(=O)c1cccc(Cl)c1)c1ccc(-c2c3nc(c(-c4ccc(S(=O)(=O)[O-])cc4)c4ccc([nH]4)c(-c4ccc(S(=O)(=O)[O-])cc4)c4nc(c(-c5ccc(S(=O)(=O)[O-])cc5)c5ccc2[nH]5)C=C4)C=C3)cc1
REMARK SMILES IDX 7 1 6 2 5 3 4 4 3 5 2 6 1 7 29 8 30 9 88 10 31 11 87 12
REMARK SMILES IDX 32 13 33 14 34 15 81 16 35 17 86 18 80 19 82 20 36 21 85 22
REMARK SMILES IDX 79 23 78 24 37 26 67 27 48 28 66 29 49 30 52 31 65 32 83 33
REMARK SMILES IDX 50 34 51 35 64 37 84 38 53 39 38 40 39 41 47 42 40 43 46 44
REMARK SMILES IDX 41 45 42 46 43 47 44 48 45 49 68 50 69 51 77 52 70 53 76 54
REMARK SMILES IDX 71 55 72 56 73 57 74 58 75 59 54 60 55 61 63 62 56 63 62 64
REMARK SMILES IDX 57 65 58 66 59 67 60 68 61 69 8 70 9 71 10 72 11 73 12 74
REMARK SMILES IDX 13 75 14 76 15 77 16 78 19 79 17 80 18 81 20 82 21 83 22 84
REMARK SMILES IDX 23 85 28 86 24 87 26 88 25 89 27 90
REMARK H PARENT 82 25 52 36
REMARK Flexibility Score: inf
ROOT
ATOM      1  C   UNL A   1      30.325  29.661  23.869  1.00  0.00     0.188 C 
ENDROOT
BRANCH   1   2
ATOM      2  O   UNL A   1      30.871  30.409  24.964  1.00  0.00    -0.376 OA
BRANCH   2   3
ATOM      3  C   UNL A   1      31.764  29.643  25.781  1.00  0.00     0.202 C 
BRANCH   3   4
ATOM      4  C   UNL A   1      32.334  30.404  26.987  1.00  0.00     0.261 C 
BRANCH   4   5
ATOM      5  O   UNL A   1      33.770  30.415  26.997  1.00  0.00    -0.460 OA
BRANCH   5   6
ATOM      6  C   UNL A   1      34.603  30.797  27.999  1.00  0.00     0.338 C 
ATOM      7  O   UNL A   1      34.225  31.694  28.753  1.00  0.00    -0.246 OA
BRANCH   6   8
ATOM      8  C   UNL A   1      35.941  30.175  28.270  1.00  0.00     0.060 A 
ATOM      9  C   UNL A   1      36.329  29.566  29.464  1.00  0.00     0.016 A 
ATOM     10  C   UNL A   1      36.864  30.172  27.208  1.00  0.00     0.016 A 
ATOM     11  C   UNL A   1      37.625  29.097  29.651  1.00  0.00     0.010 A 
ATOM     12  C   UNL A   1      38.151  29.643  27.366  1.00  0.00     0.010 A 
ATOM     13  C   UNL A   1      38.552  29.150  28.611  1.00  0.00    -0.014 A 
BRANCH  13  14
ATOM     14  C   UNL A   1      39.958  28.810  28.910  1.00  0.00     0.031 A 
ATOM     15  C   UNL A   1      40.768  29.783  29.713  1.00  0.00     0.074 A 
ATOM     16  C   UNL A   1      40.440  27.592  28.604  1.00  0.00     0.049 A 
ATOM     17  N   UNL A   1      41.978  29.653  30.184  1.00  0.00    -0.248 NA
ATOM     18  C   UNL A   1      40.120  31.062  30.052  1.00  0.00     0.031 C 
ATOM     19  C   UNL A   1      39.681  26.549  27.918  1.00  0.00     0.029 A 
ATOM     20  N   UNL A   1      41.650  27.004  28.855  1.00  0.00    -0.354 N 
ATOM     21  C   UNL A   1      42.238  30.830  30.871  1.00  0.00     0.074 A 
ATOM     22  C   UNL A   1      41.072  31.673  30.738  1.00  0.00     0.031 C 
ATOM     23  C   UNL A   1      40.426  25.437  27.826  1.00  0.00     0.029 A 
ATOM     24  C   UNL A   1      41.735  25.705  28.408  1.00  0.00     0.049 A 
ATOM     25  H   UNL A   1      42.390  27.466  29.312  1.00  0.00     0.167 HD
ATOM     26  C   UNL A   1      43.354  31.175  31.554  1.00  0.00     0.031 A 
ATOM     27  C   UNL A   1      42.760  24.834  28.459  1.00  0.00     0.031 A 
ATOM     28  C   UNL A   1      44.515  30.336  31.643  1.00  0.00     0.049 A 
ATOM     29  C   UNL A   1      44.029  25.285  29.125  1.00  0.00     0.074 A 
ATOM     30  C   UNL A   1      45.728  30.598  32.250  1.00  0.00     0.029 A 
ATOM     31  N   UNL A   1      44.605  29.064  31.091  1.00  0.00    -0.354 N 
ATOM     32  N   UNL A   1      44.272  26.417  29.747  1.00  0.00    -0.248 NA
ATOM     33  C   UNL A   1      45.162  24.353  29.099  1.00  0.00     0.031 C 
ATOM     34  C   UNL A   1      46.568  29.501  32.025  1.00  0.00     0.029 A 
ATOM     35  C   UNL A   1      45.861  28.535  31.323  1.00  0.00     0.049 A 
ATOM     36  H   UNL A   1      43.880  28.607  30.606  1.00  0.00     0.167 HD
ATOM     37  C   UNL A   1      45.578  26.324  30.206  1.00  0.00     0.074 A 
ATOM     38  C   UNL A   1      46.068  25.020  29.801  1.00  0.00     0.031 C 
ATOM     39  C   UNL A   1      46.308  27.231  30.900  1.00  0.00     0.031 A 
BRANCH  26  40
ATOM     40  C   UNL A   1      43.366  32.544  32.173  1.00  0.00    -0.014 A 
ATOM     41  C   UNL A   1      43.850  33.663  31.469  1.00  0.00     0.010 A 
ATOM     42  C   UNL A   1      42.949  32.701  33.506  1.00  0.00     0.010 A 
ATOM     43  C   UNL A   1      43.971  34.900  32.106  1.00  0.00     0.020 A 
ATOM     44  C   UNL A   1      43.048  33.942  34.141  1.00  0.00     0.020 A 
ATOM     45  C   UNL A   1      43.583  35.028  33.445  1.00  0.00     0.054 A 
BRANCH  45  46
ATOM     46  S   UNL A   1      43.788  36.632  34.266  1.00  0.00     0.124 S 
ATOM     47  O   UNL A   1      42.403  37.074  34.411  1.00  0.00    -0.237 OA
ATOM     48  O   UNL A   1      44.466  36.275  35.508  1.00  0.00    -0.237 OA
ATOM     49  O   UNL A   1      44.593  37.404  33.322  1.00  0.00    -0.744 OA
ENDBRANCH  45  46
ENDBRANCH  26  40
BRANCH  27  50
ATOM     50  C   UNL A   1      42.633  23.478  27.852  1.00  0.00    -0.014 A 
ATOM     51  C   UNL A   1      42.015  22.427  28.551  1.00  0.00     0.010 A 
ATOM     52  C   UNL A   1      43.129  23.234  26.558  1.00  0.00     0.010 A 
ATOM     53  C   UNL A   1      41.909  21.156  27.973  1.00  0.00     0.020 A 
ATOM     54  C   UNL A   1      43.001  21.973  25.965  1.00  0.00     0.020 A 
ATOM     55  C   UNL A   1      42.403  20.938  26.684  1.00  0.00     0.054 A 
BRANCH  55  56
ATOM     56  S   UNL A   1      42.217  19.293  25.939  1.00  0.00     0.124 S 
ATOM     57  O   UNL A   1      42.752  18.425  26.983  1.00  0.00    -0.237 OA
ATOM     58  O   UNL A   1      40.776  19.207  25.720  1.00  0.00    -0.237 OA
ATOM     59  O   UNL A   1      43.022  19.377  24.722  1.00  0.00    -0.744 OA
ENDBRANCH  55  56
ENDBRANCH  27  50
BRANCH  39  60
ATOM     60  C   UNL A   1      47.699  26.822  31.290  1.00  0.00    -0.014 A 
ATOM     61  C   UNL A   1      48.808  27.191  30.511  1.00  0.00     0.010 A 
ATOM     62  C   UNL A   1      47.895  26.098  32.479  1.00  0.00     0.010 A 
ATOM     63  C   UNL A   1      50.095  26.816  30.902  1.00  0.00     0.020 A 
ATOM     64  C   UNL A   1      49.181  25.744  32.886  1.00  0.00     0.020 A 
ATOM     65  C   UNL A   1      50.272  26.093  32.086  1.00  0.00     0.054 A 
BRANCH  65  66
ATOM     66  S   UNL A   1      51.954  25.653  32.601  1.00  0.00     0.124 S 
ATOM     67  O   UNL A   1      51.972  26.105  33.988  1.00  0.00    -0.237 OA
ATOM     68  O   UNL A   1      51.981  24.204  32.410  1.00  0.00    -0.237 OA
ATOM     69  O   UNL A   1      52.802  26.411  31.684  1.00  0.00    -0.744 OA
ENDBRANCH  65  66
ENDBRANCH  39  60
ENDBRANCH  13  14
ENDBRANCH   6   8
ENDBRANCH   5   6
ENDBRANCH   4   5
ENDBRANCH   3   4
ENDBRANCH   2   3
ENDBRANCH   1   2
BRANCH   1  70
ATOM     70  C   UNL A   1      31.372  28.738  23.246  1.00  0.00     0.188 C 
BRANCH  70  71
ATOM     71  O   UNL A   1      30.892  27.489  22.749  1.00  0.00    -0.376 OA
BRANCH  71  72
ATOM     72  C   UNL A   1      31.708  26.805  21.803  1.00  0.00     0.202 C 
BRANCH  72  73
ATOM     73  C   UNL A   1      33.233  26.892  21.970  1.00  0.00     0.261 C 
BRANCH  73  74
ATOM     74  O   UNL A   1      33.920  25.633  22.039  1.00  0.00    -0.462 OA
BRANCH  74  75
ATOM     75  C   UNL A   1      34.055  25.109  23.294  1.00  0.00     0.329 C 
ATOM     76  O   UNL A   1      34.177  25.806  24.295  1.00  0.00    -0.250 OA
BRANCH  75  77
ATOM     77  C   UNL A   1      33.966  23.564  23.322  1.00  0.00     0.206 C 
ATOM     78  C   UNL A   1      33.184  22.951  22.157  1.00  0.00     0.108 C 
ATOM     79  N   UNL A   1      33.402  23.073  24.599  1.00  0.00    -0.315 N 
ATOM     80  S   UNL A   1      32.085  21.694  22.861  1.00  0.00    -0.138 SA
ATOM     81  C   UNL A   1      32.101  22.449  24.486  1.00  0.00     0.191 C 
BRANCH  79  82
ATOM     82  C   UNL A   1      34.184  23.092  25.736  1.00  0.00     0.255 C 
ATOM     83  O   UNL A   1      33.772  23.390  26.857  1.00  0.00    -0.269 OA
BRANCH  82  84
ATOM     84  C   UNL A   1      35.604  22.738  25.629  1.00  0.00     0.041 A 
ATOM     85  C   UNL A   1      36.580  23.686  25.958  1.00  0.00     0.014 A 
ATOM     86  C   UNL A   1      35.952  21.429  25.294  1.00  0.00     0.034 A 
ATOM     87  C   UNL A   1      37.925  23.325  25.922  1.00  0.00     0.002 A 
ATOM     88  C   UNL A   1      37.300  21.078  25.271  1.00  0.00     0.041 A 
ATOM     89  C   UNL A   1      38.285  22.019  25.579  1.00  0.00     0.020 A 
ATOM     90  Cl  UNL A   1      37.757  19.467  24.875  1.00  0.00    -0.084 Cl
ENDBRANCH  82  84
ENDBRANCH  79  82
ENDBRANCH  75  77
ENDBRANCH  74  75
ENDBRANCH  73  74
ENDBRANCH  72  73
ENDBRANCH  71  72
ENDBRANCH  70  71
ENDBRANCH   1  70
TORSDOF 22
ENDMDL
MODEL 3
REMARK VINA RESULT:      -9.4      5.094      9.397
REMARK SMILES O=C(OCCOCCOCCOC(=O)[C@@H]1CSCN1C(=O)c1cccc(Cl)c1)c1ccc(-c2c3nc(c(-c4ccc(S(=O)(=O)[O-])cc4)c4ccc([nH]4)c(-c4ccc(S(=O)(=O)[O-])cc4)c4nc(c(-c5ccc(S(=O)(=O)[O-])cc5)c5ccc2[nH]5)C=C4)C=C3)cc1
REMARK SMILES IDX 7 1 6 2 5 3 4 4 3 5 2 6 1 7 29 8 30 9 88 10 31 11 87 12
REMARK SMILES IDX 32 13 33 14 34 15 81 16 35 17 86 18 80 19 82 20 36 21 85 22
REMARK SMILES IDX 79 23 78 24 37 26 67 27 48 28 66 29 49 30 52 31 65 32 83 33
REMARK SMILES IDX 50 34 51 35 64 37 84 38 53 39 38 40 39 41 47 42 40 43 46 44
REMARK SMILES IDX 41 45 42 46 43 47 44 48 45 49 68 50 69 51 77 52 70 53 76 54
REMARK SMILES IDX 71 55 72 56 73 57 74 58 75 59 54 60 55 61 63 62 56 63 62 64
REMARK SMILES IDX 57 65 58 66 59 67 60 68 61 69 8 70 9 71 10 72 11 73 12 74
REMARK SMILES IDX 13 75 14 76 15 77 16 78 19 79 17 80 18 81 20 82 21 83 22 84
REMARK SMILES IDX 23 85 28 86 24 87 26 88 25 89 27 90
REMARK H PARENT 82 25 52 36
REMARK Flexibility Score: inf
ROOT
ATOM      1  C   UNL A   1      33.094  28.234  22.754  1.00  0.00     0.188 C 
ENDROOT
BRANCH   1   2
ATOM      2  O   UNL A   1      33.937  27.967  23.883  1.00  0.00    -0.376 OA
BRANCH   2   3
ATOM      3  C   UNL A   1      33.346  28.345  25.131  1.00  0.00     0.202 C 
BRANCH   3   4
ATOM      4  C   UNL A   1      34.079  27.812  26.370  1.00  0.00     0.261 C 
BRANCH   4   5
ATOM      5  O   UNL A   1      33.901  28.658  27.517  1.00  0.00    -0.460 OA
BRANCH   5   6
ATOM      6  C   UNL A   1      34.623  29.749  27.879  1.00  0.00     0.338 C 
ATOM      7  O   UNL A   1      34.037  30.829  27.957  1.00  0.00    -0.246 OA
BRANCH   6   8
ATOM      8  C   UNL A   1      36.083  29.721  28.223  1.00  0.00     0.060 A 
ATOM      9  C   UNL A   1      37.131  30.018  27.351  1.00  0.00     0.016 A 
ATOM     10  C   UNL A   1      36.414  29.406  29.554  1.00  0.00     0.016 A 
ATOM     11  C   UNL A   1      38.459  29.876  27.737  1.00  0.00     0.010 A 
ATOM     12  C   UNL A   1      37.749  29.323  29.971  1.00  0.00     0.010 A 
ATOM     13  C   UNL A   1      38.778  29.507  29.044  1.00  0.00    -0.014 A 
BRANCH  13  14
ATOM     14  C   UNL A   1      40.188  29.193  29.357  1.00  0.00     0.031 A 
ATOM     15  C   UNL A   1      40.718  27.846  28.968  1.00  0.00     0.074 A 
ATOM     16  C   UNL A   1      41.005  30.150  29.832  1.00  0.00     0.049 A 
ATOM     17  N   UNL A   1      41.938  27.390  29.043  1.00  0.00    -0.248 NA
ATOM     18  C   UNL A   1      39.750  26.895  28.394  1.00  0.00     0.031 C 
ATOM     19  C   UNL A   1      40.591  31.517  30.136  1.00  0.00     0.029 A 
ATOM     20  N   UNL A   1      42.346  30.146  30.106  1.00  0.00    -0.354 N 
ATOM     21  C   UNL A   1      41.886  26.101  28.531  1.00  0.00     0.074 A 
ATOM     22  C   UNL A   1      40.512  25.837  28.169  1.00  0.00     0.031 C 
ATOM     23  C   UNL A   1      41.656  32.234  30.526  1.00  0.00     0.029 A 
ATOM     24  C   UNL A   1      42.823  31.361  30.543  1.00  0.00     0.049 A 
ATOM     25  H   UNL A   1      42.916  29.349  30.000  1.00  0.00     0.167 HD
ATOM     26  C   UNL A   1      42.898  25.218  28.377  1.00  0.00     0.031 A 
ATOM     27  C   UNL A   1      44.064  31.722  30.922  1.00  0.00     0.031 A 
ATOM     28  C   UNL A   1      44.250  25.488  28.777  1.00  0.00     0.049 A 
ATOM     29  C   UNL A   1      45.148  30.684  30.846  1.00  0.00     0.074 A 
ATOM     30  C   UNL A   1      45.350  24.654  28.731  1.00  0.00     0.029 A 
ATOM     31  N   UNL A   1      44.679  26.696  29.312  1.00  0.00    -0.354 N 
ATOM     32  N   UNL A   1      45.077  29.456  30.386  1.00  0.00    -0.248 NA
ATOM     33  C   UNL A   1      46.474  31.072  31.339  1.00  0.00     0.031 C 
ATOM     34  C   UNL A   1      46.436  25.343  29.283  1.00  0.00     0.029 A 
ATOM     35  C   UNL A   1      46.025  26.624  29.622  1.00  0.00     0.049 A 
ATOM     36  H   UNL A   1      44.110  27.488  29.449  1.00  0.00     0.167 HD
ATOM     37  C   UNL A   1      46.355  28.930  30.512  1.00  0.00     0.074 A 
ATOM     38  C   UNL A   1      47.181  29.979  31.080  1.00  0.00     0.031 C 
ATOM     39  C   UNL A   1      46.809  27.694  30.189  1.00  0.00     0.031 A 
BRANCH  26  40
ATOM     40  C   UNL A   1      42.534  23.868  27.824  1.00  0.00    -0.014 A 
ATOM     41  C   UNL A   1      42.123  22.818  28.666  1.00  0.00     0.010 A 
ATOM     42  C   UNL A   1      42.670  23.630  26.445  1.00  0.00     0.010 A 
ATOM     43  C   UNL A   1      41.912  21.538  28.145  1.00  0.00     0.020 A 
ATOM     44  C   UNL A   1      42.439  22.356  25.918  1.00  0.00     0.020 A 
ATOM     45  C   UNL A   1      42.087  21.312  26.776  1.00  0.00     0.054 A 
BRANCH  45  46
ATOM     46  S   UNL A   1      41.850  19.634  26.128  1.00  0.00     0.124 S 
ATOM     47  O   UNL A   1      42.254  18.814  27.268  1.00  0.00    -0.237 OA
ATOM     48  O   UNL A   1      40.425  19.609  25.812  1.00  0.00    -0.237 OA
ATOM     49  O   UNL A   1      42.743  19.579  24.973  1.00  0.00    -0.744 OA
ENDBRANCH  45  46
ENDBRANCH  26  40
BRANCH  27  50
ATOM     50  C   UNL A   1      44.333  33.102  31.415  1.00  0.00    -0.014 A 
ATOM     51  C   UNL A   1      44.851  34.090  30.559  1.00  0.00     0.010 A 
ATOM     52  C   UNL A   1      44.063  33.438  32.755  1.00  0.00     0.010 A 
ATOM     53  C   UNL A   1      45.107  35.380  31.038  1.00  0.00     0.020 A 
ATOM     54  C   UNL A   1      44.292  34.734  33.231  1.00  0.00     0.020 A 
ATOM     55  C   UNL A   1      44.826  35.694  32.370  1.00  0.00     0.054 A 
BRANCH  55  56
ATOM     56  S   UNL A   1      45.127  37.385  32.958  1.00  0.00     0.124 S 
ATOM     57  O   UNL A   1      44.509  37.361  34.280  1.00  0.00    -0.237 OA
ATOM     58  O   UNL A   1      46.585  37.469  32.942  1.00  0.00    -0.237 OA
ATOM     59  O   UNL A   1      44.451  38.216  31.964  1.00  0.00    -0.744 OA
ENDBRANCH  55  56
ENDBRANCH  27  50
BRANCH  39  60
ATOM     60  C   UNL A   1      48.270  27.431  30.413  1.00  0.00    -0.014 A 
ATOM     61  C   UNL A   1      48.721  26.793  31.580  1.00  0.00     0.010 A 
ATOM     62  C   UNL A   1      49.193  27.788  29.415  1.00  0.00     0.010 A 
ATOM     63  C   UNL A   1      50.083  26.542  31.759  1.00  0.00     0.020 A 
ATOM     64  C   UNL A   1      50.551  27.516  29.580  1.00  0.00     0.020 A 
ATOM     65  C   UNL A   1      50.988  26.907  30.758  1.00  0.00     0.054 A 
BRANCH  65  66
ATOM     66  S   UNL A   1      52.747  26.531  30.990  1.00  0.00     0.124 S 
ATOM     67  O   UNL A   1      53.258  27.794  31.514  1.00  0.00    -0.237 OA
ATOM     68  O   UNL A   1      52.717  25.421  31.940  1.00  0.00    -0.237 OA
ATOM     69  O   UNL A   1      53.203  26.180  29.647  1.00  0.00    -0.744 OA
ENDBRANCH  65  66
ENDBRANCH  39  60
ENDBRANCH  13  14
ENDBRANCH   6   8
ENDBRANCH   5   6
ENDBRANCH   4   5
ENDBRANCH   3   4
ENDBRANCH   2   3
ENDBRANCH   1   2
BRANCH   1  70
ATOM     70  C   UNL A   1      32.277  27.003  22.363  1.00  0.00     0.188 C 
BRANCH  70  71
ATOM     71  O   UNL A   1      32.935  25.744  22.499  1.00  0.00    -0.376 OA
BRANCH  71  72
ATOM     72  C   UNL A   1      32.825  24.828  21.414  1.00  0.00     0.202 C 
BRANCH  72  73
ATOM     73  C   UNL A   1      33.181  23.356  21.674  1.00  0.00     0.261 C 
BRANCH  73  74
ATOM     74  O   UNL A   1      33.446  23.015  23.043  1.00  0.00    -0.462 OA
BRANCH  74  75
ATOM     75  C   UNL A   1      32.563  22.137  23.608  1.00  0.00     0.329 C 
ATOM     76  O   UNL A   1      32.344  21.024  23.143  1.00  0.00    -0.250 OA
BRANCH  75  77
ATOM     77  C   UNL A   1      31.932  22.666  24.918  1.00  0.00     0.206 C 
ATOM     78  C   UNL A   1      30.855  23.736  24.718  1.00  0.00     0.108 C 
ATOM     79  N   UNL A   1      32.960  23.178  25.850  1.00  0.00    -0.315 N 
ATOM     80  S   UNL A   1      31.187  25.052  25.918  1.00  0.00    -0.138 SA
ATOM     81  C   UNL A   1      32.916  24.608  26.074  1.00  0.00     0.191 C 
BRANCH  79  82
ATOM     82  C   UNL A   1      33.752  22.284  26.542  1.00  0.00     0.255 C 
ATOM     83  O   UNL A   1      33.383  21.652  27.532  1.00  0.00    -0.269 OA
BRANCH  82  84
ATOM     84  C   UNL A   1      35.129  22.055  26.089  1.00  0.00     0.041 A 
ATOM     85  C   UNL A   1      35.444  20.877  25.401  1.00  0.00     0.014 A 
ATOM     86  C   UNL A   1      36.078  23.063  26.269  1.00  0.00     0.034 A 
ATOM     87  C   UNL A   1      36.736  20.694  24.913  1.00  0.00     0.002 A 
ATOM     88  C   UNL A   1      37.362  22.872  25.767  1.00  0.00     0.041 A 
ATOM     89  C   UNL A   1      37.695  21.693  25.095  1.00  0.00     0.020 A 
ATOM     90  Cl  UNL A   1      38.548  24.103  25.961  1.00  0.00    -0.084 Cl
ENDBRANCH  82  84
ENDBRANCH  79  82
ENDBRANCH  75  77
ENDBRANCH  74  75
ENDBRANCH  73  74
ENDBRANCH  72  73
ENDBRANCH  71  72
ENDBRANCH  70  71
ENDBRANCH   1  70
TORSDOF 22
ENDMDL
