MODEL 1
REMARK VINA RESULT:      -8.0      0.000      0.000
REMARK SMILES CCn1c(CC2CC[NH+](Cc3cn[nH]c3C(=O)OCCOCCOCCOC(=O)c3ccc(-c4c5nc(c(-c6ccc(S(=O)(=O)[O-])cc6)c6ccc([nH]6)c(-c6ccc(S(=O)(=O)[O-])cc6)c6nc(c(-c7ccc(S(=O)(=O)[O-])cc7)c7ccc4[nH]7)C=C6)C=C5)cc3)CC2)nn(C)c1=O
REMARK SMILES IDX 22 1 21 2 20 3 19 4 18 5 16 6 17 7 15 8 11 9 12 10 13 11
REMARK SMILES IDX 14 12 10 14 9 15 6 16 7 17 91 18 8 19 90 20 5 22 4 23 3 24
REMARK SMILES IDX 95 25 92 26 93 27 96 28 94 29 2 30 1 31 23 32 24 33 25 34
REMARK SMILES IDX 26 35 27 36 28 37 29 38 30 39 31 40 89 41 32 42 88 43 33 44
REMARK SMILES IDX 34 45 35 46 82 47 36 48 87 49 81 50 83 51 37 52 86 53 80 54
REMARK SMILES IDX 79 55 38 57 68 58 49 59 67 60 50 61 53 62 66 63 84 64 51 65
REMARK SMILES IDX 52 66 65 68 85 69 54 70 39 71 40 72 48 73 41 74 47 75 42 76
REMARK SMILES IDX 43 77 44 78 45 79 46 80 69 81 70 82 78 83 71 84 77 85 72 86
REMARK SMILES IDX 73 87 74 88 75 89 76 90 55 91 56 92 64 93 57 94 63 95 58 96
REMARK SMILES IDX 59 97 60 98 61 99 62 100
REMARK H PARENT 14 13 9 21 83 56 53 67
REMARK Flexibility Score: inf
ROOT
ATOM      1  C   UNL A   1      35.668  32.562  33.105  1.00  0.00     0.188 C 
ENDROOT
BRANCH   1   2
ATOM      2  O   UNL A   1      36.933  32.811  33.686  1.00  0.00    -0.376 OA
BRANCH   2   3
ATOM      3  C   UNL A   1      37.718  31.740  34.175  1.00  0.00     0.202 C 
BRANCH   3   4
ATOM      4  C   UNL A   1      37.762  31.358  35.674  1.00  0.00     0.261 C 
BRANCH   4   5
ATOM      5  O   UNL A   1      39.045  31.130  36.284  1.00  0.00    -0.459 OA
BRANCH   5   6
ATOM      6  C   UNL A   1      39.459  32.066  37.171  1.00  0.00     0.356 C 
ATOM      7  O   UNL A   1      38.721  32.756  37.861  1.00  0.00    -0.244 OA
BRANCH   6   8
ATOM      8  C   UNL A   1      40.908  32.162  37.218  1.00  0.00     0.152 A 
ATOM      9  C   UNL A   1      41.983  33.319  38.070  1.00  0.00     0.059 A 
ATOM     10  C   UNL A   1      43.739  32.421  38.222  1.00  0.00     0.145 A 
ATOM     11  N   UNL A   1      43.697  30.909  37.352  1.00  0.00    -0.183 NA
ATOM     12  N   UNL A   1      41.939  30.678  36.764  1.00  0.00    -0.271 N 
ATOM     13  H   UNL A   1      41.605  29.886  36.283  1.00  0.00     0.190 HD
BRANCH   9  14
ATOM     14  C   UNL A   1      41.598  34.683  38.622  1.00  0.00     0.303 C 
BRANCH  14  15
ATOM     15  N   UNL A   1      41.486  35.778  37.629  1.00  0.00    -0.331 N 
ATOM     16  C   UNL A   1      41.938  36.438  34.755  1.00  0.00     0.008 C 
ATOM     17  C   UNL A   1      42.824  37.030  35.858  1.00  0.00     0.065 C 
ATOM     18  C   UNL A   1      40.527  36.328  35.325  1.00  0.00     0.065 C 
ATOM     19  C   UNL A   1      42.784  36.288  37.192  1.00  0.00     0.262 C 
ATOM     20  C   UNL A   1      40.475  35.497  36.607  1.00  0.00     0.262 C 
ATOM     21  H   UNL A   1      41.099  36.600  38.092  1.00  0.00     0.348 HD
BRANCH  16  22
ATOM     22  C   UNL A   1      42.435  35.162  34.013  1.00  0.00     0.081 C 
BRANCH  22  23
ATOM     23  C   UNL A   1      42.582  35.207  32.504  1.00  0.00     0.133 A 
ATOM     24  N   UNL A   1      41.750  34.691  31.603  1.00  0.00    -0.279 N 
ATOM     25  C   UNL A   1      42.268  34.860  30.308  1.00  0.00     0.345 A 
ATOM     26  N   UNL A   1      43.602  35.799  32.004  1.00  0.00    -0.155 NA
ATOM     27  N   UNL A   1      43.644  35.577  30.407  1.00  0.00    -0.216 N 
ATOM     28  O   UNL A   1      41.740  34.411  29.289  1.00  0.00    -0.246 OA
ATOM     29  C   UNL A   1      45.242  36.296  29.131  1.00  0.00     0.179 C 
BRANCH  24  30
ATOM     30  C   UNL A   1      40.581  33.847  31.833  1.00  0.00     0.125 C 
ATOM     31  C   UNL A   1      39.219  34.526  31.834  1.00  0.00     0.028 C 
ENDBRANCH  24  30
ENDBRANCH  22  23
ENDBRANCH  16  22
ENDBRANCH  14  15
ENDBRANCH   9  14
ENDBRANCH   6   8
ENDBRANCH   5   6
ENDBRANCH   4   5
ENDBRANCH   3   4
ENDBRANCH   2   3
ENDBRANCH   1   2
BRANCH   1  32
ATOM     32  C   UNL A   1      34.911  33.664  32.337  1.00  0.00     0.188 C 
BRANCH  32  33
ATOM     33  O   UNL A   1      35.440  34.103  31.107  1.00  0.00    -0.376 OA
BRANCH  33  34
ATOM     34  C   UNL A   1      34.666  34.268  29.937  1.00  0.00     0.202 C 
BRANCH  34  35
ATOM     35  C   UNL A   1      35.173  33.989  28.530  1.00  0.00     0.261 C 
BRANCH  35  36
ATOM     36  O   UNL A   1      36.177  33.007  28.426  1.00  0.00    -0.460 OA
BRANCH  36  37
ATOM     37  C   UNL A   1      35.688  31.759  28.259  1.00  0.00     0.338 C 
ATOM     38  O   UNL A   1      34.687  31.419  27.653  1.00  0.00    -0.246 OA
BRANCH  37  39
ATOM     39  C   UNL A   1      36.517  30.853  29.028  1.00  0.00     0.060 A 
ATOM     40  C   UNL A   1      37.265  31.354  30.086  1.00  0.00     0.016 A 
ATOM     41  C   UNL A   1      36.793  29.620  28.460  1.00  0.00     0.016 A 
ATOM     42  C   UNL A   1      38.550  30.873  30.210  1.00  0.00     0.010 A 
ATOM     43  C   UNL A   1      37.940  29.014  28.861  1.00  0.00     0.010 A 
ATOM     44  C   UNL A   1      38.937  29.801  29.403  1.00  0.00    -0.014 A 
BRANCH  44  45
ATOM     45  C   UNL A   1      40.279  29.243  29.426  1.00  0.00     0.031 A 
ATOM     46  C   UNL A   1      40.620  28.958  30.844  1.00  0.00     0.074 A 
ATOM     47  C   UNL A   1      41.019  28.948  28.320  1.00  0.00     0.049 A 
ATOM     48  N   UNL A   1      41.288  29.754  31.611  1.00  0.00    -0.248 NA
ATOM     49  C   UNL A   1      39.863  27.934  31.597  1.00  0.00     0.031 C 
ATOM     50  C   UNL A   1      40.732  29.112  26.884  1.00  0.00     0.029 A 
ATOM     51  N   UNL A   1      42.266  28.375  28.269  1.00  0.00    -0.354 N 
ATOM     52  C   UNL A   1      41.336  29.117  32.841  1.00  0.00     0.074 A 
ATOM     53  C   UNL A   1      40.241  28.191  32.852  1.00  0.00     0.031 C 
ATOM     54  C   UNL A   1      41.638  28.423  26.133  1.00  0.00     0.029 A 
ATOM     55  C   UNL A   1      42.664  27.881  27.008  1.00  0.00     0.049 A 
ATOM     56  H   UNL A   1      42.846  28.312  29.062  1.00  0.00     0.167 HD
ATOM     57  C   UNL A   1      42.493  29.132  33.556  1.00  0.00     0.031 A 
ATOM     58  C   UNL A   1      43.811  27.181  26.713  1.00  0.00     0.031 A 
ATOM     59  C   UNL A   1      43.386  30.143  33.042  1.00  0.00     0.049 A 
ATOM     60  C   UNL A   1      44.766  27.501  27.812  1.00  0.00     0.074 A 
ATOM     61  C   UNL A   1      43.338  31.515  32.920  1.00  0.00     0.029 A 
ATOM     62  N   UNL A   1      44.296  29.695  32.115  1.00  0.00    -0.354 N 
ATOM     63  N   UNL A   1      45.241  28.708  27.970  1.00  0.00    -0.248 NA
ATOM     64  C   UNL A   1      44.664  26.689  29.017  1.00  0.00     0.031 C 
ATOM     65  C   UNL A   1      43.888  31.789  31.632  1.00  0.00     0.029 A 
ATOM     66  C   UNL A   1      44.374  30.599  31.088  1.00  0.00     0.049 A 
ATOM     67  H   UNL A   1      44.812  28.858  32.179  1.00  0.00     0.167 HD
ATOM     68  C   UNL A   1      45.055  28.976  29.318  1.00  0.00     0.074 A 
ATOM     69  C   UNL A   1      44.696  27.681  29.915  1.00  0.00     0.031 C 
ATOM     70  C   UNL A   1      44.856  30.254  29.767  1.00  0.00     0.031 A 
BRANCH  57  71
ATOM     71  C   UNL A   1      43.014  27.928  34.302  1.00  0.00    -0.014 A 
ATOM     72  C   UNL A   1      44.281  27.432  33.940  1.00  0.00     0.010 A 
ATOM     73  C   UNL A   1      42.209  27.103  35.117  1.00  0.00     0.010 A 
ATOM     74  C   UNL A   1      44.703  26.159  34.336  1.00  0.00     0.020 A 
ATOM     75  C   UNL A   1      42.637  25.842  35.545  1.00  0.00     0.020 A 
ATOM     76  C   UNL A   1      43.878  25.372  35.138  1.00  0.00     0.054 A 
BRANCH  76  77
ATOM     77  S   UNL A   1      44.447  23.725  35.626  1.00  0.00     0.124 S 
ATOM     78  O   UNL A   1      44.565  23.859  37.074  1.00  0.00    -0.237 OA
ATOM     79  O   UNL A   1      43.355  22.877  35.156  1.00  0.00    -0.237 OA
ATOM     80  O   UNL A   1      45.706  23.569  34.903  1.00  0.00    -0.744 OA
ENDBRANCH  76  77
ENDBRANCH  57  71
BRANCH  58  81
ATOM     81  C   UNL A   1      43.963  25.911  25.911  1.00  0.00    -0.014 A 
ATOM     82  C   UNL A   1      45.168  25.531  25.261  1.00  0.00     0.010 A 
ATOM     83  C   UNL A   1      42.988  24.908  26.048  1.00  0.00     0.010 A 
ATOM     84  C   UNL A   1      45.393  24.199  24.817  1.00  0.00     0.020 A 
ATOM     85  C   UNL A   1      43.206  23.586  25.622  1.00  0.00     0.020 A 
ATOM     86  C   UNL A   1      44.411  23.226  25.025  1.00  0.00     0.054 A 
BRANCH  86  87
ATOM     87  S   UNL A   1      44.733  21.469  24.632  1.00  0.00     0.124 S 
ATOM     88  O   UNL A   1      43.620  20.787  25.287  1.00  0.00    -0.237 OA
ATOM     89  O   UNL A   1      44.713  21.452  23.172  1.00  0.00    -0.237 OA
ATOM     90  O   UNL A   1      46.044  21.219  25.230  1.00  0.00    -0.744 OA
ENDBRANCH  86  87
ENDBRANCH  58  81
BRANCH  70  91
ATOM     91  C   UNL A   1      45.066  31.406  28.807  1.00  0.00    -0.014 A 
ATOM     92  C   UNL A   1      46.287  32.080  28.577  1.00  0.00     0.010 A 
ATOM     93  C   UNL A   1      43.973  31.715  27.985  1.00  0.00     0.010 A 
ATOM     94  C   UNL A   1      46.383  33.066  27.574  1.00  0.00     0.020 A 
ATOM     95  C   UNL A   1      44.067  32.675  26.978  1.00  0.00     0.020 A 
ATOM     96  C   UNL A   1      45.263  33.362  26.787  1.00  0.00     0.054 A 
BRANCH  96  97
ATOM     97  S   UNL A   1      45.360  34.642  25.501  1.00  0.00     0.124 S 
ATOM     98  O   UNL A   1      46.726  35.133  25.645  1.00  0.00    -0.237 OA
ATOM     99  O   UNL A   1      45.086  33.893  24.276  1.00  0.00    -0.237 OA
ATOM    100  O   UNL A   1      44.318  35.595  25.879  1.00  0.00    -0.744 OA
ENDBRANCH  96  97
ENDBRANCH  70  91
ENDBRANCH  44  45
ENDBRANCH  37  39
ENDBRANCH  36  37
ENDBRANCH  35  36
ENDBRANCH  34  35
ENDBRANCH  33  34
ENDBRANCH  32  33
ENDBRANCH   1  32
TORSDOF 25
ENDMDL
MODEL 2
REMARK VINA RESULT:      -7.9      3.416     11.747
REMARK SMILES CCn1c(CC2CC[NH+](Cc3cn[nH]c3C(=O)OCCOCCOCCOC(=O)c3ccc(-c4c5nc(c(-c6ccc(S(=O)(=O)[O-])cc6)c6ccc([nH]6)c(-c6ccc(S(=O)(=O)[O-])cc6)c6nc(c(-c7ccc(S(=O)(=O)[O-])cc7)c7ccc4[nH]7)C=C6)C=C5)cc3)CC2)nn(C)c1=O
REMARK SMILES IDX 22 1 21 2 20 3 19 4 18 5 16 6 17 7 15 8 11 9 12 10 13 11
REMARK SMILES IDX 14 12 10 14 9 15 6 16 7 17 91 18 8 19 90 20 5 22 4 23 3 24
REMARK SMILES IDX 95 25 92 26 93 27 96 28 94 29 2 30 1 31 23 32 24 33 25 34
REMARK SMILES IDX 26 35 27 36 28 37 29 38 30 39 31 40 89 41 32 42 88 43 33 44
REMARK SMILES IDX 34 45 35 46 82 47 36 48 87 49 81 50 83 51 37 52 86 53 80 54
REMARK SMILES IDX 79 55 38 57 68 58 49 59 67 60 50 61 53 62 66 63 84 64 51 65
REMARK SMILES IDX 52 66 65 68 85 69 54 70 39 71 40 72 48 73 41 74 47 75 42 76
REMARK SMILES IDX 43 77 44 78 45 79 46 80 69 81 70 82 78 83 71 84 77 85 72 86
REMARK SMILES IDX 73 87 74 88 75 89 76 90 55 91 56 92 64 93 57 94 63 95 58 96
REMARK SMILES IDX 59 97 60 98 61 99 62 100
REMARK H PARENT 14 13 9 21 83 56 53 67
REMARK Flexibility Score: inf
ROOT
ATOM      1  C   UNL A   1      45.914  23.240  25.204  1.00  0.00     0.188 C 
ENDROOT
BRANCH   1   2
ATOM      2  O   UNL A   1      45.950  24.530  24.623  1.00  0.00    -0.376 OA
BRANCH   2   3
ATOM      3  C   UNL A   1      45.147  25.571  25.144  1.00  0.00     0.202 C 
BRANCH   3   4
ATOM      4  C   UNL A   1      45.693  26.625  26.137  1.00  0.00     0.261 C 
BRANCH   4   5
ATOM      5  O   UNL A   1      46.631  26.197  27.141  1.00  0.00    -0.459 OA
BRANCH   5   6
ATOM      6  C   UNL A   1      47.931  26.501  26.911  1.00  0.00     0.356 C 
ATOM      7  O   UNL A   1      48.567  26.164  25.922  1.00  0.00    -0.244 OA
BRANCH   6   8
ATOM      8  C   UNL A   1      48.500  27.292  27.988  1.00  0.00     0.152 A 
ATOM      9  C   UNL A   1      48.844  26.874  29.700  1.00  0.00     0.059 A 
ATOM     10  C   UNL A   1      50.202  28.174  30.315  1.00  0.00     0.145 A 
ATOM     11  N   UNL A   1      50.479  29.362  29.067  1.00  0.00    -0.183 NA
ATOM     12  N   UNL A   1      49.489  28.818  27.580  1.00  0.00    -0.271 N 
ATOM     13  H   UNL A   1      49.489  29.271  26.705  1.00  0.00     0.190 HD
BRANCH   9  14
ATOM     14  C   UNL A   1      48.259  25.714  30.489  1.00  0.00     0.303 C 
BRANCH  14  15
ATOM     15  N   UNL A   1      47.248  26.069  31.513  1.00  0.00    -0.331 N 
ATOM     16  C   UNL A   1      46.362  25.450  34.294  1.00  0.00     0.008 C 
ATOM     17  C   UNL A   1      45.524  25.034  33.079  1.00  0.00     0.065 C 
ATOM     18  C   UNL A   1      47.009  26.790  33.953  1.00  0.00     0.065 C 
ATOM     19  C   UNL A   1      46.277  25.004  31.750  1.00  0.00     0.262 C 
ATOM     20  C   UNL A   1      47.847  26.728  32.676  1.00  0.00     0.262 C 
ATOM     21  H   UNL A   1      46.647  26.803  31.138  1.00  0.00     0.348 HD
BRANCH  16  22
ATOM     22  C   UNL A   1      47.332  24.403  34.915  1.00  0.00     0.081 C 
BRANCH  22  23
ATOM     23  C   UNL A   1      46.746  23.224  35.669  1.00  0.00     0.133 A 
ATOM     24  N   UNL A   1      46.551  23.130  36.982  1.00  0.00    -0.279 N 
ATOM     25  C   UNL A   1      46.070  21.853  37.313  1.00  0.00     0.345 A 
ATOM     26  N   UNL A   1      46.386  22.190  35.005  1.00  0.00    -0.155 NA
ATOM     27  N   UNL A   1      45.959  21.005  36.014  1.00  0.00    -0.216 N 
ATOM     28  O   UNL A   1      45.873  21.466  38.467  1.00  0.00    -0.246 OA
ATOM     29  C   UNL A   1      45.379  19.020  35.365  1.00  0.00     0.179 C 
BRANCH  24  30
ATOM     30  C   UNL A   1      46.970  24.062  38.026  1.00  0.00     0.125 C 
ATOM     31  C   UNL A   1      48.298  23.784  38.718  1.00  0.00     0.028 C 
ENDBRANCH  24  30
ENDBRANCH  22  23
ENDBRANCH  16  22
ENDBRANCH  14  15
ENDBRANCH   9  14
ENDBRANCH   6   8
ENDBRANCH   5   6
ENDBRANCH   4   5
ENDBRANCH   3   4
ENDBRANCH   2   3
ENDBRANCH   1   2
BRANCH   1  32
ATOM     32  C   UNL A   1      44.898  22.890  26.309  1.00  0.00     0.188 C 
BRANCH  32  33
ATOM     33  O   UNL A   1      44.452  21.556  26.406  1.00  0.00    -0.376 OA
BRANCH  33  34
ATOM     34  C   UNL A   1      43.387  21.030  25.641  1.00  0.00     0.202 C 
BRANCH  34  35
ATOM     35  C   UNL A   1      41.937  21.005  26.098  1.00  0.00     0.261 C 
BRANCH  35  36
ATOM     36  O   UNL A   1      41.196  22.174  25.841  1.00  0.00    -0.460 OA
BRANCH  36  37
ATOM     37  C   UNL A   1      40.647  22.713  26.950  1.00  0.00     0.338 C 
ATOM     38  O   UNL A   1      40.146  22.134  27.898  1.00  0.00    -0.246 OA
BRANCH  37  39
ATOM     39  C   UNL A   1      40.655  24.153  26.793  1.00  0.00     0.060 A 
ATOM     40  C   UNL A   1      41.866  24.805  26.596  1.00  0.00     0.016 A 
ATOM     41  C   UNL A   1      39.517  24.836  27.192  1.00  0.00     0.016 A 
ATOM     42  C   UNL A   1      42.044  25.987  27.280  1.00  0.00     0.010 A 
ATOM     43  C   UNL A   1      39.688  26.130  27.562  1.00  0.00     0.010 A 
ATOM     44  C   UNL A   1      40.950  26.535  27.954  1.00  0.00    -0.014 A 
BRANCH  44  45
ATOM     45  C   UNL A   1      41.038  27.755  28.737  1.00  0.00     0.031 A 
ATOM     46  C   UNL A   1      42.077  28.613  28.111  1.00  0.00     0.074 A 
ATOM     47  C   UNL A   1      40.224  28.070  29.784  1.00  0.00     0.049 A 
ATOM     48  N   UNL A   1      43.311  28.665  28.492  1.00  0.00    -0.248 NA
ATOM     49  C   UNL A   1      41.873  29.152  26.749  1.00  0.00     0.031 C 
ATOM     50  C   UNL A   1      39.117  27.329  30.415  1.00  0.00     0.029 A 
ATOM     51  N   UNL A   1      40.219  29.222  30.531  1.00  0.00    -0.354 N 
ATOM     52  C   UNL A   1      43.924  29.548  27.617  1.00  0.00     0.074 A 
ATOM     53  C   UNL A   1      43.101  29.580  26.443  1.00  0.00     0.031 C 
ATOM     54  C   UNL A   1      38.406  28.144  31.244  1.00  0.00     0.029 A 
ATOM     55  C   UNL A   1      39.075  29.430  31.332  1.00  0.00     0.049 A 
ATOM     56  H   UNL A   1      40.966  29.863  30.508  1.00  0.00     0.167 HD
ATOM     57  C   UNL A   1      44.818  30.452  28.100  1.00  0.00     0.031 A 
ATOM     58  C   UNL A   1      38.781  30.541  32.089  1.00  0.00     0.031 A 
ATOM     59  C   UNL A   1      45.240  30.079  29.428  1.00  0.00     0.049 A 
ATOM     60  C   UNL A   1      40.087  31.219  32.325  1.00  0.00     0.074 A 
ATOM     61  C   UNL A   1      45.900  28.999  29.975  1.00  0.00     0.029 A 
ATOM     62  N   UNL A   1      44.528  30.664  30.448  1.00  0.00    -0.354 N 
ATOM     63  N   UNL A   1      41.022  30.662  33.047  1.00  0.00    -0.248 NA
ATOM     64  C   UNL A   1      40.540  32.134  31.286  1.00  0.00     0.031 C 
ATOM     65  C   UNL A   1      45.210  28.724  31.192  1.00  0.00     0.029 A 
ATOM     66  C   UNL A   1      44.258  29.722  31.406  1.00  0.00     0.049 A 
ATOM     67  H   UNL A   1      44.256  31.610  30.485  1.00  0.00     0.167 HD
ATOM     68  C   UNL A   1      42.167  30.774  32.273  1.00  0.00     0.074 A 
ATOM     69  C   UNL A   1      41.803  31.702  31.192  1.00  0.00     0.031 C 
ATOM     70  C   UNL A   1      43.176  29.852  32.359  1.00  0.00     0.031 A 
BRANCH  57  71
ATOM     71  C   UNL A   1      44.873  31.885  27.631  1.00  0.00    -0.014 A 
ATOM     72  C   UNL A   1      46.106  32.372  27.158  1.00  0.00     0.010 A 
ATOM     73  C   UNL A   1      43.868  32.839  27.906  1.00  0.00     0.010 A 
ATOM     74  C   UNL A   1      46.337  33.744  27.008  1.00  0.00     0.020 A 
ATOM     75  C   UNL A   1      44.079  34.210  27.728  1.00  0.00     0.020 A 
ATOM     76  C   UNL A   1      45.321  34.654  27.294  1.00  0.00     0.054 A 
BRANCH  76  77
ATOM     77  S   UNL A   1      45.653  36.423  27.102  1.00  0.00     0.124 S 
ATOM     78  O   UNL A   1      44.309  36.972  26.958  1.00  0.00    -0.237 OA
ATOM     79  O   UNL A   1      46.335  36.739  28.354  1.00  0.00    -0.237 OA
ATOM     80  O   UNL A   1      46.491  36.486  25.907  1.00  0.00    -0.744 OA
ENDBRANCH  76  77
ENDBRANCH  57  71
BRANCH  58  81
ATOM     81  C   UNL A   1      37.489  31.318  32.164  1.00  0.00    -0.014 A 
ATOM     82  C   UNL A   1      36.913  31.771  33.381  1.00  0.00     0.010 A 
ATOM     83  C   UNL A   1      36.977  31.887  30.985  1.00  0.00     0.010 A 
ATOM     84  C   UNL A   1      35.909  32.777  33.407  1.00  0.00     0.020 A 
ATOM     85  C   UNL A   1      35.992  32.891  31.001  1.00  0.00     0.020 A 
ATOM     86  C   UNL A   1      35.472  33.349  32.209  1.00  0.00     0.054 A 
BRANCH  86  87
ATOM     87  S   UNL A   1      34.317  34.766  32.212  1.00  0.00     0.124 S 
ATOM     88  O   UNL A   1      33.149  34.225  32.904  1.00  0.00    -0.237 OA
ATOM     89  O   UNL A   1      35.060  35.792  32.938  1.00  0.00    -0.237 OA
ATOM     90  O   UNL A   1      34.113  35.046  30.791  1.00  0.00    -0.744 OA
ENDBRANCH  86  87
ENDBRANCH  58  81
BRANCH  70  91
ATOM     91  C   UNL A   1      43.136  28.828  33.473  1.00  0.00    -0.014 A 
ATOM     92  C   UNL A   1      43.563  29.034  34.805  1.00  0.00     0.010 A 
ATOM     93  C   UNL A   1      42.481  27.625  33.165  1.00  0.00     0.010 A 
ATOM     94  C   UNL A   1      43.370  28.036  35.781  1.00  0.00     0.020 A 
ATOM     95  C   UNL A   1      42.271  26.643  34.132  1.00  0.00     0.020 A 
ATOM     96  C   UNL A   1      42.731  26.840  35.430  1.00  0.00     0.054 A 
BRANCH  96  97
ATOM     97  S   UNL A   1      42.489  25.534  36.671  1.00  0.00     0.124 S 
ATOM     98  O   UNL A   1      42.401  26.290  37.915  1.00  0.00    -0.237 OA
ATOM     99  O   UNL A   1      41.250  24.895  36.232  1.00  0.00    -0.237 OA
ATOM    100  O   UNL A   1      43.684  24.702  36.537  1.00  0.00    -0.744 OA
ENDBRANCH  96  97
ENDBRANCH  70  91
ENDBRANCH  44  45
ENDBRANCH  37  39
ENDBRANCH  36  37
ENDBRANCH  35  36
ENDBRANCH  34  35
ENDBRANCH  33  34
ENDBRANCH  32  33
ENDBRANCH   1  32
TORSDOF 25
ENDMDL
MODEL 3
REMARK VINA RESULT:      -7.7      5.377     11.722
REMARK SMILES CCn1c(CC2CC[NH+](Cc3cn[nH]c3C(=O)OCCOCCOCCOC(=O)c3ccc(-c4c5nc(c(-c6ccc(S(=O)(=O)[O-])cc6)c6ccc([nH]6)c(-c6ccc(S(=O)(=O)[O-])cc6)c6nc(c(-c7ccc(S(=O)(=O)[O-])cc7)c7ccc4[nH]7)C=C6)C=C5)cc3)CC2)nn(C)c1=O
REMARK SMILES IDX 22 1 21 2 20 3 19 4 18 5 16 6 17 7 15 8 11 9 12 10 13 11
REMARK SMILES IDX 14 12 10 14 9 15 6 16 7 17 91 18 8 19 90 20 5 22 4 23 3 24
REMARK SMILES IDX 95 25 92 26 93 27 96 28 94 29 2 30 1 31 23 32 24 33 25 34
REMARK SMILES IDX 26 35 27 36 28 37 29 38 30 39 31 40 89 41 32 42 88 43 33 44
REMARK SMILES IDX 34 45 35 46 82 47 36 48 87 49 81 50 83 51 37 52 86 53 80 54
REMARK SMILES IDX 79 55 38 57 68 58 49 59 67 60 50 61 53 62 66 63 84 64 51 65
REMARK SMILES IDX 52 66 65 68 85 69 54 70 39 71 40 72 48 73 41 74 47 75 42 76
REMARK SMILES IDX 43 77 44 78 45 79 46 80 69 81 70 82 78 83 71 84 77 85 72 86
REMARK SMILES IDX 73 87 74 88 75 89 76 90 55 91 56 92 64 93 57 94 63 95 58 96
REMARK SMILES IDX 59 97 60 98 61 99 62 100
REMARK H PARENT 14 13 9 21 83 56 53 67
REMARK Flexibility Score: inf
ROOT
ATOM      1  C   UNL A   1      34.665  33.343  28.082  1.00  0.00     0.188 C 
ENDROOT
BRANCH   1   2
ATOM      2  O   UNL A   1      34.294  31.980  27.999  1.00  0.00    -0.376 OA
BRANCH   2   3
ATOM      3  C   UNL A   1      33.098  31.605  27.342  1.00  0.00     0.202 C 
BRANCH   3   4
ATOM      4  C   UNL A   1      32.978  30.303  26.513  1.00  0.00     0.261 C 
BRANCH   4   5
ATOM      5  O   UNL A   1      31.839  30.145  25.649  1.00  0.00    -0.459 OA
BRANCH   5   6
ATOM      6  C   UNL A   1      32.036  29.410  24.529  1.00  0.00     0.356 C 
ATOM      7  O   UNL A   1      33.119  28.996  24.141  1.00  0.00    -0.244 OA
BRANCH   6   8
ATOM      8  C   UNL A   1      30.792  29.158  23.822  1.00  0.00     0.152 A 
ATOM      9  C   UNL A   1      29.873  27.638  23.563  1.00  0.00     0.059 A 
ATOM     10  C   UNL A   1      28.020  28.187  23.143  1.00  0.00     0.145 A 
ATOM     11  N   UNL A   1      27.943  29.925  23.007  1.00  0.00    -0.183 NA
ATOM     12  N   UNL A   1      29.628  30.574  23.483  1.00  0.00    -0.271 N 
ATOM     13  H   UNL A   1      29.869  31.527  23.545  1.00  0.00     0.190 HD
BRANCH   9  14
ATOM     14  C   UNL A   1      30.401  26.220  23.707  1.00  0.00     0.303 C 
BRANCH  14  15
ATOM     15  N   UNL A   1      30.909  25.848  25.048  1.00  0.00    -0.331 N 
ATOM     16  C   UNL A   1      32.423  23.739  26.519  1.00  0.00     0.008 C 
ATOM     17  C   UNL A   1      30.918  23.939  26.737  1.00  0.00     0.065 C 
ATOM     18  C   UNL A   1      33.027  25.119  26.278  1.00  0.00     0.065 C 
ATOM     19  C   UNL A   1      30.199  24.714  25.634  1.00  0.00     0.262 C 
ATOM     20  C   UNL A   1      32.373  25.851  25.106  1.00  0.00     0.262 C 
ATOM     21  H   UNL A   1      30.668  26.590  25.705  1.00  0.00     0.348 HD
BRANCH  16  22
ATOM     22  C   UNL A   1      32.883  22.647  25.508  1.00  0.00     0.081 C 
BRANCH  22  23
ATOM     23  C   UNL A   1      34.301  22.703  24.972  1.00  0.00     0.133 A 
ATOM     24  N   UNL A   1      34.674  22.956  23.719  1.00  0.00    -0.279 N 
ATOM     25  C   UNL A   1      36.067  22.835  23.593  1.00  0.00     0.345 A 
ATOM     26  N   UNL A   1      35.271  22.490  25.780  1.00  0.00    -0.155 NA
ATOM     27  N   UNL A   1      36.665  22.427  24.969  1.00  0.00    -0.216 N 
ATOM     28  O   UNL A   1      36.676  22.942  22.526  1.00  0.00    -0.246 OA
ATOM     29  C   UNL A   1      38.576  21.980  25.888  1.00  0.00     0.179 C 
BRANCH  24  30
ATOM     30  C   UNL A   1      33.828  23.105  22.539  1.00  0.00     0.125 C 
ATOM     31  C   UNL A   1      33.395  24.516  22.164  1.00  0.00     0.028 C 
ENDBRANCH  24  30
ENDBRANCH  22  23
ENDBRANCH  16  22
ENDBRANCH  14  15
ENDBRANCH   9  14
ENDBRANCH   6   8
ENDBRANCH   5   6
ENDBRANCH   4   5
ENDBRANCH   3   4
ENDBRANCH   2   3
ENDBRANCH   1   2
BRANCH   1  32
ATOM     32  C   UNL A   1      34.631  34.100  29.425  1.00  0.00     0.188 C 
BRANCH  32  33
ATOM     33  O   UNL A   1      34.116  33.432  30.554  1.00  0.00    -0.376 OA
BRANCH  33  34
ATOM     34  C   UNL A   1      34.866  32.528  31.338  1.00  0.00     0.202 C 
BRANCH  34  35
ATOM     35  C   UNL A   1      36.349  32.255  31.143  1.00  0.00     0.261 C 
BRANCH  35  36
ATOM     36  O   UNL A   1      36.667  31.235  30.226  1.00  0.00    -0.460 OA
BRANCH  36  37
ATOM     37  C   UNL A   1      36.890  30.040  30.812  1.00  0.00     0.338 C 
ATOM     38  O   UNL A   1      36.162  29.429  31.573  1.00  0.00    -0.246 OA
BRANCH  37  39
ATOM     39  C   UNL A   1      38.230  29.618  30.459  1.00  0.00     0.060 A 
ATOM     40  C   UNL A   1      39.140  29.339  31.472  1.00  0.00     0.016 A 
ATOM     41  C   UNL A   1      38.640  29.849  29.156  1.00  0.00     0.016 A 
ATOM     42  C   UNL A   1      40.425  29.796  31.284  1.00  0.00     0.010 A 
ATOM     43  C   UNL A   1      39.976  29.977  28.957  1.00  0.00     0.010 A 
ATOM     44  C   UNL A   1      40.766  30.325  30.036  1.00  0.00    -0.014 A 
BRANCH  44  45
ATOM     45  C   UNL A   1      42.080  30.869  29.745  1.00  0.00     0.031 A 
ATOM     46  C   UNL A   1      42.913  29.763  29.206  1.00  0.00     0.074 A 
ATOM     47  C   UNL A   1      42.421  32.185  29.855  1.00  0.00     0.049 A 
ATOM     48  N   UNL A   1      43.725  29.046  29.911  1.00  0.00    -0.248 NA
ATOM     49  C   UNL A   1      42.564  29.133  27.915  1.00  0.00     0.031 C 
ATOM     50  C   UNL A   1      41.644  33.359  30.291  1.00  0.00     0.029 A 
ATOM     51  N   UNL A   1      43.623  32.773  29.548  1.00  0.00    -0.354 N 
ATOM     52  C   UNL A   1      44.253  28.119  29.027  1.00  0.00     0.074 A 
ATOM     53  C   UNL A   1      43.322  28.034  27.938  1.00  0.00     0.031 C 
ATOM     54  C   UNL A   1      42.299  34.511  29.974  1.00  0.00     0.029 A 
ATOM     55  C   UNL A   1      43.609  34.181  29.442  1.00  0.00     0.049 A 
ATOM     56  H   UNL A   1      44.443  32.246  29.411  1.00  0.00     0.167 HD
ATOM     57  C   UNL A   1      45.577  27.819  29.088  1.00  0.00     0.031 A 
ATOM     58  C   UNL A   1      44.647  34.995  29.052  1.00  0.00     0.031 A 
ATOM     59  C   UNL A   1      46.138  28.277  30.337  1.00  0.00     0.049 A 
ATOM     60  C   UNL A   1      45.886  34.198  29.279  1.00  0.00     0.074 A 
ATOM     61  C   UNL A   1      45.919  27.990  31.668  1.00  0.00     0.029 A 
ATOM     62  N   UNL A   1      46.713  29.524  30.291  1.00  0.00    -0.354 N 
ATOM     63  N   UNL A   1      46.267  33.861  30.482  1.00  0.00    -0.248 NA
ATOM     64  C   UNL A   1      46.283  33.296  28.205  1.00  0.00     0.031 C 
ATOM     65  C   UNL A   1      45.964  29.253  32.328  1.00  0.00     0.029 A 
ATOM     66  C   UNL A   1      46.346  30.230  31.407  1.00  0.00     0.049 A 
ATOM     67  H   UNL A   1      47.297  29.857  29.572  1.00  0.00     0.167 HD
ATOM     68  C   UNL A   1      46.531  32.503  30.392  1.00  0.00     0.074 A 
ATOM     69  C   UNL A   1      46.526  32.212  28.950  1.00  0.00     0.031 C 
ATOM     70  C   UNL A   1      46.376  31.676  31.472  1.00  0.00     0.031 A 
BRANCH  57  71
ATOM     71  C   UNL A   1      46.437  27.635  27.861  1.00  0.00    -0.014 A 
ATOM     72  C   UNL A   1      46.819  28.790  27.152  1.00  0.00     0.010 A 
ATOM     73  C   UNL A   1      46.631  26.393  27.219  1.00  0.00     0.010 A 
ATOM     74  C   UNL A   1      47.330  28.709  25.852  1.00  0.00     0.020 A 
ATOM     75  C   UNL A   1      47.172  26.300  25.933  1.00  0.00     0.020 A 
ATOM     76  C   UNL A   1      47.504  27.463  25.251  1.00  0.00     0.054 A 
BRANCH  76  77
ATOM     77  S   UNL A   1      48.157  27.390  23.565  1.00  0.00     0.124 S 
ATOM     78  O   UNL A   1      49.455  28.040  23.711  1.00  0.00    -0.237 OA
ATOM     79  O   UNL A   1      48.193  25.951  23.318  1.00  0.00    -0.237 OA
ATOM     80  O   UNL A   1      47.169  28.127  22.783  1.00  0.00    -0.744 OA
ENDBRANCH  76  77
ENDBRANCH  57  71
BRANCH  58  81
ATOM     81  C   UNL A   1      44.636  36.127  28.053  1.00  0.00    -0.014 A 
ATOM     82  C   UNL A   1      43.450  36.756  27.590  1.00  0.00     0.010 A 
ATOM     83  C   UNL A   1      45.841  36.800  27.787  1.00  0.00     0.010 A 
ATOM     84  C   UNL A   1      43.476  38.018  26.936  1.00  0.00     0.020 A 
ATOM     85  C   UNL A   1      45.876  38.054  27.150  1.00  0.00     0.020 A 
ATOM     86  C   UNL A   1      44.697  38.671  26.742  1.00  0.00     0.054 A 
BRANCH  86  87
ATOM     87  S   UNL A   1      44.755  40.370  26.069  1.00  0.00     0.124 S 
ATOM     88  O   UNL A   1      45.844  40.292  25.099  1.00  0.00    -0.237 OA
ATOM     89  O   UNL A   1      43.419  40.544  25.506  1.00  0.00    -0.237 OA
ATOM     90  O   UNL A   1      45.038  41.195  27.244  1.00  0.00    -0.744 OA
ENDBRANCH  86  87
ENDBRANCH  58  81
BRANCH  70  91
ATOM     91  C   UNL A   1      46.132  32.292  32.834  1.00  0.00    -0.014 A 
ATOM     92  C   UNL A   1      47.129  32.693  33.752  1.00  0.00     0.010 A 
ATOM     93  C   UNL A   1      44.797  32.611  33.122  1.00  0.00     0.010 A 
ATOM     94  C   UNL A   1      46.778  33.359  34.944  1.00  0.00     0.020 A 
ATOM     95  C   UNL A   1      44.446  33.287  34.290  1.00  0.00     0.020 A 
ATOM     96  C   UNL A   1      45.432  33.642  35.207  1.00  0.00     0.054 A 
BRANCH  96  97
ATOM     97  S   UNL A   1      44.957  34.483  36.746  1.00  0.00     0.124 S 
ATOM     98  O   UNL A   1      45.897  35.598  36.801  1.00  0.00    -0.237 OA
ATOM     99  O   UNL A   1      43.563  34.846  36.500  1.00  0.00    -0.237 OA
ATOM    100  O   UNL A   1      45.149  33.462  37.774  1.00  0.00    -0.744 OA
ENDBRANCH  96  97
ENDBRANCH  70  91
ENDBRANCH  44  45
ENDBRANCH  37  39
ENDBRANCH  36  37
ENDBRANCH  35  36
ENDBRANCH  34  35
ENDBRANCH  33  34
ENDBRANCH  32  33
ENDBRANCH   1  32
TORSDOF 25
ENDMDL
