MODEL 1
REMARK VINA RESULT:      -8.6      0.000      0.000
REMARK SMILES CC[NH2+][C@]1(C(=O)OCCOCCOCCOC(=O)c2ccc(-c3c4nc(c(-c5ccc(S(=O)(=O)[O-])cc5)c5ccc([nH]5)c(-c5ccc(S(=O)(=O)[O-])cc5)c5nc(c(-c6ccc(S(=O)(=O)[O-])cc6)c6ccc3[nH]6)C=C5)C=C4)cc2)CCC[C@H]1CC[N@H+]1CCC[C@@H](CC)C1
REMARK SMILES IDX 11 1 10 2 9 3 8 4 7 5 5 6 6 7 4 8 79 9 82 10 80 11 81 12
REMARK SMILES IDX 3 13 2 16 1 17 83 18 84 19 85 20 86 21 92 22 87 24 89 25
REMARK SMILES IDX 88 26 90 27 91 28 12 29 13 30 14 31 15 32 16 33 17 34 18 35
REMARK SMILES IDX 19 36 20 37 78 38 21 39 77 40 22 41 23 42 24 43 71 44 25 45
REMARK SMILES IDX 76 46 70 47 72 48 26 49 75 50 69 51 68 52 27 54 57 55 38 56
REMARK SMILES IDX 56 57 39 58 42 59 55 60 73 61 40 62 41 63 54 65 74 66 43 67
REMARK SMILES IDX 28 68 29 69 37 70 30 71 36 72 31 73 32 74 33 75 34 76 35 77
REMARK SMILES IDX 58 78 59 79 67 80 60 81 66 82 61 83 62 84 63 85 64 86 65 87
REMARK SMILES IDX 44 88 45 89 53 90 46 91 52 92 47 93 48 94 49 95 50 96 51 97
REMARK H PARENT 3 14 3 15 85 23 72 53 42 64
REMARK Flexibility Score: inf
ROOT
ATOM      1  C   UNL A   1      34.100  29.288  27.093  1.00  0.00     0.188 C 
ENDROOT
BRANCH   1   2
ATOM      2  O   UNL A   1      33.736  29.226  25.720  1.00  0.00    -0.376 OA
BRANCH   2   3
ATOM      3  C   UNL A   1      33.974  27.996  25.061  1.00  0.00     0.202 C 
BRANCH   3   4
ATOM      4  C   UNL A   1      33.205  26.801  25.654  1.00  0.00     0.261 C 
BRANCH   4   5
ATOM      5  O   UNL A   1      33.985  25.642  26.034  1.00  0.00    -0.459 OA
BRANCH   5   6
ATOM      6  C   UNL A   1      33.999  24.638  25.118  1.00  0.00     0.368 C 
ATOM      7  O   UNL A   1      34.781  24.659  24.185  1.00  0.00    -0.245 OA
BRANCH   6   8
ATOM      8  C   UNL A   1      32.991  23.504  25.417  1.00  0.00     0.197 C 
ATOM      9  C   UNL A   1      32.218  23.901  26.689  1.00  0.00     0.081 C 
ATOM     10  C   UNL A   1      31.869  23.386  24.324  1.00  0.00     0.068 C 
ATOM     11  C   UNL A   1      30.859  23.234  26.604  1.00  0.00     0.008 C 
ATOM     12  C   UNL A   1      30.595  22.988  25.126  1.00  0.00     0.011 C 
BRANCH   8  13
ATOM     13  N   UNL A   1      33.755  22.215  25.547  1.00  0.00    -0.332 N 
ATOM     14  H   UNL A   1      34.735  22.455  25.696  1.00  0.00     0.347 HD
ATOM     15  H   UNL A   1      33.303  21.722  26.317  1.00  0.00     0.347 HD
BRANCH  13  16
ATOM     16  C   UNL A   1      33.701  21.275  24.423  1.00  0.00     0.257 C 
ATOM     17  C   UNL A   1      34.483  20.004  24.726  1.00  0.00     0.071 C 
ENDBRANCH  13  16
ENDBRANCH   8  13
BRANCH  10  18
ATOM     18  C   UNL A   1      31.498  24.616  23.432  1.00  0.00     0.072 C 
BRANCH  18  19
ATOM     19  C   UNL A   1      30.269  25.540  23.706  1.00  0.00     0.262 C 
BRANCH  19  20
ATOM     20  N   UNL A   1      30.336  26.990  23.518  1.00  0.00    -0.335 N 
ATOM     21  C   UNL A   1      31.296  27.410  22.495  1.00  0.00     0.262 C 
ATOM     22  C   UNL A   1      29.014  27.593  23.381  1.00  0.00     0.265 C 
ATOM     23  H   UNL A   1      30.722  27.367  24.383  1.00  0.00     0.348 HD
ATOM     24  C   UNL A   1      31.406  28.926  22.389  1.00  0.00     0.062 C 
ATOM     25  C   UNL A   1      29.062  29.121  23.277  1.00  0.00     0.044 C 
ATOM     26  C   UNL A   1      30.039  29.561  22.185  1.00  0.00     0.015 C 
BRANCH  25  27
ATOM     27  C   UNL A   1      27.662  29.734  23.066  1.00  0.00     0.006 C 
ATOM     28  C   UNL A   1      27.556  31.229  23.344  1.00  0.00     0.004 C 
ENDBRANCH  25  27
ENDBRANCH  19  20
ENDBRANCH  18  19
ENDBRANCH  10  18
ENDBRANCH   6   8
ENDBRANCH   5   6
ENDBRANCH   4   5
ENDBRANCH   3   4
ENDBRANCH   2   3
ENDBRANCH   1   2
BRANCH   1  29
ATOM     29  C   UNL A   1      34.111  30.732  27.625  1.00  0.00     0.188 C 
BRANCH  29  30
ATOM     30  O   UNL A   1      35.354  31.421  27.698  1.00  0.00    -0.376 OA
BRANCH  30  31
ATOM     31  C   UNL A   1      35.351  32.795  28.061  1.00  0.00     0.202 C 
BRANCH  31  32
ATOM     32  C   UNL A   1      33.981  33.442  28.270  1.00  0.00     0.261 C 
BRANCH  32  33
ATOM     33  O   UNL A   1      34.036  34.730  28.915  1.00  0.00    -0.460 OA
BRANCH  33  34
ATOM     34  C   UNL A   1      33.496  34.769  30.157  1.00  0.00     0.338 C 
ATOM     35  O   UNL A   1      32.331  35.005  30.435  1.00  0.00    -0.246 OA
BRANCH  34  36
ATOM     36  C   UNL A   1      34.462  34.341  31.193  1.00  0.00     0.060 A 
ATOM     37  C   UNL A   1      35.665  35.053  31.274  1.00  0.00     0.016 A 
ATOM     38  C   UNL A   1      34.297  33.167  31.926  1.00  0.00     0.016 A 
ATOM     39  C   UNL A   1      36.741  34.548  32.002  1.00  0.00     0.010 A 
ATOM     40  C   UNL A   1      35.385  32.652  32.652  1.00  0.00     0.010 A 
ATOM     41  C   UNL A   1      36.632  33.306  32.636  1.00  0.00    -0.014 A 
BRANCH  41  42
ATOM     42  C   UNL A   1      37.876  32.595  33.042  1.00  0.00     0.031 A 
ATOM     43  C   UNL A   1      38.466  32.888  34.397  1.00  0.00     0.074 A 
ATOM     44  C   UNL A   1      38.449  31.650  32.277  1.00  0.00     0.049 A 
ATOM     45  N   UNL A   1      39.546  32.400  34.955  1.00  0.00    -0.248 NA
ATOM     46  C   UNL A   1      37.741  33.857  35.232  1.00  0.00     0.031 C 
ATOM     47  C   UNL A   1      37.959  31.209  30.976  1.00  0.00     0.029 A 
ATOM     48  N   UNL A   1      39.578  30.891  32.489  1.00  0.00    -0.354 N 
ATOM     49  C   UNL A   1      39.641  33.019  36.195  1.00  0.00     0.074 A 
ATOM     50  C   UNL A   1      38.522  33.932  36.297  1.00  0.00     0.031 C 
ATOM     51  C   UNL A   1      38.791  30.267  30.501  1.00  0.00     0.029 A 
ATOM     52  C   UNL A   1      39.884  30.057  31.442  1.00  0.00     0.049 A 
ATOM     53  H   UNL A   1      40.113  30.940  33.314  1.00  0.00     0.167 HD
ATOM     54  C   UNL A   1      40.571  32.848  37.166  1.00  0.00     0.031 A 
ATOM     55  C   UNL A   1      40.928  29.229  31.236  1.00  0.00     0.031 A 
ATOM     56  C   UNL A   1      41.693  31.954  37.072  1.00  0.00     0.049 A 
ATOM     57  C   UNL A   1      41.980  29.087  32.297  1.00  0.00     0.074 A 
ATOM     58  C   UNL A   1      42.688  31.720  38.006  1.00  0.00     0.029 A 
ATOM     59  N   UNL A   1      41.978  31.150  35.978  1.00  0.00    -0.354 N 
ATOM     60  N   UNL A   1      42.057  29.684  33.462  1.00  0.00    -0.248 NA
ATOM     61  C   UNL A   1      43.080  28.152  32.023  1.00  0.00     0.031 C 
ATOM     62  C   UNL A   1      43.600  30.810  37.458  1.00  0.00     0.029 A 
ATOM     63  C   UNL A   1      43.144  30.435  36.206  1.00  0.00     0.049 A 
ATOM     64  H   UNL A   1      41.432  31.096  35.161  1.00  0.00     0.167 HD
ATOM     65  C   UNL A   1      43.203  29.184  34.068  1.00  0.00     0.074 A 
ATOM     66  C   UNL A   1      43.779  28.224  33.148  1.00  0.00     0.031 C 
ATOM     67  C   UNL A   1      43.724  29.493  35.282  1.00  0.00     0.031 A 
BRANCH  54  68
ATOM     68  C   UNL A   1      40.429  33.709  38.391  1.00  0.00    -0.014 A 
ATOM     69  C   UNL A   1      39.627  33.312  39.478  1.00  0.00     0.010 A 
ATOM     70  C   UNL A   1      41.077  34.955  38.436  1.00  0.00     0.010 A 
ATOM     71  C   UNL A   1      39.424  34.177  40.557  1.00  0.00     0.020 A 
ATOM     72  C   UNL A   1      40.900  35.811  39.525  1.00  0.00     0.020 A 
ATOM     73  C   UNL A   1      40.050  35.428  40.565  1.00  0.00     0.054 A 
BRANCH  73  74
ATOM     74  S   UNL A   1      39.743  36.551  41.955  1.00  0.00     0.124 S 
ATOM     75  O   UNL A   1      39.262  37.749  41.270  1.00  0.00    -0.237 OA
ATOM     76  O   UNL A   1      38.740  35.832  42.737  1.00  0.00    -0.237 OA
ATOM     77  O   UNL A   1      41.051  36.679  42.592  1.00  0.00    -0.744 OA
ENDBRANCH  73  74
ENDBRANCH  54  68
BRANCH  55  78
ATOM     78  C   UNL A   1      41.030  28.487  29.948  1.00  0.00    -0.014 A 
ATOM     79  C   UNL A   1      41.786  28.994  28.877  1.00  0.00     0.010 A 
ATOM     80  C   UNL A   1      40.403  27.234  29.809  1.00  0.00     0.010 A 
ATOM     81  C   UNL A   1      41.920  28.258  27.694  1.00  0.00     0.020 A 
ATOM     82  C   UNL A   1      40.555  26.485  28.639  1.00  0.00     0.020 A 
ATOM     83  C   UNL A   1      41.311  27.004  27.586  1.00  0.00     0.054 A 
BRANCH  83  84
ATOM     84  S   UNL A   1      41.575  26.027  26.080  1.00  0.00     0.124 S 
ATOM     85  O   UNL A   1      41.895  27.060  25.100  1.00  0.00    -0.237 OA
ATOM     86  O   UNL A   1      42.682  25.153  26.463  1.00  0.00    -0.237 OA
ATOM     87  O   UNL A   1      40.296  25.350  25.882  1.00  0.00    -0.744 OA
ENDBRANCH  83  84
ENDBRANCH  55  78
BRANCH  67  88
ATOM     88  C   UNL A   1      44.974  28.765  35.701  1.00  0.00    -0.014 A 
ATOM     89  C   UNL A   1      46.214  29.032  35.094  1.00  0.00     0.010 A 
ATOM     90  C   UNL A   1      44.910  27.821  36.742  1.00  0.00     0.010 A 
ATOM     91  C   UNL A   1      47.361  28.338  35.494  1.00  0.00     0.020 A 
ATOM     92  C   UNL A   1      46.058  27.144  37.161  1.00  0.00     0.020 A 
ATOM     93  C   UNL A   1      47.273  27.394  36.522  1.00  0.00     0.054 A 
BRANCH  93  94
ATOM     94  S   UNL A   1      48.777  26.521  37.042  1.00  0.00     0.124 S 
ATOM     95  O   UNL A   1      49.706  26.850  35.964  1.00  0.00    -0.237 OA
ATOM     96  O   UNL A   1      49.074  27.131  38.336  1.00  0.00    -0.237 OA
ATOM     97  O   UNL A   1      48.361  25.121  37.101  1.00  0.00    -0.744 OA
ENDBRANCH  93  94
ENDBRANCH  67  88
ENDBRANCH  41  42
ENDBRANCH  34  36
ENDBRANCH  33  34
ENDBRANCH  32  33
ENDBRANCH  31  32
ENDBRANCH  30  31
ENDBRANCH  29  30
ENDBRANCH   1  29
TORSDOF 26
ENDMDL
MODEL 2
REMARK VINA RESULT:      -7.5      2.595      3.154
REMARK SMILES CC[NH2+][C@]1(C(=O)OCCOCCOCCOC(=O)c2ccc(-c3c4nc(c(-c5ccc(S(=O)(=O)[O-])cc5)c5ccc([nH]5)c(-c5ccc(S(=O)(=O)[O-])cc5)c5nc(c(-c6ccc(S(=O)(=O)[O-])cc6)c6ccc3[nH]6)C=C5)C=C4)cc2)CCC[C@H]1CC[N@H+]1CCC[C@@H](CC)C1
REMARK SMILES IDX 11 1 10 2 9 3 8 4 7 5 5 6 6 7 4 8 79 9 82 10 80 11 81 12
REMARK SMILES IDX 3 13 2 16 1 17 83 18 84 19 85 20 86 21 92 22 87 24 89 25
REMARK SMILES IDX 88 26 90 27 91 28 12 29 13 30 14 31 15 32 16 33 17 34 18 35
REMARK SMILES IDX 19 36 20 37 78 38 21 39 77 40 22 41 23 42 24 43 71 44 25 45
REMARK SMILES IDX 76 46 70 47 72 48 26 49 75 50 69 51 68 52 27 54 57 55 38 56
REMARK SMILES IDX 56 57 39 58 42 59 55 60 73 61 40 62 41 63 54 65 74 66 43 67
REMARK SMILES IDX 28 68 29 69 37 70 30 71 36 72 31 73 32 74 33 75 34 76 35 77
REMARK SMILES IDX 58 78 59 79 67 80 60 81 66 82 61 83 62 84 63 85 64 86 65 87
REMARK SMILES IDX 44 88 45 89 53 90 46 91 52 92 47 93 48 94 49 95 50 96 51 97
REMARK H PARENT 3 14 3 15 85 23 72 53 42 64
REMARK Flexibility Score: inf
ROOT
ATOM      1  C   UNL A   1      33.448  28.430  26.503  1.00  0.00     0.188 C 
ENDROOT
BRANCH   1   2
ATOM      2  O   UNL A   1      33.477  28.769  25.123  1.00  0.00    -0.376 OA
BRANCH   2   3
ATOM      3  C   UNL A   1      34.208  27.901  24.276  1.00  0.00     0.202 C 
BRANCH   3   4
ATOM      4  C   UNL A   1      33.566  26.514  24.087  1.00  0.00     0.261 C 
BRANCH   4   5
ATOM      5  O   UNL A   1      34.408  25.362  24.336  1.00  0.00    -0.459 OA
BRANCH   5   6
ATOM      6  C   UNL A   1      33.972  24.204  23.773  1.00  0.00     0.368 C 
ATOM      7  O   UNL A   1      34.342  23.877  22.660  1.00  0.00    -0.245 OA
BRANCH   6   8
ATOM      8  C   UNL A   1      33.041  23.376  24.688  1.00  0.00     0.197 C 
ATOM      9  C   UNL A   1      32.965  24.102  26.044  1.00  0.00     0.081 C 
ATOM     10  C   UNL A   1      31.552  23.366  24.189  1.00  0.00     0.068 C 
ATOM     11  C   UNL A   1      31.624  23.750  26.657  1.00  0.00     0.008 C 
ATOM     12  C   UNL A   1      30.710  23.374  25.500  1.00  0.00     0.011 C 
BRANCH   8  13
ATOM     13  N   UNL A   1      33.589  21.977  24.776  1.00  0.00    -0.332 N 
ATOM     14  H   UNL A   1      32.823  21.366  25.057  1.00  0.00     0.347 HD
ATOM     15  H   UNL A   1      33.979  21.794  23.851  1.00  0.00     0.347 HD
BRANCH  13  16
ATOM     16  C   UNL A   1      34.702  21.737  25.700  1.00  0.00     0.257 C 
ATOM     17  C   UNL A   1      35.909  21.159  24.975  1.00  0.00     0.071 C 
ENDBRANCH  13  16
ENDBRANCH   8  13
BRANCH  10  18
ATOM     18  C   UNL A   1      31.013  24.518  23.278  1.00  0.00     0.072 C 
BRANCH  18  19
ATOM     19  C   UNL A   1      29.920  25.536  23.731  1.00  0.00     0.262 C 
BRANCH  19  20
ATOM     20  N   UNL A   1      30.054  26.973  23.484  1.00  0.00    -0.335 N 
ATOM     21  C   UNL A   1      30.951  27.301  22.374  1.00  0.00     0.262 C 
ATOM     22  C   UNL A   1      28.762  27.649  23.429  1.00  0.00     0.265 C 
ATOM     23  H   UNL A   1      30.529  27.355  24.302  1.00  0.00     0.348 HD
ATOM     24  C   UNL A   1      31.138  28.804  22.204  1.00  0.00     0.062 C 
ATOM     25  C   UNL A   1      28.888  29.167  23.264  1.00  0.00     0.044 C 
ATOM     26  C   UNL A   1      29.798  29.512  22.084  1.00  0.00     0.015 C 
BRANCH  25  27
ATOM     27  C   UNL A   1      27.512  29.855  23.141  1.00  0.00     0.006 C 
ATOM     28  C   UNL A   1      27.506  31.354  23.418  1.00  0.00     0.004 C 
ENDBRANCH  25  27
ENDBRANCH  19  20
ENDBRANCH  18  19
ENDBRANCH  10  18
ENDBRANCH   6   8
ENDBRANCH   5   6
ENDBRANCH   4   5
ENDBRANCH   3   4
ENDBRANCH   2   3
ENDBRANCH   1   2
BRANCH   1  29
ATOM     29  C   UNL A   1      33.632  29.661  27.407  1.00  0.00     0.188 C 
BRANCH  29  30
ATOM     30  O   UNL A   1      34.937  29.964  27.889  1.00  0.00    -0.376 OA
BRANCH  30  31
ATOM     31  C   UNL A   1      35.260  31.317  28.179  1.00  0.00     0.202 C 
BRANCH  31  32
ATOM     32  C   UNL A   1      34.150  32.345  27.953  1.00  0.00     0.261 C 
BRANCH  32  33
ATOM     33  O   UNL A   1      34.569  33.710  28.155  1.00  0.00    -0.460 OA
BRANCH  33  34
ATOM     34  C   UNL A   1      34.511  34.141  29.437  1.00  0.00     0.338 C 
ATOM     35  O   UNL A   1      33.511  34.507  30.036  1.00  0.00    -0.246 OA
BRANCH  34  36
ATOM     36  C   UNL A   1      35.808  33.989  30.131  1.00  0.00     0.060 A 
ATOM     37  C   UNL A   1      36.964  34.243  29.382  1.00  0.00     0.016 A 
ATOM     38  C   UNL A   1      35.913  33.425  31.403  1.00  0.00     0.016 A 
ATOM     39  C   UNL A   1      38.215  33.845  29.850  1.00  0.00     0.010 A 
ATOM     40  C   UNL A   1      37.173  33.015  31.870  1.00  0.00     0.010 A 
ATOM     41  C   UNL A   1      38.320  33.162  31.066  1.00  0.00    -0.014 A 
BRANCH  41  42
ATOM     42  C   UNL A   1      39.561  32.389  31.351  1.00  0.00     0.031 A 
ATOM     43  C   UNL A   1      40.586  32.985  32.281  1.00  0.00     0.074 A 
ATOM     44  C   UNL A   1      39.766  31.151  30.869  1.00  0.00     0.049 A 
ATOM     45  N   UNL A   1      41.741  32.502  32.662  1.00  0.00    -0.248 NA
ATOM     46  C   UNL A   1      40.261  34.300  32.857  1.00  0.00     0.031 C 
ATOM     47  C   UNL A   1      38.841  30.416  30.016  1.00  0.00     0.029 A 
ATOM     48  N   UNL A   1      40.831  30.294  31.033  1.00  0.00    -0.354 N 
ATOM     49  C   UNL A   1      42.291  33.461  33.503  1.00  0.00     0.074 A 
ATOM     50  C   UNL A   1      41.352  34.561  33.559  1.00  0.00     0.031 C 
ATOM     51  C   UNL A   1      39.385  29.224  29.720  1.00  0.00     0.029 A 
ATOM     52  C   UNL A   1      40.704  29.119  30.333  1.00  0.00     0.049 A 
ATOM     53  H   UNL A   1      41.609  30.503  31.599  1.00  0.00     0.167 HD
ATOM     54  C   UNL A   1      43.469  33.434  34.174  1.00  0.00     0.031 A 
ATOM     55  C   UNL A   1      41.545  28.079  30.174  1.00  0.00     0.031 A 
ATOM     56  C   UNL A   1      44.415  32.354  34.118  1.00  0.00     0.049 A 
ATOM     57  C   UNL A   1      42.870  28.084  30.880  1.00  0.00     0.074 A 
ATOM     58  C   UNL A   1      45.637  32.245  34.761  1.00  0.00     0.029 A 
ATOM     59  N   UNL A   1      44.255  31.196  33.371  1.00  0.00    -0.354 N 
ATOM     60  N   UNL A   1      43.376  29.002  31.668  1.00  0.00    -0.248 NA
ATOM     61  C   UNL A   1      43.733  26.911  30.685  1.00  0.00     0.031 C 
ATOM     62  C   UNL A   1      46.236  31.043  34.365  1.00  0.00     0.029 A 
ATOM     63  C   UNL A   1      45.363  30.377  33.521  1.00  0.00     0.049 A 
ATOM     64  H   UNL A   1      43.469  30.988  32.816  1.00  0.00     0.167 HD
ATOM     65  C   UNL A   1      44.609  28.510  32.079  1.00  0.00     0.074 A 
ATOM     66  C   UNL A   1      44.765  27.206  31.465  1.00  0.00     0.031 C 
ATOM     67  C   UNL A   1      45.524  29.088  32.896  1.00  0.00     0.031 A 
BRANCH  54  68
ATOM     68  C   UNL A   1      43.812  34.660  34.976  1.00  0.00    -0.014 A 
ATOM     69  C   UNL A   1      43.373  34.814  36.305  1.00  0.00     0.010 A 
ATOM     70  C   UNL A   1      44.553  35.692  34.375  1.00  0.00     0.010 A 
ATOM     71  C   UNL A   1      43.611  36.006  36.992  1.00  0.00     0.020 A 
ATOM     72  C   UNL A   1      44.818  36.875  35.069  1.00  0.00     0.020 A 
ATOM     73  C   UNL A   1      44.319  37.035  36.363  1.00  0.00     0.054 A 
BRANCH  73  74
ATOM     74  S   UNL A   1      44.585  38.590  37.258  1.00  0.00     0.124 S 
ATOM     75  O   UNL A   1      45.941  38.411  37.772  1.00  0.00    -0.237 OA
ATOM     76  O   UNL A   1      44.441  39.597  36.209  1.00  0.00    -0.237 OA
ATOM     77  O   UNL A   1      43.530  38.593  38.268  1.00  0.00    -0.744 OA
ENDBRANCH  73  74
ENDBRANCH  54  68
BRANCH  55  78
ATOM     78  C   UNL A   1      41.154  26.951  29.282  1.00  0.00    -0.014 A 
ATOM     79  C   UNL A   1      42.088  26.350  28.421  1.00  0.00     0.010 A 
ATOM     80  C   UNL A   1      39.844  26.438  29.332  1.00  0.00     0.010 A 
ATOM     81  C   UNL A   1      41.722  25.255  27.632  1.00  0.00     0.020 A 
ATOM     82  C   UNL A   1      39.480  25.329  28.564  1.00  0.00     0.020 A 
ATOM     83  C   UNL A   1      40.422  24.745  27.715  1.00  0.00     0.054 A 
BRANCH  83  84
ATOM     84  S   UNL A   1      39.996  23.267  26.753  1.00  0.00     0.124 S 
ATOM     85  O   UNL A   1      41.066  23.230  25.762  1.00  0.00    -0.237 OA
ATOM     86  O   UNL A   1      40.033  22.212  27.765  1.00  0.00    -0.237 OA
ATOM     87  O   UNL A   1      38.666  23.570  26.230  1.00  0.00    -0.744 OA
ENDBRANCH  83  84
ENDBRANCH  55  78
BRANCH  67  88
ATOM     88  C   UNL A   1      46.773  28.303  33.197  1.00  0.00    -0.014 A 
ATOM     89  C   UNL A   1      46.832  27.407  34.278  1.00  0.00     0.010 A 
ATOM     90  C   UNL A   1      47.897  28.444  32.362  1.00  0.00     0.010 A 
ATOM     91  C   UNL A   1      48.006  26.694  34.543  1.00  0.00     0.020 A 
ATOM     92  C   UNL A   1      49.063  27.715  32.609  1.00  0.00     0.020 A 
ATOM     93  C   UNL A   1      49.116  26.858  33.709  1.00  0.00     0.054 A 
BRANCH  93  94
ATOM     94  S   UNL A   1      50.623  25.907  34.057  1.00  0.00     0.124 S 
ATOM     95  O   UNL A   1      51.614  26.965  34.231  1.00  0.00    -0.237 OA
ATOM     96  O   UNL A   1      50.268  25.171  35.269  1.00  0.00    -0.237 OA
ATOM     97  O   UNL A   1      50.794  25.082  32.863  1.00  0.00    -0.744 OA
ENDBRANCH  93  94
ENDBRANCH  67  88
ENDBRANCH  41  42
ENDBRANCH  34  36
ENDBRANCH  33  34
ENDBRANCH  32  33
ENDBRANCH  31  32
ENDBRANCH  30  31
ENDBRANCH  29  30
ENDBRANCH   1  29
TORSDOF 26
ENDMDL
MODEL 3
REMARK VINA RESULT:      -7.4      3.426      4.052
REMARK SMILES CC[NH2+][C@]1(C(=O)OCCOCCOCCOC(=O)c2ccc(-c3c4nc(c(-c5ccc(S(=O)(=O)[O-])cc5)c5ccc([nH]5)c(-c5ccc(S(=O)(=O)[O-])cc5)c5nc(c(-c6ccc(S(=O)(=O)[O-])cc6)c6ccc3[nH]6)C=C5)C=C4)cc2)CCC[C@H]1CC[N@H+]1CCC[C@@H](CC)C1
REMARK SMILES IDX 11 1 10 2 9 3 8 4 7 5 5 6 6 7 4 8 79 9 82 10 80 11 81 12
REMARK SMILES IDX 3 13 2 16 1 17 83 18 84 19 85 20 86 21 92 22 87 24 89 25
REMARK SMILES IDX 88 26 90 27 91 28 12 29 13 30 14 31 15 32 16 33 17 34 18 35
REMARK SMILES IDX 19 36 20 37 78 38 21 39 77 40 22 41 23 42 24 43 71 44 25 45
REMARK SMILES IDX 76 46 70 47 72 48 26 49 75 50 69 51 68 52 27 54 57 55 38 56
REMARK SMILES IDX 56 57 39 58 42 59 55 60 73 61 40 62 41 63 54 65 74 66 43 67
REMARK SMILES IDX 28 68 29 69 37 70 30 71 36 72 31 73 32 74 33 75 34 76 35 77
REMARK SMILES IDX 58 78 59 79 67 80 60 81 66 82 61 83 62 84 63 85 64 86 65 87
REMARK SMILES IDX 44 88 45 89 53 90 46 91 52 92 47 93 48 94 49 95 50 96 51 97
REMARK H PARENT 3 14 3 15 85 23 72 53 42 64
REMARK Flexibility Score: inf
ROOT
ATOM      1  C   UNL A   1      34.183  28.810  26.611  1.00  0.00     0.188 C 
ENDROOT
BRANCH   1   2
ATOM      2  O   UNL A   1      33.814  29.218  25.300  1.00  0.00    -0.376 OA
BRANCH   2   3
ATOM      3  C   UNL A   1      34.119  28.318  24.251  1.00  0.00     0.202 C 
BRANCH   3   4
ATOM      4  C   UNL A   1      33.384  26.967  24.342  1.00  0.00     0.261 C 
BRANCH   4   5
ATOM      5  O   UNL A   1      34.205  25.779  24.440  1.00  0.00    -0.459 OA
BRANCH   5   6
ATOM      6  C   UNL A   1      33.748  24.710  23.735  1.00  0.00     0.368 C 
ATOM      7  O   UNL A   1      34.002  24.593  22.551  1.00  0.00    -0.245 OA
BRANCH   6   8
ATOM      8  C   UNL A   1      32.954  23.692  24.588  1.00  0.00     0.197 C 
ATOM      9  C   UNL A   1      32.757  24.316  25.982  1.00  0.00     0.081 C 
ATOM     10  C   UNL A   1      31.488  23.479  24.066  1.00  0.00     0.068 C 
ATOM     11  C   UNL A   1      31.484  23.723  26.553  1.00  0.00     0.008 C 
ATOM     12  C   UNL A   1      30.648  23.277  25.362  1.00  0.00     0.011 C 
BRANCH   8  13
ATOM     13  N   UNL A   1      33.715  22.395  24.603  1.00  0.00    -0.332 N 
ATOM     14  H   UNL A   1      34.636  22.576  24.204  1.00  0.00     0.347 HD
ATOM     15  H   UNL A   1      33.711  22.104  25.581  1.00  0.00     0.347 HD
BRANCH  13  16
ATOM     16  C   UNL A   1      33.140  21.259  23.877  1.00  0.00     0.257 C 
ATOM     17  C   UNL A   1      32.764  20.128  24.824  1.00  0.00     0.071 C 
ENDBRANCH  13  16
ENDBRANCH   8  13
BRANCH  10  18
ATOM     18  C   UNL A   1      30.780  24.584  23.214  1.00  0.00     0.072 C 
BRANCH  18  19
ATOM     19  C   UNL A   1      29.847  25.677  23.825  1.00  0.00     0.262 C 
BRANCH  19  20
ATOM     20  N   UNL A   1      30.016  27.098  23.514  1.00  0.00    -0.335 N 
ATOM     21  C   UNL A   1      30.892  27.351  22.369  1.00  0.00     0.262 C 
ATOM     22  C   UNL A   1      28.744  27.810  23.464  1.00  0.00     0.265 C 
ATOM     23  H   UNL A   1      30.525  27.498  24.302  1.00  0.00     0.348 HD
ATOM     24  C   UNL A   1      31.119  28.840  22.130  1.00  0.00     0.062 C 
ATOM     25  C   UNL A   1      28.910  29.315  23.231  1.00  0.00     0.044 C 
ATOM     26  C   UNL A   1      29.798  29.583  22.014  1.00  0.00     0.015 C 
BRANCH  25  27
ATOM     27  C   UNL A   1      27.552  30.039  23.115  1.00  0.00     0.006 C 
ATOM     28  C   UNL A   1      27.593  31.544  23.356  1.00  0.00     0.004 C 
ENDBRANCH  25  27
ENDBRANCH  19  20
ENDBRANCH  18  19
ENDBRANCH  10  18
ENDBRANCH   6   8
ENDBRANCH   5   6
ENDBRANCH   4   5
ENDBRANCH   3   4
ENDBRANCH   2   3
ENDBRANCH   1   2
BRANCH   1  29
ATOM     29  C   UNL A   1      34.499  30.008  27.524  1.00  0.00     0.188 C 
BRANCH  29  30
ATOM     30  O   UNL A   1      35.696  29.981  28.294  1.00  0.00    -0.376 OA
BRANCH  30  31
ATOM     31  C   UNL A   1      35.980  31.079  29.150  1.00  0.00     0.202 C 
BRANCH  31  32
ATOM     32  C   UNL A   1      34.938  32.198  29.192  1.00  0.00     0.261 C 
BRANCH  32  33
ATOM     33  O   UNL A   1      35.247  33.246  30.132  1.00  0.00    -0.460 OA
BRANCH  33  34
ATOM     34  C   UNL A   1      34.945  32.963  31.422  1.00  0.00     0.338 C 
ATOM     35  O   UNL A   1      33.921  32.436  31.830  1.00  0.00    -0.246 OA
BRANCH  34  36
ATOM     36  C   UNL A   1      36.082  33.234  32.328  1.00  0.00     0.060 A 
ATOM     37  C   UNL A   1      36.812  34.407  32.099  1.00  0.00     0.016 A 
ATOM     38  C   UNL A   1      36.552  32.288  33.239  1.00  0.00     0.016 A 
ATOM     39  C   UNL A   1      38.057  34.596  32.697  1.00  0.00     0.010 A 
ATOM     40  C   UNL A   1      37.811  32.474  33.834  1.00  0.00     0.010 A 
ATOM     41  C   UNL A   1      38.599  33.597  33.512  1.00  0.00    -0.014 A 
BRANCH  41  42
ATOM     42  C   UNL A   1      40.061  33.615  33.796  1.00  0.00     0.031 A 
ATOM     43  C   UNL A   1      40.537  34.220  35.091  1.00  0.00     0.074 A 
ATOM     44  C   UNL A   1      40.962  33.047  32.977  1.00  0.00     0.049 A 
ATOM     45  N   UNL A   1      41.758  34.358  35.543  1.00  0.00    -0.248 NA
ATOM     46  C   UNL A   1      39.497  34.737  35.994  1.00  0.00     0.031 C 
ATOM     47  C   UNL A   1      40.650  32.365  31.726  1.00  0.00     0.029 A 
ATOM     48  N   UNL A   1      42.332  32.958  33.080  1.00  0.00    -0.354 N 
ATOM     49  C   UNL A   1      41.635  34.995  36.771  1.00  0.00     0.074 A 
ATOM     50  C   UNL A   1      40.223  35.236  36.981  1.00  0.00     0.031 C 
ATOM     51  C   UNL A   1      41.799  31.941  31.171  1.00  0.00     0.029 A 
ATOM     52  C   UNL A   1      42.925  32.342  32.005  1.00  0.00     0.049 A 
ATOM     53  H   UNL A   1      42.838  33.302  33.850  1.00  0.00     0.167 HD
ATOM     54  C   UNL A   1      42.604  35.350  37.650  1.00  0.00     0.031 A 
ATOM     55  C   UNL A   1      44.220  32.133  31.698  1.00  0.00     0.031 A 
ATOM     56  C   UNL A   1      44.010  35.128  37.447  1.00  0.00     0.049 A 
ATOM     57  C   UNL A   1      45.288  32.578  32.655  1.00  0.00     0.074 A 
ATOM     58  C   UNL A   1      45.063  35.460  38.283  1.00  0.00     0.029 A 
ATOM     59  N   UNL A   1      44.565  34.526  36.328  1.00  0.00    -0.354 N 
ATOM     60  N   UNL A   1      45.154  33.184  33.811  1.00  0.00    -0.248 NA
ATOM     61  C   UNL A   1      46.680  32.301  32.275  1.00  0.00     0.031 C 
ATOM     62  C   UNL A   1      46.258  35.100  37.648  1.00  0.00     0.029 A 
ATOM     63  C   UNL A   1      45.946  34.494  36.443  1.00  0.00     0.049 A 
ATOM     64  H   UNL A   1      44.053  34.172  35.566  1.00  0.00     0.167 HD
ATOM     65  C   UNL A   1      46.443  33.346  34.305  1.00  0.00     0.074 A 
ATOM     66  C   UNL A   1      47.342  32.759  33.331  1.00  0.00     0.031 C 
ATOM     67  C   UNL A   1      46.840  33.925  35.465  1.00  0.00     0.031 A 
BRANCH  54  68
ATOM     68  C   UNL A   1      42.155  36.080  38.886  1.00  0.00    -0.014 A 
ATOM     69  C   UNL A   1      42.104  37.485  38.932  1.00  0.00     0.010 A 
ATOM     70  C   UNL A   1      41.817  35.344  40.036  1.00  0.00     0.010 A 
ATOM     71  C   UNL A   1      41.788  38.141  40.125  1.00  0.00     0.020 A 
ATOM     72  C   UNL A   1      41.474  35.995  41.222  1.00  0.00     0.020 A 
ATOM     73  C   UNL A   1      41.491  37.390  41.267  1.00  0.00     0.054 A 
BRANCH  73  74
ATOM     74  S   UNL A   1      41.122  38.259  42.815  1.00  0.00     0.124 S 
ATOM     75  O   UNL A   1      42.231  37.835  43.667  1.00  0.00    -0.237 OA
ATOM     76  O   UNL A   1      41.144  39.664  42.411  1.00  0.00    -0.237 OA
ATOM     77  O   UNL A   1      39.810  37.745  43.196  1.00  0.00    -0.744 OA
ENDBRANCH  73  74
ENDBRANCH  54  68
BRANCH  55  78
ATOM     78  C   UNL A   1      44.571  31.484  30.403  1.00  0.00    -0.014 A 
ATOM     79  C   UNL A   1      44.686  32.238  29.222  1.00  0.00     0.010 A 
ATOM     80  C   UNL A   1      44.842  30.104  30.361  1.00  0.00     0.010 A 
ATOM     81  C   UNL A   1      45.072  31.625  28.026  1.00  0.00     0.020 A 
ATOM     82  C   UNL A   1      45.252  29.492  29.174  1.00  0.00     0.020 A 
ATOM     83  C   UNL A   1      45.362  30.256  28.011  1.00  0.00     0.054 A 
BRANCH  83  84
ATOM     84  S   UNL A   1      45.951  29.501  26.470  1.00  0.00     0.124 S 
ATOM     85  O   UNL A   1      46.973  28.578  26.954  1.00  0.00    -0.237 OA
ATOM     86  O   UNL A   1      44.738  28.880  25.941  1.00  0.00    -0.237 OA
ATOM     87  O   UNL A   1      46.447  30.638  25.699  1.00  0.00    -0.744 OA
ENDBRANCH  83  84
ENDBRANCH  55  78
BRANCH  67  88
ATOM     88  C   UNL A   1      48.316  33.933  35.762  1.00  0.00    -0.014 A 
ATOM     89  C   UNL A   1      48.935  32.861  36.428  1.00  0.00     0.010 A 
ATOM     90  C   UNL A   1      49.102  35.020  35.337  1.00  0.00     0.010 A 
ATOM     91  C   UNL A   1      50.306  32.893  36.699  1.00  0.00     0.020 A 
ATOM     92  C   UNL A   1      50.477  35.045  35.585  1.00  0.00     0.020 A 
ATOM     93  C   UNL A   1      51.067  33.989  36.281  1.00  0.00     0.054 A 
BRANCH  93  94
ATOM     94  S   UNL A   1      52.850  34.002  36.622  1.00  0.00     0.124 S 
ATOM     95  O   UNL A   1      52.926  34.867  37.796  1.00  0.00    -0.237 OA
ATOM     96  O   UNL A   1      53.143  32.591  36.862  1.00  0.00    -0.237 OA
ATOM     97  O   UNL A   1      53.432  34.554  35.401  1.00  0.00    -0.744 OA
ENDBRANCH  93  94
ENDBRANCH  67  88
ENDBRANCH  41  42
ENDBRANCH  34  36
ENDBRANCH  33  34
ENDBRANCH  32  33
ENDBRANCH  31  32
ENDBRANCH  30  31
ENDBRANCH  29  30
ENDBRANCH   1  29
TORSDOF 26
ENDMDL
