MODEL 1
REMARK VINA RESULT:     -10.0      0.000      0.000
REMARK SMILES CCc1noc(C)c1C(=O)Nc1cc(Cl)ccc1C(=O)OCCOCCOCCOC(=O)c1ccc(-c2c3nc(c(-c4ccc(S(=O)(=O)[O-])cc4)c4ccc([nH]4)c(-c4ccc(S(=O)(=O)[O-])cc4)c4nc(c(-c5ccc(S(=O)(=O)[O-])cc5)c5ccc2[nH]5)C=C4)C=C3)cc1
REMARK SMILES IDX 25 1 24 2 23 3 22 4 21 5 19 6 20 7 18 8 12 9 13 10 14 11
REMARK SMILES IDX 17 12 15 13 16 14 11 15 9 16 10 17 8 19 3 20 4 21 5 22 6 23
REMARK SMILES IDX 7 24 2 25 1 26 26 27 27 28 28 29 29 30 30 31 31 32 32 33
REMARK SMILES IDX 33 34 34 35 92 36 35 37 91 38 36 39 37 40 38 41 85 42 39 43
REMARK SMILES IDX 90 44 84 45 86 46 40 47 89 48 83 49 82 50 41 52 71 53 52 54
REMARK SMILES IDX 70 55 53 56 56 57 69 58 87 59 54 60 55 61 68 63 88 64 57 65
REMARK SMILES IDX 42 66 43 67 51 68 44 69 50 70 45 71 46 72 47 73 48 74 49 75
REMARK SMILES IDX 72 76 73 77 81 78 74 79 80 80 75 81 76 82 77 83 78 84 79 85
REMARK SMILES IDX 58 86 59 87 67 88 60 89 66 90 61 91 62 92 63 93 64 94 65 95
REMARK H PARENT 11 18 86 51 56 62
REMARK Flexibility Score: inf
ROOT
ATOM      1  C   UNL A   1      31.917  28.968  26.577  1.00  0.00     0.188 C 
ENDROOT
BRANCH   1   2
ATOM      2  O   UNL A   1      31.771  27.987  25.579  1.00  0.00    -0.376 OA
BRANCH   2   3
ATOM      3  C   UNL A   1      30.811  28.123  24.548  1.00  0.00     0.202 C 
BRANCH   3   4
ATOM      4  C   UNL A   1      30.610  27.148  23.373  1.00  0.00     0.261 C 
BRANCH   4   5
ATOM      5  O   UNL A   1      31.066  25.800  23.536  1.00  0.00    -0.460 OA
BRANCH   5   6
ATOM      6  C   UNL A   1      31.955  25.372  22.605  1.00  0.00     0.340 C 
ATOM      7  O   UNL A   1      31.898  25.599  21.407  1.00  0.00    -0.246 OA
BRANCH   6   8
ATOM      8  C   UNL A   1      33.116  24.664  23.219  1.00  0.00     0.083 A 
ATOM      9  C   UNL A   1      33.539  23.352  22.901  1.00  0.00     0.057 A 
ATOM     10  C   UNL A   1      34.785  22.924  23.362  1.00  0.00     0.047 A 
ATOM     11  C   UNL A   1      35.486  23.687  24.304  1.00  0.00     0.043 A 
ATOM     12  C   UNL A   1      33.802  25.394  24.205  1.00  0.00     0.019 A 
ATOM     13  Cl  UNL A   1      36.979  23.107  24.930  1.00  0.00    -0.084 Cl
ATOM     14  C   UNL A   1      34.965  24.886  24.777  1.00  0.00     0.021 A 
BRANCH   9  15
ATOM     15  N   UNL A   1      32.699  22.517  22.151  1.00  0.00    -0.321 N 
ATOM     16  C   UNL A   1      32.213  21.232  22.245  1.00  0.00     0.261 C 
ATOM     17  O   UNL A   1      31.698  20.843  21.194  1.00  0.00    -0.269 OA
ATOM     18  H   UNL A   1      32.369  22.969  21.342  1.00  0.00     0.170 HD
BRANCH  16  19
ATOM     19  C   UNL A   1      32.214  20.385  23.438  1.00  0.00     0.105 A 
ATOM     20  C   UNL A   1      32.130  20.815  24.826  1.00  0.00     0.096 A 
ATOM     21  N   UNL A   1      32.066  19.757  25.647  1.00  0.00    -0.084 NA
ATOM     22  O   UNL A   1      32.289  18.659  24.879  1.00  0.00    -0.361 OA
ATOM     23  C   UNL A   1      32.474  19.024  23.587  1.00  0.00     0.146 A 
ATOM     24  C   UNL A   1      32.939  17.883  22.776  1.00  0.00     0.092 C 
BRANCH  20  25
ATOM     25  C   UNL A   1      32.114  22.129  25.556  1.00  0.00     0.057 C 
ATOM     26  C   UNL A   1      32.706  22.252  26.939  1.00  0.00     0.011 C 
ENDBRANCH  20  25
ENDBRANCH  16  19
ENDBRANCH   9  15
ENDBRANCH   6   8
ENDBRANCH   5   6
ENDBRANCH   4   5
ENDBRANCH   3   4
ENDBRANCH   2   3
ENDBRANCH   1   2
BRANCH   1  27
ATOM     27  C   UNL A   1      32.280  30.402  26.152  1.00  0.00     0.188 C 
BRANCH  27  28
ATOM     28  O   UNL A   1      31.337  31.438  26.299  1.00  0.00    -0.376 OA
BRANCH  28  29
ATOM     29  C   UNL A   1      31.714  32.671  26.888  1.00  0.00     0.202 C 
BRANCH  29  30
ATOM     30  C   UNL A   1      33.027  32.937  27.650  1.00  0.00     0.261 C 
BRANCH  30  31
ATOM     31  O   UNL A   1      33.519  34.278  27.698  1.00  0.00    -0.460 OA
BRANCH  31  32
ATOM     32  C   UNL A   1      33.472  34.872  28.915  1.00  0.00     0.338 C 
ATOM     33  O   UNL A   1      32.602  35.620  29.340  1.00  0.00    -0.246 OA
BRANCH  32  34
ATOM     34  C   UNL A   1      34.555  34.326  29.748  1.00  0.00     0.060 A 
ATOM     35  C   UNL A   1      35.874  34.367  29.270  1.00  0.00     0.016 A 
ATOM     36  C   UNL A   1      34.263  33.757  30.986  1.00  0.00     0.016 A 
ATOM     37  C   UNL A   1      36.910  33.830  30.034  1.00  0.00     0.010 A 
ATOM     38  C   UNL A   1      35.298  33.196  31.736  1.00  0.00     0.010 A 
ATOM     39  C   UNL A   1      36.620  33.210  31.255  1.00  0.00    -0.014 A 
BRANCH  39  40
ATOM     40  C   UNL A   1      37.648  32.416  31.968  1.00  0.00     0.031 A 
ATOM     41  C   UNL A   1      38.136  32.919  33.298  1.00  0.00     0.074 A 
ATOM     42  C   UNL A   1      38.176  31.306  31.425  1.00  0.00     0.049 A 
ATOM     43  N   UNL A   1      39.141  32.505  34.022  1.00  0.00    -0.248 NA
ATOM     44  C   UNL A   1      37.393  34.048  33.882  1.00  0.00     0.031 C 
ATOM     45  C   UNL A   1      37.747  30.687  30.172  1.00  0.00     0.029 A 
ATOM     46  N   UNL A   1      39.215  30.517  31.853  1.00  0.00    -0.354 N 
ATOM     47  C   UNL A   1      39.169  33.337  35.135  1.00  0.00     0.074 A 
ATOM     48  C   UNL A   1      38.091  34.289  34.981  1.00  0.00     0.031 C 
ATOM     49  C   UNL A   1      38.534  29.626  29.920  1.00  0.00     0.029 A 
ATOM     50  C   UNL A   1      39.552  29.524  30.965  1.00  0.00     0.049 A 
ATOM     51  H   UNL A   1      39.674  30.650  32.714  1.00  0.00     0.167 HD
ATOM     52  C   UNL A   1      40.020  33.313  36.187  1.00  0.00     0.031 A 
ATOM     53  C   UNL A   1      40.589  28.660  30.973  1.00  0.00     0.031 A 
ATOM     54  C   UNL A   1      41.105  32.377  36.319  1.00  0.00     0.049 A 
ATOM     55  C   UNL A   1      41.583  28.711  32.108  1.00  0.00     0.074 A 
ATOM     56  C   UNL A   1      42.022  32.265  37.349  1.00  0.00     0.029 A 
ATOM     57  N   UNL A   1      41.424  31.400  35.389  1.00  0.00    -0.354 N 
ATOM     58  N   UNL A   1      41.597  29.498  33.158  1.00  0.00    -0.248 NA
ATOM     59  C   UNL A   1      42.698  27.754  32.059  1.00  0.00     0.031 C 
ATOM     60  C   UNL A   1      42.936  31.263  37.010  1.00  0.00     0.029 A 
ATOM     61  C   UNL A   1      42.540  30.696  35.809  1.00  0.00     0.049 A 
ATOM     62  H   UNL A   1      40.931  31.231  34.554  1.00  0.00     0.167 HD
ATOM     63  C   UNL A   1      42.696  29.102  33.914  1.00  0.00     0.074 A 
ATOM     64  C   UNL A   1      43.321  28.007  33.204  1.00  0.00     0.031 C 
ATOM     65  C   UNL A   1      43.142  29.595  35.097  1.00  0.00     0.031 A 
BRANCH  52  66
ATOM     66  C   UNL A   1      39.839  34.361  37.254  1.00  0.00    -0.014 A 
ATOM     67  C   UNL A   1      40.312  35.674  37.079  1.00  0.00     0.010 A 
ATOM     68  C   UNL A   1      39.157  34.032  38.440  1.00  0.00     0.010 A 
ATOM     69  C   UNL A   1      40.141  36.627  38.087  1.00  0.00     0.020 A 
ATOM     70  C   UNL A   1      38.956  34.991  39.437  1.00  0.00     0.020 A 
ATOM     71  C   UNL A   1      39.467  36.278  39.260  1.00  0.00     0.054 A 
BRANCH  71  72
ATOM     72  S   UNL A   1      39.243  37.542  40.542  1.00  0.00     0.124 S 
ATOM     73  O   UNL A   1      38.231  38.406  39.938  1.00  0.00    -0.237 OA
ATOM     74  O   UNL A   1      38.795  36.758  41.689  1.00  0.00    -0.237 OA
ATOM     75  O   UNL A   1      40.569  38.139  40.677  1.00  0.00    -0.744 OA
ENDBRANCH  71  72
ENDBRANCH  52  66
BRANCH  53  76
ATOM     76  C   UNL A   1      40.758  27.685  29.859  1.00  0.00    -0.014 A 
ATOM     77  C   UNL A   1      39.766  26.725  29.593  1.00  0.00     0.010 A 
ATOM     78  C   UNL A   1      41.915  27.709  29.057  1.00  0.00     0.010 A 
ATOM     79  C   UNL A   1      39.934  25.799  28.559  1.00  0.00     0.020 A 
ATOM     80  C   UNL A   1      42.072  26.806  28.002  1.00  0.00     0.020 A 
ATOM     81  C   UNL A   1      41.084  25.849  27.766  1.00  0.00     0.054 A 
BRANCH  81  82
ATOM     82  S   UNL A   1      41.250  24.671  26.397  1.00  0.00     0.124 S 
ATOM     83  O   UNL A   1      39.856  24.395  26.062  1.00  0.00    -0.237 OA
ATOM     84  O   UNL A   1      41.998  25.444  25.409  1.00  0.00    -0.237 OA
ATOM     85  O   UNL A   1      41.984  23.556  26.991  1.00  0.00    -0.744 OA
ENDBRANCH  81  82
ENDBRANCH  53  76
BRANCH  65  86
ATOM     86  C   UNL A   1      44.322  28.918  35.747  1.00  0.00    -0.014 A 
ATOM     87  C   UNL A   1      45.631  29.408  35.598  1.00  0.00     0.010 A 
ATOM     88  C   UNL A   1      44.096  27.819  36.597  1.00  0.00     0.010 A 
ATOM     89  C   UNL A   1      46.694  28.799  36.273  1.00  0.00     0.020 A 
ATOM     90  C   UNL A   1      45.149  27.228  37.297  1.00  0.00     0.020 A 
ATOM     91  C   UNL A   1      46.445  27.717  37.124  1.00  0.00     0.054 A 
BRANCH  91  92
ATOM     92  S   UNL A   1      47.830  26.991  38.043  1.00  0.00     0.124 S 
ATOM     93  O   UNL A   1      47.341  27.039  39.419  1.00  0.00    -0.237 OA
ATOM     94  O   UNL A   1      47.934  25.655  37.460  1.00  0.00    -0.237 OA
ATOM     95  O   UNL A   1      48.949  27.881  37.749  1.00  0.00    -0.744 OA
ENDBRANCH  91  92
ENDBRANCH  65  86
ENDBRANCH  39  40
ENDBRANCH  32  34
ENDBRANCH  31  32
ENDBRANCH  30  31
ENDBRANCH  29  30
ENDBRANCH  28  29
ENDBRANCH  27  28
ENDBRANCH   1  27
TORSDOF 23
ENDMDL
MODEL 2
REMARK VINA RESULT:     -10.0      6.173     10.618
REMARK SMILES CCc1noc(C)c1C(=O)Nc1cc(Cl)ccc1C(=O)OCCOCCOCCOC(=O)c1ccc(-c2c3nc(c(-c4ccc(S(=O)(=O)[O-])cc4)c4ccc([nH]4)c(-c4ccc(S(=O)(=O)[O-])cc4)c4nc(c(-c5ccc(S(=O)(=O)[O-])cc5)c5ccc2[nH]5)C=C4)C=C3)cc1
REMARK SMILES IDX 25 1 24 2 23 3 22 4 21 5 19 6 20 7 18 8 12 9 13 10 14 11
REMARK SMILES IDX 17 12 15 13 16 14 11 15 9 16 10 17 8 19 3 20 4 21 5 22 6 23
REMARK SMILES IDX 7 24 2 25 1 26 26 27 27 28 28 29 29 30 30 31 31 32 32 33
REMARK SMILES IDX 33 34 34 35 92 36 35 37 91 38 36 39 37 40 38 41 85 42 39 43
REMARK SMILES IDX 90 44 84 45 86 46 40 47 89 48 83 49 82 50 41 52 71 53 52 54
REMARK SMILES IDX 70 55 53 56 56 57 69 58 87 59 54 60 55 61 68 63 88 64 57 65
REMARK SMILES IDX 42 66 43 67 51 68 44 69 50 70 45 71 46 72 47 73 48 74 49 75
REMARK SMILES IDX 72 76 73 77 81 78 74 79 80 80 75 81 76 82 77 83 78 84 79 85
REMARK SMILES IDX 58 86 59 87 67 88 60 89 66 90 61 91 62 92 63 93 64 94 65 95
REMARK H PARENT 11 18 86 51 56 62
REMARK Flexibility Score: inf
ROOT
ATOM      1  C   UNL A   1      32.121  29.260  27.274  1.00  0.00     0.188 C 
ENDROOT
BRANCH   1   2
ATOM      2  O   UNL A   1      31.894  28.358  26.218  1.00  0.00    -0.376 OA
BRANCH   2   3
ATOM      3  C   UNL A   1      32.755  28.307  25.096  1.00  0.00     0.202 C 
BRANCH   3   4
ATOM      4  C   UNL A   1      32.822  27.163  24.066  1.00  0.00     0.261 C 
BRANCH   4   5
ATOM      5  O   UNL A   1      33.434  25.933  24.471  1.00  0.00    -0.460 OA
BRANCH   5   6
ATOM      6  C   UNL A   1      33.887  25.149  23.461  1.00  0.00     0.340 C 
ATOM      7  O   UNL A   1      33.740  25.368  22.269  1.00  0.00    -0.246 OA
BRANCH   6   8
ATOM      8  C   UNL A   1      34.710  24.009  23.959  1.00  0.00     0.083 A 
ATOM      9  C   UNL A   1      34.507  22.647  23.635  1.00  0.00     0.057 A 
ATOM     10  C   UNL A   1      35.505  21.728  23.963  1.00  0.00     0.047 A 
ATOM     11  C   UNL A   1      36.566  22.110  24.793  1.00  0.00     0.043 A 
ATOM     12  C   UNL A   1      35.749  24.366  24.835  1.00  0.00     0.019 A 
ATOM     13  Cl  UNL A   1      37.744  20.946  25.260  1.00  0.00    -0.084 Cl
ATOM     14  C   UNL A   1      36.653  23.407  25.285  1.00  0.00     0.021 A 
BRANCH   9  15
ATOM     15  N   UNL A   1      33.313  22.254  23.014  1.00  0.00    -0.321 N 
ATOM     16  C   UNL A   1      32.513  21.133  22.988  1.00  0.00     0.261 C 
ATOM     17  O   UNL A   1      31.680  21.168  22.079  1.00  0.00    -0.269 OA
ATOM     18  H   UNL A   1      32.949  22.970  22.445  1.00  0.00     0.170 HD
BRANCH  16  19
ATOM     19  C   UNL A   1      32.545  20.018  23.933  1.00  0.00     0.105 A 
ATOM     20  C   UNL A   1      32.598  20.093  25.386  1.00  0.00     0.096 A 
ATOM     21  N   UNL A   1      32.523  18.868  25.927  1.00  0.00    -0.084 NA
ATOM     22  O   UNL A   1      32.609  17.986  24.898  1.00  0.00    -0.361 OA
ATOM     23  C   UNL A   1      32.719  18.651  23.722  1.00  0.00     0.146 A 
ATOM     24  C   UNL A   1      33.039  17.726  22.619  1.00  0.00     0.092 C 
BRANCH  20  25
ATOM     25  C   UNL A   1      32.730  21.183  26.412  1.00  0.00     0.057 C 
ATOM     26  C   UNL A   1      32.078  22.529  26.198  1.00  0.00     0.011 C 
ENDBRANCH  20  25
ENDBRANCH  16  19
ENDBRANCH   9  15
ENDBRANCH   6   8
ENDBRANCH   5   6
ENDBRANCH   4   5
ENDBRANCH   3   4
ENDBRANCH   2   3
ENDBRANCH   1   2
BRANCH   1  27
ATOM     27  C   UNL A   1      33.384  30.138  27.232  1.00  0.00     0.188 C 
BRANCH  27  28
ATOM     28  O   UNL A   1      33.297  31.508  27.546  1.00  0.00    -0.376 OA
BRANCH  28  29
ATOM     29  C   UNL A   1      34.394  32.177  28.145  1.00  0.00     0.202 C 
BRANCH  29  30
ATOM     30  C   UNL A   1      35.883  31.855  27.903  1.00  0.00     0.261 C 
BRANCH  30  31
ATOM     31  O   UNL A   1      36.766  31.866  29.026  1.00  0.00    -0.460 OA
BRANCH  31  32
ATOM     32  C   UNL A   1      36.955  30.668  29.630  1.00  0.00     0.338 C 
ATOM     33  O   UNL A   1      36.140  30.031  30.283  1.00  0.00    -0.246 OA
BRANCH  32  34
ATOM     34  C   UNL A   1      38.265  30.136  29.221  1.00  0.00     0.060 A 
ATOM     35  C   UNL A   1      39.304  30.075  30.162  1.00  0.00     0.016 A 
ATOM     36  C   UNL A   1      38.469  29.720  27.907  1.00  0.00     0.016 A 
ATOM     37  C   UNL A   1      40.560  29.598  29.786  1.00  0.00     0.010 A 
ATOM     38  C   UNL A   1      39.734  29.269  27.526  1.00  0.00     0.010 A 
ATOM     39  C   UNL A   1      40.789  29.227  28.456  1.00  0.00    -0.014 A 
BRANCH  39  40
ATOM     40  C   UNL A   1      42.161  28.956  27.967  1.00  0.00     0.031 A 
ATOM     41  C   UNL A   1      42.527  27.538  27.629  1.00  0.00     0.074 A 
ATOM     42  C   UNL A   1      43.077  29.936  27.876  1.00  0.00     0.049 A 
ATOM     43  N   UNL A   1      43.698  27.027  27.355  1.00  0.00    -0.248 NA
ATOM     44  C   UNL A   1      41.421  26.565  27.608  1.00  0.00     0.031 C 
ATOM     45  C   UNL A   1      42.829  31.355  28.118  1.00  0.00     0.029 A 
ATOM     46  N   UNL A   1      44.417  29.872  27.580  1.00  0.00    -0.354 N 
ATOM     47  C   UNL A   1      43.476  25.669  27.155  1.00  0.00     0.074 A 
ATOM     48  C   UNL A   1      42.062  25.435  27.355  1.00  0.00     0.031 C 
ATOM     49  C   UNL A   1      43.987  32.027  27.985  1.00  0.00     0.029 A 
ATOM     50  C   UNL A   1      45.063  31.079  27.700  1.00  0.00     0.049 A 
ATOM     51  H   UNL A   1      44.870  29.042  27.308  1.00  0.00     0.167 HD
ATOM     52  C   UNL A   1      44.371  24.705  26.838  1.00  0.00     0.031 A 
ATOM     53  C   UNL A   1      46.378  31.376  27.630  1.00  0.00     0.031 A 
ATOM     54  C   UNL A   1      45.779  24.944  26.665  1.00  0.00     0.049 A 
ATOM     55  C   UNL A   1      47.371  30.271  27.370  1.00  0.00     0.074 A 
ATOM     56  C   UNL A   1      46.771  24.036  26.339  1.00  0.00     0.029 A 
ATOM     57  N   UNL A   1      46.396  26.177  26.814  1.00  0.00    -0.354 N 
ATOM     58  N   UNL A   1      47.151  28.991  27.176  1.00  0.00    -0.248 NA
ATOM     59  C   UNL A   1      48.790  30.651  27.316  1.00  0.00     0.031 C 
ATOM     60  C   UNL A   1      47.997  24.708  26.355  1.00  0.00     0.029 A 
ATOM     61  C   UNL A   1      47.760  26.049  26.610  1.00  0.00     0.049 A 
ATOM     62  H   UNL A   1      45.934  27.017  27.032  1.00  0.00     0.167 HD
ATOM     63  C   UNL A   1      48.398  28.424  26.935  1.00  0.00     0.074 A 
ATOM     64  C   UNL A   1      49.367  29.497  27.006  1.00  0.00     0.031 C 
ATOM     65  C   UNL A   1      48.712  27.131  26.668  1.00  0.00     0.031 A 
BRANCH  52  66
ATOM     66  C   UNL A   1      43.858  23.295  26.706  1.00  0.00    -0.014 A 
ATOM     67  C   UNL A   1      43.296  22.614  27.800  1.00  0.00     0.010 A 
ATOM     68  C   UNL A   1      43.914  22.651  25.455  1.00  0.00     0.010 A 
ATOM     69  C   UNL A   1      42.836  21.302  27.656  1.00  0.00     0.020 A 
ATOM     70  C   UNL A   1      43.425  21.351  25.300  1.00  0.00     0.020 A 
ATOM     71  C   UNL A   1      42.906  20.678  26.407  1.00  0.00     0.054 A 
BRANCH  71  72
ATOM     72  S   UNL A   1      42.283  18.983  26.247  1.00  0.00     0.124 S 
ATOM     73  O   UNL A   1      40.924  19.208  25.758  1.00  0.00    -0.237 OA
ATOM     74  O   UNL A   1      43.207  18.393  25.283  1.00  0.00    -0.237 OA
ATOM     75  O   UNL A   1      42.375  18.449  27.603  1.00  0.00    -0.744 OA
ENDBRANCH  71  72
ENDBRANCH  52  66
BRANCH  53  76
ATOM     76  C   UNL A   1      46.837  32.779  27.833  1.00  0.00    -0.014 A 
ATOM     77  C   UNL A   1      47.099  33.265  29.125  1.00  0.00     0.010 A 
ATOM     78  C   UNL A   1      47.014  33.639  26.732  1.00  0.00     0.010 A 
ATOM     79  C   UNL A   1      47.513  34.588  29.316  1.00  0.00     0.020 A 
ATOM     80  C   UNL A   1      47.458  34.952  26.916  1.00  0.00     0.020 A 
ATOM     81  C   UNL A   1      47.695  35.421  28.209  1.00  0.00     0.054 A 
BRANCH  81  82
ATOM     82  S   UNL A   1      48.285  37.115  28.480  1.00  0.00     0.124 S 
ATOM     83  O   UNL A   1      49.718  36.911  28.670  1.00  0.00    -0.237 OA
ATOM     84  O   UNL A   1      47.899  37.783  27.240  1.00  0.00    -0.237 OA
ATOM     85  O   UNL A   1      47.551  37.547  29.666  1.00  0.00    -0.744 OA
ENDBRANCH  81  82
ENDBRANCH  53  76
BRANCH  65  86
ATOM     86  C   UNL A   1      50.150  26.800  26.361  1.00  0.00    -0.014 A 
ATOM     87  C   UNL A   1      51.052  26.410  27.366  1.00  0.00     0.010 A 
ATOM     88  C   UNL A   1      50.577  26.795  25.019  1.00  0.00     0.010 A 
ATOM     89  C   UNL A   1      52.360  26.040  27.037  1.00  0.00     0.020 A 
ATOM     90  C   UNL A   1      51.872  26.396  24.682  1.00  0.00     0.020 A 
ATOM     91  C   UNL A   1      52.760  26.028  25.696  1.00  0.00     0.054 A 
BRANCH  91  92
ATOM     92  S   UNL A   1      54.438  25.476  25.289  1.00  0.00     0.124 S 
ATOM     93  O   UNL A   1      54.706  26.201  24.050  1.00  0.00    -0.237 OA
ATOM     94  O   UNL A   1      55.209  25.912  26.451  1.00  0.00    -0.237 OA
ATOM     95  O   UNL A   1      54.304  24.028  25.145  1.00  0.00    -0.744 OA
ENDBRANCH  91  92
ENDBRANCH  65  86
ENDBRANCH  39  40
ENDBRANCH  32  34
ENDBRANCH  31  32
ENDBRANCH  30  31
ENDBRANCH  29  30
ENDBRANCH  28  29
ENDBRANCH  27  28
ENDBRANCH   1  27
TORSDOF 23
ENDMDL
MODEL 3
REMARK VINA RESULT:      -9.0      6.141     11.563
REMARK SMILES CCc1noc(C)c1C(=O)Nc1cc(Cl)ccc1C(=O)OCCOCCOCCOC(=O)c1ccc(-c2c3nc(c(-c4ccc(S(=O)(=O)[O-])cc4)c4ccc([nH]4)c(-c4ccc(S(=O)(=O)[O-])cc4)c4nc(c(-c5ccc(S(=O)(=O)[O-])cc5)c5ccc2[nH]5)C=C4)C=C3)cc1
REMARK SMILES IDX 25 1 24 2 23 3 22 4 21 5 19 6 20 7 18 8 12 9 13 10 14 11
REMARK SMILES IDX 17 12 15 13 16 14 11 15 9 16 10 17 8 19 3 20 4 21 5 22 6 23
REMARK SMILES IDX 7 24 2 25 1 26 26 27 27 28 28 29 29 30 30 31 31 32 32 33
REMARK SMILES IDX 33 34 34 35 92 36 35 37 91 38 36 39 37 40 38 41 85 42 39 43
REMARK SMILES IDX 90 44 84 45 86 46 40 47 89 48 83 49 82 50 41 52 71 53 52 54
REMARK SMILES IDX 70 55 53 56 56 57 69 58 87 59 54 60 55 61 68 63 88 64 57 65
REMARK SMILES IDX 42 66 43 67 51 68 44 69 50 70 45 71 46 72 47 73 48 74 49 75
REMARK SMILES IDX 72 76 73 77 81 78 74 79 80 80 75 81 76 82 77 83 78 84 79 85
REMARK SMILES IDX 58 86 59 87 67 88 60 89 66 90 61 91 62 92 63 93 64 94 65 95
REMARK H PARENT 11 18 86 51 56 62
REMARK Flexibility Score: inf
ROOT
ATOM      1  C   UNL A   1      37.435  22.775  25.998  1.00  0.00     0.188 C 
ENDROOT
BRANCH   1   2
ATOM      2  O   UNL A   1      36.544  23.569  25.253  1.00  0.00    -0.376 OA
BRANCH   2   3
ATOM      3  C   UNL A   1      35.861  23.049  24.127  1.00  0.00     0.202 C 
BRANCH   3   4
ATOM      4  C   UNL A   1      35.173  23.883  23.029  1.00  0.00     0.261 C 
BRANCH   4   5
ATOM      5  O   UNL A   1      33.878  24.424  23.312  1.00  0.00    -0.460 OA
BRANCH   5   6
ATOM      6  C   UNL A   1      33.724  25.741  23.027  1.00  0.00     0.340 C 
ATOM      7  O   UNL A   1      34.044  26.286  21.982  1.00  0.00    -0.246 OA
BRANCH   6   8
ATOM      8  C   UNL A   1      32.996  26.470  24.106  1.00  0.00     0.083 A 
ATOM      9  C   UNL A   1      31.711  26.138  24.597  1.00  0.00     0.057 A 
ATOM     10  C   UNL A   1      31.271  26.744  25.775  1.00  0.00     0.047 A 
ATOM     11  C   UNL A   1      31.986  27.817  26.322  1.00  0.00     0.043 A 
ATOM     12  C   UNL A   1      33.673  27.582  24.633  1.00  0.00     0.019 A 
ATOM     13  Cl  UNL A   1      31.388  28.611  27.726  1.00  0.00    -0.084 Cl
ATOM     14  C   UNL A   1      33.147  28.281  25.715  1.00  0.00     0.021 A 
BRANCH   9  15
ATOM     15  N   UNL A   1      30.912  25.231  23.887  1.00  0.00    -0.321 N 
ATOM     16  C   UNL A   1      30.756  23.865  23.821  1.00  0.00     0.261 C 
ATOM     17  O   UNL A   1      30.091  23.511  22.844  1.00  0.00    -0.269 OA
ATOM     18  H   UNL A   1      30.300  25.694  23.271  1.00  0.00     0.170 HD
BRANCH  16  19
ATOM     19  C   UNL A   1      31.238  22.885  24.795  1.00  0.00     0.105 A 
ATOM     20  C   UNL A   1      32.055  21.709  24.533  1.00  0.00     0.096 A 
ATOM     21  N   UNL A   1      32.380  21.093  25.679  1.00  0.00    -0.084 NA
ATOM     22  O   UNL A   1      31.666  21.702  26.661  1.00  0.00    -0.361 OA
ATOM     23  C   UNL A   1      30.913  22.701  26.137  1.00  0.00     0.146 A 
ATOM     24  C   UNL A   1      29.965  23.227  27.137  1.00  0.00     0.092 C 
BRANCH  20  25
ATOM     25  C   UNL A   1      32.600  21.015  23.316  1.00  0.00     0.057 C 
ATOM     26  C   UNL A   1      31.862  21.070  22.000  1.00  0.00     0.011 C 
ENDBRANCH  20  25
ENDBRANCH  16  19
ENDBRANCH   9  15
ENDBRANCH   6   8
ENDBRANCH   5   6
ENDBRANCH   4   5
ENDBRANCH   3   4
ENDBRANCH   2   3
ENDBRANCH   1   2
BRANCH   1  27
ATOM     27  C   UNL A   1      38.014  21.508  25.345  1.00  0.00     0.188 C 
BRANCH  27  28
ATOM     28  O   UNL A   1      39.285  21.038  25.729  1.00  0.00    -0.376 OA
BRANCH  28  29
ATOM     29  C   UNL A   1      39.529  19.646  25.845  1.00  0.00     0.202 C 
BRANCH  29  30
ATOM     30  C   UNL A   1      40.917  18.985  25.963  1.00  0.00     0.261 C 
BRANCH  30  31
ATOM     31  O   UNL A   1      41.952  19.707  26.634  1.00  0.00    -0.460 OA
BRANCH  31  32
ATOM     32  C   UNL A   1      42.921  20.214  25.834  1.00  0.00     0.338 C 
ATOM     33  O   UNL A   1      43.494  19.647  24.914  1.00  0.00    -0.246 OA
BRANCH  32  34
ATOM     34  C   UNL A   1      43.061  21.651  26.119  1.00  0.00     0.060 A 
ATOM     35  C   UNL A   1      42.902  22.575  25.075  1.00  0.00     0.016 A 
ATOM     36  C   UNL A   1      43.368  22.080  27.409  1.00  0.00     0.016 A 
ATOM     37  C   UNL A   1      43.056  23.940  25.320  1.00  0.00     0.010 A 
ATOM     38  C   UNL A   1      43.549  23.444  27.646  1.00  0.00     0.010 A 
ATOM     39  C   UNL A   1      43.415  24.376  26.601  1.00  0.00    -0.014 A 
BRANCH  39  40
ATOM     40  C   UNL A   1      43.829  25.779  26.838  1.00  0.00     0.031 A 
ATOM     41  C   UNL A   1      45.245  26.165  26.513  1.00  0.00     0.074 A 
ATOM     42  C   UNL A   1      42.985  26.675  27.379  1.00  0.00     0.049 A 
ATOM     43  N   UNL A   1      45.888  27.268  26.794  1.00  0.00    -0.248 NA
ATOM     44  C   UNL A   1      46.044  25.166  25.784  1.00  0.00     0.031 C 
ATOM     45  C   UNL A   1      41.575  26.439  27.682  1.00  0.00     0.029 A 
ATOM     46  N   UNL A   1      43.209  27.964  27.796  1.00  0.00    -0.354 N 
ATOM     47  C   UNL A   1      47.174  27.087  26.299  1.00  0.00     0.074 A 
ATOM     48  C   UNL A   1      47.224  25.764  25.716  1.00  0.00     0.031 C 
ATOM     49  C   UNL A   1      41.065  27.541  28.260  1.00  0.00     0.029 A 
ATOM     50  C   UNL A   1      42.124  28.537  28.414  1.00  0.00     0.049 A 
ATOM     51  H   UNL A   1      44.065  28.432  27.664  1.00  0.00     0.167 HD
ATOM     52  C   UNL A   1      48.220  27.945  26.331  1.00  0.00     0.031 A 
ATOM     53  C   UNL A   1      42.011  29.713  29.067  1.00  0.00     0.031 A 
ATOM     54  C   UNL A   1      48.167  29.250  26.935  1.00  0.00     0.049 A 
ATOM     55  C   UNL A   1      43.216  30.615  29.176  1.00  0.00     0.074 A 
ATOM     56  C   UNL A   1      49.171  30.199  27.017  1.00  0.00     0.029 A 
ATOM     57  N   UNL A   1      47.056  29.785  27.567  1.00  0.00    -0.354 N 
ATOM     58  N   UNL A   1      44.426  30.438  28.699  1.00  0.00    -0.248 NA
ATOM     59  C   UNL A   1      43.038  31.878  29.907  1.00  0.00     0.031 C 
ATOM     60  C   UNL A   1      48.685  31.282  27.757  1.00  0.00     0.029 A 
ATOM     61  C   UNL A   1      47.355  31.042  28.064  1.00  0.00     0.049 A 
ATOM     62  H   UNL A   1      46.183  29.338  27.650  1.00  0.00     0.167 HD
ATOM     63  C   UNL A   1      45.139  31.585  29.036  1.00  0.00     0.074 A 
ATOM     64  C   UNL A   1      44.226  32.448  29.755  1.00  0.00     0.031 C 
ATOM     65  C   UNL A   1      46.430  31.899  28.766  1.00  0.00     0.031 A 
BRANCH  52  66
ATOM     66  C   UNL A   1      49.523  27.478  25.738  1.00  0.00    -0.014 A 
ATOM     67  C   UNL A   1      50.496  26.832  26.522  1.00  0.00     0.010 A 
ATOM     68  C   UNL A   1      49.765  27.663  24.364  1.00  0.00     0.010 A 
ATOM     69  C   UNL A   1      51.702  26.416  25.952  1.00  0.00     0.020 A 
ATOM     70  C   UNL A   1      50.957  27.219  23.784  1.00  0.00     0.020 A 
ATOM     71  C   UNL A   1      51.926  26.614  24.587  1.00  0.00     0.054 A 
BRANCH  71  72
ATOM     72  S   UNL A   1      53.492  26.046  23.872  1.00  0.00     0.124 S 
ATOM     73  O   UNL A   1      53.154  25.941  22.455  1.00  0.00    -0.237 OA
ATOM     74  O   UNL A   1      54.412  27.125  24.219  1.00  0.00    -0.237 OA
ATOM     75  O   UNL A   1      53.742  24.775  24.547  1.00  0.00    -0.744 OA
ENDBRANCH  71  72
ENDBRANCH  52  66
BRANCH  53  76
ATOM     76  C   UNL A   1      40.715  30.098  29.692  1.00  0.00    -0.014 A 
ATOM     77  C   UNL A   1      40.462  29.815  31.045  1.00  0.00     0.010 A 
ATOM     78  C   UNL A   1      39.722  30.749  28.935  1.00  0.00     0.010 A 
ATOM     79  C   UNL A   1      39.237  30.160  31.626  1.00  0.00     0.020 A 
ATOM     80  C   UNL A   1      38.509  31.125  29.520  1.00  0.00     0.020 A 
ATOM     81  C   UNL A   1      38.270  30.818  30.861  1.00  0.00     0.054 A 
BRANCH  81  82
ATOM     82  S   UNL A   1      36.713  31.304  31.654  1.00  0.00     0.124 S 
ATOM     83  O   UNL A   1      36.066  32.082  30.602  1.00  0.00    -0.237 OA
ATOM     84  O   UNL A   1      36.100  30.013  31.956  1.00  0.00    -0.237 OA
ATOM     85  O   UNL A   1      37.147  32.068  32.821  1.00  0.00    -0.744 OA
ENDBRANCH  81  82
ENDBRANCH  53  76
BRANCH  65  86
ATOM     86  C   UNL A   1      46.931  33.259  29.181  1.00  0.00    -0.014 A 
ATOM     87  C   UNL A   1      47.579  33.466  30.410  1.00  0.00     0.010 A 
ATOM     88  C   UNL A   1      46.824  34.331  28.274  1.00  0.00     0.010 A 
ATOM     89  C   UNL A   1      48.096  34.725  30.733  1.00  0.00     0.020 A 
ATOM     90  C   UNL A   1      47.366  35.581  28.579  1.00  0.00     0.020 A 
ATOM     91  C   UNL A   1      47.992  35.773  29.812  1.00  0.00     0.054 A 
BRANCH  91  92
ATOM     92  S   UNL A   1      48.733  37.376  30.224  1.00  0.00     0.124 S 
ATOM     93  O   UNL A   1      50.112  37.200  29.777  1.00  0.00    -0.237 OA
ATOM     94  O   UNL A   1      47.932  38.311  29.436  1.00  0.00    -0.237 OA
ATOM     95  O   UNL A   1      48.556  37.481  31.671  1.00  0.00    -0.744 OA
ENDBRANCH  91  92
ENDBRANCH  65  86
ENDBRANCH  39  40
ENDBRANCH  32  34
ENDBRANCH  31  32
ENDBRANCH  30  31
ENDBRANCH  29  30
ENDBRANCH  28  29
ENDBRANCH  27  28
ENDBRANCH   1  27
TORSDOF 23
ENDMDL
