MODEL 1
REMARK VINA RESULT:     -10.5      0.000      0.000
REMARK SMILES Cc1cccc(Nc2nc(C)c(CCO)c(OCC(=O)OCCOCCOCCOC(=O)c3ccc(-c4c5nc(c(-c6ccc(S(=O)(=O)[O-])cc6)c6ccc([nH]6)c(-c6ccc(S(=O)(=O)[O-])cc6)c6nc(c(-c7ccc(S(=O)(=O)[O-])cc7)c7ccc4[nH]7)C=C6)C=C5)cc3)n2)c1
REMARK SMILES IDX 25 1 24 2 23 3 22 4 21 5 19 6 20 7 18 8 17 9 16 10 8 11 9 12
REMARK SMILES IDX 93 13 10 14 11 15 12 16 7 17 6 19 1 20 2 21 3 22 94 23 4 24
REMARK SMILES IDX 5 25 13 26 14 27 15 28 26 30 27 31 28 32 29 33 30 34 31 35
REMARK SMILES IDX 32 36 33 37 34 38 92 39 35 40 91 41 36 42 37 43 38 44 85 45
REMARK SMILES IDX 39 46 90 47 84 48 86 49 40 50 89 51 83 52 82 53 41 55 71 56
REMARK SMILES IDX 52 57 70 58 53 59 56 60 69 61 87 62 54 63 55 64 68 66 88 67
REMARK SMILES IDX 57 68 42 69 43 70 51 71 44 72 50 73 45 74 46 75 47 76 48 77
REMARK SMILES IDX 49 78 72 79 73 80 81 81 74 82 80 83 75 84 76 85 77 86 78 87
REMARK SMILES IDX 79 88 58 89 59 90 67 91 60 92 66 93 61 94 62 95 63 96 64 97
REMARK SMILES IDX 65 98
REMARK H PARENT 7 18 15 29 86 54 56 65
REMARK Flexibility Score: inf
ROOT
ATOM      1  C   UNL A   1      34.164  34.618  30.147  1.00  0.00     0.188 C 
ENDROOT
BRANCH   1   2
ATOM      2  O   UNL A   1      33.932  33.295  29.627  1.00  0.00    -0.376 OA
BRANCH   2   3
ATOM      3  C   UNL A   1      33.839  32.884  28.240  1.00  0.00     0.202 C 
BRANCH   3   4
ATOM      4  C   UNL A   1      33.853  31.336  27.466  1.00  0.00     0.261 C 
BRANCH   4   5
ATOM      5  O   UNL A   1      32.586  30.109  27.201  1.00  0.00    -0.461 OA
BRANCH   5   6
ATOM      6  C   UNL A   1      32.011  28.664  27.612  1.00  0.00     0.344 C 
ATOM      7  O   UNL A   1      30.965  28.298  28.173  1.00  0.00    -0.248 OA
BRANCH   6   8
ATOM      8  C   UNL A   1      32.760  27.573  27.003  1.00  0.00     0.353 C 
BRANCH   8   9
ATOM      9  O   UNL A   1      31.685  26.675  27.149  1.00  0.00    -0.465 OA
BRANCH   9  10
ATOM     10  C   UNL A   1      31.236  26.238  25.931  1.00  0.00     0.222 A 
ATOM     11  C   UNL A   1      30.883  23.510  24.985  1.00  0.00     0.230 A 
ATOM     12  N   UNL A   1      30.953  23.884  23.338  1.00  0.00    -0.218 NA
ATOM     13  N   UNL A   1      31.019  24.561  26.291  1.00  0.00    -0.177 NA
ATOM     14  C   UNL A   1      31.137  25.454  22.785  1.00  0.00     0.050 A 
ATOM     15  C   UNL A   1      31.762  25.612  21.422  1.00  0.00     0.067 C 
ATOM     16  C   UNL A   1      31.278  26.797  23.976  1.00  0.00     0.038 A 
BRANCH  11  17
ATOM     17  N   UNL A   1      31.203  22.194  25.273  1.00  0.00    -0.324 N 
ATOM     18  H   UNL A   1      30.486  21.591  25.577  1.00  0.00     0.170 HD
BRANCH  17  19
ATOM     19  C   UNL A   1      32.481  21.688  25.153  1.00  0.00     0.041 A 
ATOM     20  C   UNL A   1      34.174  18.395  24.410  1.00  0.00     0.044 C 
ATOM     21  C   UNL A   1      33.962  19.840  24.721  1.00  0.00    -0.049 A 
ATOM     22  C   UNL A   1      35.058  20.701  24.879  1.00  0.00     0.003 A 
ATOM     23  C   UNL A   1      32.669  20.344  24.854  1.00  0.00     0.029 A 
ATOM     24  C   UNL A   1      34.871  22.051  25.148  1.00  0.00     0.002 A 
ATOM     25  C   UNL A   1      33.586  22.541  25.264  1.00  0.00     0.026 A 
ENDBRANCH  17  19
ENDBRANCH  11  17
BRANCH  16  26
ATOM     26  C   UNL A   1      30.031  27.732  23.007  1.00  0.00     0.071 C 
BRANCH  26  27
ATOM     27  C   UNL A   1      30.260  28.957  21.939  1.00  0.00     0.161 C 
BRANCH  27  28
ATOM     28  O   UNL A   1      31.350  29.888  21.981  1.00  0.00    -0.396 OA
ATOM     29  H   UNL A   1      32.188  29.408  21.896  1.00  0.00     0.210 HD
ENDBRANCH  27  28
ENDBRANCH  26  27
ENDBRANCH  16  26
ENDBRANCH   9  10
ENDBRANCH   8   9
ENDBRANCH   6   8
ENDBRANCH   5   6
ENDBRANCH   4   5
ENDBRANCH   3   4
ENDBRANCH   2   3
ENDBRANCH   1   2
BRANCH   1  30
ATOM     30  C   UNL A   1      33.782  35.004  31.555  1.00  0.00     0.188 C 
BRANCH  30  31
ATOM     31  O   UNL A   1      33.772  33.870  32.382  1.00  0.00    -0.376 OA
BRANCH  31  32
ATOM     32  C   UNL A   1      34.988  33.333  32.873  1.00  0.00     0.202 C 
BRANCH  32  33
ATOM     33  C   UNL A   1      35.467  31.929  32.374  1.00  0.00     0.261 C 
BRANCH  33  34
ATOM     34  O   UNL A   1      36.608  31.321  33.102  1.00  0.00    -0.460 OA
BRANCH  34  35
ATOM     35  C   UNL A   1      37.535  31.907  33.968  1.00  0.00     0.338 C 
ATOM     36  O   UNL A   1      37.321  32.100  35.150  1.00  0.00    -0.246 OA
BRANCH  35  37
ATOM     37  C   UNL A   1      38.966  31.898  33.135  1.00  0.00     0.060 A 
ATOM     38  C   UNL A   1      39.987  32.283  31.424  1.00  0.00     0.016 A 
ATOM     39  C   UNL A   1      39.676  30.917  34.298  1.00  0.00     0.016 A 
ATOM     40  C   UNL A   1      41.669  31.405  31.348  1.00  0.00     0.010 A 
ATOM     41  C   UNL A   1      40.986  30.055  33.940  1.00  0.00     0.010 A 
ATOM     42  C   UNL A   1      42.075  30.126  32.568  1.00  0.00    -0.014 A 
BRANCH  42  43
ATOM     43  C   UNL A   1      43.530  29.089  32.858  1.00  0.00     0.031 A 
ATOM     44  C   UNL A   1      43.951  27.585  31.887  1.00  0.00     0.074 A 
ATOM     45  C   UNL A   1      44.557  29.679  33.561  1.00  0.00     0.049 A 
ATOM     46  N   UNL A   1      44.065  26.346  32.342  1.00  0.00    -0.248 NA
ATOM     47  C   UNL A   1      43.813  27.330  30.232  1.00  0.00     0.031 C 
ATOM     48  C   UNL A   1      46.027  29.489  33.466  1.00  0.00     0.029 A 
ATOM     49  N   UNL A   1      44.513  30.743  34.481  1.00  0.00    -0.354 N 
ATOM     50  C   UNL A   1      44.244  25.558  31.158  1.00  0.00     0.074 A 
ATOM     51  C   UNL A   1      43.350  26.089  30.216  1.00  0.00     0.031 C 
ATOM     52  C   UNL A   1      46.665  30.115  34.482  1.00  0.00     0.029 A 
ATOM     53  C   UNL A   1      45.641  30.698  35.331  1.00  0.00     0.049 A 
ATOM     54  H   UNL A   1      43.801  31.421  34.527  1.00  0.00     0.167 HD
ATOM     55  C   UNL A   1      45.508  25.256  30.659  1.00  0.00     0.031 A 
ATOM     56  C   UNL A   1      45.421  30.437  36.642  1.00  0.00     0.031 A 
ATOM     57  C   UNL A   1      46.492  25.729  31.618  1.00  0.00     0.049 A 
ATOM     58  C   UNL A   1      45.647  28.935  36.782  1.00  0.00     0.074 A 
ATOM     59  C   UNL A   1      47.473  26.697  31.658  1.00  0.00     0.029 A 
ATOM     60  N   UNL A   1      46.198  25.443  32.932  1.00  0.00    -0.354 N 
ATOM     61  N   UNL A   1      45.629  28.095  35.772  1.00  0.00    -0.248 NA
ATOM     62  C   UNL A   1      46.147  28.314  37.997  1.00  0.00     0.031 C 
ATOM     63  C   UNL A   1      47.749  26.956  33.053  1.00  0.00     0.029 A 
ATOM     64  C   UNL A   1      46.874  26.212  33.834  1.00  0.00     0.049 A 
ATOM     65  H   UNL A   1      45.556  24.744  33.197  1.00  0.00     0.167 HD
ATOM     66  C   UNL A   1      46.250  26.930  36.112  1.00  0.00     0.074 A 
ATOM     67  C   UNL A   1      46.515  27.106  37.533  1.00  0.00     0.031 C 
ATOM     68  C   UNL A   1      46.598  25.927  35.244  1.00  0.00     0.031 A 
BRANCH  55  69
ATOM     69  C   UNL A   1      45.837  24.889  29.174  1.00  0.00    -0.014 A 
ATOM     70  C   UNL A   1      45.220  23.743  28.647  1.00  0.00     0.010 A 
ATOM     71  C   UNL A   1      46.676  25.579  28.247  1.00  0.00     0.010 A 
ATOM     72  C   UNL A   1      45.360  23.357  27.298  1.00  0.00     0.020 A 
ATOM     73  C   UNL A   1      46.840  25.199  26.896  1.00  0.00     0.020 A 
ATOM     74  C   UNL A   1      46.146  24.101  26.421  1.00  0.00     0.054 A 
BRANCH  74  75
ATOM     75  S   UNL A   1      46.178  23.651  24.665  1.00  0.00     0.124 S 
ATOM     76  O   UNL A   1      44.797  23.891  24.255  1.00  0.00    -0.237 OA
ATOM     77  O   UNL A   1      47.168  24.581  24.128  1.00  0.00    -0.237 OA
ATOM     78  O   UNL A   1      46.587  22.248  24.666  1.00  0.00    -0.744 OA
ENDBRANCH  74  75
ENDBRANCH  55  69
BRANCH  56  79
ATOM     79  C   UNL A   1      44.356  31.362  37.177  1.00  0.00    -0.014 A 
ATOM     80  C   UNL A   1      44.659  32.758  37.251  1.00  0.00     0.010 A 
ATOM     81  C   UNL A   1      43.011  31.008  37.292  1.00  0.00     0.010 A 
ATOM     82  C   UNL A   1      43.660  33.750  37.305  1.00  0.00     0.020 A 
ATOM     83  C   UNL A   1      42.014  32.002  37.455  1.00  0.00     0.020 A 
ATOM     84  C   UNL A   1      42.330  33.366  37.404  1.00  0.00     0.054 A 
BRANCH  84  85
ATOM     85  S   UNL A   1      41.011  34.642  37.322  1.00  0.00     0.124 S 
ATOM     86  O   UNL A   1      40.994  34.972  35.904  1.00  0.00    -0.237 OA
ATOM     87  O   UNL A   1      39.834  33.936  37.827  1.00  0.00    -0.237 OA
ATOM     88  O   UNL A   1      41.488  35.699  38.202  1.00  0.00    -0.744 OA
ENDBRANCH  84  85
ENDBRANCH  56  79
BRANCH  68  89
ATOM     89  C   UNL A   1      46.665  24.466  35.683  1.00  0.00    -0.014 A 
ATOM     90  C   UNL A   1      47.867  23.799  35.918  1.00  0.00     0.010 A 
ATOM     91  C   UNL A   1      45.486  23.735  35.999  1.00  0.00     0.010 A 
ATOM     92  C   UNL A   1      47.896  22.449  36.250  1.00  0.00     0.020 A 
ATOM     93  C   UNL A   1      45.500  22.426  36.466  1.00  0.00     0.020 A 
ATOM     94  C   UNL A   1      46.712  21.770  36.513  1.00  0.00     0.054 A 
BRANCH  94  95
ATOM     95  S   UNL A   1      46.789  20.020  36.894  1.00  0.00     0.124 S 
ATOM     96  O   UNL A   1      45.960  19.947  38.095  1.00  0.00    -0.237 OA
ATOM     97  O   UNL A   1      46.214  19.415  35.695  1.00  0.00    -0.237 OA
ATOM     98  O   UNL A   1      48.212  19.767  37.099  1.00  0.00    -0.744 OA
ENDBRANCH  94  95
ENDBRANCH  68  89
ENDBRANCH  42  43
ENDBRANCH  35  37
ENDBRANCH  34  35
ENDBRANCH  33  34
ENDBRANCH  32  33
ENDBRANCH  31  32
ENDBRANCH  30  31
ENDBRANCH   1  30
TORSDOF 27
ENDMDL
MODEL 2
REMARK VINA RESULT:      -9.9      7.136      9.559
REMARK SMILES Cc1cccc(Nc2nc(C)c(CCO)c(OCC(=O)OCCOCCOCCOC(=O)c3ccc(-c4c5nc(c(-c6ccc(S(=O)(=O)[O-])cc6)c6ccc([nH]6)c(-c6ccc(S(=O)(=O)[O-])cc6)c6nc(c(-c7ccc(S(=O)(=O)[O-])cc7)c7ccc4[nH]7)C=C6)C=C5)cc3)n2)c1
REMARK SMILES IDX 25 1 24 2 23 3 22 4 21 5 19 6 20 7 18 8 17 9 16 10 8 11 9 12
REMARK SMILES IDX 93 13 10 14 11 15 12 16 7 17 6 19 1 20 2 21 3 22 94 23 4 24
REMARK SMILES IDX 5 25 13 26 14 27 15 28 26 30 27 31 28 32 29 33 30 34 31 35
REMARK SMILES IDX 32 36 33 37 34 38 92 39 35 40 91 41 36 42 37 43 38 44 85 45
REMARK SMILES IDX 39 46 90 47 84 48 86 49 40 50 89 51 83 52 82 53 41 55 71 56
REMARK SMILES IDX 52 57 70 58 53 59 56 60 69 61 87 62 54 63 55 64 68 66 88 67
REMARK SMILES IDX 57 68 42 69 43 70 51 71 44 72 50 73 45 74 46 75 47 76 48 77
REMARK SMILES IDX 49 78 72 79 73 80 81 81 74 82 80 83 75 84 76 85 77 86 78 87
REMARK SMILES IDX 79 88 58 89 59 90 67 91 60 92 66 93 61 94 62 95 63 96 64 97
REMARK SMILES IDX 65 98
REMARK H PARENT 7 18 15 29 86 54 56 65
REMARK Flexibility Score: inf
ROOT
ATOM      1  C   UNL A   1      34.968  34.173  30.972  1.00  0.00     0.188 C 
ENDROOT
BRANCH   1   2
ATOM      2  O   UNL A   1      34.795  32.935  30.257  1.00  0.00    -0.376 OA
BRANCH   2   3
ATOM      3  C   UNL A   1      34.642  32.743  28.827  1.00  0.00     0.202 C 
BRANCH   3   4
ATOM      4  C   UNL A   1      34.727  31.346  27.810  1.00  0.00     0.261 C 
BRANCH   4   5
ATOM      5  O   UNL A   1      33.476  30.283  27.113  1.00  0.00    -0.461 OA
BRANCH   5   6
ATOM      6  C   UNL A   1      32.577  28.965  27.306  1.00  0.00     0.344 C 
ATOM      7  O   UNL A   1      31.413  28.783  27.704  1.00  0.00    -0.248 OA
BRANCH   6   8
ATOM      8  C   UNL A   1      33.168  27.791  26.677  1.00  0.00     0.353 C 
BRANCH   8   9
ATOM      9  O   UNL A   1      31.983  27.044  26.819  1.00  0.00    -0.465 OA
BRANCH   9  10
ATOM     10  C   UNL A   1      31.589  26.507  25.621  1.00  0.00     0.222 A 
ATOM     11  C   UNL A   1      31.088  23.723  24.944  1.00  0.00     0.230 A 
ATOM     12  N   UNL A   1      31.307  23.906  23.277  1.00  0.00    -0.218 NA
ATOM     13  N   UNL A   1      31.213  24.900  26.138  1.00  0.00    -0.177 NA
ATOM     14  C   UNL A   1      31.655  25.386  22.578  1.00  0.00     0.050 A 
ATOM     15  C   UNL A   1      32.388  25.346  21.261  1.00  0.00     0.067 C 
ATOM     16  C   UNL A   1      31.817  26.841  23.628  1.00  0.00     0.038 A 
BRANCH  11  17
ATOM     17  N   UNL A   1      31.280  22.428  25.393  1.00  0.00    -0.324 N 
ATOM     18  H   UNL A   1      30.526  21.963  25.823  1.00  0.00     0.170 HD
BRANCH  17  19
ATOM     19  C   UNL A   1      32.480  21.759  25.268  1.00  0.00     0.041 A 
ATOM     20  C   UNL A   1      33.745  18.382  24.146  1.00  0.00     0.044 C 
ATOM     21  C   UNL A   1      33.715  19.787  24.651  1.00  0.00    -0.049 A 
ATOM     22  C   UNL A   1      34.907  20.447  24.987  1.00  0.00     0.003 A 
ATOM     23  C   UNL A   1      32.499  20.455  24.788  1.00  0.00     0.029 A 
ATOM     24  C   UNL A   1      34.891  21.761  25.437  1.00  0.00     0.002 A 
ATOM     25  C   UNL A   1      33.682  22.416  25.556  1.00  0.00     0.026 A 
ENDBRANCH  17  19
ENDBRANCH  11  17
BRANCH  16  26
ATOM     26  C   UNL A   1      30.723  27.749  22.468  1.00  0.00     0.071 C 
BRANCH  26  27
ATOM     27  C   UNL A   1      29.479  28.764  22.803  1.00  0.00     0.161 C 
BRANCH  27  28
ATOM     28  O   UNL A   1      29.588  29.967  23.576  1.00  0.00    -0.396 OA
ATOM     29  H   UNL A   1      28.788  30.081  24.112  1.00  0.00     0.210 HD
ENDBRANCH  27  28
ENDBRANCH  26  27
ENDBRANCH  16  26
ENDBRANCH   9  10
ENDBRANCH   8   9
ENDBRANCH   6   8
ENDBRANCH   5   6
ENDBRANCH   4   5
ENDBRANCH   3   4
ENDBRANCH   2   3
ENDBRANCH   1   2
BRANCH   1  30
ATOM     30  C   UNL A   1      34.633  34.305  32.437  1.00  0.00     0.188 C 
BRANCH  30  31
ATOM     31  O   UNL A   1      35.359  33.366  33.187  1.00  0.00    -0.376 OA
BRANCH  31  32
ATOM     32  C   UNL A   1      36.690  33.644  33.583  1.00  0.00     0.202 C 
BRANCH  32  33
ATOM     33  C   UNL A   1      37.880  33.071  32.742  1.00  0.00     0.261 C 
BRANCH  33  34
ATOM     34  O   UNL A   1      39.246  33.412  33.210  1.00  0.00    -0.460 OA
BRANCH  34  35
ATOM     35  C   UNL A   1      39.727  33.610  34.506  1.00  0.00     0.338 C 
ATOM     36  O   UNL A   1      39.380  32.941  35.462  1.00  0.00    -0.246 OA
BRANCH  35  37
ATOM     37  C   UNL A   1      41.033  34.613  34.331  1.00  0.00     0.060 A 
ATOM     38  C   UNL A   1      42.018  36.300  34.881  1.00  0.00     0.016 A 
ATOM     39  C   UNL A   1      41.474  33.847  32.905  1.00  0.00     0.016 A 
ATOM     40  C   UNL A   1      43.339  36.833  33.625  1.00  0.00     0.010 A 
ATOM     41  C   UNL A   1      42.429  34.593  31.847  1.00  0.00     0.010 A 
ATOM     42  C   UNL A   1      43.402  36.044  31.993  1.00  0.00    -0.014 A 
BRANCH  42  43
ATOM     43  C   UNL A   1      44.480  36.234  30.551  1.00  0.00     0.031 A 
ATOM     44  C   UNL A   1      45.621  34.936  29.922  1.00  0.00     0.074 A 
ATOM     45  C   UNL A   1      44.130  37.232  29.668  1.00  0.00     0.049 A 
ATOM     46  N   UNL A   1      46.940  35.013  29.821  1.00  0.00    -0.248 NA
ATOM     47  C   UNL A   1      45.365  33.281  29.801  1.00  0.00     0.031 C 
ATOM     48  C   UNL A   1      44.285  37.314  28.193  1.00  0.00     0.029 A 
ATOM     49  N   UNL A   1      43.394  38.409  29.897  1.00  0.00    -0.354 N 
ATOM     50  C   UNL A   1      47.335  33.691  29.433  1.00  0.00     0.074 A 
ATOM     51  C   UNL A   1      46.542  32.823  30.200  1.00  0.00     0.031 C 
ATOM     52  C   UNL A   1      43.996  38.557  27.743  1.00  0.00     0.029 A 
ATOM     53  C   UNL A   1      43.695  39.371  28.906  1.00  0.00     0.049 A 
ATOM     54  H   UNL A   1      42.760  38.543  30.638  1.00  0.00     0.167 HD
ATOM     55  C   UNL A   1      47.474  33.328  28.096  1.00  0.00     0.031 A 
ATOM     56  C   UNL A   1      44.338  40.493  29.307  1.00  0.00     0.031 A 
ATOM     57  C   UNL A   1      47.313  34.524  27.288  1.00  0.00     0.049 A 
ATOM     58  C   UNL A   1      45.813  40.213  29.035  1.00  0.00     0.074 A 
ATOM     59  C   UNL A   1      46.404  35.003  26.369  1.00  0.00     0.029 A 
ATOM     60  N   UNL A   1      47.982  35.630  27.761  1.00  0.00    -0.354 N 
ATOM     61  N   UNL A   1      46.310  39.008  28.865  1.00  0.00    -0.248 NA
ATOM     62  C   UNL A   1      46.773  41.249  28.694  1.00  0.00     0.031 C 
ATOM     63  C   UNL A   1      46.578  36.437  26.316  1.00  0.00     0.029 A 
ATOM     64  C   UNL A   1      47.521  36.815  27.262  1.00  0.00     0.049 A 
ATOM     65  H   UNL A   1      48.727  35.572  28.402  1.00  0.00     0.167 HD
ATOM     66  C   UNL A   1      47.523  39.078  28.250  1.00  0.00     0.074 A 
ATOM     67  C   UNL A   1      47.784  40.509  28.207  1.00  0.00     0.031 C 
ATOM     68  C   UNL A   1      48.219  38.015  27.731  1.00  0.00     0.031 A 
BRANCH  55  69
ATOM     69  C   UNL A   1      47.376  31.870  27.534  1.00  0.00    -0.014 A 
ATOM     70  C   UNL A   1      46.188  31.517  26.877  1.00  0.00     0.010 A 
ATOM     71  C   UNL A   1      48.353  30.829  27.575  1.00  0.00     0.010 A 
ATOM     72  C   UNL A   1      46.010  30.268  26.246  1.00  0.00     0.020 A 
ATOM     73  C   UNL A   1      48.188  29.567  26.961  1.00  0.00     0.020 A 
ATOM     74  C   UNL A   1      47.020  29.309  26.266  1.00  0.00     0.054 A 
BRANCH  74  75
ATOM     75  S   UNL A   1      46.805  27.778  25.318  1.00  0.00     0.124 S 
ATOM     76  O   UNL A   1      45.476  27.953  24.739  1.00  0.00    -0.237 OA
ATOM     77  O   UNL A   1      47.918  27.841  24.376  1.00  0.00    -0.237 OA
ATOM     78  O   UNL A   1      46.906  26.722  26.324  1.00  0.00    -0.744 OA
ENDBRANCH  74  75
ENDBRANCH  55  69
BRANCH  56  79
ATOM     79  C   UNL A   1      43.616  41.107  30.481  1.00  0.00    -0.014 A 
ATOM     80  C   UNL A   1      44.177  40.918  31.783  1.00  0.00     0.010 A 
ATOM     81  C   UNL A   1      42.645  42.101  30.358  1.00  0.00     0.010 A 
ATOM     82  C   UNL A   1      43.878  41.765  32.869  1.00  0.00     0.020 A 
ATOM     83  C   UNL A   1      42.265  42.883  31.478  1.00  0.00     0.020 A 
ATOM     84  C   UNL A   1      42.917  42.754  32.711  1.00  0.00     0.054 A 
BRANCH  84  85
ATOM     85  S   UNL A   1      42.627  43.959  34.066  1.00  0.00     0.124 S 
ATOM     86  O   UNL A   1      43.985  44.296  34.471  1.00  0.00    -0.237 OA
ATOM     87  O   UNL A   1      41.874  45.025  33.407  1.00  0.00    -0.237 OA
ATOM     88  O   UNL A   1      41.854  43.208  35.045  1.00  0.00    -0.744 OA
ENDBRANCH  84  85
ENDBRANCH  56  79
BRANCH  68  89
ATOM     89  C   UNL A   1      49.744  38.003  27.664  1.00  0.00    -0.014 A 
ATOM     90  C   UNL A   1      50.552  38.011  28.800  1.00  0.00     0.010 A 
ATOM     91  C   UNL A   1      50.429  37.857  26.424  1.00  0.00     0.010 A 
ATOM     92  C   UNL A   1      51.939  38.070  28.705  1.00  0.00     0.020 A 
ATOM     93  C   UNL A   1      51.811  37.775  26.320  1.00  0.00     0.020 A 
ATOM     94  C   UNL A   1      52.558  37.959  27.465  1.00  0.00     0.054 A 
BRANCH  94  95
ATOM     95  S   UNL A   1      54.345  38.085  27.380  1.00  0.00     0.124 S 
ATOM     96  O   UNL A   1      54.684  36.882  26.624  1.00  0.00    -0.237 OA
ATOM     97  O   UNL A   1      54.534  39.348  26.673  1.00  0.00    -0.237 OA
ATOM     98  O   UNL A   1      54.763  38.084  28.779  1.00  0.00    -0.744 OA
ENDBRANCH  94  95
ENDBRANCH  68  89
ENDBRANCH  42  43
ENDBRANCH  35  37
ENDBRANCH  34  35
ENDBRANCH  33  34
ENDBRANCH  32  33
ENDBRANCH  31  32
ENDBRANCH  30  31
ENDBRANCH   1  30
TORSDOF 27
ENDMDL
MODEL 3
REMARK VINA RESULT:      -9.7      8.053     13.493
REMARK SMILES Cc1cccc(Nc2nc(C)c(CCO)c(OCC(=O)OCCOCCOCCOC(=O)c3ccc(-c4c5nc(c(-c6ccc(S(=O)(=O)[O-])cc6)c6ccc([nH]6)c(-c6ccc(S(=O)(=O)[O-])cc6)c6nc(c(-c7ccc(S(=O)(=O)[O-])cc7)c7ccc4[nH]7)C=C6)C=C5)cc3)n2)c1
REMARK SMILES IDX 25 1 24 2 23 3 22 4 21 5 19 6 20 7 18 8 17 9 16 10 8 11 9 12
REMARK SMILES IDX 93 13 10 14 11 15 12 16 7 17 6 19 1 20 2 21 3 22 94 23 4 24
REMARK SMILES IDX 5 25 13 26 14 27 15 28 26 30 27 31 28 32 29 33 30 34 31 35
REMARK SMILES IDX 32 36 33 37 34 38 92 39 35 40 91 41 36 42 37 43 38 44 85 45
REMARK SMILES IDX 39 46 90 47 84 48 86 49 40 50 89 51 83 52 82 53 41 55 71 56
REMARK SMILES IDX 52 57 70 58 53 59 56 60 69 61 87 62 54 63 55 64 68 66 88 67
REMARK SMILES IDX 57 68 42 69 43 70 51 71 44 72 50 73 45 74 46 75 47 76 48 77
REMARK SMILES IDX 49 78 72 79 73 80 81 81 74 82 80 83 75 84 76 85 77 86 78 87
REMARK SMILES IDX 79 88 58 89 59 90 67 91 60 92 66 93 61 94 62 95 63 96 64 97
REMARK SMILES IDX 65 98
REMARK H PARENT 7 18 15 29 86 54 56 65
REMARK Flexibility Score: inf
ROOT
ATOM      1  C   UNL A   1      34.709  34.139  30.342  1.00  0.00     0.188 C 
ENDROOT
BRANCH   1   2
ATOM      2  O   UNL A   1      34.438  32.871  29.714  1.00  0.00    -0.376 OA
BRANCH   2   3
ATOM      3  C   UNL A   1      34.118  32.614  28.323  1.00  0.00     0.202 C 
BRANCH   3   4
ATOM      4  C   UNL A   1      33.834  31.161  27.429  1.00  0.00     0.261 C 
BRANCH   4   5
ATOM      5  O   UNL A   1      32.452  30.035  27.365  1.00  0.00    -0.461 OA
BRANCH   5   6
ATOM      6  C   UNL A   1      31.943  28.523  27.565  1.00  0.00     0.344 C 
ATOM      7  O   UNL A   1      30.896  28.035  28.024  1.00  0.00    -0.248 OA
BRANCH   6   8
ATOM      8  C   UNL A   1      32.779  27.557  26.865  1.00  0.00     0.353 C 
BRANCH   8   9
ATOM      9  O   UNL A   1      31.768  26.577  26.886  1.00  0.00    -0.465 OA
BRANCH   9  10
ATOM     10  C   UNL A   1      31.498  26.116  25.624  1.00  0.00     0.222 A 
ATOM     11  C   UNL A   1      31.431  23.374  24.656  1.00  0.00     0.230 A 
ATOM     12  N   UNL A   1      31.677  23.756  23.027  1.00  0.00    -0.218 NA
ATOM     13  N   UNL A   1      31.343  24.428  25.963  1.00  0.00    -0.177 NA
ATOM     14  C   UNL A   1      31.831  25.336  22.493  1.00  0.00     0.050 A 
ATOM     15  C   UNL A   1      32.607  25.536  21.216  1.00  0.00     0.067 C 
ATOM     16  C   UNL A   1      31.743  26.682  23.686  1.00  0.00     0.038 A 
BRANCH  11  17
ATOM     17  N   UNL A   1      31.794  22.079  24.987  1.00  0.00    -0.324 N 
ATOM     18  H   UNL A   1      31.084  21.435  25.209  1.00  0.00     0.170 HD
BRANCH  17  19
ATOM     19  C   UNL A   1      33.105  21.652  25.019  1.00  0.00     0.041 A 
ATOM     20  C   UNL A   1      36.530  23.054  25.773  1.00  0.00     0.044 C 
ATOM     21  C   UNL A   1      35.437  22.104  25.411  1.00  0.00    -0.049 A 
ATOM     22  C   UNL A   1      35.730  20.764  25.115  1.00  0.00     0.003 A 
ATOM     23  C   UNL A   1      34.114  22.542  25.367  1.00  0.00     0.029 A 
ATOM     24  C   UNL A   1      34.718  19.867  24.797  1.00  0.00     0.002 A 
ATOM     25  C   UNL A   1      33.412  20.310  24.770  1.00  0.00     0.026 A 
ENDBRANCH  17  19
ENDBRANCH  11  17
BRANCH  16  26
ATOM     26  C   UNL A   1      30.569  27.541  22.568  1.00  0.00     0.071 C 
BRANCH  26  27
ATOM     27  C   UNL A   1      30.317  29.151  22.374  1.00  0.00     0.161 C 
BRANCH  27  28
ATOM     28  O   UNL A   1      31.036  29.988  21.458  1.00  0.00    -0.396 OA
ATOM     29  H   UNL A   1      31.512  29.435  20.820  1.00  0.00     0.210 HD
ENDBRANCH  27  28
ENDBRANCH  26  27
ENDBRANCH  16  26
ENDBRANCH   9  10
ENDBRANCH   8   9
ENDBRANCH   6   8
ENDBRANCH   5   6
ENDBRANCH   4   5
ENDBRANCH   3   4
ENDBRANCH   2   3
ENDBRANCH   1   2
BRANCH   1  30
ATOM     30  C   UNL A   1      34.133  34.505  31.688  1.00  0.00     0.188 C 
BRANCH  30  31
ATOM     31  O   UNL A   1      34.038  33.365  32.501  1.00  0.00    -0.376 OA
BRANCH  31  32
ATOM     32  C   UNL A   1      35.073  33.052  33.416  1.00  0.00     0.202 C 
BRANCH  32  33
ATOM     33  C   UNL A   1      36.162  32.001  33.018  1.00  0.00     0.261 C 
BRANCH  33  34
ATOM     34  O   UNL A   1      37.365  31.931  33.885  1.00  0.00    -0.460 OA
BRANCH  34  35
ATOM     35  C   UNL A   1      37.588  32.470  35.154  1.00  0.00     0.338 C 
ATOM     36  O   UNL A   1      37.184  31.958  36.182  1.00  0.00    -0.246 OA
BRANCH  35  37
ATOM     37  C   UNL A   1      38.747  33.632  34.930  1.00  0.00     0.060 A 
ATOM     38  C   UNL A   1      40.298  34.355  33.840  1.00  0.00     0.016 A 
ATOM     39  C   UNL A   1      38.502  34.225  36.481  1.00  0.00     0.016 A 
ATOM     40  C   UNL A   1      41.336  35.635  34.783  1.00  0.00     0.010 A 
ATOM     41  C   UNL A   1      39.639  35.106  37.200  1.00  0.00     0.010 A 
ATOM     42  C   UNL A   1      41.085  35.865  36.565  1.00  0.00    -0.014 A 
BRANCH  42  43
ATOM     43  C   UNL A   1      41.826  36.958  37.803  1.00  0.00     0.031 A 
ATOM     44  C   UNL A   1      41.164  37.214  39.499  1.00  0.00     0.074 A 
ATOM     45  C   UNL A   1      43.147  37.289  37.597  1.00  0.00     0.049 A 
ATOM     46  N   UNL A   1      40.738  38.352  40.028  1.00  0.00    -0.248 NA
ATOM     47  C   UNL A   1      40.510  36.082  40.554  1.00  0.00     0.031 C 
ATOM     48  C   UNL A   1      44.237  37.563  38.569  1.00  0.00     0.029 A 
ATOM     49  N   UNL A   1      43.882  37.326  36.398  1.00  0.00    -0.354 N 
ATOM     50  C   UNL A   1      40.189  37.962  41.293  1.00  0.00     0.074 A 
ATOM     51  C   UNL A   1      39.491  36.770  41.047  1.00  0.00     0.031 C 
ATOM     52  C   UNL A   1      45.333  38.052  37.944  1.00  0.00     0.029 A 
ATOM     53  C   UNL A   1      44.998  38.182  36.538  1.00  0.00     0.049 A 
ATOM     54  H   UNL A   1      43.653  36.829  35.579  1.00  0.00     0.167 HD
ATOM     55  C   UNL A   1      40.952  37.963  42.457  1.00  0.00     0.031 A 
ATOM     56  C   UNL A   1      45.008  39.315  35.796  1.00  0.00     0.031 A 
ATOM     57  C   UNL A   1      42.241  38.557  42.146  1.00  0.00     0.049 A 
ATOM     58  C   UNL A   1      44.463  40.392  36.729  1.00  0.00     0.074 A 
ATOM     59  C   UNL A   1      43.554  38.137  42.084  1.00  0.00     0.029 A 
ATOM     60  N   UNL A   1      42.178  39.697  41.379  1.00  0.00    -0.354 N 
ATOM     61  N   UNL A   1      43.769  40.138  37.815  1.00  0.00    -0.248 NA
ATOM     62  C   UNL A   1      44.858  41.789  36.651  1.00  0.00     0.031 C 
ATOM     63  C   UNL A   1      44.258  39.089  41.256  1.00  0.00     0.029 A 
ATOM     64  C   UNL A   1      43.352  40.015  40.758  1.00  0.00     0.049 A 
ATOM     65  H   UNL A   1      41.359  40.236  41.286  1.00  0.00     0.167 HD
ATOM     66  C   UNL A   1      43.769  41.220  38.643  1.00  0.00     0.074 A 
ATOM     67  C   UNL A   1      44.429  42.241  37.843  1.00  0.00     0.031 C 
ATOM     68  C   UNL A   1      43.329  41.232  39.942  1.00  0.00     0.031 A 
BRANCH  55  69
ATOM     69  C   UNL A   1      40.667  37.103  43.733  1.00  0.00    -0.014 A 
ATOM     70  C   UNL A   1      39.767  37.630  44.672  1.00  0.00     0.010 A 
ATOM     71  C   UNL A   1      41.186  35.818  44.080  1.00  0.00     0.010 A 
ATOM     72  C   UNL A   1      39.356  36.915  45.816  1.00  0.00     0.020 A 
ATOM     73  C   UNL A   1      40.796  35.093  45.228  1.00  0.00     0.020 A 
ATOM     74  C   UNL A   1      39.850  35.639  46.075  1.00  0.00     0.054 A 
BRANCH  74  75
ATOM     75  S   UNL A   1      39.182  34.701  47.475  1.00  0.00     0.124 S 
ATOM     76  O   UNL A   1      39.636  33.343  47.187  1.00  0.00    -0.237 OA
ATOM     77  O   UNL A   1      39.821  35.352  48.615  1.00  0.00    -0.237 OA
ATOM     78  O   UNL A   1      37.737  34.902  47.379  1.00  0.00    -0.744 OA
ENDBRANCH  74  75
ENDBRANCH  55  69
BRANCH  56  79
ATOM     79  C   UNL A   1      44.736  38.985  34.350  1.00  0.00    -0.014 A 
ATOM     80  C   UNL A   1      43.545  39.511  33.758  1.00  0.00     0.010 A 
ATOM     81  C   UNL A   1      45.703  38.489  33.475  1.00  0.00     0.010 A 
ATOM     82  C   UNL A   1      43.390  39.654  32.364  1.00  0.00     0.020 A 
ATOM     83  C   UNL A   1      45.499  38.534  32.072  1.00  0.00     0.020 A 
ATOM     84  C   UNL A   1      44.377  39.164  31.519  1.00  0.00     0.054 A 
BRANCH  84  85
ATOM     85  S   UNL A   1      44.260  39.478  29.714  1.00  0.00     0.124 S 
ATOM     86  O   UNL A   1      45.628  39.848  29.380  1.00  0.00    -0.237 OA
ATOM     87  O   UNL A   1      43.797  38.197  29.183  1.00  0.00    -0.237 OA
ATOM     88  O   UNL A   1      43.281  40.551  29.606  1.00  0.00    -0.744 OA
ENDBRANCH  84  85
ENDBRANCH  56  79
BRANCH  68  89
ATOM     89  C   UNL A   1      42.746  42.488  40.586  1.00  0.00    -0.014 A 
ATOM     90  C   UNL A   1      43.504  43.360  41.368  1.00  0.00     0.010 A 
ATOM     91  C   UNL A   1      41.413  42.907  40.316  1.00  0.00     0.010 A 
ATOM     92  C   UNL A   1      42.928  44.459  41.996  1.00  0.00     0.020 A 
ATOM     93  C   UNL A   1      40.862  44.076  40.825  1.00  0.00     0.020 A 
ATOM     94  C   UNL A   1      41.609  44.804  41.727  1.00  0.00     0.054 A 
BRANCH  94  95
ATOM     95  S   UNL A   1      40.890  46.201  42.591  1.00  0.00     0.124 S 
ATOM     96  O   UNL A   1      40.165  46.869  41.513  1.00  0.00    -0.237 OA
ATOM     97  O   UNL A   1      40.058  45.548  43.599  1.00  0.00    -0.237 OA
ATOM     98  O   UNL A   1      42.046  46.925  43.111  1.00  0.00    -0.744 OA
ENDBRANCH  94  95
ENDBRANCH  68  89
ENDBRANCH  42  43
ENDBRANCH  35  37
ENDBRANCH  34  35
ENDBRANCH  33  34
ENDBRANCH  32  33
ENDBRANCH  31  32
ENDBRANCH  30  31
ENDBRANCH   1  30
TORSDOF 27
ENDMDL
