MODEL 1
REMARK VINA RESULT:      -8.7      0.000      0.000
REMARK SMILES C[C@H](C(=O)OCCOCCOCCOC(=O)c1ccc(-c2c3nc(c(-c4ccc(S(=O)(=O)[O-])cc4)c4ccc([nH]4)c(-c4ccc(S(=O)(=O)[O-])cc4)c4nc(c(-c5ccc(S(=O)(=O)[O-])cc5)c5ccc2[nH]5)C=C4)C=C3)cc1)[C@@H](C)[NH2+]C[C@@H]1CCCC[C@@H]1CO
REMARK SMILES IDX 8 1 7 2 6 3 5 4 3 5 4 6 2 7 1 8 77 9 78 10 79 11 80 14 81 15
REMARK SMILES IDX 82 16 86 17 83 18 85 19 84 20 87 21 88 22 9 24 10 25 11 26
REMARK SMILES IDX 12 27 13 28 14 29 15 30 16 31 17 32 18 33 76 34 19 35 75 36
REMARK SMILES IDX 20 37 21 38 22 39 69 40 23 41 74 42 68 43 70 44 24 45 73 46
REMARK SMILES IDX 67 47 66 48 25 50 55 51 36 52 54 53 37 54 40 55 53 56 71 57
REMARK SMILES IDX 38 58 39 59 52 61 72 62 41 63 26 64 27 65 35 66 28 67 34 68
REMARK SMILES IDX 29 69 30 70 31 71 32 72 33 73 56 74 57 75 65 76 58 77 64 78
REMARK SMILES IDX 59 79 60 80 61 81 62 82 63 83 42 84 43 85 51 86 44 87 50 88
REMARK SMILES IDX 45 89 46 90 47 91 48 92 49 93
REMARK H PARENT 79 12 79 13 88 23 70 49 40 60
REMARK Flexibility Score: inf
ROOT
ATOM      1  O   UNL A   1      38.629  21.213  26.036  1.00  0.00    -0.376 OA
ENDROOT
BRANCH   1   2
ATOM      2  C   UNL A   1      37.907  20.857  24.869  1.00  0.00     0.202 C 
BRANCH   2   3
ATOM      3  C   UNL A   1      36.825  21.779  24.290  1.00  0.00     0.261 C 
BRANCH   3   4
ATOM      4  O   UNL A   1      35.669  21.948  25.121  1.00  0.00    -0.463 OA
BRANCH   4   5
ATOM      5  C   UNL A   1      35.482  23.152  25.742  1.00  0.00     0.314 C 
ATOM      6  O   UNL A   1      36.361  23.769  26.326  1.00  0.00    -0.252 OA
BRANCH   5   7
ATOM      7  C   UNL A   1      34.027  23.649  25.618  1.00  0.00     0.154 C 
ATOM      8  C   UNL A   1      34.002  25.058  25.026  1.00  0.00     0.026 C 
BRANCH   7   9
ATOM      9  C   UNL A   1      33.176  22.588  24.862  1.00  0.00     0.193 C 
ATOM     10  C   UNL A   1      32.071  22.146  25.827  1.00  0.00     0.076 C 
BRANCH   9  11
ATOM     11  N   UNL A   1      32.588  22.999  23.583  1.00  0.00    -0.343 N 
ATOM     12  H   UNL A   1      32.674  22.216  22.936  1.00  0.00     0.346 HD
ATOM     13  H   UNL A   1      33.102  23.836  23.307  1.00  0.00     0.346 HD
BRANCH  11  14
ATOM     14  C   UNL A   1      31.165  23.405  23.612  1.00  0.00     0.264 C 
BRANCH  14  15
ATOM     15  C   UNL A   1      30.686  24.867  23.279  1.00  0.00     0.049 C 
ATOM     16  C   UNL A   1      31.664  25.598  22.323  1.00  0.00     0.010 C 
ATOM     17  C   UNL A   1      30.002  25.708  24.425  1.00  0.00     0.023 C 
ATOM     18  C   UNL A   1      31.726  27.123  22.378  1.00  0.00     0.001 C 
ATOM     19  C   UNL A   1      30.051  27.231  24.195  1.00  0.00     0.006 C 
ATOM     20  C   UNL A   1      31.403  27.727  23.732  1.00  0.00     0.000 C 
BRANCH  17  21
ATOM     21  C   UNL A   1      30.318  25.316  25.876  1.00  0.00     0.160 C 
BRANCH  21  22
ATOM     22  O   UNL A   1      30.607  26.459  26.680  1.00  0.00    -0.396 OA
ATOM     23  H   UNL A   1      30.259  27.255  26.248  1.00  0.00     0.210 HD
ENDBRANCH  21  22
ENDBRANCH  17  21
ENDBRANCH  14  15
ENDBRANCH  11  14
ENDBRANCH   9  11
ENDBRANCH   7   9
ENDBRANCH   5   7
ENDBRANCH   4   5
ENDBRANCH   3   4
ENDBRANCH   2   3
ENDBRANCH   1   2
BRANCH   1  24
ATOM     24  C   UNL A   1      40.031  21.393  25.956  1.00  0.00     0.188 C 
BRANCH  24  25
ATOM     25  C   UNL A   1      40.827  21.741  27.229  1.00  0.00     0.188 C 
BRANCH  25  26
ATOM     26  O   UNL A   1      42.185  22.089  27.122  1.00  0.00    -0.376 OA
BRANCH  26  27
ATOM     27  C   UNL A   1      42.616  23.010  26.137  1.00  0.00     0.202 C 
BRANCH  27  28
ATOM     28  C   UNL A   1      42.185  24.488  26.038  1.00  0.00     0.261 C 
BRANCH  28  29
ATOM     29  O   UNL A   1      41.680  25.124  27.213  1.00  0.00    -0.460 OA
BRANCH  29  30
ATOM     30  C   UNL A   1      40.423  25.637  27.112  1.00  0.00     0.338 C 
ATOM     31  O   UNL A   1      39.523  25.239  26.405  1.00  0.00    -0.246 OA
BRANCH  30  32
ATOM     32  C   UNL A   1      40.252  26.638  28.190  1.00  0.00     0.060 A 
ATOM     33  C   UNL A   1      40.979  27.836  28.121  1.00  0.00     0.016 A 
ATOM     34  C   UNL A   1      39.372  26.404  29.246  1.00  0.00     0.016 A 
ATOM     35  C   UNL A   1      40.837  28.800  29.118  1.00  0.00     0.010 A 
ATOM     36  C   UNL A   1      39.253  27.358  30.261  1.00  0.00     0.010 A 
ATOM     37  C   UNL A   1      40.005  28.548  30.215  1.00  0.00    -0.014 A 
BRANCH  37  38
ATOM     38  C   UNL A   1      40.067  29.423  31.410  1.00  0.00     0.031 A 
ATOM     39  C   UNL A   1      41.191  29.206  32.388  1.00  0.00     0.074 A 
ATOM     40  C   UNL A   1      39.153  30.385  31.628  1.00  0.00     0.049 A 
ATOM     41  N   UNL A   1      41.414  29.785  33.538  1.00  0.00    -0.248 NA
ATOM     42  C   UNL A   1      42.197  28.197  32.016  1.00  0.00     0.031 C 
ATOM     43  C   UNL A   1      38.054  30.733  30.730  1.00  0.00     0.029 A 
ATOM     44  N   UNL A   1      39.004  31.243  32.691  1.00  0.00    -0.354 N 
ATOM     45  C   UNL A   1      42.571  29.200  34.036  1.00  0.00     0.074 A 
ATOM     46  C   UNL A   1      42.993  28.206  33.073  1.00  0.00     0.031 C 
ATOM     47  C   UNL A   1      37.335  31.725  31.286  1.00  0.00     0.029 A 
ATOM     48  C   UNL A   1      37.897  32.053  32.595  1.00  0.00     0.049 A 
ATOM     49  H   UNL A   1      39.631  31.274  33.450  1.00  0.00     0.167 HD
ATOM     50  C   UNL A   1      43.225  29.464  35.192  1.00  0.00     0.031 A 
ATOM     51  C   UNL A   1      37.385  32.937  33.476  1.00  0.00     0.031 A 
ATOM     52  C   UNL A   1      42.791  30.441  36.154  1.00  0.00     0.049 A 
ATOM     53  C   UNL A   1      38.081  33.150  34.798  1.00  0.00     0.074 A 
ATOM     54  C   UNL A   1      43.392  30.795  37.348  1.00  0.00     0.029 A 
ATOM     55  N   UNL A   1      41.644  31.212  36.039  1.00  0.00    -0.354 N 
ATOM     56  N   UNL A   1      39.188  32.606  35.247  1.00  0.00    -0.248 NA
ATOM     57  C   UNL A   1      37.459  34.101  35.731  1.00  0.00     0.031 C 
ATOM     58  C   UNL A   1      42.573  31.728  37.989  1.00  0.00     0.029 A 
ATOM     59  C   UNL A   1      41.502  32.015  37.157  1.00  0.00     0.049 A 
ATOM     60  H   UNL A   1      41.023  31.192  35.275  1.00  0.00     0.167 HD
ATOM     61  C   UNL A   1      39.414  33.178  36.496  1.00  0.00     0.074 A 
ATOM     62  C   UNL A   1      38.335  34.116  36.727  1.00  0.00     0.031 C 
ATOM     63  C   UNL A   1      40.425  32.950  37.373  1.00  0.00     0.031 A 
BRANCH  50  64
ATOM     64  C   UNL A   1      44.451  28.647  35.501  1.00  0.00    -0.014 A 
ATOM     65  C   UNL A   1      45.735  29.072  35.114  1.00  0.00     0.010 A 
ATOM     66  C   UNL A   1      44.319  27.450  36.231  1.00  0.00     0.010 A 
ATOM     67  C   UNL A   1      46.858  28.298  35.419  1.00  0.00     0.020 A 
ATOM     68  C   UNL A   1      45.442  26.689  36.564  1.00  0.00     0.020 A 
ATOM     69  C   UNL A   1      46.703  27.111  36.143  1.00  0.00     0.054 A 
BRANCH  69  70
ATOM     70  S   UNL A   1      48.182  26.143  36.550  1.00  0.00     0.124 S 
ATOM     71  O   UNL A   1      47.733  25.383  37.715  1.00  0.00    -0.237 OA
ATOM     72  O   UNL A   1      48.397  25.362  35.335  1.00  0.00    -0.237 OA
ATOM     73  O   UNL A   1      49.197  27.157  36.824  1.00  0.00    -0.744 OA
ENDBRANCH  69  70
ENDBRANCH  50  64
BRANCH  51  74
ATOM     74  C   UNL A   1      36.131  33.677  33.154  1.00  0.00    -0.014 A 
ATOM     75  C   UNL A   1      36.183  34.967  32.593  1.00  0.00     0.010 A 
ATOM     76  C   UNL A   1      34.875  33.105  33.426  1.00  0.00     0.010 A 
ATOM     77  C   UNL A   1      35.005  35.674  32.331  1.00  0.00     0.020 A 
ATOM     78  C   UNL A   1      33.695  33.796  33.136  1.00  0.00     0.020 A 
ATOM     79  C   UNL A   1      33.768  35.083  32.601  1.00  0.00     0.054 A 
BRANCH  79  80
ATOM     80  S   UNL A   1      32.255  36.006  32.212  1.00  0.00     0.124 S 
ATOM     81  O   UNL A   1      32.412  36.260  30.784  1.00  0.00    -0.237 OA
ATOM     82  O   UNL A   1      31.206  35.056  32.574  1.00  0.00    -0.237 OA
ATOM     83  O   UNL A   1      32.342  37.185  33.071  1.00  0.00    -0.744 OA
ENDBRANCH  79  80
ENDBRANCH  51  74
BRANCH  63  84
ATOM     84  C   UNL A   1      40.449  33.761  38.644  1.00  0.00    -0.014 A 
ATOM     85  C   UNL A   1      41.028  35.042  38.692  1.00  0.00     0.010 A 
ATOM     86  C   UNL A   1      39.821  33.252  39.797  1.00  0.00     0.010 A 
ATOM     87  C   UNL A   1      41.008  35.783  39.877  1.00  0.00     0.020 A 
ATOM     88  C   UNL A   1      39.769  34.004  40.974  1.00  0.00     0.020 A 
ATOM     89  C   UNL A   1      40.376  35.261  41.010  1.00  0.00     0.054 A 
BRANCH  89  90
ATOM     90  S   UNL A   1      40.324  36.263  42.521  1.00  0.00     0.124 S 
ATOM     91  O   UNL A   1      41.368  35.644  43.334  1.00  0.00    -0.237 OA
ATOM     92  O   UNL A   1      40.624  37.604  42.025  1.00  0.00    -0.237 OA
ATOM     93  O   UNL A   1      38.961  36.078  43.015  1.00  0.00    -0.744 OA
ENDBRANCH  89  90
ENDBRANCH  63  84
ENDBRANCH  37  38
ENDBRANCH  30  32
ENDBRANCH  29  30
ENDBRANCH  28  29
ENDBRANCH  27  28
ENDBRANCH  26  27
ENDBRANCH  25  26
ENDBRANCH  24  25
ENDBRANCH   1  24
TORSDOF 26
ENDMDL
MODEL 2
REMARK VINA RESULT:      -7.4      8.665     11.445
REMARK SMILES C[C@H](C(=O)OCCOCCOCCOC(=O)c1ccc(-c2c3nc(c(-c4ccc(S(=O)(=O)[O-])cc4)c4ccc([nH]4)c(-c4ccc(S(=O)(=O)[O-])cc4)c4nc(c(-c5ccc(S(=O)(=O)[O-])cc5)c5ccc2[nH]5)C=C4)C=C3)cc1)[C@@H](C)[NH2+]C[C@@H]1CCCC[C@@H]1CO
REMARK SMILES IDX 8 1 7 2 6 3 5 4 3 5 4 6 2 7 1 8 77 9 78 10 79 11 80 14 81 15
REMARK SMILES IDX 82 16 86 17 83 18 85 19 84 20 87 21 88 22 9 24 10 25 11 26
REMARK SMILES IDX 12 27 13 28 14 29 15 30 16 31 17 32 18 33 76 34 19 35 75 36
REMARK SMILES IDX 20 37 21 38 22 39 69 40 23 41 74 42 68 43 70 44 24 45 73 46
REMARK SMILES IDX 67 47 66 48 25 50 55 51 36 52 54 53 37 54 40 55 53 56 71 57
REMARK SMILES IDX 38 58 39 59 52 61 72 62 41 63 26 64 27 65 35 66 28 67 34 68
REMARK SMILES IDX 29 69 30 70 31 71 32 72 33 73 56 74 57 75 65 76 58 77 64 78
REMARK SMILES IDX 59 79 60 80 61 81 62 82 63 83 42 84 43 85 51 86 44 87 50 88
REMARK SMILES IDX 45 89 46 90 47 91 48 92 49 93
REMARK H PARENT 79 12 79 13 88 23 70 49 40 60
REMARK Flexibility Score: inf
ROOT
ATOM      1  O   UNL A   1      39.030  21.585  26.454  1.00  0.00    -0.376 OA
ENDROOT
BRANCH   1   2
ATOM      2  C   UNL A   1      38.122  21.992  25.444  1.00  0.00     0.202 C 
BRANCH   2   3
ATOM      3  C   UNL A   1      37.568  23.423  25.400  1.00  0.00     0.261 C 
BRANCH   3   4
ATOM      4  O   UNL A   1      36.201  23.528  24.978  1.00  0.00    -0.463 OA
BRANCH   4   5
ATOM      5  C   UNL A   1      35.869  23.087  23.728  1.00  0.00     0.314 C 
ATOM      6  O   UNL A   1      36.547  23.275  22.728  1.00  0.00    -0.252 OA
BRANCH   5   7
ATOM      7  C   UNL A   1      34.533  22.316  23.720  1.00  0.00     0.154 C 
ATOM      8  C   UNL A   1      34.050  22.090  25.153  1.00  0.00     0.026 C 
BRANCH   7   9
ATOM      9  C   UNL A   1      33.524  23.030  22.777  1.00  0.00     0.193 C 
ATOM     10  C   UNL A   1      32.136  22.479  23.122  1.00  0.00     0.076 C 
BRANCH   9  11
ATOM     11  N   UNL A   1      33.503  24.496  22.815  1.00  0.00    -0.343 N 
ATOM     12  H   UNL A   1      34.418  24.827  22.510  1.00  0.00     0.346 HD
ATOM     13  H   UNL A   1      33.263  24.737  23.776  1.00  0.00     0.346 HD
BRANCH  11  14
ATOM     14  C   UNL A   1      32.481  25.163  21.977  1.00  0.00     0.264 C 
BRANCH  14  15
ATOM     15  C   UNL A   1      31.943  26.612  22.276  1.00  0.00     0.049 C 
ATOM     16  C   UNL A   1      33.090  27.607  22.588  1.00  0.00     0.010 C 
ATOM     17  C   UNL A   1      30.596  26.755  23.084  1.00  0.00     0.023 C 
ATOM     18  C   UNL A   1      32.781  28.816  23.468  1.00  0.00     0.001 C 
ATOM     19  C   UNL A   1      30.426  28.124  23.773  1.00  0.00     0.006 C 
ATOM     20  C   UNL A   1      31.674  28.601  24.483  1.00  0.00     0.000 C 
BRANCH  17  21
ATOM     21  C   UNL A   1      30.181  25.582  23.984  1.00  0.00     0.160 C 
BRANCH  21  22
ATOM     22  O   UNL A   1      29.040  25.904  24.777  1.00  0.00    -0.396 OA
ATOM     23  H   UNL A   1      28.431  26.453  24.260  1.00  0.00     0.210 HD
ENDBRANCH  21  22
ENDBRANCH  17  21
ENDBRANCH  14  15
ENDBRANCH  11  14
ENDBRANCH   9  11
ENDBRANCH   7   9
ENDBRANCH   5   7
ENDBRANCH   4   5
ENDBRANCH   3   4
ENDBRANCH   2   3
ENDBRANCH   1   2
BRANCH   1  24
ATOM     24  C   UNL A   1      40.405  21.460  26.141  1.00  0.00     0.188 C 
BRANCH  24  25
ATOM     25  C   UNL A   1      41.087  20.083  26.253  1.00  0.00     0.188 C 
BRANCH  25  26
ATOM     26  O   UNL A   1      42.100  19.737  25.341  1.00  0.00    -0.376 OA
BRANCH  26  27
ATOM     27  C   UNL A   1      43.464  19.914  25.679  1.00  0.00     0.202 C 
BRANCH  27  28
ATOM     28  C   UNL A   1      44.305  21.175  25.388  1.00  0.00     0.261 C 
BRANCH  28  29
ATOM     29  O   UNL A   1      43.669  22.449  25.488  1.00  0.00    -0.460 OA
BRANCH  29  30
ATOM     30  C   UNL A   1      43.749  23.054  26.706  1.00  0.00     0.338 C 
ATOM     31  O   UNL A   1      43.194  22.719  27.729  1.00  0.00    -0.246 OA
BRANCH  30  32
ATOM     32  C   UNL A   1      44.822  24.072  26.637  1.00  0.00     0.060 A 
ATOM     33  C   UNL A   1      45.502  24.416  27.816  1.00  0.00     0.016 A 
ATOM     34  C   UNL A   1      45.166  24.665  25.423  1.00  0.00     0.016 A 
ATOM     35  C   UNL A   1      46.521  25.368  27.785  1.00  0.00     0.010 A 
ATOM     36  C   UNL A   1      46.166  25.641  25.399  1.00  0.00     0.010 A 
ATOM     37  C   UNL A   1      46.829  26.016  26.583  1.00  0.00    -0.014 A 
BRANCH  37  38
ATOM     38  C   UNL A   1      47.694  27.220  26.591  1.00  0.00     0.031 A 
ATOM     39  C   UNL A   1      49.184  27.021  26.499  1.00  0.00     0.074 A 
ATOM     40  C   UNL A   1      47.179  28.459  26.677  1.00  0.00     0.049 A 
ATOM     41  N   UNL A   1      50.144  27.904  26.566  1.00  0.00    -0.248 NA
ATOM     42  C   UNL A   1      49.649  25.636  26.310  1.00  0.00     0.031 C 
ATOM     43  C   UNL A   1      45.755  28.786  26.711  1.00  0.00     0.029 A 
ATOM     44  N   UNL A   1      47.807  29.678  26.761  1.00  0.00    -0.354 N 
ATOM     45  C   UNL A   1      51.326  27.183  26.446  1.00  0.00     0.074 A 
ATOM     46  C   UNL A   1      50.964  25.789  26.323  1.00  0.00     0.031 C 
ATOM     47  C   UNL A   1      45.617  30.121  26.821  1.00  0.00     0.029 A 
ATOM     48  C   UNL A   1      46.941  30.736  26.908  1.00  0.00     0.049 A 
ATOM     49  H   UNL A   1      48.785  29.784  26.721  1.00  0.00     0.167 HD
ATOM     50  C   UNL A   1      52.601  27.641  26.440  1.00  0.00     0.031 A 
ATOM     51  C   UNL A   1      47.192  32.045  27.114  1.00  0.00     0.031 A 
ATOM     52  C   UNL A   1      52.957  29.028  26.580  1.00  0.00     0.049 A 
ATOM     53  C   UNL A   1      48.622  32.519  27.194  1.00  0.00     0.074 A 
ATOM     54  C   UNL A   1      54.218  29.595  26.570  1.00  0.00     0.029 A 
ATOM     55  N   UNL A   1      52.053  30.063  26.765  1.00  0.00    -0.354 N 
ATOM     56  N   UNL A   1      49.731  31.831  27.056  1.00  0.00    -0.248 NA
ATOM     57  C   UNL A   1      48.834  33.952  27.453  1.00  0.00     0.031 C 
ATOM     58  C   UNL A   1      54.082  30.963  26.821  1.00  0.00     0.029 A 
ATOM     59  C   UNL A   1      52.732  31.261  26.907  1.00  0.00     0.049 A 
ATOM     60  H   UNL A   1      51.074  29.961  26.793  1.00  0.00     0.167 HD
ATOM     61  C   UNL A   1      50.768  32.752  27.173  1.00  0.00     0.074 A 
ATOM     62  C   UNL A   1      50.155  34.048  27.383  1.00  0.00     0.031 C 
ATOM     63  C   UNL A   1      52.108  32.546  27.110  1.00  0.00     0.031 A 
BRANCH  50  64
ATOM     64  C   UNL A   1      53.706  26.625  26.327  1.00  0.00    -0.014 A 
ATOM     65  C   UNL A   1      54.308  26.326  25.091  1.00  0.00     0.010 A 
ATOM     66  C   UNL A   1      54.178  25.985  27.489  1.00  0.00     0.010 A 
ATOM     67  C   UNL A   1      55.336  25.382  25.015  1.00  0.00     0.020 A 
ATOM     68  C   UNL A   1      55.226  25.064  27.421  1.00  0.00     0.020 A 
ATOM     69  C   UNL A   1      55.788  24.758  26.181  1.00  0.00     0.054 A 
BRANCH  69  70
ATOM     70  S   UNL A   1      57.144  23.560  26.055  1.00  0.00     0.124 S 
ATOM     71  O   UNL A   1      57.519  23.676  24.647  1.00  0.00    -0.237 OA
ATOM     72  O   UNL A   1      58.119  24.081  27.010  1.00  0.00    -0.237 OA
ATOM     73  O   UNL A   1      56.525  22.292  26.431  1.00  0.00    -0.744 OA
ENDBRANCH  69  70
ENDBRANCH  50  64
BRANCH  51  74
ATOM     74  C   UNL A   1      46.065  33.007  27.285  1.00  0.00    -0.014 A 
ATOM     75  C   UNL A   1      45.623  33.373  28.570  1.00  0.00     0.010 A 
ATOM     76  C   UNL A   1      45.413  33.549  26.163  1.00  0.00     0.010 A 
ATOM     77  C   UNL A   1      44.539  34.244  28.727  1.00  0.00     0.020 A 
ATOM     78  C   UNL A   1      44.350  34.444  26.315  1.00  0.00     0.020 A 
ATOM     79  C   UNL A   1      43.912  34.776  27.598  1.00  0.00     0.054 A 
BRANCH  79  80
ATOM     80  S   UNL A   1      42.536  35.937  27.828  1.00  0.00     0.124 S 
ATOM     81  O   UNL A   1      41.450  35.046  28.225  1.00  0.00    -0.237 OA
ATOM     82  O   UNL A   1      43.042  36.821  28.874  1.00  0.00    -0.237 OA
ATOM     83  O   UNL A   1      42.387  36.557  26.514  1.00  0.00    -0.744 OA
ENDBRANCH  79  80
ENDBRANCH  51  74
BRANCH  63  84
ATOM     84  C   UNL A   1      53.011  33.750  27.217  1.00  0.00    -0.014 A 
ATOM     85  C   UNL A   1      53.533  34.172  28.453  1.00  0.00     0.010 A 
ATOM     86  C   UNL A   1      53.393  34.431  26.046  1.00  0.00     0.010 A 
ATOM     87  C   UNL A   1      54.393  35.273  28.518  1.00  0.00     0.020 A 
ATOM     88  C   UNL A   1      54.278  35.510  26.103  1.00  0.00     0.020 A 
ATOM     89  C   UNL A   1      54.763  35.933  27.341  1.00  0.00     0.054 A 
BRANCH  89  90
ATOM     90  S   UNL A   1      55.916  37.329  27.449  1.00  0.00     0.124 S 
ATOM     91  O   UNL A   1      55.865  37.658  28.871  1.00  0.00    -0.237 OA
ATOM     92  O   UNL A   1      57.171  36.744  26.983  1.00  0.00    -0.237 OA
ATOM     93  O   UNL A   1      55.333  38.330  26.559  1.00  0.00    -0.744 OA
ENDBRANCH  89  90
ENDBRANCH  63  84
ENDBRANCH  37  38
ENDBRANCH  30  32
ENDBRANCH  29  30
ENDBRANCH  28  29
ENDBRANCH  27  28
ENDBRANCH  26  27
ENDBRANCH  25  26
ENDBRANCH  24  25
ENDBRANCH   1  24
TORSDOF 26
ENDMDL
MODEL 3
REMARK VINA RESULT:      -7.2      6.217      8.203
REMARK SMILES C[C@H](C(=O)OCCOCCOCCOC(=O)c1ccc(-c2c3nc(c(-c4ccc(S(=O)(=O)[O-])cc4)c4ccc([nH]4)c(-c4ccc(S(=O)(=O)[O-])cc4)c4nc(c(-c5ccc(S(=O)(=O)[O-])cc5)c5ccc2[nH]5)C=C4)C=C3)cc1)[C@@H](C)[NH2+]C[C@@H]1CCCC[C@@H]1CO
REMARK SMILES IDX 8 1 7 2 6 3 5 4 3 5 4 6 2 7 1 8 77 9 78 10 79 11 80 14 81 15
REMARK SMILES IDX 82 16 86 17 83 18 85 19 84 20 87 21 88 22 9 24 10 25 11 26
REMARK SMILES IDX 12 27 13 28 14 29 15 30 16 31 17 32 18 33 76 34 19 35 75 36
REMARK SMILES IDX 20 37 21 38 22 39 69 40 23 41 74 42 68 43 70 44 24 45 73 46
REMARK SMILES IDX 67 47 66 48 25 50 55 51 36 52 54 53 37 54 40 55 53 56 71 57
REMARK SMILES IDX 38 58 39 59 52 61 72 62 41 63 26 64 27 65 35 66 28 67 34 68
REMARK SMILES IDX 29 69 30 70 31 71 32 72 33 73 56 74 57 75 65 76 58 77 64 78
REMARK SMILES IDX 59 79 60 80 61 81 62 82 63 83 42 84 43 85 51 86 44 87 50 88
REMARK SMILES IDX 45 89 46 90 47 91 48 92 49 93
REMARK H PARENT 79 12 79 13 88 23 70 49 40 60
REMARK Flexibility Score: inf
ROOT
ATOM      1  O   UNL A   1      38.416  21.819  25.776  1.00  0.00    -0.376 OA
ENDROOT
BRANCH   1   2
ATOM      2  C   UNL A   1      37.464  21.276  24.878  1.00  0.00     0.202 C 
BRANCH   2   3
ATOM      3  C   UNL A   1      36.677  22.173  23.912  1.00  0.00     0.261 C 
BRANCH   3   4
ATOM      4  O   UNL A   1      35.410  22.628  24.408  1.00  0.00    -0.463 OA
BRANCH   4   5
ATOM      5  C   UNL A   1      35.351  23.844  25.029  1.00  0.00     0.314 C 
ATOM      6  O   UNL A   1      36.238  24.302  25.735  1.00  0.00    -0.252 OA
BRANCH   5   7
ATOM      7  C   UNL A   1      34.029  24.582  24.734  1.00  0.00     0.154 C 
ATOM      8  C   UNL A   1      33.941  24.927  23.247  1.00  0.00     0.026 C 
BRANCH   7   9
ATOM      9  C   UNL A   1      32.835  23.763  25.304  1.00  0.00     0.193 C 
ATOM     10  C   UNL A   1      33.177  23.450  26.764  1.00  0.00     0.076 C 
BRANCH   9  11
ATOM     11  N   UNL A   1      31.508  24.382  25.223  1.00  0.00    -0.343 N 
ATOM     12  H   UNL A   1      30.826  23.697  25.546  1.00  0.00     0.346 HD
ATOM     13  H   UNL A   1      31.400  24.660  24.248  1.00  0.00     0.346 HD
BRANCH  11  14
ATOM     14  C   UNL A   1      31.309  25.620  26.009  1.00  0.00     0.264 C 
BRANCH  14  15
ATOM     15  C   UNL A   1      30.665  26.923  25.403  1.00  0.00     0.049 C 
ATOM     16  C   UNL A   1      29.711  26.607  24.222  1.00  0.00     0.010 C 
ATOM     17  C   UNL A   1      31.556  28.222  25.310  1.00  0.00     0.023 C 
ATOM     18  C   UNL A   1      29.496  27.681  23.157  1.00  0.00     0.001 C 
ATOM     19  C   UNL A   1      31.062  29.243  24.266  1.00  0.00     0.006 C 
ATOM     20  C   UNL A   1      30.673  28.615  22.946  1.00  0.00     0.000 C 
BRANCH  17  21
ATOM     21  C   UNL A   1      33.080  28.035  25.282  1.00  0.00     0.160 C 
BRANCH  21  22
ATOM     22  O   UNL A   1      33.748  29.214  24.835  1.00  0.00    -0.396 OA
ATOM     23  H   UNL A   1      34.095  29.070  23.941  1.00  0.00     0.210 HD
ENDBRANCH  21  22
ENDBRANCH  17  21
ENDBRANCH  14  15
ENDBRANCH  11  14
ENDBRANCH   9  11
ENDBRANCH   7   9
ENDBRANCH   5   7
ENDBRANCH   4   5
ENDBRANCH   3   4
ENDBRANCH   2   3
ENDBRANCH   1   2
BRANCH   1  24
ATOM     24  C   UNL A   1      39.752  21.351  25.735  1.00  0.00     0.188 C 
BRANCH  24  25
ATOM     25  C   UNL A   1      40.558  21.240  27.044  1.00  0.00     0.188 C 
BRANCH  25  26
ATOM     26  O   UNL A   1      41.101  19.998  27.418  1.00  0.00    -0.376 OA
BRANCH  26  27
ATOM     27  C   UNL A   1      41.727  19.167  26.458  1.00  0.00     0.202 C 
BRANCH  27  28
ATOM     28  C   UNL A   1      42.885  19.586  25.527  1.00  0.00     0.261 C 
BRANCH  28  29
ATOM     29  O   UNL A   1      43.774  20.610  25.973  1.00  0.00    -0.460 OA
BRANCH  29  30
ATOM     30  C   UNL A   1      44.497  21.229  24.999  1.00  0.00     0.338 C 
ATOM     31  O   UNL A   1      44.652  20.860  23.856  1.00  0.00    -0.246 OA
BRANCH  30  32
ATOM     32  C   UNL A   1      44.884  22.567  25.501  1.00  0.00     0.060 A 
ATOM     33  C   UNL A   1      45.585  22.657  26.713  1.00  0.00     0.016 A 
ATOM     34  C   UNL A   1      44.575  23.717  24.775  1.00  0.00     0.016 A 
ATOM     35  C   UNL A   1      45.967  23.902  27.211  1.00  0.00     0.010 A 
ATOM     36  C   UNL A   1      44.933  24.966  25.289  1.00  0.00     0.010 A 
ATOM     37  C   UNL A   1      45.606  25.066  26.522  1.00  0.00    -0.014 A 
BRANCH  37  38
ATOM     38  C   UNL A   1      45.748  26.389  27.176  1.00  0.00     0.031 A 
ATOM     39  C   UNL A   1      47.076  27.090  27.072  1.00  0.00     0.074 A 
ATOM     40  C   UNL A   1      44.730  26.958  27.846  1.00  0.00     0.049 A 
ATOM     41  N   UNL A   1      47.468  28.209  27.622  1.00  0.00    -0.248 NA
ATOM     42  C   UNL A   1      48.098  26.437  26.238  1.00  0.00     0.031 C 
ATOM     43  C   UNL A   1      43.381  26.409  27.968  1.00  0.00     0.029 A 
ATOM     44  N   UNL A   1      44.683  28.129  28.563  1.00  0.00    -0.354 N 
ATOM     45  C   UNL A   1      48.786  28.385  27.216  1.00  0.00     0.074 A 
ATOM     46  C   UNL A   1      49.132  27.249  26.392  1.00  0.00     0.031 C 
ATOM     47  C   UNL A   1      42.640  27.239  28.726  1.00  0.00     0.029 A 
ATOM     48  C   UNL A   1      43.473  28.353  29.176  1.00  0.00     0.049 A 
ATOM     49  H   UNL A   1      45.445  28.750  28.631  1.00  0.00     0.167 HD
ATOM     50  C   UNL A   1      49.633  29.401  27.505  1.00  0.00     0.031 A 
ATOM     51  C   UNL A   1      43.094  29.331  30.024  1.00  0.00     0.031 A 
ATOM     52  C   UNL A   1      49.288  30.521  28.339  1.00  0.00     0.049 A 
ATOM     53  C   UNL A   1      44.084  30.405  30.403  1.00  0.00     0.074 A 
ATOM     54  C   UNL A   1      50.070  31.611  28.679  1.00  0.00     0.029 A 
ATOM     55  N   UNL A   1      48.067  30.691  28.973  1.00  0.00    -0.354 N 
ATOM     56  N   UNL A   1      45.320  30.573  29.994  1.00  0.00    -0.248 NA
ATOM     57  C   UNL A   1      43.624  31.427  31.356  1.00  0.00     0.031 C 
ATOM     58  C   UNL A   1      49.347  32.403  29.575  1.00  0.00     0.029 A 
ATOM     59  C   UNL A   1      48.086  31.850  29.731  1.00  0.00     0.049 A 
ATOM     60  H   UNL A   1      47.300  30.078  28.897  1.00  0.00     0.167 HD
ATOM     61  C   UNL A   1      45.770  31.737  30.610  1.00  0.00     0.074 A 
ATOM     62  C   UNL A   1      44.671  32.238  31.410  1.00  0.00     0.031 C 
ATOM     63  C   UNL A   1      46.982  32.340  30.519  1.00  0.00     0.031 A 
BRANCH  50  64
ATOM     64  C   UNL A   1      51.031  29.321  26.953  1.00  0.00    -0.014 A 
ATOM     65  C   UNL A   1      52.067  28.688  27.663  1.00  0.00     0.010 A 
ATOM     66  C   UNL A   1      51.303  29.856  25.679  1.00  0.00     0.010 A 
ATOM     67  C   UNL A   1      53.356  28.624  27.126  1.00  0.00     0.020 A 
ATOM     68  C   UNL A   1      52.583  29.766  25.126  1.00  0.00     0.020 A 
ATOM     69  C   UNL A   1      53.605  29.163  25.860  1.00  0.00     0.054 A 
BRANCH  69  70
ATOM     70  S   UNL A   1      55.279  29.036  25.175  1.00  0.00     0.124 S 
ATOM     71  O   UNL A   1      56.107  29.234  26.364  1.00  0.00    -0.237 OA
ATOM     72  O   UNL A   1      55.294  27.687  24.617  1.00  0.00    -0.237 OA
ATOM     73  O   UNL A   1      55.336  30.115  24.192  1.00  0.00    -0.744 OA
ENDBRANCH  69  70
ENDBRANCH  50  64
BRANCH  51  74
ATOM     74  C   UNL A   1      41.717  29.335  30.598  1.00  0.00    -0.014 A 
ATOM     75  C   UNL A   1      40.683  30.059  29.976  1.00  0.00     0.010 A 
ATOM     76  C   UNL A   1      41.436  28.630  31.782  1.00  0.00     0.010 A 
ATOM     77  C   UNL A   1      39.403  30.094  30.540  1.00  0.00     0.020 A 
ATOM     78  C   UNL A   1      40.150  28.637  32.332  1.00  0.00     0.020 A 
ATOM     79  C   UNL A   1      39.144  29.380  31.713  1.00  0.00     0.054 A 
BRANCH  79  80
ATOM     80  S   UNL A   1      37.465  29.408  32.400  1.00  0.00     0.124 S 
ATOM     81  O   UNL A   1      36.642  29.400  31.195  1.00  0.00    -0.237 OA
ATOM     82  O   UNL A   1      37.432  28.184  33.196  1.00  0.00    -0.237 OA
ATOM     83  O   UNL A   1      37.431  30.648  33.172  1.00  0.00    -0.744 OA
ENDBRANCH  79  80
ENDBRANCH  51  74
BRANCH  63  84
ATOM     84  C   UNL A   1      47.179  33.638  31.262  1.00  0.00    -0.014 A 
ATOM     85  C   UNL A   1      46.918  34.881  30.656  1.00  0.00     0.010 A 
ATOM     86  C   UNL A   1      47.573  33.607  32.613  1.00  0.00     0.010 A 
ATOM     87  C   UNL A   1      47.079  36.067  31.380  1.00  0.00     0.020 A 
ATOM     88  C   UNL A   1      47.702  34.787  33.348  1.00  0.00     0.020 A 
ATOM     89  C   UNL A   1      47.467  36.013  32.722  1.00  0.00     0.054 A 
BRANCH  89  90
ATOM     90  S   UNL A   1      47.624  37.564  33.649  1.00  0.00     0.124 S 
ATOM     91  O   UNL A   1      46.746  37.327  34.792  1.00  0.00    -0.237 OA
ATOM     92  O   UNL A   1      49.053  37.611  33.953  1.00  0.00    -0.237 OA
ATOM     93  O   UNL A   1      47.160  38.580  32.708  1.00  0.00    -0.744 OA
ENDBRANCH  89  90
ENDBRANCH  63  84
ENDBRANCH  37  38
ENDBRANCH  30  32
ENDBRANCH  29  30
ENDBRANCH  28  29
ENDBRANCH  27  28
ENDBRANCH  26  27
ENDBRANCH  25  26
ENDBRANCH  24  25
ENDBRANCH   1  24
TORSDOF 26
ENDMDL
