MODEL 1
REMARK VINA RESULT:      -7.1      0.000      0.000
REMARK SMILES C[C@@](O)(CNC(=O)CC1([NH3+])CCC1)C(=O)OCCOCCOCCOC(=O)c1ccc(-c2c3nc(c(-c4ccc(S(=O)(=O)[O-])cc4)c4ccc([nH]4)c(-c4ccc(S(=O)(=O)[O-])cc4)c4nc(c(-c5ccc(S(=O)(=O)[O-])cc5)c5ccc2[nH]5)C=C4)C=C3)cc1
REMARK SMILES IDX 20 1 19 2 18 3 17 4 16 5 14 6 15 7 2 8 1 9 3 10 4 12 5 13
REMARK SMILES IDX 6 14 7 16 8 17 9 18 11 19 13 20 12 21 10 22 21 26 22 27
REMARK SMILES IDX 23 28 24 29 25 30 26 31 27 32 28 33 29 34 87 35 30 36 86 37
REMARK SMILES IDX 31 38 32 39 33 40 80 41 34 42 85 43 79 44 81 45 35 46 84 47
REMARK SMILES IDX 78 48 77 49 36 51 66 52 47 53 65 54 48 55 51 56 64 57 82 58
REMARK SMILES IDX 49 59 50 60 63 62 83 63 52 64 37 65 38 66 46 67 39 68 45 69
REMARK SMILES IDX 40 70 41 71 42 72 43 73 44 74 67 75 68 76 76 77 69 78 75 79
REMARK SMILES IDX 70 80 71 81 72 82 73 83 74 84 53 85 54 86 62 87 55 88 61 89
REMARK SMILES IDX 56 90 57 91 58 92 59 93 60 94
REMARK H PARENT 3 11 5 15 10 23 10 24 10 25 81 50 51 61
REMARK Flexibility Score: inf
ROOT
ATOM      1  C   UNL A   1      37.989  34.559  34.755  1.00  0.00     0.188 C 
ENDROOT
BRANCH   1   2
ATOM      2  O   UNL A   1      38.959  33.668  34.218  1.00  0.00    -0.376 OA
BRANCH   2   3
ATOM      3  C   UNL A   1      40.260  33.757  34.796  1.00  0.00     0.202 C 
BRANCH   3   4
ATOM      4  C   UNL A   1      41.104  32.481  34.615  1.00  0.00     0.261 C 
BRANCH   4   5
ATOM      5  O   UNL A   1      40.467  31.551  33.698  1.00  0.00    -0.461 OA
BRANCH   5   6
ATOM      6  C   UNL A   1      40.050  30.361  34.176  1.00  0.00     0.339 C 
ATOM      7  O   UNL A   1      38.892  30.157  34.542  1.00  0.00    -0.249 OA
BRANCH   6   8
ATOM      8  C   UNL A   1      41.108  29.222  34.254  1.00  0.00     0.176 C 
ATOM      9  C   UNL A   1      42.066  29.365  33.061  1.00  0.00     0.057 C 
BRANCH   8  10
ATOM     10  O   UNL A   1      40.297  28.039  33.963  1.00  0.00    -0.377 OA
ATOM     11  H   UNL A   1      39.485  28.307  33.507  1.00  0.00     0.212 HD
ENDBRANCH   8  10
BRANCH   8  12
ATOM     12  C   UNL A   1      41.874  28.878  35.565  1.00  0.00     0.162 C 
BRANCH  12  13
ATOM     13  N   UNL A   1      41.477  27.688  36.325  1.00  0.00    -0.352 N 
ATOM     14  C   UNL A   1      42.012  26.434  36.376  1.00  0.00     0.226 C 
ATOM     15  H   UNL A   1      40.689  27.817  36.901  1.00  0.00     0.163 HD
ATOM     16  O   UNL A   1      41.787  25.807  37.420  1.00  0.00    -0.275 OA
BRANCH  14  17
ATOM     17  C   UNL A   1      42.894  25.787  35.308  1.00  0.00     0.168 C 
BRANCH  17  18
ATOM     18  C   UNL A   1      43.008  24.280  35.207  1.00  0.00     0.103 C 
ATOM     19  C   UNL A   1      43.536  23.678  33.869  1.00  0.00     0.069 C 
ATOM     20  C   UNL A   1      44.139  23.445  35.902  1.00  0.00     0.069 C 
ATOM     21  C   UNL A   1      44.136  22.506  34.668  1.00  0.00     0.013 C 
BRANCH  18  22
ATOM     22  N   UNL A   1      41.785  23.627  35.608  1.00  0.00    -0.352 N 
ATOM     23  H   UNL A   1      41.195  24.290  36.109  1.00  0.00     0.344 HD
ATOM     24  H   UNL A   1      42.005  22.839  36.219  1.00  0.00     0.344 HD
ATOM     25  H   UNL A   1      41.293  23.289  34.781  1.00  0.00     0.344 HD
ENDBRANCH  18  22
ENDBRANCH  17  18
ENDBRANCH  14  17
ENDBRANCH  12  13
ENDBRANCH   8  12
ENDBRANCH   6   8
ENDBRANCH   5   6
ENDBRANCH   4   5
ENDBRANCH   3   4
ENDBRANCH   2   3
ENDBRANCH   1   2
BRANCH   1  26
ATOM     26  C   UNL A   1      36.577  33.994  34.768  1.00  0.00     0.188 C 
BRANCH  26  27
ATOM     27  O   UNL A   1      36.116  33.557  33.487  1.00  0.00    -0.376 OA
BRANCH  27  28
ATOM     28  C   UNL A   1      34.734  33.844  33.249  1.00  0.00     0.202 C 
BRANCH  28  29
ATOM     29  C   UNL A   1      34.366  34.340  31.841  1.00  0.00     0.261 C 
BRANCH  29  30
ATOM     30  O   UNL A   1      35.331  33.941  30.858  1.00  0.00    -0.460 OA
BRANCH  30  31
ATOM     31  C   UNL A   1      35.093  32.739  30.269  1.00  0.00     0.338 C 
ATOM     32  O   UNL A   1      34.042  32.361  29.782  1.00  0.00    -0.246 OA
BRANCH  31  33
ATOM     33  C   UNL A   1      36.380  32.023  30.112  1.00  0.00     0.060 A 
ATOM     34  C   UNL A   1      36.920  31.362  31.230  1.00  0.00     0.016 A 
ATOM     35  C   UNL A   1      37.006  31.932  28.869  1.00  0.00     0.016 A 
ATOM     36  C   UNL A   1      38.098  30.624  31.108  1.00  0.00     0.010 A 
ATOM     37  C   UNL A   1      38.194  31.212  28.753  1.00  0.00     0.010 A 
ATOM     38  C   UNL A   1      38.760  30.581  29.875  1.00  0.00    -0.014 A 
BRANCH  38  39
ATOM     39  C   UNL A   1      40.156  30.096  29.771  1.00  0.00     0.031 A 
ATOM     40  C   UNL A   1      41.249  31.113  29.949  1.00  0.00     0.074 A 
ATOM     41  C   UNL A   1      40.445  28.823  29.452  1.00  0.00     0.049 A 
ATOM     42  N   UNL A   1      42.527  31.012  29.699  1.00  0.00    -0.248 NA
ATOM     43  C   UNL A   1      40.834  32.432  30.458  1.00  0.00     0.031 C 
ATOM     44  C   UNL A   1      39.474  27.739  29.310  1.00  0.00     0.029 A 
ATOM     45  N   UNL A   1      41.651  28.235  29.162  1.00  0.00    -0.354 N 
ATOM     46  C   UNL A   1      43.062  32.261  29.991  1.00  0.00     0.074 A 
ATOM     47  C   UNL A   1      41.971  33.107  30.419  1.00  0.00     0.031 C 
ATOM     48  C   UNL A   1      40.122  26.622  28.931  1.00  0.00     0.029 A 
ATOM     49  C   UNL A   1      41.542  26.925  28.757  1.00  0.00     0.049 A 
ATOM     50  H   UNL A   1      42.513  28.707  29.236  1.00  0.00     0.167 HD
ATOM     51  C   UNL A   1      44.350  32.668  29.902  1.00  0.00     0.031 A 
ATOM     52  C   UNL A   1      42.475  26.087  28.262  1.00  0.00     0.031 A 
ATOM     53  C   UNL A   1      45.421  31.820  29.458  1.00  0.00     0.049 A 
ATOM     54  C   UNL A   1      43.892  26.582  28.098  1.00  0.00     0.074 A 
ATOM     55  C   UNL A   1      46.765  32.124  29.339  1.00  0.00     0.029 A 
ATOM     56  N   UNL A   1      45.268  30.502  29.055  1.00  0.00    -0.354 N 
ATOM     57  N   UNL A   1      44.392  27.763  28.384  1.00  0.00    -0.248 NA
ATOM     58  C   UNL A   1      44.871  25.635  27.547  1.00  0.00     0.031 C 
ATOM     59  C   UNL A   1      47.415  31.006  28.807  1.00  0.00     0.029 A 
ATOM     60  C   UNL A   1      46.489  29.984  28.663  1.00  0.00     0.049 A 
ATOM     61  H   UNL A   1      44.416  30.008  29.047  1.00  0.00     0.167 HD
ATOM     62  C   UNL A   1      45.748  27.687  28.079  1.00  0.00     0.074 A 
ATOM     63  C   UNL A   1      45.992  26.344  27.594  1.00  0.00     0.031 C 
ATOM     64  C   UNL A   1      46.708  28.639  28.194  1.00  0.00     0.031 A 
BRANCH  51  65
ATOM     65  C   UNL A   1      44.651  34.102  30.248  1.00  0.00    -0.014 A 
ATOM     66  C   UNL A   1      44.648  35.110  29.267  1.00  0.00     0.010 A 
ATOM     67  C   UNL A   1      44.919  34.450  31.585  1.00  0.00     0.010 A 
ATOM     68  C   UNL A   1      44.948  36.430  29.608  1.00  0.00     0.020 A 
ATOM     69  C   UNL A   1      45.189  35.776  31.936  1.00  0.00     0.020 A 
ATOM     70  C   UNL A   1      45.217  36.755  30.942  1.00  0.00     0.054 A 
BRANCH  70  71
ATOM     71  S   UNL A   1      45.577  38.483  31.360  1.00  0.00     0.124 S 
ATOM     72  O   UNL A   1      45.839  39.064  30.045  1.00  0.00    -0.237 OA
ATOM     73  O   UNL A   1      44.341  38.919  32.005  1.00  0.00    -0.237 OA
ATOM     74  O   UNL A   1      46.738  38.393  32.242  1.00  0.00    -0.744 OA
ENDBRANCH  70  71
ENDBRANCH  51  65
BRANCH  52  75
ATOM     75  C   UNL A   1      42.100  24.703  27.854  1.00  0.00    -0.014 A 
ATOM     76  C   UNL A   1      41.524  24.459  26.595  1.00  0.00     0.010 A 
ATOM     77  C   UNL A   1      42.314  23.619  28.725  1.00  0.00     0.010 A 
ATOM     78  C   UNL A   1      41.159  23.162  26.219  1.00  0.00     0.020 A 
ATOM     79  C   UNL A   1      41.978  22.316  28.342  1.00  0.00     0.020 A 
ATOM     80  C   UNL A   1      41.392  22.097  27.094  1.00  0.00     0.054 A 
BRANCH  80  81
ATOM     81  S   UNL A   1      40.959  20.417  26.561  1.00  0.00     0.124 S 
ATOM     82  O   UNL A   1      39.692  20.634  25.869  1.00  0.00    -0.237 OA
ATOM     83  O   UNL A   1      42.091  20.054  25.713  1.00  0.00    -0.237 OA
ATOM     84  O   UNL A   1      40.867  19.673  27.816  1.00  0.00    -0.744 OA
ENDBRANCH  80  81
ENDBRANCH  52  75
BRANCH  64  85
ATOM     85  C   UNL A   1      48.122  28.256  27.845  1.00  0.00    -0.014 A 
ATOM     86  C   UNL A   1      48.630  28.431  26.546  1.00  0.00     0.010 A 
ATOM     87  C   UNL A   1      48.983  27.804  28.864  1.00  0.00     0.010 A 
ATOM     88  C   UNL A   1      49.970  28.141  26.269  1.00  0.00     0.020 A 
ATOM     89  C   UNL A   1      50.328  27.542  28.597  1.00  0.00     0.020 A 
ATOM     90  C   UNL A   1      50.811  27.704  27.298  1.00  0.00     0.054 A 
BRANCH  90  91
ATOM     91  S   UNL A   1      52.561  27.404  26.927  1.00  0.00     0.124 S 
ATOM     92  O   UNL A   1      53.182  27.560  28.239  1.00  0.00    -0.237 OA
ATOM     93  O   UNL A   1      52.546  26.042  26.397  1.00  0.00    -0.237 OA
ATOM     94  O   UNL A   1      52.893  28.441  25.953  1.00  0.00    -0.744 OA
ENDBRANCH  90  91
ENDBRANCH  64  85
ENDBRANCH  38  39
ENDBRANCH  31  33
ENDBRANCH  30  31
ENDBRANCH  29  30
ENDBRANCH  28  29
ENDBRANCH  27  28
ENDBRANCH  26  27
ENDBRANCH   1  26
TORSDOF 26
ENDMDL
MODEL 2
REMARK VINA RESULT:      -6.5      4.040     11.287
REMARK SMILES C[C@@](O)(CNC(=O)CC1([NH3+])CCC1)C(=O)OCCOCCOCCOC(=O)c1ccc(-c2c3nc(c(-c4ccc(S(=O)(=O)[O-])cc4)c4ccc([nH]4)c(-c4ccc(S(=O)(=O)[O-])cc4)c4nc(c(-c5ccc(S(=O)(=O)[O-])cc5)c5ccc2[nH]5)C=C4)C=C3)cc1
REMARK SMILES IDX 20 1 19 2 18 3 17 4 16 5 14 6 15 7 2 8 1 9 3 10 4 12 5 13
REMARK SMILES IDX 6 14 7 16 8 17 9 18 11 19 13 20 12 21 10 22 21 26 22 27
REMARK SMILES IDX 23 28 24 29 25 30 26 31 27 32 28 33 29 34 87 35 30 36 86 37
REMARK SMILES IDX 31 38 32 39 33 40 80 41 34 42 85 43 79 44 81 45 35 46 84 47
REMARK SMILES IDX 78 48 77 49 36 51 66 52 47 53 65 54 48 55 51 56 64 57 82 58
REMARK SMILES IDX 49 59 50 60 63 62 83 63 52 64 37 65 38 66 46 67 39 68 45 69
REMARK SMILES IDX 40 70 41 71 42 72 43 73 44 74 67 75 68 76 76 77 69 78 75 79
REMARK SMILES IDX 70 80 71 81 72 82 73 83 74 84 53 85 54 86 62 87 55 88 61 89
REMARK SMILES IDX 56 90 57 91 58 92 59 93 60 94
REMARK H PARENT 3 11 5 15 10 23 10 24 10 25 81 50 51 61
REMARK Flexibility Score: inf
ROOT
ATOM      1  C   UNL A   1      46.937  25.871  25.657  1.00  0.00     0.188 C 
ENDROOT
BRANCH   1   2
ATOM      2  O   UNL A   1      46.523  26.693  24.571  1.00  0.00    -0.376 OA
BRANCH   2   3
ATOM      3  C   UNL A   1      45.294  27.389  24.764  1.00  0.00     0.202 C 
BRANCH   3   4
ATOM      4  C   UNL A   1      45.306  28.337  25.978  1.00  0.00     0.261 C 
BRANCH   4   5
ATOM      5  O   UNL A   1      46.210  29.454  25.769  1.00  0.00    -0.461 OA
BRANCH   5   6
ATOM      6  C   UNL A   1      46.525  30.232  26.825  1.00  0.00     0.339 C 
ATOM      7  O   UNL A   1      47.497  30.013  27.551  1.00  0.00    -0.249 OA
BRANCH   6   8
ATOM      8  C   UNL A   1      45.596  31.448  27.108  1.00  0.00     0.176 C 
ATOM      9  C   UNL A   1      44.255  30.924  27.641  1.00  0.00     0.057 C 
BRANCH   8  10
ATOM     10  O   UNL A   1      45.316  31.932  25.755  1.00  0.00    -0.377 OA
ATOM     11  H   UNL A   1      45.706  31.326  25.107  1.00  0.00     0.212 HD
ENDBRANCH   8  10
BRANCH   8  12
ATOM     12  C   UNL A   1      46.075  32.702  27.896  1.00  0.00     0.162 C 
BRANCH  12  13
ATOM     13  N   UNL A   1      46.609  32.526  29.251  1.00  0.00    -0.352 N 
ATOM     14  C   UNL A   1      46.100  32.866  30.469  1.00  0.00     0.226 C 
ATOM     15  H   UNL A   1      47.489  32.085  29.287  1.00  0.00     0.163 HD
ATOM     16  O   UNL A   1      46.514  32.190  31.421  1.00  0.00    -0.275 OA
BRANCH  14  17
ATOM     17  C   UNL A   1      45.041  33.936  30.737  1.00  0.00     0.168 C 
BRANCH  17  18
ATOM     18  C   UNL A   1      43.566  33.621  30.591  1.00  0.00     0.103 C 
ATOM     19  C   UNL A   1      42.551  34.508  31.374  1.00  0.00     0.069 C 
ATOM     20  C   UNL A   1      42.725  33.972  29.316  1.00  0.00     0.069 C 
ATOM     21  C   UNL A   1      41.524  34.269  30.251  1.00  0.00     0.013 C 
BRANCH  18  22
ATOM     22  N   UNL A   1      43.298  32.222  30.822  1.00  0.00    -0.352 N 
ATOM     23  H   UNL A   1      43.772  31.663  30.113  1.00  0.00     0.344 HD
ATOM     24  H   UNL A   1      42.292  32.056  30.768  1.00  0.00     0.344 HD
ATOM     25  H   UNL A   1      43.637  31.958  31.747  1.00  0.00     0.344 HD
ENDBRANCH  18  22
ENDBRANCH  17  18
ENDBRANCH  14  17
ENDBRANCH  12  13
ENDBRANCH   8  12
ENDBRANCH   6   8
ENDBRANCH   5   6
ENDBRANCH   4   5
ENDBRANCH   3   4
ENDBRANCH   2   3
ENDBRANCH   1   2
BRANCH   1  26
ATOM     26  C   UNL A   1      46.738  24.383  25.411  1.00  0.00     0.188 C 
BRANCH  26  27
ATOM     27  O   UNL A   1      46.308  24.067  24.085  1.00  0.00    -0.376 OA
BRANCH  27  28
ATOM     28  C   UNL A   1      45.298  23.054  24.038  1.00  0.00     0.202 C 
BRANCH  28  29
ATOM     29  C   UNL A   1      44.324  22.999  25.226  1.00  0.00     0.261 C 
BRANCH  29  30
ATOM     30  O   UNL A   1      42.996  23.393  24.855  1.00  0.00    -0.460 OA
BRANCH  30  31
ATOM     31  C   UNL A   1      42.067  23.294  25.843  1.00  0.00     0.338 C 
ATOM     32  O   UNL A   1      41.325  22.351  26.054  1.00  0.00    -0.246 OA
BRANCH  31  33
ATOM     33  C   UNL A   1      42.241  24.433  26.774  1.00  0.00     0.060 A 
ATOM     34  C   UNL A   1      42.329  24.165  28.152  1.00  0.00     0.016 A 
ATOM     35  C   UNL A   1      42.398  25.735  26.297  1.00  0.00     0.016 A 
ATOM     36  C   UNL A   1      42.556  25.204  29.056  1.00  0.00     0.010 A 
ATOM     37  C   UNL A   1      42.603  26.774  27.204  1.00  0.00     0.010 A 
ATOM     38  C   UNL A   1      42.654  26.518  28.585  1.00  0.00    -0.014 A 
BRANCH  38  39
ATOM     39  C   UNL A   1      42.567  27.672  29.511  1.00  0.00     0.031 A 
ATOM     40  C   UNL A   1      43.593  27.750  30.606  1.00  0.00     0.074 A 
ATOM     41  C   UNL A   1      41.571  28.572  29.434  1.00  0.00     0.049 A 
ATOM     42  N   UNL A   1      43.623  28.515  31.664  1.00  0.00    -0.248 NA
ATOM     43  C   UNL A   1      44.730  26.818  30.500  1.00  0.00     0.031 C 
ATOM     44  C   UNL A   1      40.554  28.629  28.386  1.00  0.00     0.029 A 
ATOM     45  N   UNL A   1      41.240  29.600  30.282  1.00  0.00    -0.354 N 
ATOM     46  C   UNL A   1      44.762  28.135  32.364  1.00  0.00     0.074 A 
ATOM     47  C   UNL A   1      45.387  27.064  31.622  1.00  0.00     0.031 C 
ATOM     48  C   UNL A   1      39.694  29.625  28.669  1.00  0.00     0.029 A 
ATOM     49  C   UNL A   1      40.071  30.239  29.941  1.00  0.00     0.049 A 
ATOM     50  H   UNL A   1      41.787  29.854  31.060  1.00  0.00     0.167 HD
ATOM     51  C   UNL A   1      45.241  28.634  33.528  1.00  0.00     0.031 A 
ATOM     52  C   UNL A   1      39.369  31.180  30.604  1.00  0.00     0.031 A 
ATOM     53  C   UNL A   1      44.601  29.688  34.264  1.00  0.00     0.049 A 
ATOM     54  C   UNL A   1      39.880  31.670  31.939  1.00  0.00     0.074 A 
ATOM     55  C   UNL A   1      45.003  30.278  35.448  1.00  0.00     0.029 A 
ATOM     56  N   UNL A   1      43.418  30.307  33.885  1.00  0.00    -0.354 N 
ATOM     57  N   UNL A   1      40.962  31.312  32.591  1.00  0.00    -0.248 NA
ATOM     58  C   UNL A   1      39.075  32.691  32.627  1.00  0.00     0.031 C 
ATOM     59  C   UNL A   1      44.030  31.213  35.817  1.00  0.00     0.029 A 
ATOM     60  C   UNL A   1      43.061  31.256  34.826  1.00  0.00     0.049 A 
ATOM     61  H   UNL A   1      42.907  30.101  33.070  1.00  0.00     0.167 HD
ATOM     62  C   UNL A   1      40.985  32.087  33.747  1.00  0.00     0.074 A 
ATOM     63  C   UNL A   1      39.813  32.937  33.702  1.00  0.00     0.031 C 
ATOM     64  C   UNL A   1      41.895  32.100  34.753  1.00  0.00     0.031 A 
BRANCH  51  65
ATOM     65  C   UNL A   1      46.489  28.007  34.091  1.00  0.00    -0.014 A 
ATOM     66  C   UNL A   1      47.767  28.503  33.774  1.00  0.00     0.010 A 
ATOM     67  C   UNL A   1      46.379  26.916  34.972  1.00  0.00     0.010 A 
ATOM     68  C   UNL A   1      48.911  27.894  34.294  1.00  0.00     0.020 A 
ATOM     69  C   UNL A   1      47.521  26.324  35.520  1.00  0.00     0.020 A 
ATOM     70  C   UNL A   1      48.780  26.807  35.164  1.00  0.00     0.054 A 
BRANCH  70  71
ATOM     71  S   UNL A   1      50.283  26.054  35.846  1.00  0.00     0.124 S 
ATOM     72  O   UNL A   1      49.737  24.966  36.653  1.00  0.00    -0.237 OA
ATOM     73  O   UNL A   1      51.007  25.644  34.645  1.00  0.00    -0.237 OA
ATOM     74  O   UNL A   1      50.903  27.139  36.603  1.00  0.00    -0.744 OA
ENDBRANCH  70  71
ENDBRANCH  51  65
BRANCH  52  75
ATOM     75  C   UNL A   1      38.093  31.703  30.039  1.00  0.00    -0.014 A 
ATOM     76  C   UNL A   1      36.865  31.106  30.372  1.00  0.00     0.010 A 
ATOM     77  C   UNL A   1      38.098  32.801  29.159  1.00  0.00     0.010 A 
ATOM     78  C   UNL A   1      35.669  31.587  29.828  1.00  0.00     0.020 A 
ATOM     79  C   UNL A   1      36.902  33.304  28.636  1.00  0.00     0.020 A 
ATOM     80  C   UNL A   1      35.695  32.687  28.966  1.00  0.00     0.054 A 
BRANCH  80  81
ATOM     81  S   UNL A   1      34.124  33.326  28.318  1.00  0.00     0.124 S 
ATOM     82  O   UNL A   1      33.530  32.131  27.727  1.00  0.00    -0.237 OA
ATOM     83  O   UNL A   1      33.469  33.831  29.521  1.00  0.00    -0.237 OA
ATOM     84  O   UNL A   1      34.541  34.354  27.366  1.00  0.00    -0.744 OA
ENDBRANCH  80  81
ENDBRANCH  52  75
BRANCH  64  85
ATOM     85  C   UNL A   1      41.699  33.097  35.865  1.00  0.00    -0.014 A 
ATOM     86  C   UNL A   1      42.205  34.405  35.775  1.00  0.00     0.010 A 
ATOM     87  C   UNL A   1      40.909  32.741  36.975  1.00  0.00     0.010 A 
ATOM     88  C   UNL A   1      41.940  35.333  36.788  1.00  0.00     0.020 A 
ATOM     89  C   UNL A   1      40.618  33.673  37.972  1.00  0.00     0.020 A 
ATOM     90  C   UNL A   1      41.144  34.963  37.876  1.00  0.00     0.054 A 
BRANCH  90  91
ATOM     91  S   UNL A   1      40.757  36.207  39.138  1.00  0.00     0.124 S 
ATOM     92  O   UNL A   1      42.088  36.607  39.588  1.00  0.00    -0.237 OA
ATOM     93  O   UNL A   1      40.021  37.215  38.379  1.00  0.00    -0.237 OA
ATOM     94  O   UNL A   1      39.963  35.472  40.120  1.00  0.00    -0.744 OA
ENDBRANCH  90  91
ENDBRANCH  64  85
ENDBRANCH  38  39
ENDBRANCH  31  33
ENDBRANCH  30  31
ENDBRANCH  29  30
ENDBRANCH  28  29
ENDBRANCH  27  28
ENDBRANCH  26  27
ENDBRANCH   1  26
TORSDOF 26
ENDMDL
MODEL 3
REMARK VINA RESULT:      -6.4      5.825      9.693
REMARK SMILES C[C@@](O)(CNC(=O)CC1([NH3+])CCC1)C(=O)OCCOCCOCCOC(=O)c1ccc(-c2c3nc(c(-c4ccc(S(=O)(=O)[O-])cc4)c4ccc([nH]4)c(-c4ccc(S(=O)(=O)[O-])cc4)c4nc(c(-c5ccc(S(=O)(=O)[O-])cc5)c5ccc2[nH]5)C=C4)C=C3)cc1
REMARK SMILES IDX 20 1 19 2 18 3 17 4 16 5 14 6 15 7 2 8 1 9 3 10 4 12 5 13
REMARK SMILES IDX 6 14 7 16 8 17 9 18 11 19 13 20 12 21 10 22 21 26 22 27
REMARK SMILES IDX 23 28 24 29 25 30 26 31 27 32 28 33 29 34 87 35 30 36 86 37
REMARK SMILES IDX 31 38 32 39 33 40 80 41 34 42 85 43 79 44 81 45 35 46 84 47
REMARK SMILES IDX 78 48 77 49 36 51 66 52 47 53 65 54 48 55 51 56 64 57 82 58
REMARK SMILES IDX 49 59 50 60 63 62 83 63 52 64 37 65 38 66 46 67 39 68 45 69
REMARK SMILES IDX 40 70 41 71 42 72 43 73 44 74 67 75 68 76 76 77 69 78 75 79
REMARK SMILES IDX 70 80 71 81 72 82 73 83 74 84 53 85 54 86 62 87 55 88 61 89
REMARK SMILES IDX 56 90 57 91 58 92 59 93 60 94
REMARK H PARENT 3 11 5 15 10 23 10 24 10 25 81 50 51 61
REMARK Flexibility Score: inf
ROOT
ATOM      1  C   UNL A   1      35.146  32.030  30.046  1.00  0.00     0.188 C 
ENDROOT
BRANCH   1   2
ATOM      2  O   UNL A   1      34.371  32.184  28.863  1.00  0.00    -0.376 OA
BRANCH   2   3
ATOM      3  C   UNL A   1      34.949  31.643  27.677  1.00  0.00     0.202 C 
BRANCH   3   4
ATOM      4  C   UNL A   1      35.326  30.154  27.799  1.00  0.00     0.261 C 
BRANCH   4   5
ATOM      5  O   UNL A   1      34.699  29.363  26.753  1.00  0.00    -0.461 OA
BRANCH   5   6
ATOM      6  C   UNL A   1      33.427  28.954  26.933  1.00  0.00     0.339 C 
ATOM      7  O   UNL A   1      33.065  28.306  27.917  1.00  0.00    -0.249 OA
BRANCH   6   8
ATOM      8  C   UNL A   1      32.399  29.337  25.828  1.00  0.00     0.176 C 
ATOM      9  C   UNL A   1      31.883  30.755  26.114  1.00  0.00     0.057 C 
BRANCH   8  10
ATOM     10  O   UNL A   1      31.280  28.445  26.136  1.00  0.00    -0.377 OA
ATOM     11  H   UNL A   1      30.793  28.790  26.901  1.00  0.00     0.212 HD
ENDBRANCH   8  10
BRANCH   8  12
ATOM     12  C   UNL A   1      32.682  29.125  24.312  1.00  0.00     0.162 C 
BRANCH  12  13
ATOM     13  N   UNL A   1      31.892  28.132  23.576  1.00  0.00    -0.352 N 
ATOM     14  C   UNL A   1      31.055  28.262  22.507  1.00  0.00     0.226 C 
ATOM     15  H   UNL A   1      31.981  27.210  23.912  1.00  0.00     0.163 HD
ATOM     16  O   UNL A   1      30.916  27.242  21.819  1.00  0.00    -0.275 OA
BRANCH  14  17
ATOM     17  C   UNL A   1      30.351  29.546  22.065  1.00  0.00     0.168 C 
BRANCH  17  18
ATOM     18  C   UNL A   1      28.996  29.920  22.632  1.00  0.00     0.103 C 
ATOM     19  C   UNL A   1      28.950  31.005  23.751  1.00  0.00     0.069 C 
ATOM     20  C   UNL A   1      27.954  30.812  21.874  1.00  0.00     0.069 C 
ATOM     21  C   UNL A   1      27.558  31.426  23.242  1.00  0.00     0.013 C 
BRANCH  18  22
ATOM     22  N   UNL A   1      28.246  28.752  23.027  1.00  0.00    -0.352 N 
ATOM     23  H   UNL A   1      27.509  29.026  23.676  1.00  0.00     0.344 HD
ATOM     24  H   UNL A   1      28.870  28.086  23.483  1.00  0.00     0.344 HD
ATOM     25  H   UNL A   1      27.831  28.319  22.202  1.00  0.00     0.344 HD
ENDBRANCH  18  22
ENDBRANCH  17  18
ENDBRANCH  14  17
ENDBRANCH  12  13
ENDBRANCH   8  12
ENDBRANCH   6   8
ENDBRANCH   5   6
ENDBRANCH   4   5
ENDBRANCH   3   4
ENDBRANCH   2   3
ENDBRANCH   1   2
BRANCH   1  26
ATOM     26  C   UNL A   1      34.913  33.122  31.079  1.00  0.00     0.188 C 
BRANCH  26  27
ATOM     27  O   UNL A   1      34.710  32.630  32.407  1.00  0.00    -0.376 OA
BRANCH  27  28
ATOM     28  C   UNL A   1      34.352  33.650  33.345  1.00  0.00     0.202 C 
BRANCH  28  29
ATOM     29  C   UNL A   1      35.407  34.014  34.403  1.00  0.00     0.261 C 
BRANCH  29  30
ATOM     30  O   UNL A   1      36.588  33.208  34.288  1.00  0.00    -0.460 OA
BRANCH  30  31
ATOM     31  C   UNL A   1      37.760  33.896  34.314  1.00  0.00     0.338 C 
ATOM     32  O   UNL A   1      37.896  35.102  34.417  1.00  0.00    -0.246 OA
BRANCH  31  33
ATOM     33  C   UNL A   1      38.876  32.928  34.416  1.00  0.00     0.060 A 
ATOM     34  C   UNL A   1      40.172  33.362  34.085  1.00  0.00     0.016 A 
ATOM     35  C   UNL A   1      38.669  31.638  34.907  1.00  0.00     0.016 A 
ATOM     36  C   UNL A   1      41.260  32.499  34.228  1.00  0.00     0.010 A 
ATOM     37  C   UNL A   1      39.753  30.770  35.029  1.00  0.00     0.010 A 
ATOM     38  C   UNL A   1      41.046  31.186  34.663  1.00  0.00    -0.014 A 
BRANCH  38  39
ATOM     39  C   UNL A   1      42.096  30.150  34.522  1.00  0.00     0.031 A 
ATOM     40  C   UNL A   1      43.066  29.999  35.660  1.00  0.00     0.074 A 
ATOM     41  C   UNL A   1      42.235  29.427  33.397  1.00  0.00     0.049 A 
ATOM     42  N   UNL A   1      44.190  29.337  35.711  1.00  0.00    -0.248 NA
ATOM     43  C   UNL A   1      42.726  30.713  36.903  1.00  0.00     0.031 C 
ATOM     44  C   UNL A   1      41.325  29.449  32.253  1.00  0.00     0.029 A 
ATOM     45  N   UNL A   1      43.223  28.550  33.025  1.00  0.00    -0.354 N 
ATOM     46  C   UNL A   1      44.707  29.580  36.978  1.00  0.00     0.074 A 
ATOM     47  C   UNL A   1      43.784  30.461  37.657  1.00  0.00     0.031 C 
ATOM     48  C   UNL A   1      41.814  28.642  31.293  1.00  0.00     0.029 A 
ATOM     49  C   UNL A   1      43.093  28.088  31.737  1.00  0.00     0.049 A 
ATOM     50  H   UNL A   1      43.956  28.277  33.625  1.00  0.00     0.167 HD
ATOM     51  C   UNL A   1      45.855  29.114  37.524  1.00  0.00     0.031 A 
ATOM     52  C   UNL A   1      43.933  27.342  30.991  1.00  0.00     0.031 A 
ATOM     53  C   UNL A   1      46.771  28.252  36.830  1.00  0.00     0.049 A 
ATOM     54  C   UNL A   1      45.245  26.894  31.592  1.00  0.00     0.074 A 
ATOM     55  C   UNL A   1      47.958  27.711  37.290  1.00  0.00     0.029 A 
ATOM     56  N   UNL A   1      46.604  27.810  35.527  1.00  0.00    -0.354 N 
ATOM     57  N   UNL A   1      45.722  27.121  32.794  1.00  0.00    -0.248 NA
ATOM     58  C   UNL A   1      46.129  26.089  30.737  1.00  0.00     0.031 C 
ATOM     59  C   UNL A   1      48.538  26.990  36.242  1.00  0.00     0.029 A 
ATOM     60  C   UNL A   1      47.678  27.023  35.155  1.00  0.00     0.049 A 
ATOM     61  H   UNL A   1      45.836  28.026  34.950  1.00  0.00     0.167 HD
ATOM     62  C   UNL A   1      46.946  26.460  32.849  1.00  0.00     0.074 A 
ATOM     63  C   UNL A   1      47.132  25.819  31.564  1.00  0.00     0.031 C 
ATOM     64  C   UNL A   1      47.834  26.384  33.871  1.00  0.00     0.031 A 
BRANCH  51  65
ATOM     65  C   UNL A   1      46.196  29.570  38.918  1.00  0.00    -0.014 A 
ATOM     66  C   UNL A   1      46.850  30.793  39.151  1.00  0.00     0.010 A 
ATOM     67  C   UNL A   1      45.835  28.768  40.016  1.00  0.00     0.010 A 
ATOM     68  C   UNL A   1      47.173  31.186  40.451  1.00  0.00     0.020 A 
ATOM     69  C   UNL A   1      46.128  29.173  41.322  1.00  0.00     0.020 A 
ATOM     70  C   UNL A   1      46.809  30.372  41.529  1.00  0.00     0.054 A 
BRANCH  70  71
ATOM     71  S   UNL A   1      47.217  30.922  43.209  1.00  0.00     0.124 S 
ATOM     72  O   UNL A   1      46.569  32.231  43.264  1.00  0.00    -0.237 OA
ATOM     73  O   UNL A   1      46.611  29.885  44.040  1.00  0.00    -0.237 OA
ATOM     74  O   UNL A   1      48.678  30.951  43.220  1.00  0.00    -0.744 OA
ENDBRANCH  70  71
ENDBRANCH  51  65
BRANCH  52  75
ATOM     75  C   UNL A   1      43.581  26.993  29.585  1.00  0.00    -0.014 A 
ATOM     76  C   UNL A   1      43.973  27.825  28.522  1.00  0.00     0.010 A 
ATOM     77  C   UNL A   1      42.846  25.827  29.300  1.00  0.00     0.010 A 
ATOM     78  C   UNL A   1      43.629  27.505  27.204  1.00  0.00     0.020 A 
ATOM     79  C   UNL A   1      42.525  25.488  27.982  1.00  0.00     0.020 A 
ATOM     80  C   UNL A   1      42.910  26.335  26.942  1.00  0.00     0.054 A 
BRANCH  80  81
ATOM     81  S   UNL A   1      42.523  25.914  25.219  1.00  0.00     0.124 S 
ATOM     82  O   UNL A   1      43.055  27.067  24.498  1.00  0.00    -0.237 OA
ATOM     83  O   UNL A   1      43.247  24.660  25.031  1.00  0.00    -0.237 OA
ATOM     84  O   UNL A   1      41.067  25.793  25.215  1.00  0.00    -0.744 OA
ENDBRANCH  80  81
ENDBRANCH  52  75
BRANCH  64  85
ATOM     85  C   UNL A   1      49.064  25.537  33.672  1.00  0.00    -0.014 A 
ATOM     86  C   UNL A   1      50.280  26.098  33.246  1.00  0.00     0.010 A 
ATOM     87  C   UNL A   1      49.019  24.171  34.013  1.00  0.00     0.010 A 
ATOM     88  C   UNL A   1      51.426  25.301  33.146  1.00  0.00     0.020 A 
ATOM     89  C   UNL A   1      50.167  23.381  33.942  1.00  0.00     0.020 A 
ATOM     90  C   UNL A   1      51.363  23.950  33.500  1.00  0.00     0.054 A 
BRANCH  90  91
ATOM     91  S   UNL A   1      52.880  22.957  33.428  1.00  0.00     0.124 S 
ATOM     92  O   UNL A   1      52.378  21.670  32.956  1.00  0.00    -0.237 OA
ATOM     93  O   UNL A   1      53.702  23.699  32.475  1.00  0.00    -0.237 OA
ATOM     94  O   UNL A   1      53.367  22.968  34.805  1.00  0.00    -0.744 OA
ENDBRANCH  90  91
ENDBRANCH  64  85
ENDBRANCH  38  39
ENDBRANCH  31  33
ENDBRANCH  30  31
ENDBRANCH  29  30
ENDBRANCH  28  29
ENDBRANCH  27  28
ENDBRANCH  26  27
ENDBRANCH   1  26
TORSDOF 26
ENDMDL
