MODEL 1
REMARK VINA RESULT:      -9.1      0.000      0.000
REMARK SMILES CS(=O)(=O)CCSCc1cc(F)cc(/C=C/C(=O)OCCOCCOCCOC(=O)c2ccc(-c3c4nc(c(-c5ccc(S(=O)(=O)[O-])cc5)c5ccc([nH]5)c(-c5ccc(S(=O)(=O)[O-])cc5)c5nc(c(-c6ccc(S(=O)(=O)[O-])cc6)c6ccc3[nH]6)C=C5)C=C4)cc2)c1
REMARK SMILES IDX 22 1 21 2 20 3 19 4 17 5 18 6 16 7 15 8 14 9 9 10 10 11
REMARK SMILES IDX 91 12 11 13 12 14 13 15 8 16 7 17 6 18 5 19 2 20 1 21 3 22
REMARK SMILES IDX 4 23 23 24 24 25 25 26 26 27 27 28 28 29 29 30 30 31 31 32
REMARK SMILES IDX 32 33 90 34 33 35 89 36 34 37 35 38 36 39 83 40 37 41 88 42
REMARK SMILES IDX 82 43 84 44 38 45 87 46 81 47 80 48 39 50 69 51 50 52 68 53
REMARK SMILES IDX 51 54 54 55 67 56 85 57 52 58 53 59 66 61 86 62 55 63 40 64
REMARK SMILES IDX 41 65 49 66 42 67 48 68 43 69 44 70 45 71 46 72 47 73 70 74
REMARK SMILES IDX 71 75 79 76 72 77 78 78 73 79 74 80 75 81 76 82 77 83 56 84
REMARK SMILES IDX 57 85 65 86 58 87 64 88 59 89 60 90 61 91 62 92 63 93
REMARK H PARENT 84 49 54 60
REMARK Flexibility Score: inf
ROOT
ATOM      1  O   UNL A   1      42.871  21.467  25.446  1.00  0.00    -0.376 OA
ENDROOT
BRANCH   1   2
ATOM      2  C   UNL A   1      42.275  20.767  26.524  1.00  0.00     0.202 C 
BRANCH   2   3
ATOM      3  C   UNL A   1      40.764  20.804  26.805  1.00  0.00     0.261 C 
BRANCH   3   4
ATOM      4  O   UNL A   1      39.938  21.291  25.745  1.00  0.00    -0.460 OA
BRANCH   4   5
ATOM      5  C   UNL A   1      39.021  22.226  26.092  1.00  0.00     0.330 C 
ATOM      6  O   UNL A   1      39.253  23.346  26.519  1.00  0.00    -0.247 OA
BRANCH   5   7
ATOM      7  C   UNL A   1      37.641  21.760  25.839  1.00  0.00     0.094 C 
ATOM      8  C   UNL A   1      36.814  22.322  24.945  1.00  0.00     0.016 C 
BRANCH   8   9
ATOM      9  C   UNL A   1      35.479  21.802  24.643  1.00  0.00    -0.022 A 
ATOM     10  C   UNL A   1      33.365  22.218  23.463  1.00  0.00    -0.035 A 
ATOM     11  C   UNL A   1      32.896  20.985  23.931  1.00  0.00     0.043 A 
ATOM     12  C   UNL A   1      34.650  22.609  23.856  1.00  0.00     0.013 A 
ATOM     13  C   UNL A   1      33.695  20.201  24.763  1.00  0.00     0.124 A 
ATOM     14  F   UNL A   1      33.202  19.054  25.247  1.00  0.00    -0.207 F 
ATOM     15  C   UNL A   1      34.981  20.594  25.122  1.00  0.00     0.047 A 
BRANCH  10  16
ATOM     16  C   UNL A   1      32.465  23.153  22.699  1.00  0.00     0.105 C 
BRANCH  16  17
ATOM     17  S   UNL A   1      31.005  23.818  23.560  1.00  0.00    -0.156 SA
BRANCH  17  18
ATOM     18  C   UNL A   1      31.650  25.190  24.593  1.00  0.00     0.086 C 
BRANCH  18  19
ATOM     19  C   UNL A   1      32.402  26.313  23.894  1.00  0.00     0.147 C 
BRANCH  19  20
ATOM     20  S   UNL A   1      31.410  27.496  23.006  1.00  0.00     0.148 S 
ATOM     21  C   UNL A   1      32.477  28.904  22.790  1.00  0.00     0.158 C 
ATOM     22  O   UNL A   1      30.338  27.913  23.890  1.00  0.00    -0.229 OA
ATOM     23  O   UNL A   1      31.101  26.957  21.698  1.00  0.00    -0.229 OA
ENDBRANCH  19  20
ENDBRANCH  18  19
ENDBRANCH  17  18
ENDBRANCH  16  17
ENDBRANCH  10  16
ENDBRANCH   8   9
ENDBRANCH   5   7
ENDBRANCH   4   5
ENDBRANCH   3   4
ENDBRANCH   2   3
ENDBRANCH   1   2
BRANCH   1  24
ATOM     24  C   UNL A   1      44.268  21.394  25.212  1.00  0.00     0.188 C 
BRANCH  24  25
ATOM     25  C   UNL A   1      44.890  22.097  23.989  1.00  0.00     0.188 C 
BRANCH  25  26
ATOM     26  O   UNL A   1      45.943  22.988  24.263  1.00  0.00    -0.376 OA
BRANCH  26  27
ATOM     27  C   UNL A   1      45.732  24.129  25.075  1.00  0.00     0.202 C 
BRANCH  27  28
ATOM     28  C   UNL A   1      44.529  25.092  25.014  1.00  0.00     0.261 C 
BRANCH  28  29
ATOM     29  O   UNL A   1      43.462  24.919  25.947  1.00  0.00    -0.460 OA
BRANCH  29  30
ATOM     30  C   UNL A   1      42.473  25.845  25.890  1.00  0.00     0.338 C 
ATOM     31  O   UNL A   1      41.685  26.028  24.982  1.00  0.00    -0.246 OA
BRANCH  30  32
ATOM     32  C   UNL A   1      42.389  26.514  27.201  1.00  0.00     0.060 A 
ATOM     33  C   UNL A   1      41.576  25.950  28.193  1.00  0.00     0.016 A 
ATOM     34  C   UNL A   1      43.089  27.698  27.442  1.00  0.00     0.016 A 
ATOM     35  C   UNL A   1      41.445  26.587  29.427  1.00  0.00     0.010 A 
ATOM     36  C   UNL A   1      42.940  28.343  28.673  1.00  0.00     0.010 A 
ATOM     37  C   UNL A   1      42.099  27.804  29.661  1.00  0.00    -0.014 A 
BRANCH  37  38
ATOM     38  C   UNL A   1      41.778  28.596  30.874  1.00  0.00     0.031 A 
ATOM     39  C   UNL A   1      40.610  29.543  30.827  1.00  0.00     0.074 A 
ATOM     40  C   UNL A   1      42.506  28.472  31.999  1.00  0.00     0.049 A 
ATOM     41  N   UNL A   1      40.175  30.368  31.744  1.00  0.00    -0.248 NA
ATOM     42  C   UNL A   1      39.828  29.561  29.579  1.00  0.00     0.031 C 
ATOM     43  C   UNL A   1      43.634  27.562  32.184  1.00  0.00     0.029 A 
ATOM     44  N   UNL A   1      42.403  29.130  33.200  1.00  0.00    -0.354 N 
ATOM     45  C   UNL A   1      39.073  31.005  31.186  1.00  0.00     0.074 A 
ATOM     46  C   UNL A   1      38.921  30.491  29.842  1.00  0.00     0.031 C 
ATOM     47  C   UNL A   1      44.128  27.727  33.425  1.00  0.00     0.029 A 
ATOM     48  C   UNL A   1      43.373  28.776  34.108  1.00  0.00     0.049 A 
ATOM     49  H   UNL A   1      41.700  29.791  33.394  1.00  0.00     0.167 HD
ATOM     50  C   UNL A   1      38.258  31.931  31.742  1.00  0.00     0.031 A 
ATOM     51  C   UNL A   1      43.635  29.261  35.339  1.00  0.00     0.031 A 
ATOM     52  C   UNL A   1      38.420  32.456  33.071  1.00  0.00     0.049 A 
ATOM     53  C   UNL A   1      42.761  30.351  35.905  1.00  0.00     0.074 A 
ATOM     54  C   UNL A   1      37.642  33.396  33.725  1.00  0.00     0.029 A 
ATOM     55  N   UNL A   1      39.433  32.097  33.946  1.00  0.00    -0.354 N 
ATOM     56  N   UNL A   1      41.709  30.928  35.374  1.00  0.00    -0.248 NA
ATOM     57  C   UNL A   1      43.109  30.855  37.244  1.00  0.00     0.031 C 
ATOM     58  C   UNL A   1      38.216  33.642  34.977  1.00  0.00     0.029 A 
ATOM     59  C   UNL A   1      39.316  32.812  35.125  1.00  0.00     0.049 A 
ATOM     60  H   UNL A   1      40.134  31.430  33.756  1.00  0.00     0.167 HD
ATOM     61  C   UNL A   1      41.253  31.837  36.324  1.00  0.00     0.074 A 
ATOM     62  C   UNL A   1      42.134  31.726  37.467  1.00  0.00     0.031 C 
ATOM     63  C   UNL A   1      40.197  32.686  36.257  1.00  0.00     0.031 A 
BRANCH  50  64
ATOM     64  C   UNL A   1      37.127  32.457  30.901  1.00  0.00    -0.014 A 
ATOM     65  C   UNL A   1      35.844  31.883  30.968  1.00  0.00     0.010 A 
ATOM     66  C   UNL A   1      37.337  33.570  30.068  1.00  0.00     0.010 A 
ATOM     67  C   UNL A   1      34.799  32.397  30.195  1.00  0.00     0.020 A 
ATOM     68  C   UNL A   1      36.289  34.102  29.312  1.00  0.00     0.020 A 
ATOM     69  C   UNL A   1      35.029  33.503  29.371  1.00  0.00     0.054 A 
BRANCH  69  70
ATOM     70  S   UNL A   1      33.645  34.171  28.408  1.00  0.00     0.124 S 
ATOM     71  O   UNL A   1      32.781  34.709  29.456  1.00  0.00    -0.237 OA
ATOM     72  O   UNL A   1      34.296  35.166  27.559  1.00  0.00    -0.237 OA
ATOM     73  O   UNL A   1      33.117  33.005  27.704  1.00  0.00    -0.744 OA
ENDBRANCH  69  70
ENDBRANCH  50  64
BRANCH  51  74
ATOM     74  C   UNL A   1      44.795  28.744  36.117  1.00  0.00    -0.014 A 
ATOM     75  C   UNL A   1      44.644  27.661  37.001  1.00  0.00     0.010 A 
ATOM     76  C   UNL A   1      46.057  29.356  35.997  1.00  0.00     0.010 A 
ATOM     77  C   UNL A   1      45.725  27.218  37.771  1.00  0.00     0.020 A 
ATOM     78  C   UNL A   1      47.146  28.899  36.743  1.00  0.00     0.020 A 
ATOM     79  C   UNL A   1      46.969  27.842  37.639  1.00  0.00     0.054 A 
BRANCH  79  80
ATOM     80  S   UNL A   1      48.364  27.234  38.627  1.00  0.00     0.124 S 
ATOM     81  O   UNL A   1      48.985  26.277  37.717  1.00  0.00    -0.237 OA
ATOM     82  O   UNL A   1      49.128  28.453  38.882  1.00  0.00    -0.237 OA
ATOM     83  O   UNL A   1      47.721  26.652  39.803  1.00  0.00    -0.744 OA
ENDBRANCH  79  80
ENDBRANCH  51  74
BRANCH  63  84
ATOM     84  C   UNL A   1      39.907  33.536  37.467  1.00  0.00    -0.014 A 
ATOM     85  C   UNL A   1      40.461  34.820  37.610  1.00  0.00     0.010 A 
ATOM     86  C   UNL A   1      39.013  33.063  38.447  1.00  0.00     0.010 A 
ATOM     87  C   UNL A   1      40.151  35.604  38.726  1.00  0.00     0.020 A 
ATOM     88  C   UNL A   1      38.678  33.854  39.549  1.00  0.00     0.020 A 
ATOM     89  C   UNL A   1      39.261  35.115  39.689  1.00  0.00     0.054 A 
BRANCH  89  90
ATOM     90  S   UNL A   1      38.838  36.167  41.104  1.00  0.00     0.124 S 
ATOM     91  O   UNL A   1      40.059  36.108  41.903  1.00  0.00    -0.237 OA
ATOM     92  O   UNL A   1      38.560  37.456  40.475  1.00  0.00    -0.237 OA
ATOM     93  O   UNL A   1      37.676  35.506  41.693  1.00  0.00    -0.744 OA
ENDBRANCH  89  90
ENDBRANCH  63  84
ENDBRANCH  37  38
ENDBRANCH  30  32
ENDBRANCH  29  30
ENDBRANCH  28  29
ENDBRANCH  27  28
ENDBRANCH  26  27
ENDBRANCH  25  26
ENDBRANCH  24  25
ENDBRANCH   1  24
TORSDOF 26
ENDMDL
MODEL 2
REMARK VINA RESULT:      -9.0      5.774      9.354
REMARK SMILES CS(=O)(=O)CCSCc1cc(F)cc(/C=C/C(=O)OCCOCCOCCOC(=O)c2ccc(-c3c4nc(c(-c5ccc(S(=O)(=O)[O-])cc5)c5ccc([nH]5)c(-c5ccc(S(=O)(=O)[O-])cc5)c5nc(c(-c6ccc(S(=O)(=O)[O-])cc6)c6ccc3[nH]6)C=C5)C=C4)cc2)c1
REMARK SMILES IDX 22 1 21 2 20 3 19 4 17 5 18 6 16 7 15 8 14 9 9 10 10 11
REMARK SMILES IDX 91 12 11 13 12 14 13 15 8 16 7 17 6 18 5 19 2 20 1 21 3 22
REMARK SMILES IDX 4 23 23 24 24 25 25 26 26 27 27 28 28 29 29 30 30 31 31 32
REMARK SMILES IDX 32 33 90 34 33 35 89 36 34 37 35 38 36 39 83 40 37 41 88 42
REMARK SMILES IDX 82 43 84 44 38 45 87 46 81 47 80 48 39 50 69 51 50 52 68 53
REMARK SMILES IDX 51 54 54 55 67 56 85 57 52 58 53 59 66 61 86 62 55 63 40 64
REMARK SMILES IDX 41 65 49 66 42 67 48 68 43 69 44 70 45 71 46 72 47 73 70 74
REMARK SMILES IDX 71 75 79 76 72 77 78 78 73 79 74 80 75 81 76 82 77 83 56 84
REMARK SMILES IDX 57 85 65 86 58 87 64 88 59 89 60 90 61 91 62 92 63 93
REMARK H PARENT 84 49 54 60
REMARK Flexibility Score: inf
ROOT
ATOM      1  O   UNL A   1      34.453  21.195  24.487  1.00  0.00    -0.376 OA
ENDROOT
BRANCH   1   2
ATOM      2  C   UNL A   1      33.042  21.246  24.381  1.00  0.00     0.202 C 
BRANCH   2   3
ATOM      3  C   UNL A   1      32.203  22.381  24.993  1.00  0.00     0.261 C 
BRANCH   3   4
ATOM      4  O   UNL A   1      31.096  21.979  25.802  1.00  0.00    -0.460 OA
BRANCH   4   5
ATOM      5  C   UNL A   1      30.469  22.970  26.481  1.00  0.00     0.330 C 
ATOM      6  O   UNL A   1      30.043  22.908  27.623  1.00  0.00    -0.247 OA
BRANCH   5   7
ATOM      7  C   UNL A   1      30.396  24.216  25.689  1.00  0.00     0.094 C 
ATOM      8  C   UNL A   1      30.906  25.389  26.093  1.00  0.00     0.016 C 
BRANCH   8   9
ATOM      9  C   UNL A   1      30.902  26.597  25.266  1.00  0.00    -0.022 A 
ATOM     10  C   UNL A   1      31.966  28.773  24.858  1.00  0.00    -0.035 A 
ATOM     11  C   UNL A   1      31.076  28.976  23.797  1.00  0.00     0.043 A 
ATOM     12  C   UNL A   1      31.838  27.586  25.589  1.00  0.00     0.013 A 
ATOM     13  C   UNL A   1      30.103  28.020  23.506  1.00  0.00     0.124 A 
ATOM     14  F   UNL A   1      29.224  28.263  22.524  1.00  0.00    -0.207 F 
ATOM     15  C   UNL A   1      30.007  26.833  24.226  1.00  0.00     0.047 A 
BRANCH  10  16
ATOM     16  C   UNL A   1      32.916  29.857  25.293  1.00  0.00     0.105 C 
BRANCH  16  17
ATOM     17  S   UNL A   1      33.440  29.879  27.038  1.00  0.00    -0.156 SA
BRANCH  17  18
ATOM     18  C   UNL A   1      33.079  31.581  27.618  1.00  0.00     0.086 C 
BRANCH  18  19
ATOM     19  C   UNL A   1      34.257  32.508  27.878  1.00  0.00     0.147 C 
BRANCH  19  20
ATOM     20  S   UNL A   1      33.862  34.150  28.443  1.00  0.00     0.148 S 
ATOM     21  C   UNL A   1      34.189  34.113  30.193  1.00  0.00     0.158 C 
ATOM     22  O   UNL A   1      32.431  34.329  28.287  1.00  0.00    -0.229 OA
ATOM     23  O   UNL A   1      34.778  35.089  27.831  1.00  0.00    -0.229 OA
ENDBRANCH  19  20
ENDBRANCH  18  19
ENDBRANCH  17  18
ENDBRANCH  16  17
ENDBRANCH  10  16
ENDBRANCH   8   9
ENDBRANCH   5   7
ENDBRANCH   4   5
ENDBRANCH   3   4
ENDBRANCH   2   3
ENDBRANCH   1   2
BRANCH   1  24
ATOM     24  C   UNL A   1      35.117  21.669  25.647  1.00  0.00     0.188 C 
BRANCH  24  25
ATOM     25  C   UNL A   1      36.594  22.104  25.577  1.00  0.00     0.188 C 
BRANCH  25  26
ATOM     26  O   UNL A   1      37.515  21.096  25.239  1.00  0.00    -0.376 OA
BRANCH  26  27
ATOM     27  C   UNL A   1      38.834  21.121  25.752  1.00  0.00     0.202 C 
BRANCH  27  28
ATOM     28  C   UNL A   1      39.700  19.899  26.123  1.00  0.00     0.261 C 
BRANCH  28  29
ATOM     29  O   UNL A   1      40.935  19.698  25.437  1.00  0.00    -0.460 OA
BRANCH  29  30
ATOM     30  C   UNL A   1      42.045  19.675  26.216  1.00  0.00     0.338 C 
ATOM     31  O   UNL A   1      42.722  18.707  26.508  1.00  0.00    -0.246 OA
BRANCH  30  32
ATOM     32  C   UNL A   1      42.415  21.066  26.536  1.00  0.00     0.060 A 
ATOM     33  C   UNL A   1      42.578  21.977  25.485  1.00  0.00     0.016 A 
ATOM     34  C   UNL A   1      42.620  21.461  27.860  1.00  0.00     0.016 A 
ATOM     35  C   UNL A   1      42.970  23.288  25.757  1.00  0.00     0.010 A 
ATOM     36  C   UNL A   1      43.031  22.770  28.127  1.00  0.00     0.010 A 
ATOM     37  C   UNL A   1      43.232  23.681  27.076  1.00  0.00    -0.014 A 
BRANCH  37  38
ATOM     38  C   UNL A   1      43.870  24.993  27.346  1.00  0.00     0.031 A 
ATOM     39  C   UNL A   1      43.028  26.099  27.921  1.00  0.00     0.074 A 
ATOM     40  C   UNL A   1      45.176  25.197  27.093  1.00  0.00     0.049 A 
ATOM     41  N   UNL A   1      43.356  27.336  28.191  1.00  0.00    -0.248 NA
ATOM     42  C   UNL A   1      41.627  25.766  28.232  1.00  0.00     0.031 C 
ATOM     43  C   UNL A   1      46.107  24.196  26.575  1.00  0.00     0.029 A 
ATOM     44  N   UNL A   1      45.941  26.329  27.232  1.00  0.00    -0.354 N 
ATOM     45  C   UNL A   1      42.207  27.928  28.700  1.00  0.00     0.074 A 
ATOM     46  C   UNL A   1      41.165  26.924  28.677  1.00  0.00     0.031 C 
ATOM     47  C   UNL A   1      47.318  24.762  26.429  1.00  0.00     0.029 A 
ATOM     48  C   UNL A   1      47.241  26.171  26.810  1.00  0.00     0.049 A 
ATOM     49  H   UNL A   1      45.593  27.172  27.601  1.00  0.00     0.167 HD
ATOM     50  C   UNL A   1      42.034  29.192  29.152  1.00  0.00     0.031 A 
ATOM     51  C   UNL A   1      48.244  27.069  26.721  1.00  0.00     0.031 A 
ATOM     52  C   UNL A   1      43.064  30.196  29.157  1.00  0.00     0.049 A 
ATOM     53  C   UNL A   1      48.003  28.493  27.153  1.00  0.00     0.074 A 
ATOM     54  C   UNL A   1      42.985  31.506  29.597  1.00  0.00     0.029 A 
ATOM     55  N   UNL A   1      44.355  30.007  28.692  1.00  0.00    -0.354 N 
ATOM     56  N   UNL A   1      46.917  29.033  27.654  1.00  0.00    -0.248 NA
ATOM     57  C   UNL A   1      49.128  29.431  27.012  1.00  0.00     0.031 C 
ATOM     58  C   UNL A   1      44.216  32.124  29.350  1.00  0.00     0.029 A 
ATOM     59  C   UNL A   1      45.078  31.182  28.812  1.00  0.00     0.049 A 
ATOM     60  H   UNL A   1      44.708  29.161  28.329  1.00  0.00     0.167 HD
ATOM     61  C   UNL A   1      47.237  30.361  27.915  1.00  0.00     0.074 A 
ATOM     62  C   UNL A   1      48.621  30.542  27.530  1.00  0.00     0.031 C 
ATOM     63  C   UNL A   1      46.457  31.345  28.430  1.00  0.00     0.031 A 
BRANCH  50  64
ATOM     64  C   UNL A   1      40.667  29.571  29.654  1.00  0.00    -0.014 A 
ATOM     65  C   UNL A   1      40.350  29.491  31.023  1.00  0.00     0.010 A 
ATOM     66  C   UNL A   1      39.703  30.057  28.754  1.00  0.00     0.010 A 
ATOM     67  C   UNL A   1      39.082  29.866  31.476  1.00  0.00     0.020 A 
ATOM     68  C   UNL A   1      38.443  30.456  29.207  1.00  0.00     0.020 A 
ATOM     69  C   UNL A   1      38.136  30.346  30.564  1.00  0.00     0.054 A 
BRANCH  69  70
ATOM     70  S   UNL A   1      36.512  30.859  31.187  1.00  0.00     0.124 S 
ATOM     71  O   UNL A   1      36.275  29.884  32.250  1.00  0.00    -0.237 OA
ATOM     72  O   UNL A   1      36.758  32.228  31.634  1.00  0.00    -0.237 OA
ATOM     73  O   UNL A   1      35.638  30.734  30.022  1.00  0.00    -0.744 OA
ENDBRANCH  69  70
ENDBRANCH  50  64
BRANCH  51  74
ATOM     74  C   UNL A   1      49.567  26.662  26.171  1.00  0.00    -0.014 A 
ATOM     75  C   UNL A   1      50.564  26.135  27.011  1.00  0.00     0.010 A 
ATOM     76  C   UNL A   1      49.846  26.827  24.802  1.00  0.00     0.010 A 
ATOM     77  C   UNL A   1      51.824  25.809  26.498  1.00  0.00     0.020 A 
ATOM     78  C   UNL A   1      51.093  26.476  24.280  1.00  0.00     0.020 A 
ATOM     79  C   UNL A   1      52.081  25.984  25.135  1.00  0.00     0.054 A 
BRANCH  79  80
ATOM     80  S   UNL A   1      53.713  25.528  24.485  1.00  0.00     0.124 S 
ATOM     81  O   UNL A   1      53.641  26.021  23.113  1.00  0.00    -0.237 OA
ATOM     82  O   UNL A   1      54.621  26.252  25.371  1.00  0.00    -0.237 OA
ATOM     83  O   UNL A   1      53.743  24.074  24.627  1.00  0.00    -0.744 OA
ENDBRANCH  79  80
ENDBRANCH  51  74
BRANCH  63  84
ATOM     84  C   UNL A   1      47.089  32.695  28.649  1.00  0.00    -0.014 A 
ATOM     85  C   UNL A   1      47.828  32.978  29.811  1.00  0.00     0.010 A 
ATOM     86  C   UNL A   1      46.992  33.675  27.643  1.00  0.00     0.010 A 
ATOM     87  C   UNL A   1      48.433  34.227  29.976  1.00  0.00     0.020 A 
ATOM     88  C   UNL A   1      47.619  34.915  27.792  1.00  0.00     0.020 A 
ATOM     89  C   UNL A   1      48.324  35.189  28.966  1.00  0.00     0.054 A 
BRANCH  89  90
ATOM     90  S   UNL A   1      49.156  36.785  29.183  1.00  0.00     0.124 S 
ATOM     91  O   UNL A   1      50.548  36.445  28.898  1.00  0.00    -0.237 OA
ATOM     92  O   UNL A   1      48.500  37.629  28.188  1.00  0.00    -0.237 OA
ATOM     93  O   UNL A   1      48.874  37.137  30.573  1.00  0.00    -0.744 OA
ENDBRANCH  89  90
ENDBRANCH  63  84
ENDBRANCH  37  38
ENDBRANCH  30  32
ENDBRANCH  29  30
ENDBRANCH  28  29
ENDBRANCH  27  28
ENDBRANCH  26  27
ENDBRANCH  25  26
ENDBRANCH  24  25
ENDBRANCH   1  24
TORSDOF 26
ENDMDL
MODEL 3
REMARK VINA RESULT:      -8.6      6.542     12.397
REMARK SMILES CS(=O)(=O)CCSCc1cc(F)cc(/C=C/C(=O)OCCOCCOCCOC(=O)c2ccc(-c3c4nc(c(-c5ccc(S(=O)(=O)[O-])cc5)c5ccc([nH]5)c(-c5ccc(S(=O)(=O)[O-])cc5)c5nc(c(-c6ccc(S(=O)(=O)[O-])cc6)c6ccc3[nH]6)C=C5)C=C4)cc2)c1
REMARK SMILES IDX 22 1 21 2 20 3 19 4 17 5 18 6 16 7 15 8 14 9 9 10 10 11
REMARK SMILES IDX 91 12 11 13 12 14 13 15 8 16 7 17 6 18 5 19 2 20 1 21 3 22
REMARK SMILES IDX 4 23 23 24 24 25 25 26 26 27 27 28 28 29 29 30 30 31 31 32
REMARK SMILES IDX 32 33 90 34 33 35 89 36 34 37 35 38 36 39 83 40 37 41 88 42
REMARK SMILES IDX 82 43 84 44 38 45 87 46 81 47 80 48 39 50 69 51 50 52 68 53
REMARK SMILES IDX 51 54 54 55 67 56 85 57 52 58 53 59 66 61 86 62 55 63 40 64
REMARK SMILES IDX 41 65 49 66 42 67 48 68 43 69 44 70 45 71 46 72 47 73 70 74
REMARK SMILES IDX 71 75 79 76 72 77 78 78 73 79 74 80 75 81 76 82 77 83 56 84
REMARK SMILES IDX 57 85 65 86 58 87 64 88 59 89 60 90 61 91 62 92 63 93
REMARK H PARENT 84 49 54 60
REMARK Flexibility Score: inf
ROOT
ATOM      1  O   UNL A   1      30.722  30.184  24.820  1.00  0.00    -0.376 OA
ENDROOT
BRANCH   1   2
ATOM      2  C   UNL A   1      30.071  30.407  23.581  1.00  0.00     0.202 C 
BRANCH   2   3
ATOM      3  C   UNL A   1      28.786  29.669  23.173  1.00  0.00     0.261 C 
BRANCH   3   4
ATOM      4  O   UNL A   1      28.951  28.332  22.696  1.00  0.00    -0.460 OA
BRANCH   4   5
ATOM      5  C   UNL A   1      28.584  27.349  23.553  1.00  0.00     0.330 C 
ATOM      6  O   UNL A   1      27.453  27.121  23.953  1.00  0.00    -0.247 OA
BRANCH   5   7
ATOM      7  C   UNL A   1      29.732  26.499  23.936  1.00  0.00     0.094 C 
ATOM      8  C   UNL A   1      30.329  25.632  23.106  1.00  0.00     0.016 C 
BRANCH   8   9
ATOM      9  C   UNL A   1      31.516  24.857  23.468  1.00  0.00    -0.022 A 
ATOM     10  C   UNL A   1      32.425  22.605  23.844  1.00  0.00    -0.035 A 
ATOM     11  C   UNL A   1      33.667  23.186  24.126  1.00  0.00     0.043 A 
ATOM     12  C   UNL A   1      31.364  23.467  23.544  1.00  0.00     0.013 A 
ATOM     13  C   UNL A   1      33.812  24.573  24.110  1.00  0.00     0.124 A 
ATOM     14  F   UNL A   1      34.994  25.109  24.441  1.00  0.00    -0.207 F 
ATOM     15  C   UNL A   1      32.752  25.414  23.783  1.00  0.00     0.047 A 
BRANCH  10  16
ATOM     16  C   UNL A   1      32.204  21.126  24.013  1.00  0.00     0.105 C 
BRANCH  16  17
ATOM     17  S   UNL A   1      33.083  20.284  25.368  1.00  0.00    -0.156 SA
BRANCH  17  18
ATOM     18  C   UNL A   1      33.625  18.683  24.656  1.00  0.00     0.086 C 
BRANCH  18  19
ATOM     19  C   UNL A   1      33.347  17.419  25.457  1.00  0.00     0.147 C 
BRANCH  19  20
ATOM     20  S   UNL A   1      33.880  15.886  24.725  1.00  0.00     0.148 S 
ATOM     21  C   UNL A   1      35.548  15.666  25.308  1.00  0.00     0.158 C 
ATOM     22  O   UNL A   1      33.961  16.095  23.292  1.00  0.00    -0.229 OA
ATOM     23  O   UNL A   1      33.070  14.809  25.254  1.00  0.00    -0.229 OA
ENDBRANCH  19  20
ENDBRANCH  18  19
ENDBRANCH  17  18
ENDBRANCH  16  17
ENDBRANCH  10  16
ENDBRANCH   8   9
ENDBRANCH   5   7
ENDBRANCH   4   5
ENDBRANCH   3   4
ENDBRANCH   2   3
ENDBRANCH   1   2
BRANCH   1  24
ATOM     24  C   UNL A   1      31.656  29.129  24.975  1.00  0.00     0.188 C 
BRANCH  24  25
ATOM     25  C   UNL A   1      31.656  28.272  26.256  1.00  0.00     0.188 C 
BRANCH  25  26
ATOM     26  O   UNL A   1      32.820  28.344  27.042  1.00  0.00    -0.376 OA
BRANCH  26  27
ATOM     27  C   UNL A   1      33.795  29.343  26.802  1.00  0.00     0.202 C 
BRANCH  27  28
ATOM     28  C   UNL A   1      34.525  30.190  27.864  1.00  0.00     0.261 C 
BRANCH  28  29
ATOM     29  O   UNL A   1      35.633  29.618  28.558  1.00  0.00    -0.460 OA
BRANCH  29  30
ATOM     30  C   UNL A   1      36.386  30.483  29.281  1.00  0.00     0.338 C 
ATOM     31  O   UNL A   1      36.003  31.257  30.138  1.00  0.00    -0.246 OA
BRANCH  30  32
ATOM     32  C   UNL A   1      37.806  30.224  28.979  1.00  0.00     0.060 A 
ATOM     33  C   UNL A   1      38.137  29.650  27.745  1.00  0.00     0.016 A 
ATOM     34  C   UNL A   1      38.799  30.524  29.915  1.00  0.00     0.016 A 
ATOM     35  C   UNL A   1      39.469  29.354  27.452  1.00  0.00     0.010 A 
ATOM     36  C   UNL A   1      40.129  30.208  29.626  1.00  0.00     0.010 A 
ATOM     37  C   UNL A   1      40.467  29.600  28.404  1.00  0.00    -0.014 A 
BRANCH  37  38
ATOM     38  C   UNL A   1      41.839  29.075  28.193  1.00  0.00     0.031 A 
ATOM     39  C   UNL A   1      42.991  30.042  28.219  1.00  0.00     0.074 A 
ATOM     40  C   UNL A   1      42.058  27.764  27.989  1.00  0.00     0.049 A 
ATOM     41  N   UNL A   1      44.263  29.821  28.011  1.00  0.00    -0.248 NA
ATOM     42  C   UNL A   1      42.665  31.447  28.518  1.00  0.00     0.031 C 
ATOM     43  C   UNL A   1      41.033  26.722  27.982  1.00  0.00     0.029 A 
ATOM     44  N   UNL A   1      43.227  27.087  27.739  1.00  0.00    -0.354 N 
ATOM     45  C   UNL A   1      44.888  31.054  28.152  1.00  0.00     0.074 A 
ATOM     46  C   UNL A   1      43.854  32.025  28.436  1.00  0.00     0.031 C 
ATOM     47  C   UNL A   1      41.617  25.537  27.729  1.00  0.00     0.029 A 
ATOM     48  C   UNL A   1      43.050  25.741  27.522  1.00  0.00     0.049 A 
ATOM     49  H   UNL A   1      44.109  27.525  27.719  1.00  0.00     0.167 HD
ATOM     50  C   UNL A   1      46.205  31.352  28.058  1.00  0.00     0.031 A 
ATOM     51  C   UNL A   1      43.940  24.789  27.173  1.00  0.00     0.031 A 
ATOM     52  C   UNL A   1      47.231  30.390  27.757  1.00  0.00     0.049 A 
ATOM     53  C   UNL A   1      45.390  25.162  26.994  1.00  0.00     0.074 A 
ATOM     54  C   UNL A   1      48.596  30.596  27.643  1.00  0.00     0.029 A 
ATOM     55  N   UNL A   1      47.008  29.045  27.511  1.00  0.00    -0.354 N 
ATOM     56  N   UNL A   1      45.970  26.328  27.153  1.00  0.00    -0.248 NA
ATOM     57  C   UNL A   1      46.308  24.085  26.592  1.00  0.00     0.031 C 
ATOM     58  C   UNL A   1      49.190  29.384  27.278  1.00  0.00     0.029 A 
ATOM     59  C   UNL A   1      48.205  28.412  27.223  1.00  0.00     0.049 A 
ATOM     60  H   UNL A   1      46.127  28.604  27.538  1.00  0.00     0.167 HD
ATOM     61  C   UNL A   1      47.321  26.119  26.900  1.00  0.00     0.074 A 
ATOM     62  C   UNL A   1      47.477  24.713  26.591  1.00  0.00     0.031 C 
ATOM     63  C   UNL A   1      48.345  27.009  26.924  1.00  0.00     0.031 A 
BRANCH  50  64
ATOM     64  C   UNL A   1      46.610  32.787  28.258  1.00  0.00    -0.014 A 
ATOM     65  C   UNL A   1      46.886  33.291  29.542  1.00  0.00     0.010 A 
ATOM     66  C   UNL A   1      46.762  33.630  27.143  1.00  0.00     0.010 A 
ATOM     67  C   UNL A   1      47.281  34.621  29.709  1.00  0.00     0.020 A 
ATOM     68  C   UNL A   1      47.179  34.954  27.304  1.00  0.00     0.020 A 
ATOM     69  C   UNL A   1      47.424  35.445  28.587  1.00  0.00     0.054 A 
BRANCH  69  70
ATOM     70  S   UNL A   1      47.973  37.156  28.831  1.00  0.00     0.124 S 
ATOM     71  O   UNL A   1      46.710  37.889  28.766  1.00  0.00    -0.237 OA
ATOM     72  O   UNL A   1      48.603  37.106  30.148  1.00  0.00    -0.237 OA
ATOM     73  O   UNL A   1      48.886  37.390  27.715  1.00  0.00    -0.744 OA
ENDBRANCH  69  70
ENDBRANCH  50  64
BRANCH  51  74
ATOM     74  C   UNL A   1      43.486  23.390  26.938  1.00  0.00    -0.014 A 
ATOM     75  C   UNL A   1      43.433  22.464  27.994  1.00  0.00     0.010 A 
ATOM     76  C   UNL A   1      43.132  22.969  25.642  1.00  0.00     0.010 A 
ATOM     77  C   UNL A   1      43.061  21.136  27.754  1.00  0.00     0.020 A 
ATOM     78  C   UNL A   1      42.732  21.652  25.404  1.00  0.00     0.020 A 
ATOM     79  C   UNL A   1      42.716  20.738  26.460  1.00  0.00     0.054 A 
BRANCH  79  80
ATOM     80  S   UNL A   1      42.210  19.018  26.177  1.00  0.00     0.124 S 
ATOM     81  O   UNL A   1      43.150  18.593  25.144  1.00  0.00    -0.237 OA
ATOM     82  O   UNL A   1      42.398  18.412  27.493  1.00  0.00    -0.237 OA
ATOM     83  O   UNL A   1      40.819  19.138  25.746  1.00  0.00    -0.744 OA
ENDBRANCH  79  80
ENDBRANCH  51  74
BRANCH  63  84
ATOM     84  C   UNL A   1      49.732  26.488  26.650  1.00  0.00    -0.014 A 
ATOM     85  C   UNL A   1      50.144  26.153  25.349  1.00  0.00     0.010 A 
ATOM     86  C   UNL A   1      50.656  26.392  27.707  1.00  0.00     0.010 A 
ATOM     87  C   UNL A   1      51.446  25.703  25.113  1.00  0.00     0.020 A 
ATOM     88  C   UNL A   1      51.967  25.969  27.473  1.00  0.00     0.020 A 
ATOM     89  C   UNL A   1      52.350  25.613  26.178  1.00  0.00     0.054 A 
BRANCH  89  90
ATOM     90  S   UNL A   1      54.047  25.070  25.841  1.00  0.00     0.124 S 
ATOM     91  O   UNL A   1      53.887  23.623  25.727  1.00  0.00    -0.237 OA
ATOM     92  O   UNL A   1      54.368  25.767  24.598  1.00  0.00    -0.237 OA
ATOM     93  O   UNL A   1      54.795  25.522  27.012  1.00  0.00    -0.744 OA
ENDBRANCH  89  90
ENDBRANCH  63  84
ENDBRANCH  37  38
ENDBRANCH  30  32
ENDBRANCH  29  30
ENDBRANCH  28  29
ENDBRANCH  27  28
ENDBRANCH  26  27
ENDBRANCH  25  26
ENDBRANCH  24  25
ENDBRANCH   1  24
TORSDOF 26
ENDMDL
