MODEL 1
REMARK VINA RESULT:      -6.5      0.000      0.000
REMARK SMILES O=C(OCCOCCOCCOC(=O)c1ccc2c(=O)n(CCC[NH+]3CCOCC3)c(=O)[nH]c2c1)c1ccc(-c2c3nc(c(-c4ccc(S(=O)(=O)[O-])cc4)c4ccc([nH]4)c(-c4ccc(S(=O)(=O)[O-])cc4)c4nc(c(-c5ccc(S(=O)(=O)[O-])cc5)c5ccc2[nH]5)C=C4)C=C3)cc1
REMARK SMILES IDX 8 1 7 2 6 3 5 4 4 5 3 6 2 7 1 8 36 9 37 10 95 11 38 12 94 13
REMARK SMILES IDX 39 14 40 15 41 16 88 17 42 18 93 19 87 20 89 21 43 22 92 23
REMARK SMILES IDX 86 24 85 25 44 27 74 28 55 29 73 30 56 31 59 32 72 33 90 34
REMARK SMILES IDX 57 35 58 36 71 38 91 39 60 40 45 41 46 42 54 43 47 44 53 45
REMARK SMILES IDX 48 46 49 47 50 48 51 49 52 50 75 51 76 52 84 53 77 54 83 55
REMARK SMILES IDX 78 56 79 57 80 58 81 59 82 60 61 61 62 62 70 63 63 64 69 65
REMARK SMILES IDX 64 66 65 67 66 68 67 69 68 70 9 71 10 72 11 73 12 74 13 75
REMARK SMILES IDX 14 76 15 77 16 78 35 79 17 80 34 81 18 82 33 83 19 84 31 85
REMARK SMILES IDX 20 87 21 88 32 89 22 90 23 91 24 92 25 93 26 94 30 95 27 97
REMARK SMILES IDX 29 98 28 99
REMARK H PARENT 89 26 59 37 33 86 25 96
REMARK Flexibility Score: inf
ROOT
ATOM      1  C   UNL A   1      45.881  29.943  26.446  1.00  0.00     0.188 C 
ENDROOT
BRANCH   1   2
ATOM      2  C   UNL A   1      46.564  28.832  25.664  1.00  0.00     0.188 C 
BRANCH   2   3
ATOM      3  O   UNL A   1      45.815  27.623  25.568  1.00  0.00    -0.376 OA
BRANCH   3   4
ATOM      4  C   UNL A   1      44.664  27.513  26.415  1.00  0.00     0.202 C 
BRANCH   4   5
ATOM      5  C   UNL A   1      43.388  26.924  25.769  1.00  0.00     0.261 C 
BRANCH   5   6
ATOM      6  O   UNL A   1      42.221  27.693  26.108  1.00  0.00    -0.460 OA
BRANCH   6   7
ATOM      7  C   UNL A   1      41.136  27.025  26.579  1.00  0.00     0.338 C 
ATOM      8  O   UNL A   1      40.493  26.164  26.005  1.00  0.00    -0.246 OA
BRANCH   7   9
ATOM      9  C   UNL A   1      40.749  27.664  27.863  1.00  0.00     0.060 A 
ATOM     10  C   UNL A   1      39.834  27.089  28.742  1.00  0.00     0.016 A 
ATOM     11  C   UNL A   1      41.289  28.924  28.150  1.00  0.00     0.016 A 
ATOM     12  C   UNL A   1      39.526  27.766  29.931  1.00  0.00     0.010 A 
ATOM     13  C   UNL A   1      40.944  29.618  29.284  1.00  0.00     0.010 A 
ATOM     14  C   UNL A   1      40.075  29.037  30.197  1.00  0.00    -0.014 A 
BRANCH  14  15
ATOM     15  C   UNL A   1      40.040  29.684  31.520  1.00  0.00     0.031 A 
ATOM     16  C   UNL A   1      39.097  30.807  31.836  1.00  0.00     0.074 A 
ATOM     17  C   UNL A   1      41.112  29.443  32.298  1.00  0.00     0.049 A 
ATOM     18  N   UNL A   1      38.896  31.410  32.977  1.00  0.00    -0.248 NA
ATOM     19  C   UNL A   1      38.284  31.348  30.736  1.00  0.00     0.031 C 
ATOM     20  C   UNL A   1      42.223  28.552  31.936  1.00  0.00     0.029 A 
ATOM     21  N   UNL A   1      41.492  29.980  33.493  1.00  0.00    -0.354 N 
ATOM     22  C   UNL A   1      37.872  32.327  32.753  1.00  0.00     0.074 A 
ATOM     23  C   UNL A   1      37.562  32.280  31.348  1.00  0.00     0.031 C 
ATOM     24  C   UNL A   1      43.174  28.634  32.873  1.00  0.00     0.029 A 
ATOM     25  C   UNL A   1      42.736  29.566  33.902  1.00  0.00     0.049 A 
ATOM     26  H   UNL A   1      40.931  30.603  34.010  1.00  0.00     0.167 HD
ATOM     27  C   UNL A   1      37.230  33.088  33.672  1.00  0.00     0.031 A 
ATOM     28  C   UNL A   1      43.444  29.899  34.996  1.00  0.00     0.031 A 
ATOM     29  C   UNL A   1      37.697  33.157  35.037  1.00  0.00     0.049 A 
ATOM     30  C   UNL A   1      42.771  30.774  36.006  1.00  0.00     0.074 A 
ATOM     31  C   UNL A   1      37.085  33.721  36.137  1.00  0.00     0.029 A 
ATOM     32  N   UNL A   1      38.930  32.673  35.466  1.00  0.00    -0.354 N 
ATOM     33  N   UNL A   1      41.587  31.338  35.931  1.00  0.00    -0.248 NA
ATOM     34  C   UNL A   1      43.488  31.027  37.257  1.00  0.00     0.031 C 
ATOM     35  C   UNL A   1      37.986  33.660  37.206  1.00  0.00     0.029 A 
ATOM     36  C   UNL A   1      39.135  33.000  36.792  1.00  0.00     0.049 A 
ATOM     37  H   UNL A   1      39.564  32.170  34.906  1.00  0.00     0.167 HD
ATOM     38  C   UNL A   1      41.402  32.002  37.133  1.00  0.00     0.074 A 
ATOM     39  C   UNL A   1      42.597  31.754  37.923  1.00  0.00     0.031 C 
ATOM     40  C   UNL A   1      40.346  32.745  37.544  1.00  0.00     0.031 A 
BRANCH  27  41
ATOM     41  C   UNL A   1      35.931  33.788  33.302  1.00  0.00    -0.014 A 
ATOM     42  C   UNL A   1      35.054  33.258  32.341  1.00  0.00     0.010 A 
ATOM     43  C   UNL A   1      35.669  35.094  33.764  1.00  0.00     0.010 A 
ATOM     44  C   UNL A   1      33.992  34.026  31.829  1.00  0.00     0.020 A 
ATOM     45  C   UNL A   1      34.615  35.866  33.267  1.00  0.00     0.020 A 
ATOM     46  C   UNL A   1      33.791  35.333  32.284  1.00  0.00     0.054 A 
BRANCH  46  47
ATOM     47  S   UNL A   1      32.471  36.344  31.558  1.00  0.00     0.124 S 
ATOM     48  O   UNL A   1      31.795  35.394  30.679  1.00  0.00    -0.237 OA
ATOM     49  O   UNL A   1      31.717  36.761  32.737  1.00  0.00    -0.237 OA
ATOM     50  O   UNL A   1      33.186  37.421  30.878  1.00  0.00    -0.744 OA
ENDBRANCH  46  47
ENDBRANCH  27  41
BRANCH  28  51
ATOM     51  C   UNL A   1      44.781  29.275  35.172  1.00  0.00    -0.014 A 
ATOM     52  C   UNL A   1      45.923  29.880  34.605  1.00  0.00     0.010 A 
ATOM     53  C   UNL A   1      44.879  27.967  35.672  1.00  0.00     0.010 A 
ATOM     54  C   UNL A   1      47.107  29.154  34.452  1.00  0.00     0.020 A 
ATOM     55  C   UNL A   1      46.072  27.246  35.542  1.00  0.00     0.020 A 
ATOM     56  C   UNL A   1      47.163  27.830  34.895  1.00  0.00     0.054 A 
BRANCH  56  57
ATOM     57  S   UNL A   1      48.651  26.855  34.534  1.00  0.00     0.124 S 
ATOM     58  O   UNL A   1      48.086  25.536  34.265  1.00  0.00    -0.237 OA
ATOM     59  O   UNL A   1      49.211  27.548  33.378  1.00  0.00    -0.237 OA
ATOM     60  O   UNL A   1      49.435  26.959  35.763  1.00  0.00    -0.744 OA
ENDBRANCH  56  57
ENDBRANCH  28  51
BRANCH  40  61
ATOM     61  C   UNL A   1      40.444  33.406  38.890  1.00  0.00    -0.014 A 
ATOM     62  C   UNL A   1      39.749  32.874  39.991  1.00  0.00     0.010 A 
ATOM     63  C   UNL A   1      41.075  34.657  39.006  1.00  0.00     0.010 A 
ATOM     64  C   UNL A   1      39.613  33.620  41.161  1.00  0.00     0.020 A 
ATOM     65  C   UNL A   1      40.972  35.389  40.188  1.00  0.00     0.020 A 
ATOM     66  C   UNL A   1      40.208  34.883  41.242  1.00  0.00     0.054 A 
BRANCH  66  67
ATOM     67  S   UNL A   1      39.924  35.883  42.726  1.00  0.00     0.124 S 
ATOM     68  O   UNL A   1      40.472  37.177  42.330  1.00  0.00    -0.237 OA
ATOM     69  O   UNL A   1      38.472  35.830  42.872  1.00  0.00    -0.237 OA
ATOM     70  O   UNL A   1      40.675  35.179  43.764  1.00  0.00    -0.744 OA
ENDBRANCH  66  67
ENDBRANCH  40  61
ENDBRANCH  14  15
ENDBRANCH   7   9
ENDBRANCH   6   7
ENDBRANCH   5   6
ENDBRANCH   4   5
ENDBRANCH   3   4
ENDBRANCH   2   3
ENDBRANCH   1   2
BRANCH   1  71
ATOM     71  O   UNL A   1      45.876  31.135  25.679  1.00  0.00    -0.376 OA
BRANCH  71  72
ATOM     72  C   UNL A   1      45.121  32.209  26.245  1.00  0.00     0.202 C 
BRANCH  72  73
ATOM     73  C   UNL A   1      44.170  31.903  27.421  1.00  0.00     0.261 C 
BRANCH  73  74
ATOM     74  O   UNL A   1      44.693  32.125  28.749  1.00  0.00    -0.460 OA
BRANCH  74  75
ATOM     75  C   UNL A   1      44.321  31.244  29.700  1.00  0.00     0.338 C 
ATOM     76  O   UNL A   1      44.356  30.024  29.614  1.00  0.00    -0.246 OA
BRANCH  75  77
ATOM     77  C   UNL A   1      43.766  31.976  30.859  1.00  0.00     0.062 A 
ATOM     78  C   UNL A   1      42.459  32.461  30.734  1.00  0.00     0.016 A 
ATOM     79  C   UNL A   1      44.496  32.199  32.041  1.00  0.00     0.042 A 
ATOM     80  C   UNL A   1      41.883  33.177  31.781  1.00  0.00     0.017 A 
ATOM     81  C   UNL A   1      43.918  32.951  33.069  1.00  0.00     0.056 A 
ATOM     82  C   UNL A   1      42.624  33.433  32.937  1.00  0.00     0.064 A 
ATOM     83  N   UNL A   1      44.616  33.250  34.237  1.00  0.00    -0.307 N 
ATOM     84  C   UNL A   1      42.063  34.215  34.047  1.00  0.00     0.264 A 
ATOM     85  C   UNL A   1      44.180  34.148  35.180  1.00  0.00     0.328 A 
ATOM     86  H   UNL A   1      45.472  32.791  34.395  1.00  0.00     0.171 HD
ATOM     87  O   UNL A   1      40.845  34.255  34.146  1.00  0.00    -0.268 OA
ATOM     88  N   UNL A   1      42.964  34.771  34.946  1.00  0.00    -0.260 N 
ATOM     89  O   UNL A   1      44.875  34.323  36.181  1.00  0.00    -0.248 OA
BRANCH  88  90
ATOM     90  C   UNL A   1      42.489  35.756  35.929  1.00  0.00     0.137 C 
BRANCH  90  91
ATOM     91  C   UNL A   1      42.647  37.246  35.578  1.00  0.00     0.083 C 
BRANCH  91  92
ATOM     92  C   UNL A   1      43.859  37.730  34.774  1.00  0.00     0.264 C 
BRANCH  92  93
ATOM     93  N   UNL A   1      44.211  39.127  34.500  1.00  0.00    -0.331 N 
ATOM     94  C   UNL A   1      43.379  39.756  33.457  1.00  0.00     0.291 C 
ATOM     95  C   UNL A   1      45.598  39.512  34.265  1.00  0.00     0.291 C 
ATOM     96  H   UNL A   1      44.009  39.486  35.433  1.00  0.00     0.348 HD
ATOM     97  C   UNL A   1      43.869  39.391  32.047  1.00  0.00     0.221 C 
ATOM     98  C   UNL A   1      46.084  39.165  32.855  1.00  0.00     0.221 C 
ATOM     99  O   UNL A   1      45.249  39.753  31.848  1.00  0.00    -0.370 OA
ENDBRANCH  92  93
ENDBRANCH  91  92
ENDBRANCH  90  91
ENDBRANCH  88  90
ENDBRANCH  75  77
ENDBRANCH  74  75
ENDBRANCH  73  74
ENDBRANCH  72  73
ENDBRANCH  71  72
ENDBRANCH   1  71
TORSDOF 24
ENDMDL
MODEL 2
REMARK VINA RESULT:      -6.3      5.477     12.949
REMARK SMILES O=C(OCCOCCOCCOC(=O)c1ccc2c(=O)n(CCC[NH+]3CCOCC3)c(=O)[nH]c2c1)c1ccc(-c2c3nc(c(-c4ccc(S(=O)(=O)[O-])cc4)c4ccc([nH]4)c(-c4ccc(S(=O)(=O)[O-])cc4)c4nc(c(-c5ccc(S(=O)(=O)[O-])cc5)c5ccc2[nH]5)C=C4)C=C3)cc1
REMARK SMILES IDX 8 1 7 2 6 3 5 4 4 5 3 6 2 7 1 8 36 9 37 10 95 11 38 12 94 13
REMARK SMILES IDX 39 14 40 15 41 16 88 17 42 18 93 19 87 20 89 21 43 22 92 23
REMARK SMILES IDX 86 24 85 25 44 27 74 28 55 29 73 30 56 31 59 32 72 33 90 34
REMARK SMILES IDX 57 35 58 36 71 38 91 39 60 40 45 41 46 42 54 43 47 44 53 45
REMARK SMILES IDX 48 46 49 47 50 48 51 49 52 50 75 51 76 52 84 53 77 54 83 55
REMARK SMILES IDX 78 56 79 57 80 58 81 59 82 60 61 61 62 62 70 63 63 64 69 65
REMARK SMILES IDX 64 66 65 67 66 68 67 69 68 70 9 71 10 72 11 73 12 74 13 75
REMARK SMILES IDX 14 76 15 77 16 78 35 79 17 80 34 81 18 82 33 83 19 84 31 85
REMARK SMILES IDX 20 87 21 88 32 89 22 90 23 91 24 92 25 93 26 94 30 95 27 97
REMARK SMILES IDX 29 98 28 99
REMARK H PARENT 89 26 59 37 33 86 25 96
REMARK Flexibility Score: inf
ROOT
ATOM      1  C   UNL A   1      34.989  33.796  32.903  1.00  0.00     0.188 C 
ENDROOT
BRANCH   1   2
ATOM      2  C   UNL A   1      35.471  32.374  32.663  1.00  0.00     0.188 C 
BRANCH   2   3
ATOM      3  O   UNL A   1      36.887  32.211  32.694  1.00  0.00    -0.376 OA
BRANCH   3   4
ATOM      4  C   UNL A   1      37.537  32.494  33.939  1.00  0.00     0.202 C 
BRANCH   4   5
ATOM      5  C   UNL A   1      38.064  31.276  34.733  1.00  0.00     0.261 C 
BRANCH   5   6
ATOM      6  O   UNL A   1      39.344  30.840  34.244  1.00  0.00    -0.460 OA
BRANCH   6   7
ATOM      7  C   UNL A   1      40.112  30.079  35.066  1.00  0.00     0.338 C 
ATOM      8  O   UNL A   1      39.900  29.812  36.235  1.00  0.00    -0.246 OA
BRANCH   7   9
ATOM      9  C   UNL A   1      41.368  29.772  34.335  1.00  0.00     0.060 A 
ATOM     10  C   UNL A   1      42.394  29.012  34.891  1.00  0.00     0.016 A 
ATOM     11  C   UNL A   1      41.533  30.334  33.063  1.00  0.00     0.016 A 
ATOM     12  C   UNL A   1      43.547  28.777  34.129  1.00  0.00     0.010 A 
ATOM     13  C   UNL A   1      42.684  30.156  32.336  1.00  0.00     0.010 A 
ATOM     14  C   UNL A   1      43.696  29.357  32.852  1.00  0.00    -0.014 A 
BRANCH  14  15
ATOM     15  C   UNL A   1      44.719  28.943  31.877  1.00  0.00     0.031 A 
ATOM     16  C   UNL A   1      44.604  27.671  31.090  1.00  0.00     0.074 A 
ATOM     17  C   UNL A   1      45.897  29.584  31.983  1.00  0.00     0.049 A 
ATOM     18  N   UNL A   1      45.381  27.225  30.139  1.00  0.00    -0.248 NA
ATOM     19  C   UNL A   1      43.492  26.763  31.414  1.00  0.00     0.031 C 
ATOM     20  C   UNL A   1      46.172  30.674  32.931  1.00  0.00     0.029 A 
ATOM     21  N   UNL A   1      47.096  29.366  31.371  1.00  0.00    -0.354 N 
ATOM     22  C   UNL A   1      44.799  26.041  29.691  1.00  0.00     0.074 A 
ATOM     23  C   UNL A   1      43.665  25.780  30.538  1.00  0.00     0.031 C 
ATOM     24  C   UNL A   1      47.467  31.002  32.859  1.00  0.00     0.029 A 
ATOM     25  C   UNL A   1      48.105  30.160  31.857  1.00  0.00     0.049 A 
ATOM     26  H   UNL A   1      47.225  28.705  30.652  1.00  0.00     0.167 HD
ATOM     27  C   UNL A   1      45.171  25.290  28.626  1.00  0.00     0.031 A 
ATOM     28  C   UNL A   1      49.408  30.209  31.523  1.00  0.00     0.031 A 
ATOM     29  C   UNL A   1      46.397  25.566  27.914  1.00  0.00     0.049 A 
ATOM     30  C   UNL A   1      49.852  29.356  30.377  1.00  0.00     0.074 A 
ATOM     31  C   UNL A   1      46.847  25.040  26.721  1.00  0.00     0.029 A 
ATOM     32  N   UNL A   1      47.390  26.428  28.374  1.00  0.00    -0.354 N 
ATOM     33  N   UNL A   1      49.145  28.488  29.689  1.00  0.00    -0.248 NA
ATOM     34  C   UNL A   1      51.236  29.507  29.927  1.00  0.00     0.031 C 
ATOM     35  C   UNL A   1      48.146  25.510  26.508  1.00  0.00     0.029 A 
ATOM     36  C   UNL A   1      48.486  26.382  27.534  1.00  0.00     0.049 A 
ATOM     37  H   UNL A   1      47.321  26.988  29.179  1.00  0.00     0.167 HD
ATOM     38  C   UNL A   1      49.991  27.998  28.708  1.00  0.00     0.074 A 
ATOM     39  C   UNL A   1      51.261  28.681  28.886  1.00  0.00     0.031 C 
ATOM     40  C   UNL A   1      49.741  27.071  27.751  1.00  0.00     0.031 A 
BRANCH  27  41
ATOM     41  C   UNL A   1      44.236  24.215  28.093  1.00  0.00    -0.014 A 
ATOM     42  C   UNL A   1      43.664  23.249  28.937  1.00  0.00     0.010 A 
ATOM     43  C   UNL A   1      44.079  24.032  26.704  1.00  0.00     0.010 A 
ATOM     44  C   UNL A   1      43.010  22.122  28.408  1.00  0.00     0.020 A 
ATOM     45  C   UNL A   1      43.428  22.919  26.165  1.00  0.00     0.020 A 
ATOM     46  C   UNL A   1      42.912  21.956  27.022  1.00  0.00     0.054 A 
BRANCH  46  47
ATOM     47  S   UNL A   1      42.139  20.459  26.349  1.00  0.00     0.124 S 
ATOM     48  O   UNL A   1      42.171  19.548  27.490  1.00  0.00    -0.237 OA
ATOM     49  O   UNL A   1      40.816  20.942  25.962  1.00  0.00    -0.237 OA
ATOM     50  O   UNL A   1      43.005  20.088  25.233  1.00  0.00    -0.744 OA
ENDBRANCH  46  47
ENDBRANCH  27  41
BRANCH  28  51
ATOM     51  C   UNL A   1      50.269  31.191  32.232  1.00  0.00    -0.014 A 
ATOM     52  C   UNL A   1      50.488  32.469  31.677  1.00  0.00     0.010 A 
ATOM     53  C   UNL A   1      51.066  30.769  33.309  1.00  0.00     0.010 A 
ATOM     54  C   UNL A   1      51.546  33.265  32.124  1.00  0.00     0.020 A 
ATOM     55  C   UNL A   1      52.111  31.574  33.776  1.00  0.00     0.020 A 
ATOM     56  C   UNL A   1      52.370  32.797  33.151  1.00  0.00     0.054 A 
BRANCH  56  57
ATOM     57  S   UNL A   1      53.836  33.769  33.600  1.00  0.00     0.124 S 
ATOM     58  O   UNL A   1      53.325  34.591  34.694  1.00  0.00    -0.237 OA
ATOM     59  O   UNL A   1      54.795  32.738  33.982  1.00  0.00    -0.237 OA
ATOM     60  O   UNL A   1      54.156  34.493  32.372  1.00  0.00    -0.744 OA
ENDBRANCH  56  57
ENDBRANCH  28  51
BRANCH  40  61
ATOM     61  C   UNL A   1      50.877  26.682  26.847  1.00  0.00    -0.014 A 
ATOM     62  C   UNL A   1      51.749  25.641  27.215  1.00  0.00     0.010 A 
ATOM     63  C   UNL A   1      51.182  27.480  25.731  1.00  0.00     0.010 A 
ATOM     64  C   UNL A   1      52.949  25.457  26.530  1.00  0.00     0.020 A 
ATOM     65  C   UNL A   1      52.364  27.274  25.021  1.00  0.00     0.020 A 
ATOM     66  C   UNL A   1      53.258  26.291  25.451  1.00  0.00     0.054 A 
BRANCH  66  67
ATOM     67  S   UNL A   1      54.871  26.110  24.646  1.00  0.00     0.124 S 
ATOM     68  O   UNL A   1      55.238  24.743  25.003  1.00  0.00    -0.237 OA
ATOM     69  O   UNL A   1      54.551  26.332  23.239  1.00  0.00    -0.237 OA
ATOM     70  O   UNL A   1      55.683  27.155  25.266  1.00  0.00    -0.744 OA
ENDBRANCH  66  67
ENDBRANCH  40  61
ENDBRANCH  14  15
ENDBRANCH   7   9
ENDBRANCH   6   7
ENDBRANCH   5   6
ENDBRANCH   4   5
ENDBRANCH   3   4
ENDBRANCH   2   3
ENDBRANCH   1   2
BRANCH   1  71
ATOM     71  O   UNL A   1      33.718  33.979  32.302  1.00  0.00    -0.376 OA
BRANCH  71  72
ATOM     72  C   UNL A   1      33.203  35.310  32.384  1.00  0.00     0.202 C 
BRANCH  72  73
ATOM     73  C   UNL A   1      32.613  35.952  31.112  1.00  0.00     0.261 C 
BRANCH  73  74
ATOM     74  O   UNL A   1      32.604  35.135  29.921  1.00  0.00    -0.460 OA
BRANCH  74  75
ATOM     75  C   UNL A   1      33.571  35.381  29.012  1.00  0.00     0.338 C 
ATOM     76  O   UNL A   1      33.741  36.424  28.396  1.00  0.00    -0.246 OA
BRANCH  75  77
ATOM     77  C   UNL A   1      34.364  34.152  28.792  1.00  0.00     0.062 A 
ATOM     78  C   UNL A   1      33.743  33.116  28.086  1.00  0.00     0.016 A 
ATOM     79  C   UNL A   1      35.680  33.998  29.268  1.00  0.00     0.042 A 
ATOM     80  C   UNL A   1      34.427  31.923  27.861  1.00  0.00     0.017 A 
ATOM     81  C   UNL A   1      36.340  32.782  29.067  1.00  0.00     0.056 A 
ATOM     82  C   UNL A   1      35.717  31.757  28.370  1.00  0.00     0.064 A 
ATOM     83  N   UNL A   1      37.620  32.555  29.566  1.00  0.00    -0.307 N 
ATOM     84  C   UNL A   1      36.456  30.500  28.185  1.00  0.00     0.264 A 
ATOM     85  C   UNL A   1      38.230  31.324  29.579  1.00  0.00     0.328 A 
ATOM     86  H   UNL A   1      38.118  33.322  29.930  1.00  0.00     0.171 HD
ATOM     87  O   UNL A   1      36.134  29.795  27.239  1.00  0.00    -0.268 OA
ATOM     88  N   UNL A   1      37.518  30.261  29.047  1.00  0.00    -0.260 N 
ATOM     89  O   UNL A   1      39.371  31.246  30.034  1.00  0.00    -0.248 OA
BRANCH  88  90
ATOM     90  C   UNL A   1      38.139  28.928  29.074  1.00  0.00     0.137 C 
BRANCH  90  91
ATOM     91  C   UNL A   1      39.310  28.668  28.111  1.00  0.00     0.083 C 
BRANCH  91  92
ATOM     92  C   UNL A   1      40.602  28.017  28.617  1.00  0.00     0.264 C 
BRANCH  92  93
ATOM     93  N   UNL A   1      41.733  27.586  27.791  1.00  0.00    -0.331 N 
ATOM     94  C   UNL A   1      42.947  28.406  27.971  1.00  0.00     0.291 C 
ATOM     95  C   UNL A   1      41.562  27.341  26.363  1.00  0.00     0.291 C 
ATOM     96  H   UNL A   1      41.826  26.654  28.192  1.00  0.00     0.348 HD
ATOM     97  C   UNL A   1      42.882  29.701  27.146  1.00  0.00     0.221 C 
ATOM     98  C   UNL A   1      41.513  28.630  25.537  1.00  0.00     0.221 C 
ATOM     99  O   UNL A   1      42.681  29.436  25.744  1.00  0.00    -0.370 OA
ENDBRANCH  92  93
ENDBRANCH  91  92
ENDBRANCH  90  91
ENDBRANCH  88  90
ENDBRANCH  75  77
ENDBRANCH  74  75
ENDBRANCH  73  74
ENDBRANCH  72  73
ENDBRANCH  71  72
ENDBRANCH   1  71
TORSDOF 24
ENDMDL
MODEL 3
REMARK VINA RESULT:      -6.2      4.744     12.429
REMARK SMILES O=C(OCCOCCOCCOC(=O)c1ccc2c(=O)n(CCC[NH+]3CCOCC3)c(=O)[nH]c2c1)c1ccc(-c2c3nc(c(-c4ccc(S(=O)(=O)[O-])cc4)c4ccc([nH]4)c(-c4ccc(S(=O)(=O)[O-])cc4)c4nc(c(-c5ccc(S(=O)(=O)[O-])cc5)c5ccc2[nH]5)C=C4)C=C3)cc1
REMARK SMILES IDX 8 1 7 2 6 3 5 4 4 5 3 6 2 7 1 8 36 9 37 10 95 11 38 12 94 13
REMARK SMILES IDX 39 14 40 15 41 16 88 17 42 18 93 19 87 20 89 21 43 22 92 23
REMARK SMILES IDX 86 24 85 25 44 27 74 28 55 29 73 30 56 31 59 32 72 33 90 34
REMARK SMILES IDX 57 35 58 36 71 38 91 39 60 40 45 41 46 42 54 43 47 44 53 45
REMARK SMILES IDX 48 46 49 47 50 48 51 49 52 50 75 51 76 52 84 53 77 54 83 55
REMARK SMILES IDX 78 56 79 57 80 58 81 59 82 60 61 61 62 62 70 63 63 64 69 65
REMARK SMILES IDX 64 66 65 67 66 68 67 69 68 70 9 71 10 72 11 73 12 74 13 75
REMARK SMILES IDX 14 76 15 77 16 78 35 79 17 80 34 81 18 82 33 83 19 84 31 85
REMARK SMILES IDX 20 87 21 88 32 89 22 90 23 91 24 92 25 93 26 94 30 95 27 97
REMARK SMILES IDX 29 98 28 99
REMARK H PARENT 89 26 59 37 33 86 25 96
REMARK Flexibility Score: inf
ROOT
ATOM      1  C   UNL A   1      35.179  31.304  27.832  1.00  0.00     0.188 C 
ENDROOT
BRANCH   1   2
ATOM      2  C   UNL A   1      35.819  30.291  28.768  1.00  0.00     0.188 C 
BRANCH   2   3
ATOM      3  O   UNL A   1      36.349  30.843  29.971  1.00  0.00    -0.376 OA
BRANCH   3   4
ATOM      4  C   UNL A   1      36.467  29.952  31.087  1.00  0.00     0.202 C 
BRANCH   4   5
ATOM      5  C   UNL A   1      37.433  28.756  30.915  1.00  0.00     0.261 C 
BRANCH   5   6
ATOM      6  O   UNL A   1      37.918  28.283  32.183  1.00  0.00    -0.460 OA
BRANCH   6   7
ATOM      7  C   UNL A   1      38.734  29.103  32.897  1.00  0.00     0.338 C 
ATOM      8  O   UNL A   1      38.412  29.875  33.782  1.00  0.00    -0.246 OA
BRANCH   7   9
ATOM      9  C   UNL A   1      40.082  29.028  32.278  1.00  0.00     0.060 A 
ATOM     10  C   UNL A   1      41.201  28.568  32.969  1.00  0.00     0.016 A 
ATOM     11  C   UNL A   1      40.224  29.506  30.969  1.00  0.00     0.016 A 
ATOM     12  C   UNL A   1      42.436  28.537  32.306  1.00  0.00     0.010 A 
ATOM     13  C   UNL A   1      41.442  29.532  30.336  1.00  0.00     0.010 A 
ATOM     14  C   UNL A   1      42.558  29.029  30.990  1.00  0.00    -0.014 A 
BRANCH  14  15
ATOM     15  C   UNL A   1      43.724  28.777  30.126  1.00  0.00     0.031 A 
ATOM     16  C   UNL A   1      44.687  29.863  29.746  1.00  0.00     0.074 A 
ATOM     17  C   UNL A   1      43.682  27.621  29.438  1.00  0.00     0.049 A 
ATOM     18  N   UNL A   1      45.799  29.769  29.068  1.00  0.00    -0.248 NA
ATOM     19  C   UNL A   1      44.363  31.239  30.155  1.00  0.00     0.031 C 
ATOM     20  C   UNL A   1      42.615  26.616  29.559  1.00  0.00     0.029 A 
ATOM     21  N   UNL A   1      44.487  27.135  28.450  1.00  0.00    -0.354 N 
ATOM     22  C   UNL A   1      46.350  31.049  29.054  1.00  0.00     0.074 A 
ATOM     23  C   UNL A   1      45.405  31.923  29.697  1.00  0.00     0.031 C 
ATOM     24  C   UNL A   1      42.816  25.653  28.653  1.00  0.00     0.029 A 
ATOM     25  C   UNL A   1      44.024  25.964  27.902  1.00  0.00     0.049 A 
ATOM     26  H   UNL A   1      45.316  27.579  28.158  1.00  0.00     0.167 HD
ATOM     27  C   UNL A   1      47.566  31.418  28.585  1.00  0.00     0.031 A 
ATOM     28  C   UNL A   1      44.528  25.216  26.903  1.00  0.00     0.031 A 
ATOM     29  C   UNL A   1      48.390  30.492  27.844  1.00  0.00     0.049 A 
ATOM     30  C   UNL A   1      45.850  25.629  26.340  1.00  0.00     0.074 A 
ATOM     31  C   UNL A   1      49.706  30.622  27.450  1.00  0.00     0.029 A 
ATOM     32  N   UNL A   1      47.940  29.270  27.349  1.00  0.00    -0.354 N 
ATOM     33  N   UNL A   1      46.565  26.690  26.639  1.00  0.00    -0.248 NA
ATOM     34  C   UNL A   1      46.462  24.742  25.348  1.00  0.00     0.031 C 
ATOM     35  C   UNL A   1      50.020  29.526  26.640  1.00  0.00     0.029 A 
ATOM     36  C   UNL A   1      48.924  28.677  26.581  1.00  0.00     0.049 A 
ATOM     37  H   UNL A   1      47.051  28.886  27.521  1.00  0.00     0.167 HD
ATOM     38  C   UNL A   1      47.724  26.595  25.887  1.00  0.00     0.074 A 
ATOM     39  C   UNL A   1      47.618  25.360  25.128  1.00  0.00     0.031 C 
ATOM     40  C   UNL A   1      48.776  27.448  25.830  1.00  0.00     0.031 A 
BRANCH  27  41
ATOM     41  C   UNL A   1      48.132  32.786  28.939  1.00  0.00    -0.014 A 
ATOM     42  C   UNL A   1      48.778  33.022  30.164  1.00  0.00     0.010 A 
ATOM     43  C   UNL A   1      47.844  33.906  28.135  1.00  0.00     0.010 A 
ATOM     44  C   UNL A   1      49.073  34.331  30.585  1.00  0.00     0.020 A 
ATOM     45  C   UNL A   1      48.136  35.213  28.539  1.00  0.00     0.020 A 
ATOM     46  C   UNL A   1      48.733  35.420  29.776  1.00  0.00     0.054 A 
BRANCH  46  47
ATOM     47  S   UNL A   1      49.043  37.108  30.364  1.00  0.00     0.124 S 
ATOM     48  O   UNL A   1      47.977  37.868  29.717  1.00  0.00    -0.237 OA
ATOM     49  O   UNL A   1      48.924  36.958  31.812  1.00  0.00    -0.237 OA
ATOM     50  O   UNL A   1      50.393  37.403  29.889  1.00  0.00    -0.744 OA
ENDBRANCH  46  47
ENDBRANCH  27  41
BRANCH  28  51
ATOM     51  C   UNL A   1      43.795  23.978  26.528  1.00  0.00    -0.014 A 
ATOM     52  C   UNL A   1      42.592  24.064  25.797  1.00  0.00     0.010 A 
ATOM     53  C   UNL A   1      44.153  22.752  27.112  1.00  0.00     0.010 A 
ATOM     54  C   UNL A   1      41.719  22.974  25.739  1.00  0.00     0.020 A 
ATOM     55  C   UNL A   1      43.293  21.651  27.034  1.00  0.00     0.020 A 
ATOM     56  C   UNL A   1      42.063  21.784  26.385  1.00  0.00     0.054 A 
BRANCH  56  57
ATOM     57  S   UNL A   1      40.843  20.440  26.439  1.00  0.00     0.124 S 
ATOM     58  O   UNL A   1      41.412  19.482  25.495  1.00  0.00    -0.237 OA
ATOM     59  O   UNL A   1      40.876  20.039  27.842  1.00  0.00    -0.237 OA
ATOM     60  O   UNL A   1      39.605  21.084  26.005  1.00  0.00    -0.744 OA
ENDBRANCH  56  57
ENDBRANCH  28  51
BRANCH  40  61
ATOM     61  C   UNL A   1      49.885  27.119  24.869  1.00  0.00    -0.014 A 
ATOM     62  C   UNL A   1      51.127  26.670  25.351  1.00  0.00     0.010 A 
ATOM     63  C   UNL A   1      49.743  27.440  23.508  1.00  0.00     0.010 A 
ATOM     64  C   UNL A   1      52.233  26.625  24.503  1.00  0.00     0.020 A 
ATOM     65  C   UNL A   1      50.838  27.360  22.649  1.00  0.00     0.020 A 
ATOM     66  C   UNL A   1      52.085  26.993  23.162  1.00  0.00     0.054 A 
BRANCH  66  67
ATOM     67  S   UNL A   1      53.555  27.037  22.105  1.00  0.00     0.124 S 
ATOM     68  O   UNL A   1      53.784  28.472  21.962  1.00  0.00    -0.237 OA
ATOM     69  O   UNL A   1      54.543  26.316  22.904  1.00  0.00    -0.237 OA
ATOM     70  O   UNL A   1      53.126  26.350  20.889  1.00  0.00    -0.744 OA
ENDBRANCH  66  67
ENDBRANCH  40  61
ENDBRANCH  14  15
ENDBRANCH   7   9
ENDBRANCH   6   7
ENDBRANCH   5   6
ENDBRANCH   4   5
ENDBRANCH   3   4
ENDBRANCH   2   3
ENDBRANCH   1   2
BRANCH   1  71
ATOM     71  O   UNL A   1      33.778  31.334  28.046  1.00  0.00    -0.376 OA
BRANCH  71  72
ATOM     72  C   UNL A   1      33.062  32.235  27.198  1.00  0.00     0.202 C 
BRANCH  72  73
ATOM     73  C   UNL A   1      32.592  33.583  27.784  1.00  0.00     0.261 C 
BRANCH  73  74
ATOM     74  O   UNL A   1      33.618  34.448  28.316  1.00  0.00    -0.460 OA
BRANCH  74  75
ATOM     75  C   UNL A   1      33.279  35.206  29.379  1.00  0.00     0.338 C 
ATOM     76  O   UNL A   1      32.487  36.139  29.383  1.00  0.00    -0.246 OA
BRANCH  75  77
ATOM     77  C   UNL A   1      34.083  34.799  30.552  1.00  0.00     0.062 A 
ATOM     78  C   UNL A   1      33.538  35.058  31.814  1.00  0.00     0.016 A 
ATOM     79  C   UNL A   1      35.346  34.189  30.436  1.00  0.00     0.042 A 
ATOM     80  C   UNL A   1      34.252  34.719  32.961  1.00  0.00     0.017 A 
ATOM     81  C   UNL A   1      36.068  33.888  31.595  1.00  0.00     0.056 A 
ATOM     82  C   UNL A   1      35.523  34.152  32.843  1.00  0.00     0.064 A 
ATOM     83  N   UNL A   1      37.345  33.337  31.538  1.00  0.00    -0.307 N 
ATOM     84  C   UNL A   1      36.322  33.814  34.030  1.00  0.00     0.264 A 
ATOM     85  C   UNL A   1      38.176  33.214  32.625  1.00  0.00     0.328 A 
ATOM     86  H   UNL A   1      37.672  33.015  30.667  1.00  0.00     0.171 HD
ATOM     87  O   UNL A   1      35.719  33.619  35.075  1.00  0.00    -0.268 OA
ATOM     88  N   UNL A   1      37.689  33.657  33.845  1.00  0.00    -0.260 N 
ATOM     89  O   UNL A   1      39.280  32.697  32.457  1.00  0.00    -0.248 OA
BRANCH  88  90
ATOM     90  C   UNL A   1      38.570  33.560  35.019  1.00  0.00     0.137 C 
BRANCH  90  91
ATOM     91  C   UNL A   1      39.283  34.842  35.482  1.00  0.00     0.083 C 
BRANCH  91  92
ATOM     92  C   UNL A   1      40.539  35.337  34.758  1.00  0.00     0.264 C 
BRANCH  92  93
ATOM     93  N   UNL A   1      41.924  34.997  35.100  1.00  0.00    -0.331 N 
ATOM     94  C   UNL A   1      42.929  35.708  34.287  1.00  0.00     0.291 C 
ATOM     95  C   UNL A   1      42.341  33.604  35.216  1.00  0.00     0.291 C 
ATOM     96  H   UNL A   1      41.893  35.328  36.064  1.00  0.00     0.348 HD
ATOM     97  C   UNL A   1      43.135  35.031  32.923  1.00  0.00     0.221 C 
ATOM     98  C   UNL A   1      42.563  32.931  33.859  1.00  0.00     0.221 C 
ATOM     99  O   UNL A   1      43.517  33.649  33.063  1.00  0.00    -0.370 OA
ENDBRANCH  92  93
ENDBRANCH  91  92
ENDBRANCH  90  91
ENDBRANCH  88  90
ENDBRANCH  75  77
ENDBRANCH  74  75
ENDBRANCH  73  74
ENDBRANCH  72  73
ENDBRANCH  71  72
ENDBRANCH   1  71
TORSDOF 24
ENDMDL
