MODEL 1
REMARK VINA RESULT:     -10.0      0.000      0.000
REMARK SMILES O=C(OCCOCCOCCOC(=O)[C@@H]1CCC[C@@H](C(=O)N2CCN3C(=O)NC[C@@H]3C2)C1)c1ccc(-c2c3nc(c(-c4ccc(S(=O)(=O)[O-])cc4)c4ccc([nH]4)c(-c4ccc(S(=O)(=O)[O-])cc4)c4nc(c(-c5ccc(S(=O)(=O)[O-])cc5)c5ccc2[nH]5)C=C4)C=C3)cc1
REMARK SMILES IDX 7 1 6 2 5 3 4 4 3 5 2 6 1 7 33 8 34 9 92 10 35 11 91 12
REMARK SMILES IDX 36 13 37 14 38 15 85 16 39 17 90 18 84 19 86 20 40 21 89 22
REMARK SMILES IDX 83 23 82 24 41 26 71 27 52 28 70 29 53 30 56 31 69 32 87 33
REMARK SMILES IDX 54 34 55 35 68 37 88 38 57 39 42 40 43 41 51 42 44 43 50 44
REMARK SMILES IDX 45 45 46 46 47 47 48 48 49 49 72 50 73 51 81 52 74 53 80 54
REMARK SMILES IDX 75 55 76 56 77 57 78 58 79 59 58 60 59 61 67 62 60 63 66 64
REMARK SMILES IDX 61 65 62 66 63 67 64 68 65 69 8 70 9 71 10 72 11 73 12 74
REMARK SMILES IDX 13 75 14 76 15 77 16 78 32 79 17 80 19 81 18 82 20 83 21 84
REMARK SMILES IDX 22 85 23 86 31 87 24 88 30 89 25 90 29 91 26 92 28 93 27 94
REMARK H PARENT 86 25 56 36 28 95
REMARK Flexibility Score: inf
ROOT
ATOM      1  C   UNL A   1      35.185  33.072  29.299  1.00  0.00     0.188 C 
ENDROOT
BRANCH   1   2
ATOM      2  O   UNL A   1      34.845  34.428  28.998  1.00  0.00    -0.376 OA
BRANCH   2   3
ATOM      3  C   UNL A   1      33.453  34.742  29.064  1.00  0.00     0.202 C 
BRANCH   3   4
ATOM      4  C   UNL A   1      33.053  36.149  29.541  1.00  0.00     0.261 C 
BRANCH   4   5
ATOM      5  O   UNL A   1      33.056  36.343  30.964  1.00  0.00    -0.460 OA
BRANCH   5   6
ATOM      6  C   UNL A   1      32.987  35.441  31.969  1.00  0.00     0.338 C 
ATOM      7  O   UNL A   1      31.893  35.234  32.492  1.00  0.00    -0.246 OA
BRANCH   6   8
ATOM      8  C   UNL A   1      34.156  34.678  32.489  1.00  0.00     0.060 A 
ATOM      9  C   UNL A   1      34.128  33.339  32.872  1.00  0.00     0.016 A 
ATOM     10  C   UNL A   1      35.404  35.327  32.447  1.00  0.00     0.016 A 
ATOM     11  C   UNL A   1      35.294  32.682  33.267  1.00  0.00     0.010 A 
ATOM     12  C   UNL A   1      36.581  34.662  32.804  1.00  0.00     0.010 A 
ATOM     13  C   UNL A   1      36.527  33.336  33.236  1.00  0.00    -0.014 A 
BRANCH  13  14
ATOM     14  C   UNL A   1      37.725  32.636  33.758  1.00  0.00     0.031 A 
ATOM     15  C   UNL A   1      38.522  31.833  32.784  1.00  0.00     0.074 A 
ATOM     16  C   UNL A   1      38.084  32.769  35.052  1.00  0.00     0.049 A 
ATOM     17  N   UNL A   1      39.670  31.245  32.958  1.00  0.00    -0.248 NA
ATOM     18  C   UNL A   1      37.936  31.630  31.445  1.00  0.00     0.031 C 
ATOM     19  C   UNL A   1      37.291  33.500  36.027  1.00  0.00     0.029 A 
ATOM     20  N   UNL A   1      39.200  32.390  35.767  1.00  0.00    -0.354 N 
ATOM     21  C   UNL A   1      39.856  30.465  31.824  1.00  0.00     0.074 A 
ATOM     22  C   UNL A   1      38.781  30.763  30.908  1.00  0.00     0.031 C 
ATOM     23  C   UNL A   1      38.012  33.675  37.145  1.00  0.00     0.029 A 
ATOM     24  C   UNL A   1      39.299  33.013  37.011  1.00  0.00     0.049 A 
ATOM     25  H   UNL A   1      39.863  31.743  35.432  1.00  0.00     0.167 HD
ATOM     26  C   UNL A   1      40.788  29.506  31.641  1.00  0.00     0.031 A 
ATOM     27  C   UNL A   1      40.352  33.087  37.868  1.00  0.00     0.031 A 
ATOM     28  C   UNL A   1      41.826  29.250  32.600  1.00  0.00     0.049 A 
ATOM     29  C   UNL A   1      41.548  32.239  37.463  1.00  0.00     0.074 A 
ATOM     30  C   UNL A   1      42.799  28.271  32.579  1.00  0.00     0.029 A 
ATOM     31  N   UNL A   1      42.011  29.986  33.764  1.00  0.00    -0.354 N 
ATOM     32  N   UNL A   1      41.781  31.631  36.318  1.00  0.00    -0.248 NA
ATOM     33  C   UNL A   1      42.602  32.043  38.468  1.00  0.00     0.031 C 
ATOM     34  C   UNL A   1      43.539  28.381  33.761  1.00  0.00     0.029 A 
ATOM     35  C   UNL A   1      43.063  29.464  34.486  1.00  0.00     0.049 A 
ATOM     36  H   UNL A   1      41.471  30.764  34.033  1.00  0.00     0.167 HD
ATOM     37  C   UNL A   1      42.976  30.947  36.494  1.00  0.00     0.074 A 
ATOM     38  C   UNL A   1      43.503  31.360  37.779  1.00  0.00     0.031 C 
ATOM     39  C   UNL A   1      43.541  29.966  35.746  1.00  0.00     0.031 A 
BRANCH  26  40
ATOM     40  C   UNL A   1      40.609  28.565  30.485  1.00  0.00    -0.014 A 
ATOM     41  C   UNL A   1      41.406  28.617  29.331  1.00  0.00     0.010 A 
ATOM     42  C   UNL A   1      39.610  27.575  30.586  1.00  0.00     0.010 A 
ATOM     43  C   UNL A   1      41.203  27.697  28.297  1.00  0.00     0.020 A 
ATOM     44  C   UNL A   1      39.420  26.641  29.567  1.00  0.00     0.020 A 
ATOM     45  C   UNL A   1      40.217  26.710  28.425  1.00  0.00     0.054 A 
BRANCH  45  46
ATOM     46  S   UNL A   1      40.024  25.487  27.099  1.00  0.00     0.124 S 
ATOM     47  O   UNL A   1      38.576  25.301  27.067  1.00  0.00    -0.237 OA
ATOM     48  O   UNL A   1      40.594  26.178  25.946  1.00  0.00    -0.237 OA
ATOM     49  O   UNL A   1      40.790  24.337  27.573  1.00  0.00    -0.744 OA
ENDBRANCH  45  46
ENDBRANCH  26  40
BRANCH  27  50
ATOM     50  C   UNL A   1      40.411  34.016  39.078  1.00  0.00    -0.014 A 
ATOM     51  C   UNL A   1      40.901  35.338  38.952  1.00  0.00     0.010 A 
ATOM     52  C   UNL A   1      39.948  33.666  40.360  1.00  0.00     0.010 A 
ATOM     53  C   UNL A   1      40.844  36.278  39.989  1.00  0.00     0.020 A 
ATOM     54  C   UNL A   1      39.838  34.609  41.400  1.00  0.00     0.020 A 
ATOM     55  C   UNL A   1      40.273  35.917  41.201  1.00  0.00     0.054 A 
BRANCH  55  56
ATOM     56  S   UNL A   1      40.076  37.188  42.477  1.00  0.00     0.124 S 
ATOM     57  O   UNL A   1      41.453  37.426  42.895  1.00  0.00    -0.237 OA
ATOM     58  O   UNL A   1      39.445  38.272  41.724  1.00  0.00    -0.237 OA
ATOM     59  O   UNL A   1      39.219  36.547  43.470  1.00  0.00    -0.744 OA
ENDBRANCH  55  56
ENDBRANCH  27  50
BRANCH  39  60
ATOM     60  C   UNL A   1      44.702  29.243  36.368  1.00  0.00    -0.014 A 
ATOM     61  C   UNL A   1      44.455  28.143  37.213  1.00  0.00     0.010 A 
ATOM     62  C   UNL A   1      46.024  29.589  36.048  1.00  0.00     0.010 A 
ATOM     63  C   UNL A   1      45.512  27.424  37.760  1.00  0.00     0.020 A 
ATOM     64  C   UNL A   1      47.087  28.846  36.568  1.00  0.00     0.020 A 
ATOM     65  C   UNL A   1      46.823  27.776  37.429  1.00  0.00     0.054 A 
BRANCH  65  66
ATOM     66  S   UNL A   1      48.172  26.773  38.100  1.00  0.00     0.124 S 
ATOM     67  O   UNL A   1      48.358  27.360  39.423  1.00  0.00    -0.237 OA
ATOM     68  O   UNL A   1      47.606  25.425  38.084  1.00  0.00    -0.237 OA
ATOM     69  O   UNL A   1      49.267  26.993  37.159  1.00  0.00    -0.744 OA
ENDBRANCH  65  66
ENDBRANCH  39  60
ENDBRANCH  13  14
ENDBRANCH   6   8
ENDBRANCH   5   6
ENDBRANCH   4   5
ENDBRANCH   3   4
ENDBRANCH   2   3
ENDBRANCH   1   2
BRANCH   1  70
ATOM     70  C   UNL A   1      35.856  32.358  28.127  1.00  0.00     0.188 C 
BRANCH  70  71
ATOM     71  O   UNL A   1      35.180  31.217  27.604  1.00  0.00    -0.376 OA
BRANCH  71  72
ATOM     72  C   UNL A   1      33.758  31.250  27.597  1.00  0.00     0.202 C 
BRANCH  72  73
ATOM     73  C   UNL A   1      33.015  30.014  27.080  1.00  0.00     0.261 C 
BRANCH  73  74
ATOM     74  O   UNL A   1      33.116  29.794  25.672  1.00  0.00    -0.463 OA
BRANCH  74  75
ATOM     75  C   UNL A   1      32.004  29.288  25.058  1.00  0.00     0.309 C 
ATOM     76  O   UNL A   1      30.976  29.907  24.825  1.00  0.00    -0.252 OA
BRANCH  75  77
ATOM     77  C   UNL A   1      32.229  27.829  24.737  1.00  0.00     0.100 C 
ATOM     78  C   UNL A   1      33.625  27.537  24.180  1.00  0.00     0.015 C 
ATOM     79  C   UNL A   1      31.123  27.366  23.777  1.00  0.00     0.028 C 
ATOM     80  C   UNL A   1      33.795  26.087  23.714  1.00  0.00     0.002 C 
ATOM     81  C   UNL A   1      31.220  25.861  23.507  1.00  0.00     0.079 C 
ATOM     82  C   UNL A   1      32.606  25.552  22.910  1.00  0.00     0.013 C 
BRANCH  81  83
ATOM     83  C   UNL A   1      30.934  25.171  24.847  1.00  0.00     0.225 C 
ATOM     84  O   UNL A   1      30.122  25.678  25.627  1.00  0.00    -0.275 OA
BRANCH  83  85
ATOM     85  N   UNL A   1      31.388  23.888  25.074  1.00  0.00    -0.339 N 
ATOM     86  C   UNL A   1      31.395  22.769  24.108  1.00  0.00     0.141 C 
ATOM     87  C   UNL A   1      31.985  23.589  26.387  1.00  0.00     0.146 C 
ATOM     88  C   UNL A   1      32.688  21.913  24.134  1.00  0.00     0.143 C 
ATOM     89  C   UNL A   1      33.405  23.114  26.197  1.00  0.00     0.125 C 
ATOM     90  N   UNL A   1      33.402  21.915  25.392  1.00  0.00    -0.317 N 
ATOM     91  C   UNL A   1      34.194  22.700  27.425  1.00  0.00     0.144 C 
ATOM     92  C   UNL A   1      34.516  21.147  25.706  1.00  0.00     0.317 C 
ATOM     93  N   UNL A   1      35.020  21.636  26.906  1.00  0.00    -0.336 N 
ATOM     94  O   UNL A   1      34.985  20.228  25.058  1.00  0.00    -0.249 OA
ATOM     95  H   UNL A   1      35.835  21.301  27.345  1.00  0.00     0.165 HD
ENDBRANCH  83  85
ENDBRANCH  81  83
ENDBRANCH  75  77
ENDBRANCH  74  75
ENDBRANCH  73  74
ENDBRANCH  72  73
ENDBRANCH  71  72
ENDBRANCH  70  71
ENDBRANCH   1  70
TORSDOF 22
ENDMDL
MODEL 2
REMARK VINA RESULT:      -9.9      1.136      8.120
REMARK SMILES O=C(OCCOCCOCCOC(=O)[C@@H]1CCC[C@@H](C(=O)N2CCN3C(=O)NC[C@@H]3C2)C1)c1ccc(-c2c3nc(c(-c4ccc(S(=O)(=O)[O-])cc4)c4ccc([nH]4)c(-c4ccc(S(=O)(=O)[O-])cc4)c4nc(c(-c5ccc(S(=O)(=O)[O-])cc5)c5ccc2[nH]5)C=C4)C=C3)cc1
REMARK SMILES IDX 7 1 6 2 5 3 4 4 3 5 2 6 1 7 33 8 34 9 92 10 35 11 91 12
REMARK SMILES IDX 36 13 37 14 38 15 85 16 39 17 90 18 84 19 86 20 40 21 89 22
REMARK SMILES IDX 83 23 82 24 41 26 71 27 52 28 70 29 53 30 56 31 69 32 87 33
REMARK SMILES IDX 54 34 55 35 68 37 88 38 57 39 42 40 43 41 51 42 44 43 50 44
REMARK SMILES IDX 45 45 46 46 47 47 48 48 49 49 72 50 73 51 81 52 74 53 80 54
REMARK SMILES IDX 75 55 76 56 77 57 78 58 79 59 58 60 59 61 67 62 60 63 66 64
REMARK SMILES IDX 61 65 62 66 63 67 64 68 65 69 8 70 9 71 10 72 11 73 12 74
REMARK SMILES IDX 13 75 14 76 15 77 16 78 32 79 17 80 19 81 18 82 20 83 21 84
REMARK SMILES IDX 22 85 23 86 31 87 24 88 30 89 25 90 29 91 26 92 28 93 27 94
REMARK H PARENT 86 25 56 36 28 95
REMARK Flexibility Score: inf
ROOT
ATOM      1  C   UNL A   1      35.018  33.473  29.296  1.00  0.00     0.188 C 
ENDROOT
BRANCH   1   2
ATOM      2  O   UNL A   1      34.578  34.786  28.944  1.00  0.00    -0.376 OA
BRANCH   2   3
ATOM      3  C   UNL A   1      33.217  35.085  29.261  1.00  0.00     0.202 C 
BRANCH   3   4
ATOM      4  C   UNL A   1      32.894  36.489  29.802  1.00  0.00     0.261 C 
BRANCH   4   5
ATOM      5  O   UNL A   1      32.641  36.563  31.214  1.00  0.00    -0.460 OA
BRANCH   5   6
ATOM      6  C   UNL A   1      32.692  35.601  32.162  1.00  0.00     0.338 C 
ATOM      7  O   UNL A   1      31.658  35.332  32.773  1.00  0.00    -0.246 OA
BRANCH   6   8
ATOM      8  C   UNL A   1      33.922  34.843  32.520  1.00  0.00     0.060 A 
ATOM      9  C   UNL A   1      33.964  33.484  32.820  1.00  0.00     0.016 A 
ATOM     10  C   UNL A   1      35.145  35.530  32.400  1.00  0.00     0.016 A 
ATOM     11  C   UNL A   1      35.178  32.839  33.062  1.00  0.00     0.010 A 
ATOM     12  C   UNL A   1      36.367  34.881  32.602  1.00  0.00     0.010 A 
ATOM     13  C   UNL A   1      36.386  33.529  32.954  1.00  0.00    -0.014 A 
BRANCH  13  14
ATOM     14  C   UNL A   1      37.645  32.836  33.315  1.00  0.00     0.031 A 
ATOM     15  C   UNL A   1      38.124  32.984  34.722  1.00  0.00     0.074 A 
ATOM     16  C   UNL A   1      38.291  32.074  32.407  1.00  0.00     0.049 A 
ATOM     17  N   UNL A   1      39.110  32.377  35.316  1.00  0.00    -0.248 NA
ATOM     18  C   UNL A   1      37.426  33.973  35.566  1.00  0.00     0.031 C 
ATOM     19  C   UNL A   1      37.871  31.963  31.019  1.00  0.00     0.029 A 
ATOM     20  N   UNL A   1      39.355  31.202  32.490  1.00  0.00    -0.354 N 
ATOM     21  C   UNL A   1      39.261  33.031  36.532  1.00  0.00     0.074 A 
ATOM     22  C   UNL A   1      38.181  33.980  36.654  1.00  0.00     0.031 C 
ATOM     23  C   UNL A   1      38.537  30.956  30.433  1.00  0.00     0.029 A 
ATOM     24  C   UNL A   1      39.489  30.382  31.370  1.00  0.00     0.049 A 
ATOM     25  H   UNL A   1      39.962  31.162  33.265  1.00  0.00     0.167 HD
ATOM     26  C   UNL A   1      40.291  32.910  37.396  1.00  0.00     0.031 A 
ATOM     27  C   UNL A   1      40.238  29.262  31.193  1.00  0.00     0.031 A 
ATOM     28  C   UNL A   1      41.344  31.952  37.209  1.00  0.00     0.049 A 
ATOM     29  C   UNL A   1      41.173  28.947  32.350  1.00  0.00     0.074 A 
ATOM     30  C   UNL A   1      42.482  31.759  37.967  1.00  0.00     0.029 A 
ATOM     31  N   UNL A   1      41.383  31.029  36.171  1.00  0.00    -0.354 N 
ATOM     32  N   UNL A   1      41.201  29.473  33.558  1.00  0.00    -0.248 NA
ATOM     33  C   UNL A   1      42.207  27.929  32.120  1.00  0.00     0.031 C 
ATOM     34  C   UNL A   1      43.236  30.755  37.354  1.00  0.00     0.029 A 
ATOM     35  C   UNL A   1      42.539  30.284  36.250  1.00  0.00     0.049 A 
ATOM     36  H   UNL A   1      40.687  30.923  35.483  1.00  0.00     0.167 HD
ATOM     37  C   UNL A   1      42.282  28.882  34.198  1.00  0.00     0.074 A 
ATOM     38  C   UNL A   1      42.765  27.839  33.317  1.00  0.00     0.031 C 
ATOM     39  C   UNL A   1      42.921  29.236  35.342  1.00  0.00     0.031 A 
BRANCH  26  40
ATOM     40  C   UNL A   1      40.421  33.941  38.480  1.00  0.00    -0.014 A 
ATOM     41  C   UNL A   1      40.933  35.228  38.250  1.00  0.00     0.010 A 
ATOM     42  C   UNL A   1      39.983  33.598  39.775  1.00  0.00     0.010 A 
ATOM     43  C   UNL A   1      41.009  36.151  39.298  1.00  0.00     0.020 A 
ATOM     44  C   UNL A   1      40.034  34.524  40.818  1.00  0.00     0.020 A 
ATOM     45  C   UNL A   1      40.552  35.795  40.573  1.00  0.00     0.054 A 
BRANCH  45  46
ATOM     46  S   UNL A   1      40.595  37.036  41.896  1.00  0.00     0.124 S 
ATOM     47  O   UNL A   1      40.826  36.210  43.078  1.00  0.00    -0.237 OA
ATOM     48  O   UNL A   1      41.714  37.885  41.496  1.00  0.00    -0.237 OA
ATOM     49  O   UNL A   1      39.281  37.668  41.825  1.00  0.00    -0.744 OA
ENDBRANCH  45  46
ENDBRANCH  26  40
BRANCH  27  50
ATOM     50  C   UNL A   1      40.096  28.312  30.006  1.00  0.00    -0.014 A 
ATOM     51  C   UNL A   1      40.871  28.495  28.837  1.00  0.00     0.010 A 
ATOM     52  C   UNL A   1      39.254  27.184  30.000  1.00  0.00     0.010 A 
ATOM     53  C   UNL A   1      40.890  27.576  27.779  1.00  0.00     0.020 A 
ATOM     54  C   UNL A   1      39.295  26.225  28.969  1.00  0.00     0.020 A 
ATOM     55  C   UNL A   1      40.127  26.421  27.870  1.00  0.00     0.054 A 
BRANCH  55  56
ATOM     56  S   UNL A   1      40.279  25.179  26.560  1.00  0.00     0.124 S 
ATOM     57  O   UNL A   1      40.786  25.966  25.442  1.00  0.00    -0.237 OA
ATOM     58  O   UNL A   1      41.224  24.234  27.152  1.00  0.00    -0.237 OA
ATOM     59  O   UNL A   1      38.917  24.674  26.407  1.00  0.00    -0.744 OA
ENDBRANCH  55  56
ENDBRANCH  27  50
BRANCH  39  60
ATOM     60  C   UNL A   1      44.232  28.552  35.608  1.00  0.00    -0.014 A 
ATOM     61  C   UNL A   1      45.417  29.106  35.085  1.00  0.00     0.010 A 
ATOM     62  C   UNL A   1      44.303  27.424  36.441  1.00  0.00     0.010 A 
ATOM     63  C   UNL A   1      46.649  28.523  35.360  1.00  0.00     0.020 A 
ATOM     64  C   UNL A   1      45.543  26.858  36.748  1.00  0.00     0.020 A 
ATOM     65  C   UNL A   1      46.705  27.405  36.194  1.00  0.00     0.054 A 
BRANCH  65  66
ATOM     66  S   UNL A   1      48.332  26.715  36.590  1.00  0.00     0.124 S 
ATOM     67  O   UNL A   1      48.172  25.318  36.199  1.00  0.00    -0.237 OA
ATOM     68  O   UNL A   1      49.227  27.505  35.748  1.00  0.00    -0.237 OA
ATOM     69  O   UNL A   1      48.467  26.950  38.026  1.00  0.00    -0.744 OA
ENDBRANCH  65  66
ENDBRANCH  39  60
ENDBRANCH  13  14
ENDBRANCH   6   8
ENDBRANCH   5   6
ENDBRANCH   4   5
ENDBRANCH   3   4
ENDBRANCH   2   3
ENDBRANCH   1   2
BRANCH   1  70
ATOM     70  C   UNL A   1      35.487  32.663  28.089  1.00  0.00     0.188 C 
BRANCH  70  71
ATOM     71  O   UNL A   1      34.469  32.131  27.243  1.00  0.00    -0.376 OA
BRANCH  71  72
ATOM     72  C   UNL A   1      33.796  30.961  27.693  1.00  0.00     0.202 C 
BRANCH  72  73
ATOM     73  C   UNL A   1      34.118  29.636  26.995  1.00  0.00     0.261 C 
BRANCH  73  74
ATOM     74  O   UNL A   1      33.202  29.258  25.965  1.00  0.00    -0.463 OA
BRANCH  74  75
ATOM     75  C   UNL A   1      33.063  27.916  25.743  1.00  0.00     0.309 C 
ATOM     76  O   UNL A   1      33.659  27.031  26.339  1.00  0.00    -0.252 OA
BRANCH  75  77
ATOM     77  C   UNL A   1      32.075  27.694  24.622  1.00  0.00     0.100 C 
ATOM     78  C   UNL A   1      31.284  28.950  24.249  1.00  0.00     0.015 C 
ATOM     79  C   UNL A   1      31.151  26.531  25.012  1.00  0.00     0.028 C 
ATOM     80  C   UNL A   1      30.180  28.682  23.220  1.00  0.00     0.002 C 
ATOM     81  C   UNL A   1      30.201  26.171  23.865  1.00  0.00     0.079 C 
ATOM     82  C   UNL A   1      29.369  27.413  23.500  1.00  0.00     0.013 C 
BRANCH  81  83
ATOM     83  C   UNL A   1      31.090  25.643  22.731  1.00  0.00     0.225 C 
ATOM     84  O   UNL A   1      31.422  26.405  21.818  1.00  0.00    -0.275 OA
BRANCH  83  85
ATOM     85  N   UNL A   1      31.706  24.414  22.851  1.00  0.00    -0.339 N 
ATOM     86  C   UNL A   1      33.032  24.035  22.319  1.00  0.00     0.141 C 
ATOM     87  C   UNL A   1      31.022  23.373  23.636  1.00  0.00     0.146 C 
ATOM     88  C   UNL A   1      33.889  23.184  23.292  1.00  0.00     0.143 C 
ATOM     89  C   UNL A   1      31.905  22.943  24.782  1.00  0.00     0.125 C 
ATOM     90  N   UNL A   1      33.139  22.408  24.256  1.00  0.00    -0.317 N 
ATOM     91  C   UNL A   1      31.413  21.834  25.692  1.00  0.00     0.144 C 
ATOM     92  C   UNL A   1      33.662  21.488  25.154  1.00  0.00     0.317 C 
ATOM     93  N   UNL A   1      32.642  21.166  26.044  1.00  0.00    -0.336 N 
ATOM     94  O   UNL A   1      34.797  21.046  25.184  1.00  0.00    -0.249 OA
ATOM     95  H   UNL A   1      32.746  20.561  26.814  1.00  0.00     0.165 HD
ENDBRANCH  83  85
ENDBRANCH  81  83
ENDBRANCH  75  77
ENDBRANCH  74  75
ENDBRANCH  73  74
ENDBRANCH  72  73
ENDBRANCH  71  72
ENDBRANCH  70  71
ENDBRANCH   1  70
TORSDOF 22
ENDMDL
MODEL 3
REMARK VINA RESULT:      -9.7      5.594      9.833
REMARK SMILES O=C(OCCOCCOCCOC(=O)[C@@H]1CCC[C@@H](C(=O)N2CCN3C(=O)NC[C@@H]3C2)C1)c1ccc(-c2c3nc(c(-c4ccc(S(=O)(=O)[O-])cc4)c4ccc([nH]4)c(-c4ccc(S(=O)(=O)[O-])cc4)c4nc(c(-c5ccc(S(=O)(=O)[O-])cc5)c5ccc2[nH]5)C=C4)C=C3)cc1
REMARK SMILES IDX 7 1 6 2 5 3 4 4 3 5 2 6 1 7 33 8 34 9 92 10 35 11 91 12
REMARK SMILES IDX 36 13 37 14 38 15 85 16 39 17 90 18 84 19 86 20 40 21 89 22
REMARK SMILES IDX 83 23 82 24 41 26 71 27 52 28 70 29 53 30 56 31 69 32 87 33
REMARK SMILES IDX 54 34 55 35 68 37 88 38 57 39 42 40 43 41 51 42 44 43 50 44
REMARK SMILES IDX 45 45 46 46 47 47 48 48 49 49 72 50 73 51 81 52 74 53 80 54
REMARK SMILES IDX 75 55 76 56 77 57 78 58 79 59 58 60 59 61 67 62 60 63 66 64
REMARK SMILES IDX 61 65 62 66 63 67 64 68 65 69 8 70 9 71 10 72 11 73 12 74
REMARK SMILES IDX 13 75 14 76 15 77 16 78 32 79 17 80 19 81 18 82 20 83 21 84
REMARK SMILES IDX 22 85 23 86 31 87 24 88 30 89 25 90 29 91 26 92 28 93 27 94
REMARK H PARENT 86 25 56 36 28 95
REMARK Flexibility Score: inf
ROOT
ATOM      1  C   UNL A   1      34.052  21.130  26.053  1.00  0.00     0.188 C 
ENDROOT
BRANCH   1   2
ATOM      2  O   UNL A   1      35.399  20.823  25.686  1.00  0.00    -0.376 OA
BRANCH   2   3
ATOM      3  C   UNL A   1      35.935  21.594  24.610  1.00  0.00     0.202 C 
BRANCH   3   4
ATOM      4  C   UNL A   1      37.398  22.061  24.715  1.00  0.00     0.261 C 
BRANCH   4   5
ATOM      5  O   UNL A   1      38.041  21.799  25.972  1.00  0.00    -0.460 OA
BRANCH   5   6
ATOM      6  C   UNL A   1      39.328  21.972  26.347  1.00  0.00     0.338 C 
ATOM      7  O   UNL A   1      40.072  20.991  26.343  1.00  0.00    -0.246 OA
BRANCH   6   8
ATOM      8  C   UNL A   1      39.908  23.277  26.770  1.00  0.00     0.060 A 
ATOM      9  C   UNL A   1      39.436  24.526  26.375  1.00  0.00     0.016 A 
ATOM     10  C   UNL A   1      40.912  23.232  27.755  1.00  0.00     0.016 A 
ATOM     11  C   UNL A   1      39.991  25.698  26.891  1.00  0.00     0.010 A 
ATOM     12  C   UNL A   1      41.445  24.402  28.304  1.00  0.00     0.010 A 
ATOM     13  C   UNL A   1      40.996  25.647  27.858  1.00  0.00    -0.014 A 
BRANCH  13  14
ATOM     14  C   UNL A   1      41.628  26.910  28.306  1.00  0.00     0.031 A 
ATOM     15  C   UNL A   1      42.976  27.231  27.750  1.00  0.00     0.074 A 
ATOM     16  C   UNL A   1      40.976  27.740  29.147  1.00  0.00     0.049 A 
ATOM     17  N   UNL A   1      43.672  28.324  27.878  1.00  0.00    -0.248 NA
ATOM     18  C   UNL A   1      43.651  26.171  26.977  1.00  0.00     0.031 C 
ATOM     19  C   UNL A   1      39.688  27.418  29.742  1.00  0.00     0.029 A 
ATOM     20  N   UNL A   1      41.224  29.019  29.595  1.00  0.00    -0.354 N 
ATOM     21  C   UNL A   1      44.924  28.021  27.359  1.00  0.00     0.074 A 
ATOM     22  C   UNL A   1      44.852  26.699  26.785  1.00  0.00     0.031 C 
ATOM     23  C   UNL A   1      39.178  28.518  30.317  1.00  0.00     0.029 A 
ATOM     24  C   UNL A   1      40.121  29.618  30.204  1.00  0.00     0.049 A 
ATOM     25  H   UNL A   1      42.095  29.467  29.495  1.00  0.00     0.167 HD
ATOM     26  C   UNL A   1      46.050  28.757  27.472  1.00  0.00     0.031 A 
ATOM     27  C   UNL A   1      39.907  30.919  30.534  1.00  0.00     0.031 A 
ATOM     28  C   UNL A   1      46.057  30.064  28.066  1.00  0.00     0.049 A 
ATOM     29  C   UNL A   1      41.114  31.821  30.334  1.00  0.00     0.074 A 
ATOM     30  C   UNL A   1      47.131  30.899  28.305  1.00  0.00     0.029 A 
ATOM     31  N   UNL A   1      44.921  30.719  28.526  1.00  0.00    -0.354 N 
ATOM     32  N   UNL A   1      42.240  31.568  29.700  1.00  0.00    -0.248 NA
ATOM     33  C   UNL A   1      41.054  33.164  30.928  1.00  0.00     0.031 C 
ATOM     34  C   UNL A   1      46.648  32.036  28.961  1.00  0.00     0.029 A 
ATOM     35  C   UNL A   1      45.269  31.933  29.076  1.00  0.00     0.049 A 
ATOM     36  H   UNL A   1      44.003  30.366  28.467  1.00  0.00     0.167 HD
ATOM     37  C   UNL A   1      43.027  32.699  29.868  1.00  0.00     0.074 A 
ATOM     38  C   UNL A   1      42.188  33.696  30.501  1.00  0.00     0.031 C 
ATOM     39  C   UNL A   1      44.355  32.881  29.654  1.00  0.00     0.031 A 
BRANCH  26  40
ATOM     40  C   UNL A   1      47.355  28.100  27.129  1.00  0.00    -0.014 A 
ATOM     41  C   UNL A   1      47.932  28.173  25.852  1.00  0.00     0.010 A 
ATOM     42  C   UNL A   1      48.033  27.403  28.150  1.00  0.00     0.010 A 
ATOM     43  C   UNL A   1      49.163  27.556  25.602  1.00  0.00     0.020 A 
ATOM     44  C   UNL A   1      49.272  26.807  27.911  1.00  0.00     0.020 A 
ATOM     45  C   UNL A   1      49.828  26.884  26.635  1.00  0.00     0.054 A 
BRANCH  45  46
ATOM     46  S   UNL A   1      51.456  26.155  26.300  1.00  0.00     0.124 S 
ATOM     47  O   UNL A   1      51.537  26.252  24.845  1.00  0.00    -0.237 OA
ATOM     48  O   UNL A   1      52.355  27.038  27.039  1.00  0.00    -0.237 OA
ATOM     49  O   UNL A   1      51.346  24.799  26.830  1.00  0.00    -0.744 OA
ENDBRANCH  45  46
ENDBRANCH  26  40
BRANCH  27  50
ATOM     50  C   UNL A   1      38.554  31.485  30.959  1.00  0.00    -0.014 A 
ATOM     51  C   UNL A   1      38.203  31.569  32.327  1.00  0.00     0.010 A 
ATOM     52  C   UNL A   1      37.603  32.003  30.060  1.00  0.00     0.010 A 
ATOM     53  C   UNL A   1      37.042  32.210  32.782  1.00  0.00     0.020 A 
ATOM     54  C   UNL A   1      36.456  32.693  30.499  1.00  0.00     0.020 A 
ATOM     55  C   UNL A   1      36.191  32.805  31.861  1.00  0.00     0.054 A 
BRANCH  55  56
ATOM     56  S   UNL A   1      34.776  33.753  32.480  1.00  0.00     0.124 S 
ATOM     57  O   UNL A   1      33.723  32.746  32.526  1.00  0.00    -0.237 OA
ATOM     58  O   UNL A   1      35.270  34.216  33.776  1.00  0.00    -0.237 OA
ATOM     59  O   UNL A   1      34.602  34.801  31.478  1.00  0.00    -0.744 OA
ENDBRANCH  55  56
ENDBRANCH  27  50
BRANCH  39  60
ATOM     60  C   UNL A   1      44.949  34.147  30.204  1.00  0.00    -0.014 A 
ATOM     61  C   UNL A   1      45.415  34.168  31.533  1.00  0.00     0.010 A 
ATOM     62  C   UNL A   1      45.126  35.276  29.389  1.00  0.00     0.010 A 
ATOM     63  C   UNL A   1      46.016  35.311  32.051  1.00  0.00     0.020 A 
ATOM     64  C   UNL A   1      45.762  36.412  29.896  1.00  0.00     0.020 A 
ATOM     65  C   UNL A   1      46.191  36.424  31.227  1.00  0.00     0.054 A 
BRANCH  65  66
ATOM     66  S   UNL A   1      47.043  37.868  31.911  1.00  0.00     0.124 S 
ATOM     67  O   UNL A   1      47.274  38.677  30.719  1.00  0.00    -0.237 OA
ATOM     68  O   UNL A   1      46.060  38.401  32.852  1.00  0.00    -0.237 OA
ATOM     69  O   UNL A   1      48.242  37.302  32.525  1.00  0.00    -0.744 OA
ENDBRANCH  65  66
ENDBRANCH  39  60
ENDBRANCH  13  14
ENDBRANCH   6   8
ENDBRANCH   5   6
ENDBRANCH   4   5
ENDBRANCH   3   4
ENDBRANCH   2   3
ENDBRANCH   1   2
BRANCH   1  70
ATOM     70  C   UNL A   1      33.034  20.208  25.386  1.00  0.00     0.188 C 
BRANCH  70  71
ATOM     71  O   UNL A   1      31.696  20.694  25.294  1.00  0.00    -0.376 OA
BRANCH  71  72
ATOM     72  C   UNL A   1      31.478  22.062  25.620  1.00  0.00     0.202 C 
BRANCH  72  73
ATOM     73  C   UNL A   1      31.376  23.066  24.468  1.00  0.00     0.261 C 
BRANCH  73  74
ATOM     74  O   UNL A   1      32.547  23.854  24.248  1.00  0.00    -0.463 OA
BRANCH  74  75
ATOM     75  C   UNL A   1      32.500  24.725  23.195  1.00  0.00     0.309 C 
ATOM     76  O   UNL A   1      32.513  24.414  22.013  1.00  0.00    -0.252 OA
BRANCH  75  77
ATOM     77  C   UNL A   1      32.460  26.142  23.718  1.00  0.00     0.100 C 
ATOM     78  C   UNL A   1      31.628  27.089  22.849  1.00  0.00     0.015 C 
ATOM     79  C   UNL A   1      33.903  26.639  23.885  1.00  0.00     0.028 C 
ATOM     80  C   UNL A   1      31.717  28.551  23.298  1.00  0.00     0.002 C 
ATOM     81  C   UNL A   1      33.938  28.029  24.530  1.00  0.00     0.079 C 
ATOM     82  C   UNL A   1      33.137  29.006  23.649  1.00  0.00     0.013 C 
BRANCH  81  83
ATOM     83  C   UNL A   1      33.385  27.850  25.950  1.00  0.00     0.225 C 
ATOM     84  O   UNL A   1      33.108  26.716  26.352  1.00  0.00    -0.275 OA
BRANCH  83  85
ATOM     85  N   UNL A   1      33.425  28.900  26.844  1.00  0.00    -0.339 N 
ATOM     86  C   UNL A   1      34.596  29.350  27.626  1.00  0.00     0.141 C 
ATOM     87  C   UNL A   1      32.206  29.710  27.013  1.00  0.00     0.146 C 
ATOM     88  C   UNL A   1      34.757  30.891  27.701  1.00  0.00     0.143 C 
ATOM     89  C   UNL A   1      32.505  31.148  26.664  1.00  0.00     0.125 C 
ATOM     90  N   UNL A   1      33.533  31.647  27.547  1.00  0.00    -0.317 N 
ATOM     91  C   UNL A   1      31.395  32.170  26.820  1.00  0.00     0.144 C 
ATOM     92  C   UNL A   1      33.394  33.022  27.686  1.00  0.00     0.317 C 
ATOM     93  N   UNL A   1      32.126  33.349  27.216  1.00  0.00    -0.336 N 
ATOM     94  O   UNL A   1      34.218  33.808  28.118  1.00  0.00    -0.249 OA
ATOM     95  H   UNL A   1      31.774  34.267  27.160  1.00  0.00     0.165 HD
ENDBRANCH  83  85
ENDBRANCH  81  83
ENDBRANCH  75  77
ENDBRANCH  74  75
ENDBRANCH  73  74
ENDBRANCH  72  73
ENDBRANCH  71  72
ENDBRANCH  70  71
ENDBRANCH   1  70
TORSDOF 22
ENDMDL
