MODEL 1
REMARK VINA RESULT:      -9.4      0.000      0.000
REMARK SMILES O=C(OCCOCCOCCOC(=O)c1cn(-c2ccccc2)c2c1N=C(O)C[C@@H]2c1cccs1)c1ccc(-c2c3nc(c(-c4ccc(S(=O)(=O)[O-])cc4)c4ccc([nH]4)c(-c4ccc(S(=O)(=O)[O-])cc4)c4nc(c(-c5ccc(S(=O)(=O)[O-])cc5)c5ccc2[nH]5)C=C4)C=C3)cc1
REMARK SMILES IDX 7 1 6 2 5 3 4 4 3 5 2 6 1 7 36 8 37 9 95 10 38 11 94 12
REMARK SMILES IDX 39 13 40 14 41 15 88 16 42 17 93 18 87 19 89 20 43 21 92 22
REMARK SMILES IDX 86 23 85 24 44 26 74 27 55 28 73 29 56 30 59 31 72 32 90 33
REMARK SMILES IDX 57 34 58 35 71 37 91 38 60 39 45 40 46 41 54 42 47 43 53 44
REMARK SMILES IDX 48 45 49 46 50 47 51 48 52 49 75 50 76 51 84 52 77 53 83 54
REMARK SMILES IDX 78 55 79 56 80 57 81 58 82 59 61 60 62 61 70 62 63 63 69 64
REMARK SMILES IDX 64 65 65 66 66 67 67 68 68 69 8 70 9 71 10 72 11 73 12 74
REMARK SMILES IDX 13 75 14 76 15 77 16 78 25 79 17 80 24 81 26 82 30 83 27 84
REMARK SMILES IDX 29 85 18 86 19 87 23 88 20 89 22 90 21 91 31 92 32 93 35 94
REMARK SMILES IDX 33 95 34 96 28 97
REMARK H PARENT 89 25 59 36 28 98
REMARK Flexibility Score: inf
ROOT
ATOM      1  C   UNL A   1      47.177  39.290  25.198  1.00  0.00     0.188 C 
ENDROOT
BRANCH   1   2
ATOM      2  O   UNL A   1      47.813  38.325  26.005  1.00  0.00    -0.376 OA
BRANCH   2   3
ATOM      3  C   UNL A   1      48.196  37.086  25.453  1.00  0.00     0.202 C 
BRANCH   3   4
ATOM      4  C   UNL A   1      47.999  35.819  26.293  1.00  0.00     0.261 C 
BRANCH   4   5
ATOM      5  O   UNL A   1      47.012  35.884  27.330  1.00  0.00    -0.460 OA
BRANCH   5   6
ATOM      6  C   UNL A   1      45.693  35.621  27.341  1.00  0.00     0.338 C 
ATOM      7  O   UNL A   1      44.969  36.240  26.559  1.00  0.00    -0.246 OA
BRANCH   6   8
ATOM      8  C   UNL A   1      45.026  34.733  28.333  1.00  0.00     0.060 A 
ATOM      9  C   UNL A   1      45.662  33.878  29.232  1.00  0.00     0.016 A 
ATOM     10  C   UNL A   1      43.615  34.744  28.286  1.00  0.00     0.016 A 
ATOM     11  C   UNL A   1      44.925  32.925  29.917  1.00  0.00     0.010 A 
ATOM     12  C   UNL A   1      42.874  33.803  28.977  1.00  0.00     0.010 A 
ATOM     13  C   UNL A   1      43.549  32.834  29.705  1.00  0.00    -0.014 A 
BRANCH  13  14
ATOM     14  C   UNL A   1      42.866  31.656  30.213  1.00  0.00     0.031 A 
ATOM     15  C   UNL A   1      42.600  30.590  29.217  1.00  0.00     0.074 A 
ATOM     16  C   UNL A   1      42.533  31.542  31.514  1.00  0.00     0.049 A 
ATOM     17  N   UNL A   1      41.463  30.179  28.763  1.00  0.00    -0.248 NA
ATOM     18  C   UNL A   1      43.765  29.992  28.554  1.00  0.00     0.031 C 
ATOM     19  C   UNL A   1      42.946  32.380  32.644  1.00  0.00     0.029 A 
ATOM     20  N   UNL A   1      41.810  30.562  32.115  1.00  0.00    -0.354 N 
ATOM     21  C   UNL A   1      41.755  29.140  27.883  1.00  0.00     0.074 A 
ATOM     22  C   UNL A   1      43.184  29.166  27.684  1.00  0.00     0.031 C 
ATOM     23  C   UNL A   1      42.674  31.736  33.802  1.00  0.00     0.029 A 
ATOM     24  C   UNL A   1      41.929  30.527  33.497  1.00  0.00     0.049 A 
ATOM     25  H   UNL A   1      41.248  29.929  31.613  1.00  0.00     0.167 HD
ATOM     26  C   UNL A   1      40.832  28.203  27.528  1.00  0.00     0.031 A 
ATOM     27  C   UNL A   1      41.502  29.534  34.318  1.00  0.00     0.031 A 
ATOM     28  C   UNL A   1      39.490  28.627  27.827  1.00  0.00     0.049 A 
ATOM     29  C   UNL A   1      40.471  28.768  33.574  1.00  0.00     0.074 A 
ATOM     30  C   UNL A   1      38.688  29.662  27.388  1.00  0.00     0.029 A 
ATOM     31  N   UNL A   1      38.925  28.184  28.999  1.00  0.00    -0.354 N 
ATOM     32  N   UNL A   1      39.320  29.274  33.225  1.00  0.00    -0.248 NA
ATOM     33  C   UNL A   1      40.898  27.610  32.805  1.00  0.00     0.031 C 
ATOM     34  C   UNL A   1      37.998  30.108  28.553  1.00  0.00     0.029 A 
ATOM     35  C   UNL A   1      38.361  29.275  29.614  1.00  0.00     0.049 A 
ATOM     36  H   UNL A   1      38.925  27.259  29.336  1.00  0.00     0.167 HD
ATOM     37  C   UNL A   1      39.082  28.782  31.949  1.00  0.00     0.074 A 
ATOM     38  C   UNL A   1      40.046  27.696  31.779  1.00  0.00     0.031 C 
ATOM     39  C   UNL A   1      38.319  29.473  31.050  1.00  0.00     0.031 A 
BRANCH  26  40
ATOM     40  C   UNL A   1      41.186  26.772  27.216  1.00  0.00    -0.014 A 
ATOM     41  C   UNL A   1      41.465  25.875  28.265  1.00  0.00     0.010 A 
ATOM     42  C   UNL A   1      41.499  26.347  25.908  1.00  0.00     0.010 A 
ATOM     43  C   UNL A   1      42.063  24.630  28.015  1.00  0.00     0.020 A 
ATOM     44  C   UNL A   1      42.056  25.094  25.644  1.00  0.00     0.020 A 
ATOM     45  C   UNL A   1      42.362  24.254  26.704  1.00  0.00     0.054 A 
BRANCH  45  46
ATOM     46  S   UNL A   1      43.215  22.688  26.396  1.00  0.00     0.124 S 
ATOM     47  O   UNL A   1      42.552  21.792  27.340  1.00  0.00    -0.237 OA
ATOM     48  O   UNL A   1      42.924  22.450  24.984  1.00  0.00    -0.237 OA
ATOM     49  O   UNL A   1      44.612  22.993  26.695  1.00  0.00    -0.744 OA
ENDBRANCH  45  46
ENDBRANCH  26  40
BRANCH  27  50
ATOM     50  C   UNL A   1      42.211  28.997  35.507  1.00  0.00    -0.014 A 
ATOM     51  C   UNL A   1      41.775  27.826  36.154  1.00  0.00     0.010 A 
ATOM     52  C   UNL A   1      43.492  29.488  35.837  1.00  0.00     0.010 A 
ATOM     53  C   UNL A   1      42.615  27.142  37.052  1.00  0.00     0.020 A 
ATOM     54  C   UNL A   1      44.331  28.815  36.733  1.00  0.00     0.020 A 
ATOM     55  C   UNL A   1      43.897  27.630  37.319  1.00  0.00     0.054 A 
BRANCH  55  56
ATOM     56  S   UNL A   1      45.040  26.648  38.336  1.00  0.00     0.124 S 
ATOM     57  O   UNL A   1      46.128  27.589  38.580  1.00  0.00    -0.237 OA
ATOM     58  O   UNL A   1      44.221  26.311  39.497  1.00  0.00    -0.237 OA
ATOM     59  O   UNL A   1      45.381  25.516  37.474  1.00  0.00    -0.744 OA
ENDBRANCH  55  56
ENDBRANCH  27  50
BRANCH  39  60
ATOM     60  C   UNL A   1      37.550  30.683  31.541  1.00  0.00    -0.014 A 
ATOM     61  C   UNL A   1      36.224  30.626  32.020  1.00  0.00     0.010 A 
ATOM     62  C   UNL A   1      38.249  31.896  31.666  1.00  0.00     0.010 A 
ATOM     63  C   UNL A   1      35.610  31.759  32.580  1.00  0.00     0.020 A 
ATOM     64  C   UNL A   1      37.651  33.023  32.239  1.00  0.00     0.020 A 
ATOM     65  C   UNL A   1      36.330  32.952  32.684  1.00  0.00     0.054 A 
BRANCH  65  66
ATOM     66  S   UNL A   1      35.550  34.405  33.447  1.00  0.00     0.124 S 
ATOM     67  O   UNL A   1      35.479  34.025  34.854  1.00  0.00    -0.237 OA
ATOM     68  O   UNL A   1      36.489  35.479  33.131  1.00  0.00    -0.237 OA
ATOM     69  O   UNL A   1      34.259  34.504  32.766  1.00  0.00    -0.744 OA
ENDBRANCH  65  66
ENDBRANCH  39  60
ENDBRANCH  13  14
ENDBRANCH   6   8
ENDBRANCH   5   6
ENDBRANCH   4   5
ENDBRANCH   3   4
ENDBRANCH   2   3
ENDBRANCH   1   2
BRANCH   1  70
ATOM     70  C   UNL A   1      46.038  40.052  25.916  1.00  0.00     0.188 C 
BRANCH  70  71
ATOM     71  O   UNL A   1      45.047  40.793  25.203  1.00  0.00    -0.376 OA
BRANCH  71  72
ATOM     72  C   UNL A   1      44.113  41.605  25.892  1.00  0.00     0.202 C 
BRANCH  72  73
ATOM     73  C   UNL A   1      42.783  41.889  25.187  1.00  0.00     0.261 C 
BRANCH  73  74
ATOM     74  O   UNL A   1      42.851  42.701  24.012  1.00  0.00    -0.460 OA
BRANCH  74  75
ATOM     75  C   UNL A   1      42.340  42.174  22.865  1.00  0.00     0.342 C 
ATOM     76  O   UNL A   1      41.512  41.263  22.807  1.00  0.00    -0.246 OA
BRANCH  75  77
ATOM     77  C   UNL A   1      42.874  42.825  21.688  1.00  0.00     0.104 A 
ATOM     78  C   UNL A   1      42.196  43.514  20.690  1.00  0.00     0.109 A 
ATOM     79  C   UNL A   1      44.225  42.887  21.332  1.00  0.00     0.103 A 
ATOM     80  N   UNL A   1      43.103  43.917  19.718  1.00  0.00    -0.317 N 
ATOM     81  C   UNL A   1      44.365  43.517  20.124  1.00  0.00     0.058 A 
ATOM     82  N   UNL A   1      45.268  42.397  22.107  1.00  0.00    -0.215 NA
ATOM     83  C   UNL A   1      45.678  43.775  19.469  1.00  0.00     0.088 C 
ATOM     84  C   UNL A   1      46.417  42.433  21.523  1.00  0.00     0.187 C 
ATOM     85  C   UNL A   1      46.724  42.825  20.097  1.00  0.00     0.112 C 
BRANCH  80  86
ATOM     86  C   UNL A   1      42.766  44.620  18.536  1.00  0.00     0.045 A 
ATOM     87  C   UNL A   1      42.946  44.007  17.292  1.00  0.00     0.026 A 
ATOM     88  C   UNL A   1      42.275  45.927  18.618  1.00  0.00     0.026 A 
ATOM     89  C   UNL A   1      42.644  44.710  16.125  1.00  0.00     0.002 A 
ATOM     90  C   UNL A   1      42.014  46.634  17.441  1.00  0.00     0.002 A 
ATOM     91  C   UNL A   1      42.195  46.027  16.198  1.00  0.00     0.000 A 
ENDBRANCH  80  86
BRANCH  83  92
ATOM     92  C   UNL A   1      46.185  45.209  19.489  1.00  0.00     0.014 A 
ATOM     93  C   UNL A   1      45.790  46.196  20.381  1.00  0.00     0.016 A 
ATOM     94  S   UNL A   1      47.354  45.824  18.393  1.00  0.00    -0.148 S 
ATOM     95  C   UNL A   1      46.461  47.433  20.177  1.00  0.00     0.012 A 
ATOM     96  C   UNL A   1      47.371  47.356  19.149  1.00  0.00     0.065 A 
ENDBRANCH  83  92
BRANCH  84  97
ATOM     97  O   UNL A   1      47.482  41.977  22.216  1.00  0.00    -0.496 OA
ATOM     98  H   UNL A   1      47.969  42.561  22.762  1.00  0.00     0.294 HD
ENDBRANCH  84  97
ENDBRANCH  75  77
ENDBRANCH  74  75
ENDBRANCH  73  74
ENDBRANCH  72  73
ENDBRANCH  71  72
ENDBRANCH  70  71
ENDBRANCH   1  70
TORSDOF 23
ENDMDL
MODEL 2
REMARK VINA RESULT:      -9.4      2.427      3.382
REMARK SMILES O=C(OCCOCCOCCOC(=O)c1cn(-c2ccccc2)c2c1N=C(O)C[C@@H]2c1cccs1)c1ccc(-c2c3nc(c(-c4ccc(S(=O)(=O)[O-])cc4)c4ccc([nH]4)c(-c4ccc(S(=O)(=O)[O-])cc4)c4nc(c(-c5ccc(S(=O)(=O)[O-])cc5)c5ccc2[nH]5)C=C4)C=C3)cc1
REMARK SMILES IDX 7 1 6 2 5 3 4 4 3 5 2 6 1 7 36 8 37 9 95 10 38 11 94 12
REMARK SMILES IDX 39 13 40 14 41 15 88 16 42 17 93 18 87 19 89 20 43 21 92 22
REMARK SMILES IDX 86 23 85 24 44 26 74 27 55 28 73 29 56 30 59 31 72 32 90 33
REMARK SMILES IDX 57 34 58 35 71 37 91 38 60 39 45 40 46 41 54 42 47 43 53 44
REMARK SMILES IDX 48 45 49 46 50 47 51 48 52 49 75 50 76 51 84 52 77 53 83 54
REMARK SMILES IDX 78 55 79 56 80 57 81 58 82 59 61 60 62 61 70 62 63 63 69 64
REMARK SMILES IDX 64 65 65 66 66 67 67 68 68 69 8 70 9 71 10 72 11 73 12 74
REMARK SMILES IDX 13 75 14 76 15 77 16 78 25 79 17 80 24 81 26 82 30 83 27 84
REMARK SMILES IDX 29 85 18 86 19 87 23 88 20 89 22 90 21 91 31 92 32 93 35 94
REMARK SMILES IDX 33 95 34 96 28 97
REMARK H PARENT 89 25 59 36 28 98
REMARK Flexibility Score: inf
ROOT
ATOM      1  C   UNL A   1      44.275  42.716  24.774  1.00  0.00     0.188 C 
ENDROOT
BRANCH   1   2
ATOM      2  O   UNL A   1      44.243  41.314  24.924  1.00  0.00    -0.376 OA
BRANCH   2   3
ATOM      3  C   UNL A   1      43.844  40.745  26.150  1.00  0.00     0.202 C 
BRANCH   3   4
ATOM      4  C   UNL A   1      44.592  39.510  26.661  1.00  0.00     0.261 C 
BRANCH   4   5
ATOM      5  O   UNL A   1      43.869  38.641  27.543  1.00  0.00    -0.460 OA
BRANCH   5   6
ATOM      6  C   UNL A   1      44.267  37.826  28.536  1.00  0.00     0.338 C 
ATOM      7  O   UNL A   1      45.259  38.147  29.191  1.00  0.00    -0.246 OA
BRANCH   6   8
ATOM      8  C   UNL A   1      43.672  36.488  28.808  1.00  0.00     0.060 A 
ATOM      9  C   UNL A   1      42.349  36.112  28.577  1.00  0.00     0.016 A 
ATOM     10  C   UNL A   1      44.548  35.559  29.410  1.00  0.00     0.016 A 
ATOM     11  C   UNL A   1      41.867  34.927  29.109  1.00  0.00     0.010 A 
ATOM     12  C   UNL A   1      44.074  34.369  29.931  1.00  0.00     0.010 A 
ATOM     13  C   UNL A   1      42.712  34.116  29.866  1.00  0.00    -0.014 A 
BRANCH  13  14
ATOM     14  C   UNL A   1      42.104  33.043  30.635  1.00  0.00     0.031 A 
ATOM     15  C   UNL A   1      42.008  31.734  29.944  1.00  0.00     0.074 A 
ATOM     16  C   UNL A   1      41.690  33.232  31.904  1.00  0.00     0.049 A 
ATOM     17  N   UNL A   1      40.949  31.102  29.562  1.00  0.00    -0.248 NA
ATOM     18  C   UNL A   1      43.267  31.113  29.515  1.00  0.00     0.031 C 
ATOM     19  C   UNL A   1      41.943  34.372  32.791  1.00  0.00     0.029 A 
ATOM     20  N   UNL A   1      41.018  32.368  32.707  1.00  0.00    -0.354 N 
ATOM     21  C   UNL A   1      41.395  29.908  29.001  1.00  0.00     0.074 A 
ATOM     22  C   UNL A   1      42.827  30.034  28.868  1.00  0.00     0.031 C 
ATOM     23  C   UNL A   1      41.647  34.022  34.063  1.00  0.00     0.029 A 
ATOM     24  C   UNL A   1      41.039  32.704  34.054  1.00  0.00     0.049 A 
ATOM     25  H   UNL A   1      40.552  31.572  32.364  1.00  0.00     0.167 HD
ATOM     26  C   UNL A   1      40.589  28.820  28.863  1.00  0.00     0.031 A 
ATOM     27  C   UNL A   1      40.645  31.915  35.087  1.00  0.00     0.031 A 
ATOM     28  C   UNL A   1      39.196  29.161  28.978  1.00  0.00     0.049 A 
ATOM     29  C   UNL A   1      39.744  30.879  34.524  1.00  0.00     0.074 A 
ATOM     30  C   UNL A   1      38.338  29.957  28.246  1.00  0.00     0.029 A 
ATOM     31  N   UNL A   1      38.591  28.977  30.198  1.00  0.00    -0.354 N 
ATOM     32  N   UNL A   1      38.580  31.153  34.002  1.00  0.00    -0.248 NA
ATOM     33  C   UNL A   1      40.328  29.614  34.107  1.00  0.00     0.031 C 
ATOM     34  C   UNL A   1      37.528  30.612  29.219  1.00  0.00     0.029 A 
ATOM     35  C   UNL A   1      37.888  30.124  30.478  1.00  0.00     0.049 A 
ATOM     36  H   UNL A   1      38.650  28.175  30.766  1.00  0.00     0.167 HD
ATOM     37  C   UNL A   1      38.481  30.327  32.891  1.00  0.00     0.074 A 
ATOM     38  C   UNL A   1      39.548  29.342  33.057  1.00  0.00     0.031 C 
ATOM     39  C   UNL A   1      37.724  30.679  31.808  1.00  0.00     0.031 A 
BRANCH  26  40
ATOM     40  C   UNL A   1      41.092  27.402  28.955  1.00  0.00    -0.014 A 
ATOM     41  C   UNL A   1      42.302  27.130  29.623  1.00  0.00     0.010 A 
ATOM     42  C   UNL A   1      40.536  26.359  28.185  1.00  0.00     0.010 A 
ATOM     43  C   UNL A   1      42.939  25.887  29.491  1.00  0.00     0.020 A 
ATOM     44  C   UNL A   1      41.141  25.105  28.081  1.00  0.00     0.020 A 
ATOM     45  C   UNL A   1      42.356  24.886  28.713  1.00  0.00     0.054 A 
BRANCH  45  46
ATOM     46  S   UNL A   1      43.226  23.317  28.474  1.00  0.00     0.124 S 
ATOM     47  O   UNL A   1      44.382  23.729  27.684  1.00  0.00    -0.237 OA
ATOM     48  O   UNL A   1      43.509  22.909  29.848  1.00  0.00    -0.237 OA
ATOM     49  O   UNL A   1      42.249  22.486  27.773  1.00  0.00    -0.744 OA
ENDBRANCH  45  46
ENDBRANCH  26  40
BRANCH  27  50
ATOM     50  C   UNL A   1      41.313  31.781  36.407  1.00  0.00    -0.014 A 
ATOM     51  C   UNL A   1      42.530  31.087  36.545  1.00  0.00     0.010 A 
ATOM     52  C   UNL A   1      40.891  32.583  37.487  1.00  0.00     0.010 A 
ATOM     53  C   UNL A   1      43.319  31.238  37.700  1.00  0.00     0.020 A 
ATOM     54  C   UNL A   1      41.669  32.735  38.641  1.00  0.00     0.020 A 
ATOM     55  C   UNL A   1      42.893  32.079  38.732  1.00  0.00     0.054 A 
BRANCH  55  56
ATOM     56  S   UNL A   1      43.999  32.411  40.137  1.00  0.00     0.124 S 
ATOM     57  O   UNL A   1      43.109  32.246  41.281  1.00  0.00    -0.237 OA
ATOM     58  O   UNL A   1      45.026  31.384  39.980  1.00  0.00    -0.237 OA
ATOM     59  O   UNL A   1      44.456  33.780  39.898  1.00  0.00    -0.744 OA
ENDBRANCH  55  56
ENDBRANCH  27  50
BRANCH  39  60
ATOM     60  C   UNL A   1      36.816  31.886  31.927  1.00  0.00    -0.014 A 
ATOM     61  C   UNL A   1      37.268  33.218  31.813  1.00  0.00     0.010 A 
ATOM     62  C   UNL A   1      35.431  31.659  32.003  1.00  0.00     0.010 A 
ATOM     63  C   UNL A   1      36.359  34.290  31.805  1.00  0.00     0.020 A 
ATOM     64  C   UNL A   1      34.520  32.719  31.978  1.00  0.00     0.020 A 
ATOM     65  C   UNL A   1      34.989  34.031  31.890  1.00  0.00     0.054 A 
BRANCH  65  66
ATOM     66  S   UNL A   1      33.812  35.414  31.837  1.00  0.00     0.124 S 
ATOM     67  O   UNL A   1      33.663  35.650  30.404  1.00  0.00    -0.237 OA
ATOM     68  O   UNL A   1      32.637  34.865  32.510  1.00  0.00    -0.237 OA
ATOM     69  O   UNL A   1      34.494  36.479  32.572  1.00  0.00    -0.744 OA
ENDBRANCH  65  66
ENDBRANCH  39  60
ENDBRANCH  13  14
ENDBRANCH   6   8
ENDBRANCH   5   6
ENDBRANCH   4   5
ENDBRANCH   3   4
ENDBRANCH   2   3
ENDBRANCH   1   2
BRANCH   1  70
ATOM     70  C   UNL A   1      42.949  43.318  24.253  1.00  0.00     0.188 C 
BRANCH  70  71
ATOM     71  O   UNL A   1      41.869  42.505  23.793  1.00  0.00    -0.376 OA
BRANCH  71  72
ATOM     72  C   UNL A   1      41.530  42.456  22.419  1.00  0.00     0.202 C 
BRANCH  72  73
ATOM     73  C   UNL A   1      42.316  43.371  21.474  1.00  0.00     0.261 C 
BRANCH  73  74
ATOM     74  O   UNL A   1      41.616  43.833  20.316  1.00  0.00    -0.460 OA
BRANCH  74  75
ATOM     75  C   UNL A   1      42.252  43.708  19.118  1.00  0.00     0.342 C 
ATOM     76  O   UNL A   1      42.030  42.831  18.282  1.00  0.00    -0.246 OA
BRANCH  75  77
ATOM     77  C   UNL A   1      43.235  44.750  18.917  1.00  0.00     0.104 A 
ATOM     78  C   UNL A   1      43.035  46.083  18.578  1.00  0.00     0.109 A 
ATOM     79  C   UNL A   1      44.620  44.601  19.041  1.00  0.00     0.103 A 
ATOM     80  N   UNL A   1      44.269  46.704  18.428  1.00  0.00    -0.317 N 
ATOM     81  C   UNL A   1      45.251  45.772  18.713  1.00  0.00     0.058 A 
ATOM     82  N   UNL A   1      45.254  43.438  19.458  1.00  0.00    -0.215 NA
ATOM     83  C   UNL A   1      46.727  45.963  18.767  1.00  0.00     0.088 C 
ATOM     84  C   UNL A   1      46.538  43.478  19.364  1.00  0.00     0.187 C 
ATOM     85  C   UNL A   1      47.394  44.567  18.762  1.00  0.00     0.112 C 
BRANCH  80  86
ATOM     86  C   UNL A   1      44.455  48.058  18.057  1.00  0.00     0.045 A 
ATOM     87  C   UNL A   1      44.817  48.371  16.742  1.00  0.00     0.026 A 
ATOM     88  C   UNL A   1      44.294  49.071  19.008  1.00  0.00     0.026 A 
ATOM     89  C   UNL A   1      45.031  49.703  16.382  1.00  0.00     0.002 A 
ATOM     90  C   UNL A   1      44.551  50.396  18.645  1.00  0.00     0.002 A 
ATOM     91  C   UNL A   1      44.915  50.712  17.336  1.00  0.00     0.000 A 
ENDBRANCH  80  86
BRANCH  83  92
ATOM     92  C   UNL A   1      47.269  46.804  19.913  1.00  0.00     0.014 A 
ATOM     93  C   UNL A   1      47.278  46.440  21.252  1.00  0.00     0.016 A 
ATOM     94  S   UNL A   1      47.973  48.356  19.709  1.00  0.00    -0.148 S 
ATOM     95  C   UNL A   1      47.879  47.418  22.092  1.00  0.00     0.012 A 
ATOM     96  C   UNL A   1      48.338  48.496  21.372  1.00  0.00     0.065 A 
ENDBRANCH  83  92
BRANCH  84  97
ATOM     97  O   UNL A   1      47.226  42.384  19.755  1.00  0.00    -0.496 OA
ATOM     98  H   UNL A   1      48.159  42.363  19.669  1.00  0.00     0.294 HD
ENDBRANCH  84  97
ENDBRANCH  75  77
ENDBRANCH  74  75
ENDBRANCH  73  74
ENDBRANCH  72  73
ENDBRANCH  71  72
ENDBRANCH  70  71
ENDBRANCH   1  70
TORSDOF 23
ENDMDL
MODEL 3
REMARK VINA RESULT:      -9.3      8.684     15.332
REMARK SMILES O=C(OCCOCCOCCOC(=O)c1cn(-c2ccccc2)c2c1N=C(O)C[C@@H]2c1cccs1)c1ccc(-c2c3nc(c(-c4ccc(S(=O)(=O)[O-])cc4)c4ccc([nH]4)c(-c4ccc(S(=O)(=O)[O-])cc4)c4nc(c(-c5ccc(S(=O)(=O)[O-])cc5)c5ccc2[nH]5)C=C4)C=C3)cc1
REMARK SMILES IDX 7 1 6 2 5 3 4 4 3 5 2 6 1 7 36 8 37 9 95 10 38 11 94 12
REMARK SMILES IDX 39 13 40 14 41 15 88 16 42 17 93 18 87 19 89 20 43 21 92 22
REMARK SMILES IDX 86 23 85 24 44 26 74 27 55 28 73 29 56 30 59 31 72 32 90 33
REMARK SMILES IDX 57 34 58 35 71 37 91 38 60 39 45 40 46 41 54 42 47 43 53 44
REMARK SMILES IDX 48 45 49 46 50 47 51 48 52 49 75 50 76 51 84 52 77 53 83 54
REMARK SMILES IDX 78 55 79 56 80 57 81 58 82 59 61 60 62 61 70 62 63 63 69 64
REMARK SMILES IDX 64 65 65 66 66 67 67 68 68 69 8 70 9 71 10 72 11 73 12 74
REMARK SMILES IDX 13 75 14 76 15 77 16 78 25 79 17 80 24 81 26 82 30 83 27 84
REMARK SMILES IDX 29 85 18 86 19 87 23 88 20 89 22 90 21 91 31 92 32 93 35 94
REMARK SMILES IDX 33 95 34 96 28 97
REMARK H PARENT 89 25 59 36 28 98
REMARK Flexibility Score: inf
ROOT
ATOM      1  C   UNL A   1      42.934  19.571  25.931  1.00  0.00     0.188 C 
ENDROOT
BRANCH   1   2
ATOM      2  O   UNL A   1      43.456  19.344  24.642  1.00  0.00    -0.376 OA
BRANCH   2   3
ATOM      3  C   UNL A   1      44.850  19.287  24.446  1.00  0.00     0.202 C 
BRANCH   3   4
ATOM      4  C   UNL A   1      45.607  20.596  24.196  1.00  0.00     0.261 C 
BRANCH   4   5
ATOM      5  O   UNL A   1      44.819  21.730  23.810  1.00  0.00    -0.460 OA
BRANCH   5   6
ATOM      6  C   UNL A   1      44.208  22.692  24.525  1.00  0.00     0.338 C 
ATOM      7  O   UNL A   1      42.977  22.729  24.520  1.00  0.00    -0.246 OA
BRANCH   6   8
ATOM      8  C   UNL A   1      44.923  23.804  25.210  1.00  0.00     0.060 A 
ATOM      9  C   UNL A   1      44.681  25.167  25.042  1.00  0.00     0.016 A 
ATOM     10  C   UNL A   1      45.978  23.400  26.057  1.00  0.00     0.016 A 
ATOM     11  C   UNL A   1      45.582  26.094  25.541  1.00  0.00     0.010 A 
ATOM     12  C   UNL A   1      46.873  24.322  26.567  1.00  0.00     0.010 A 
ATOM     13  C   UNL A   1      46.723  25.655  26.214  1.00  0.00    -0.014 A 
BRANCH  13  14
ATOM     14  C   UNL A   1      47.772  26.628  26.466  1.00  0.00     0.031 A 
ATOM     15  C   UNL A   1      48.763  26.798  25.376  1.00  0.00     0.074 A 
ATOM     16  C   UNL A   1      47.808  27.345  27.607  1.00  0.00     0.049 A 
ATOM     17  N   UNL A   1      50.020  26.501  25.378  1.00  0.00    -0.248 NA
ATOM     18  C   UNL A   1      48.253  27.246  24.075  1.00  0.00     0.031 C 
ATOM     19  C   UNL A   1      46.780  27.470  28.645  1.00  0.00     0.029 A 
ATOM     20  N   UNL A   1      48.769  28.207  28.029  1.00  0.00    -0.354 N 
ATOM     21  C   UNL A   1      50.508  26.891  24.134  1.00  0.00     0.074 A 
ATOM     22  C   UNL A   1      49.354  27.205  23.326  1.00  0.00     0.031 C 
ATOM     23  C   UNL A   1      47.068  28.530  29.434  1.00  0.00     0.029 A 
ATOM     24  C   UNL A   1      48.371  29.049  29.058  1.00  0.00     0.049 A 
ATOM     25  H   UNL A   1      49.673  28.231  27.640  1.00  0.00     0.167 HD
ATOM     26  C   UNL A   1      51.832  27.117  23.907  1.00  0.00     0.031 A 
ATOM     27  C   UNL A   1      49.042  30.138  29.513  1.00  0.00     0.031 A 
ATOM     28  C   UNL A   1      52.662  26.543  24.932  1.00  0.00     0.049 A 
ATOM     29  C   UNL A   1      50.458  29.981  29.096  1.00  0.00     0.074 A 
ATOM     30  C   UNL A   1      52.901  25.253  25.364  1.00  0.00     0.029 A 
ATOM     31  N   UNL A   1      53.087  27.365  25.948  1.00  0.00    -0.354 N 
ATOM     32  N   UNL A   1      51.236  29.038  29.551  1.00  0.00    -0.248 NA
ATOM     33  C   UNL A   1      50.869  30.566  27.829  1.00  0.00     0.031 C 
ATOM     34  C   UNL A   1      52.980  25.353  26.784  1.00  0.00     0.029 A 
ATOM     35  C   UNL A   1      52.859  26.701  27.129  1.00  0.00     0.049 A 
ATOM     36  H   UNL A   1      53.480  28.262  25.849  1.00  0.00     0.167 HD
ATOM     37  C   UNL A   1      51.976  28.620  28.453  1.00  0.00     0.074 A 
ATOM     38  C   UNL A   1      51.768  29.656  27.443  1.00  0.00     0.031 C 
ATOM     39  C   UNL A   1      52.464  27.346  28.366  1.00  0.00     0.031 A 
BRANCH  26  40
ATOM     40  C   UNL A   1      52.338  28.146  22.930  1.00  0.00    -0.014 A 
ATOM     41  C   UNL A   1      52.176  29.517  23.208  1.00  0.00     0.010 A 
ATOM     42  C   UNL A   1      52.743  27.802  21.623  1.00  0.00     0.010 A 
ATOM     43  C   UNL A   1      52.374  30.488  22.214  1.00  0.00     0.020 A 
ATOM     44  C   UNL A   1      52.983  28.762  20.638  1.00  0.00     0.020 A 
ATOM     45  C   UNL A   1      52.768  30.100  20.933  1.00  0.00     0.054 A 
BRANCH  45  46
ATOM     46  S   UNL A   1      52.935  31.347  19.632  1.00  0.00     0.124 S 
ATOM     47  O   UNL A   1      53.524  32.467  20.361  1.00  0.00    -0.237 OA
ATOM     48  O   UNL A   1      53.813  30.679  18.675  1.00  0.00    -0.237 OA
ATOM     49  O   UNL A   1      51.562  31.550  19.173  1.00  0.00    -0.744 OA
ENDBRANCH  45  46
ENDBRANCH  26  40
BRANCH  27  50
ATOM     50  C   UNL A   1      48.454  31.440  29.916  1.00  0.00    -0.014 A 
ATOM     51  C   UNL A   1      47.737  32.235  29.002  1.00  0.00     0.010 A 
ATOM     52  C   UNL A   1      48.358  31.769  31.285  1.00  0.00     0.010 A 
ATOM     53  C   UNL A   1      46.911  33.283  29.449  1.00  0.00     0.020 A 
ATOM     54  C   UNL A   1      47.542  32.813  31.737  1.00  0.00     0.020 A 
ATOM     55  C   UNL A   1      46.802  33.550  30.817  1.00  0.00     0.054 A 
BRANCH  55  56
ATOM     56  S   UNL A   1      45.597  34.781  31.399  1.00  0.00     0.124 S 
ATOM     57  O   UNL A   1      45.745  35.851  30.418  1.00  0.00    -0.237 OA
ATOM     58  O   UNL A   1      44.339  34.042  31.346  1.00  0.00    -0.237 OA
ATOM     59  O   UNL A   1      46.062  35.107  32.747  1.00  0.00    -0.744 OA
ENDBRANCH  55  56
ENDBRANCH  27  50
BRANCH  39  60
ATOM     60  C   UNL A   1      52.374  26.457  29.590  1.00  0.00    -0.014 A 
ATOM     61  C   UNL A   1      53.421  26.301  30.523  1.00  0.00     0.010 A 
ATOM     62  C   UNL A   1      51.128  25.880  29.889  1.00  0.00     0.010 A 
ATOM     63  C   UNL A   1      53.232  25.564  31.704  1.00  0.00     0.020 A 
ATOM     64  C   UNL A   1      50.927  25.160  31.071  1.00  0.00     0.020 A 
ATOM     65  C   UNL A   1      51.983  24.996  31.969  1.00  0.00     0.054 A 
BRANCH  65  66
ATOM     66  S   UNL A   1      51.726  24.079  33.515  1.00  0.00     0.124 S 
ATOM     67  O   UNL A   1      51.747  25.138  34.520  1.00  0.00    -0.237 OA
ATOM     68  O   UNL A   1      50.430  23.439  33.301  1.00  0.00    -0.237 OA
ATOM     69  O   UNL A   1      52.860  23.157  33.565  1.00  0.00    -0.744 OA
ENDBRANCH  65  66
ENDBRANCH  39  60
ENDBRANCH  13  14
ENDBRANCH   6   8
ENDBRANCH   5   6
ENDBRANCH   4   5
ENDBRANCH   3   4
ENDBRANCH   2   3
ENDBRANCH   1   2
BRANCH   1  70
ATOM     70  C   UNL A   1      41.536  18.949  26.158  1.00  0.00     0.188 C 
BRANCH  70  71
ATOM     71  O   UNL A   1      40.415  19.722  26.588  1.00  0.00    -0.376 OA
BRANCH  71  72
ATOM     72  C   UNL A   1      40.276  21.078  26.201  1.00  0.00     0.202 C 
BRANCH  72  73
ATOM     73  C   UNL A   1      40.419  22.135  27.299  1.00  0.00     0.261 C 
BRANCH  73  74
ATOM     74  O   UNL A   1      40.620  23.481  26.859  1.00  0.00    -0.460 OA
BRANCH  74  75
ATOM     75  C   UNL A   1      39.506  24.232  26.640  1.00  0.00     0.342 C 
ATOM     76  O   UNL A   1      38.534  23.887  25.967  1.00  0.00    -0.246 OA
BRANCH  75  77
ATOM     77  C   UNL A   1      39.578  25.512  27.312  1.00  0.00     0.104 A 
ATOM     78  C   UNL A   1      38.930  25.927  28.469  1.00  0.00     0.109 A 
ATOM     79  C   UNL A   1      40.352  26.604  26.907  1.00  0.00     0.103 A 
ATOM     80  N   UNL A   1      39.244  27.257  28.715  1.00  0.00    -0.317 N 
ATOM     81  C   UNL A   1      40.127  27.673  27.733  1.00  0.00     0.058 A 
ATOM     82  N   UNL A   1      41.235  26.591  25.835  1.00  0.00    -0.215 NA
ATOM     83  C   UNL A   1      40.815  28.987  27.598  1.00  0.00     0.088 C 
ATOM     84  C   UNL A   1      41.736  27.745  25.554  1.00  0.00     0.187 C 
ATOM     85  C   UNL A   1      41.393  29.082  26.166  1.00  0.00     0.112 C 
BRANCH  80  86
ATOM     86  C   UNL A   1      38.740  28.023  29.794  1.00  0.00     0.045 A 
ATOM     87  C   UNL A   1      39.300  27.876  31.068  1.00  0.00     0.026 A 
ATOM     88  C   UNL A   1      37.676  28.907  29.586  1.00  0.00     0.026 A 
ATOM     89  C   UNL A   1      38.785  28.607  32.139  1.00  0.00     0.002 A 
ATOM     90  C   UNL A   1      37.143  29.602  30.674  1.00  0.00     0.002 A 
ATOM     91  C   UNL A   1      37.696  29.457  31.947  1.00  0.00     0.000 A 
ENDBRANCH  80  86
BRANCH  83  92
ATOM     92  C   UNL A   1      41.890  29.308  28.625  1.00  0.00     0.014 A 
ATOM     93  C   UNL A   1      42.042  30.517  29.290  1.00  0.00     0.016 A 
ATOM     94  S   UNL A   1      43.094  28.192  29.129  1.00  0.00    -0.148 S 
ATOM     95  C   UNL A   1      43.119  30.512  30.218  1.00  0.00     0.012 A 
ATOM     96  C   UNL A   1      43.751  29.292  30.259  1.00  0.00     0.065 A 
ENDBRANCH  83  92
BRANCH  84  97
ATOM     97  O   UNL A   1      42.607  27.812  24.526  1.00  0.00    -0.496 OA
ATOM     98  H   UNL A   1      43.339  27.228  24.493  1.00  0.00     0.294 HD
ENDBRANCH  84  97
ENDBRANCH  75  77
ENDBRANCH  74  75
ENDBRANCH  73  74
ENDBRANCH  72  73
ENDBRANCH  71  72
ENDBRANCH  70  71
ENDBRANCH   1  70
TORSDOF 23
ENDMDL
