MODEL 1
REMARK VINA RESULT:      -9.6      0.000      0.000
REMARK SMILES COc1c(N)cc(-c2ccccc2)cc1C(=O)OCCOCCOCCOC(=O)c1ccc(-c2c3nc(c(-c4ccc(S(=O)(=O)[O-])cc4)c4ccc([nH]4)c(-c4ccc(S(=O)(=O)[O-])cc4)c4nc(c(-c5ccc(S(=O)(=O)[O-])cc5)c5ccc2[nH]5)C=C4)C=C3)cc1
REMARK SMILES IDX 23 1 22 2 21 3 20 4 19 5 18 6 16 7 17 8 15 9 3 10 4 11 6 12
REMARK SMILES IDX 14 13 7 14 2 15 1 16 5 17 8 20 9 21 13 22 10 23 12 24 11 25
REMARK SMILES IDX 24 26 25 27 26 28 27 29 28 30 29 31 30 32 31 33 89 34 32 35
REMARK SMILES IDX 88 36 33 37 34 38 35 39 82 40 36 41 87 42 81 43 83 44 37 45
REMARK SMILES IDX 86 46 80 47 79 48 38 50 68 51 49 52 67 53 50 54 53 55 66 56
REMARK SMILES IDX 84 57 51 58 52 59 65 61 85 62 54 63 39 64 40 65 48 66 41 67
REMARK SMILES IDX 47 68 42 69 43 70 44 71 45 72 46 73 69 74 70 75 78 76 71 77
REMARK SMILES IDX 77 78 72 79 73 80 74 81 75 82 76 83 55 84 56 85 64 86 57 87
REMARK SMILES IDX 63 88 58 89 59 90 60 91 61 92 62 93
REMARK H PARENT 5 18 5 19 83 49 53 60
REMARK Flexibility Score: inf
ROOT
ATOM      1  C   UNL A   1      34.713  33.201  30.755  1.00  0.00     0.188 C 
ENDROOT
BRANCH   1   2
ATOM      2  C   UNL A   1      34.762  33.494  29.239  1.00  0.00     0.188 C 
BRANCH   2   3
ATOM      3  O   UNL A   1      33.841  32.819  28.413  1.00  0.00    -0.376 OA
BRANCH   3   4
ATOM      4  C   UNL A   1      34.136  31.532  27.896  1.00  0.00     0.202 C 
BRANCH   4   5
ATOM      5  C   UNL A   1      33.170  30.652  27.083  1.00  0.00     0.261 C 
BRANCH   5   6
ATOM      6  O   UNL A   1      33.730  29.520  26.412  1.00  0.00    -0.460 OA
BRANCH   6   7
ATOM      7  C   UNL A   1      33.057  28.354  26.590  1.00  0.00     0.342 C 
ATOM      8  O   UNL A   1      32.258  28.108  27.481  1.00  0.00    -0.246 OA
BRANCH   7   9
ATOM      9  C   UNL A   1      33.251  27.441  25.447  1.00  0.00     0.104 A 
ATOM     10  C   UNL A   1      32.809  27.731  24.151  1.00  0.00     0.156 A 
ATOM     11  C   UNL A   1      33.192  26.900  23.082  1.00  0.00     0.076 A 
ATOM     12  C   UNL A   1      33.822  25.683  23.366  1.00  0.00     0.038 A 
ATOM     13  C   UNL A   1      33.940  26.242  25.704  1.00  0.00     0.028 A 
ATOM     14  C   UNL A   1      34.200  25.335  24.671  1.00  0.00    -0.015 A 
BRANCH  10  15
ATOM     15  O   UNL A   1      32.065  28.863  23.914  1.00  0.00    -0.494 OA
ATOM     16  C   UNL A   1      30.663  28.574  24.015  1.00  0.00     0.278 C 
ENDBRANCH  10  15
BRANCH  11  17
ATOM     17  N   UNL A   1      32.856  27.199  21.761  1.00  0.00    -0.396 N 
ATOM     18  H   UNL A   1      32.540  26.486  21.160  1.00  0.00     0.156 HD
ATOM     19  H   UNL A   1      32.937  28.123  21.430  1.00  0.00     0.156 HD
ENDBRANCH  11  17
BRANCH  14  20
ATOM     20  C   UNL A   1      34.879  24.060  24.915  1.00  0.00    -0.018 A 
ATOM     21  C   UNL A   1      34.216  22.846  24.679  1.00  0.00     0.009 A 
ATOM     22  C   UNL A   1      36.178  24.021  25.442  1.00  0.00     0.009 A 
ATOM     23  C   UNL A   1      34.831  21.626  24.973  1.00  0.00     0.001 A 
ATOM     24  C   UNL A   1      36.795  22.801  25.734  1.00  0.00     0.001 A 
ATOM     25  C   UNL A   1      36.119  21.606  25.503  1.00  0.00     0.000 A 
ENDBRANCH  14  20
ENDBRANCH   7   9
ENDBRANCH   6   7
ENDBRANCH   5   6
ENDBRANCH   4   5
ENDBRANCH   3   4
ENDBRANCH   2   3
ENDBRANCH   1   2
BRANCH   1  26
ATOM     26  O   UNL A   1      35.896  32.956  31.494  1.00  0.00    -0.376 OA
BRANCH  26  27
ATOM     27  C   UNL A   1      36.036  31.731  32.198  1.00  0.00     0.202 C 
BRANCH  27  28
ATOM     28  C   UNL A   1      36.461  30.438  31.486  1.00  0.00     0.261 C 
BRANCH  28  29
ATOM     29  O   UNL A   1      37.291  30.612  30.330  1.00  0.00    -0.460 OA
BRANCH  29  30
ATOM     30  C   UNL A   1      37.173  29.648  29.388  1.00  0.00     0.338 C 
ATOM     31  O   UNL A   1      36.147  29.290  28.816  1.00  0.00    -0.246 OA
BRANCH  30  32
ATOM     32  C   UNL A   1      38.509  29.183  28.990  1.00  0.00     0.060 A 
ATOM     33  C   UNL A   1      39.367  28.674  29.975  1.00  0.00     0.016 A 
ATOM     34  C   UNL A   1      38.937  29.303  27.667  1.00  0.00     0.016 A 
ATOM     35  C   UNL A   1      40.665  28.297  29.643  1.00  0.00     0.010 A 
ATOM     36  C   UNL A   1      40.249  28.948  27.342  1.00  0.00     0.010 A 
ATOM     37  C   UNL A   1      41.124  28.469  28.332  1.00  0.00    -0.014 A 
BRANCH  37  38
ATOM     38  C   UNL A   1      42.567  28.323  28.037  1.00  0.00     0.031 A 
ATOM     39  C   UNL A   1      43.470  29.501  28.277  1.00  0.00     0.074 A 
ATOM     40  C   UNL A   1      43.070  27.164  27.576  1.00  0.00     0.049 A 
ATOM     41  N   UNL A   1      44.741  29.639  28.010  1.00  0.00    -0.248 NA
ATOM     42  C   UNL A   1      42.851  30.681  28.905  1.00  0.00     0.031 C 
ATOM     43  C   UNL A   1      42.309  25.934  27.368  1.00  0.00     0.029 A 
ATOM     44  N   UNL A   1      44.347  26.844  27.186  1.00  0.00    -0.354 N 
ATOM     45  C   UNL A   1      45.074  30.924  28.422  1.00  0.00     0.074 A 
ATOM     46  C   UNL A   1      43.866  31.531  28.938  1.00  0.00     0.031 C 
ATOM     47  C   UNL A   1      43.131  24.995  26.864  1.00  0.00     0.029 A 
ATOM     48  C   UNL A   1      44.461  25.572  26.677  1.00  0.00     0.049 A 
ATOM     49  H   UNL A   1      45.106  27.465  27.263  1.00  0.00     0.167 HD
ATOM     50  C   UNL A   1      46.277  31.543  28.375  1.00  0.00     0.031 A 
ATOM     51  C   UNL A   1      45.512  24.959  26.095  1.00  0.00     0.031 A 
ATOM     52  C   UNL A   1      47.469  30.943  27.837  1.00  0.00     0.049 A 
ATOM     53  C   UNL A   1      46.818  25.700  25.964  1.00  0.00     0.074 A 
ATOM     54  C   UNL A   1      48.736  31.488  27.736  1.00  0.00     0.029 A 
ATOM     55  N   UNL A   1      47.536  29.667  27.297  1.00  0.00    -0.354 N 
ATOM     56  N   UNL A   1      47.122  26.913  26.359  1.00  0.00    -0.248 NA
ATOM     57  C   UNL A   1      47.925  24.985  25.312  1.00  0.00     0.031 C 
ATOM     58  C   UNL A   1      49.558  30.562  27.084  1.00  0.00     0.029 A 
ATOM     59  C   UNL A   1      48.818  29.414  26.840  1.00  0.00     0.049 A 
ATOM     60  H   UNL A   1      46.784  29.034  27.247  1.00  0.00     0.167 HD
ATOM     61  C   UNL A   1      48.463  27.095  26.032  1.00  0.00     0.074 A 
ATOM     62  C   UNL A   1      48.912  25.864  25.416  1.00  0.00     0.031 C 
ATOM     63  C   UNL A   1      49.252  28.181  26.229  1.00  0.00     0.031 A 
BRANCH  50  64
ATOM     64  C   UNL A   1      46.344  32.960  28.878  1.00  0.00    -0.014 A 
ATOM     65  C   UNL A   1      46.086  34.051  28.029  1.00  0.00     0.010 A 
ATOM     66  C   UNL A   1      46.659  33.203  30.228  1.00  0.00     0.010 A 
ATOM     67  C   UNL A   1      46.187  35.360  28.508  1.00  0.00     0.020 A 
ATOM     68  C   UNL A   1      46.732  34.509  30.719  1.00  0.00     0.020 A 
ATOM     69  C   UNL A   1      46.514  35.580  29.850  1.00  0.00     0.054 A 
BRANCH  69  70
ATOM     70  S   UNL A   1      46.631  37.289  30.447  1.00  0.00     0.124 S 
ATOM     71  O   UNL A   1      48.063  37.421  30.703  1.00  0.00    -0.237 OA
ATOM     72  O   UNL A   1      46.122  38.059  29.315  1.00  0.00    -0.237 OA
ATOM     73  O   UNL A   1      45.783  37.300  31.636  1.00  0.00    -0.744 OA
ENDBRANCH  69  70
ENDBRANCH  50  64
BRANCH  51  74
ATOM     74  C   UNL A   1      45.360  23.578  25.560  1.00  0.00    -0.014 A 
ATOM     75  C   UNL A   1      45.611  22.459  26.373  1.00  0.00     0.010 A 
ATOM     76  C   UNL A   1      44.958  23.375  24.227  1.00  0.00     0.010 A 
ATOM     77  C   UNL A   1      45.476  21.165  25.860  1.00  0.00     0.020 A 
ATOM     78  C   UNL A   1      44.794  22.083  23.718  1.00  0.00     0.020 A 
ATOM     79  C   UNL A   1      45.065  20.986  24.537  1.00  0.00     0.054 A 
BRANCH  79  80
ATOM     80  S   UNL A   1      44.844  19.297  23.910  1.00  0.00     0.124 S 
ATOM     81  O   UNL A   1      44.352  19.537  22.557  1.00  0.00    -0.237 OA
ATOM     82  O   UNL A   1      46.195  18.747  24.005  1.00  0.00    -0.237 OA
ATOM     83  O   UNL A   1      43.876  18.713  24.834  1.00  0.00    -0.744 OA
ENDBRANCH  79  80
ENDBRANCH  51  74
BRANCH  63  84
ATOM     84  C   UNL A   1      50.698  28.080  25.817  1.00  0.00    -0.014 A 
ATOM     85  C   UNL A   1      51.696  27.692  26.727  1.00  0.00     0.010 A 
ATOM     86  C   UNL A   1      51.050  28.316  24.475  1.00  0.00     0.010 A 
ATOM     87  C   UNL A   1      53.026  27.571  26.308  1.00  0.00     0.020 A 
ATOM     88  C   UNL A   1      52.372  28.168  24.046  1.00  0.00     0.020 A 
ATOM     89  C   UNL A   1      53.354  27.808  24.970  1.00  0.00     0.054 A 
BRANCH  89  90
ATOM     90  S   UNL A   1      55.076  27.598  24.442  1.00  0.00     0.124 S 
ATOM     91  O   UNL A   1      55.809  28.253  25.522  1.00  0.00    -0.237 OA
ATOM     92  O   UNL A   1      55.217  26.145  24.377  1.00  0.00    -0.237 OA
ATOM     93  O   UNL A   1      55.130  28.282  23.151  1.00  0.00    -0.744 OA
ENDBRANCH  89  90
ENDBRANCH  63  84
ENDBRANCH  37  38
ENDBRANCH  30  32
ENDBRANCH  29  30
ENDBRANCH  28  29
ENDBRANCH  27  28
ENDBRANCH  26  27
ENDBRANCH   1  26
TORSDOF 23
ENDMDL
MODEL 2
REMARK VINA RESULT:      -9.6      6.114     12.042
REMARK SMILES COc1c(N)cc(-c2ccccc2)cc1C(=O)OCCOCCOCCOC(=O)c1ccc(-c2c3nc(c(-c4ccc(S(=O)(=O)[O-])cc4)c4ccc([nH]4)c(-c4ccc(S(=O)(=O)[O-])cc4)c4nc(c(-c5ccc(S(=O)(=O)[O-])cc5)c5ccc2[nH]5)C=C4)C=C3)cc1
REMARK SMILES IDX 23 1 22 2 21 3 20 4 19 5 18 6 16 7 17 8 15 9 3 10 4 11 6 12
REMARK SMILES IDX 14 13 7 14 2 15 1 16 5 17 8 20 9 21 13 22 10 23 12 24 11 25
REMARK SMILES IDX 24 26 25 27 26 28 27 29 28 30 29 31 30 32 31 33 89 34 32 35
REMARK SMILES IDX 88 36 33 37 34 38 35 39 82 40 36 41 87 42 81 43 83 44 37 45
REMARK SMILES IDX 86 46 80 47 79 48 38 50 68 51 49 52 67 53 50 54 53 55 66 56
REMARK SMILES IDX 84 57 51 58 52 59 65 61 85 62 54 63 39 64 40 65 48 66 41 67
REMARK SMILES IDX 47 68 42 69 43 70 44 71 45 72 46 73 69 74 70 75 78 76 71 77
REMARK SMILES IDX 77 78 72 79 73 80 74 81 75 82 76 83 55 84 56 85 64 86 57 87
REMARK SMILES IDX 63 88 58 89 59 90 60 91 61 92 62 93
REMARK H PARENT 5 18 5 19 83 49 53 60
REMARK Flexibility Score: inf
ROOT
ATOM      1  C   UNL A   1      40.010  22.463  26.989  1.00  0.00     0.188 C 
ENDROOT
BRANCH   1   2
ATOM      2  C   UNL A   1      39.356  23.826  26.674  1.00  0.00     0.188 C 
BRANCH   2   3
ATOM      3  O   UNL A   1      37.949  23.876  26.606  1.00  0.00    -0.376 OA
BRANCH   3   4
ATOM      4  C   UNL A   1      37.241  23.141  25.622  1.00  0.00     0.202 C 
BRANCH   4   5
ATOM      5  C   UNL A   1      36.585  23.736  24.363  1.00  0.00     0.261 C 
BRANCH   5   6
ATOM      6  O   UNL A   1      35.395  24.505  24.553  1.00  0.00    -0.460 OA
BRANCH   6   7
ATOM      7  C   UNL A   1      34.385  24.228  23.689  1.00  0.00     0.342 C 
ATOM      8  O   UNL A   1      34.280  24.639  22.543  1.00  0.00    -0.246 OA
BRANCH   7   9
ATOM      9  C   UNL A   1      33.486  23.189  24.226  1.00  0.00     0.104 A 
ATOM     10  C   UNL A   1      32.347  23.480  24.988  1.00  0.00     0.156 A 
ATOM     11  C   UNL A   1      31.442  22.451  25.307  1.00  0.00     0.076 A 
ATOM     12  C   UNL A   1      31.807  21.126  25.045  1.00  0.00     0.038 A 
ATOM     13  C   UNL A   1      33.804  21.855  23.917  1.00  0.00     0.028 A 
ATOM     14  C   UNL A   1      32.986  20.808  24.355  1.00  0.00    -0.015 A 
BRANCH  10  15
ATOM     15  O   UNL A   1      32.080  24.776  25.360  1.00  0.00    -0.494 OA
ATOM     16  C   UNL A   1      32.556  25.026  26.691  1.00  0.00     0.278 C 
ENDBRANCH  10  15
BRANCH  11  17
ATOM     17  N   UNL A   1      30.247  22.706  25.981  1.00  0.00    -0.396 N 
ATOM     18  H   UNL A   1      29.467  22.122  25.840  1.00  0.00     0.156 HD
ATOM     19  H   UNL A   1      30.184  23.471  26.598  1.00  0.00     0.156 HD
ENDBRANCH  11  17
BRANCH  14  20
ATOM     20  C   UNL A   1      33.312  19.405  24.084  1.00  0.00    -0.018 A 
ATOM     21  C   UNL A   1      34.419  18.802  24.698  1.00  0.00     0.009 A 
ATOM     22  C   UNL A   1      32.565  18.654  23.164  1.00  0.00     0.009 A 
ATOM     23  C   UNL A   1      34.779  17.487  24.394  1.00  0.00     0.001 A 
ATOM     24  C   UNL A   1      32.923  17.337  22.860  1.00  0.00     0.001 A 
ATOM     25  C   UNL A   1      34.031  16.757  23.472  1.00  0.00     0.000 A 
ENDBRANCH  14  20
ENDBRANCH   7   9
ENDBRANCH   6   7
ENDBRANCH   5   6
ENDBRANCH   4   5
ENDBRANCH   3   4
ENDBRANCH   2   3
ENDBRANCH   1   2
BRANCH   1  26
ATOM     26  O   UNL A   1      40.912  21.853  26.083  1.00  0.00    -0.376 OA
BRANCH  26  27
ATOM     27  C   UNL A   1      42.309  22.027  26.270  1.00  0.00     0.202 C 
BRANCH  27  28
ATOM     28  C   UNL A   1      43.015  23.335  25.885  1.00  0.00     0.261 C 
BRANCH  28  29
ATOM     29  O   UNL A   1      43.341  24.207  26.976  1.00  0.00    -0.460 OA
BRANCH  29  30
ATOM     30  C   UNL A   1      43.532  25.502  26.638  1.00  0.00     0.338 C 
ATOM     31  O   UNL A   1      43.993  25.937  25.585  1.00  0.00    -0.246 OA
BRANCH  30  32
ATOM     32  C   UNL A   1      42.932  26.371  27.661  1.00  0.00     0.060 A 
ATOM     33  C   UNL A   1      43.485  27.641  27.874  1.00  0.00     0.016 A 
ATOM     34  C   UNL A   1      41.871  25.915  28.446  1.00  0.00     0.016 A 
ATOM     35  C   UNL A   1      42.988  28.457  28.887  1.00  0.00     0.010 A 
ATOM     36  C   UNL A   1      41.393  26.726  29.478  1.00  0.00     0.010 A 
ATOM     37  C   UNL A   1      41.966  27.987  29.719  1.00  0.00    -0.014 A 
BRANCH  37  38
ATOM     38  C   UNL A   1      41.622  28.734  30.950  1.00  0.00     0.031 A 
ATOM     39  C   UNL A   1      40.441  29.664  30.916  1.00  0.00     0.074 A 
ATOM     40  C   UNL A   1      42.335  28.581  32.079  1.00  0.00     0.049 A 
ATOM     41  N   UNL A   1      40.004  30.484  31.834  1.00  0.00    -0.248 NA
ATOM     42  C   UNL A   1      39.645  29.665  29.676  1.00  0.00     0.031 C 
ATOM     43  C   UNL A   1      43.456  27.661  32.256  1.00  0.00     0.029 A 
ATOM     44  N   UNL A   1      42.222  29.217  33.291  1.00  0.00    -0.354 N 
ATOM     45  C   UNL A   1      38.894  31.110  31.282  1.00  0.00     0.074 A 
ATOM     46  C   UNL A   1      38.736  30.590  29.941  1.00  0.00     0.031 C 
ATOM     47  C   UNL A   1      43.946  27.809  33.500  1.00  0.00     0.029 A 
ATOM     48  C   UNL A   1      43.200  28.860  34.189  1.00  0.00     0.049 A 
ATOM     49  H   UNL A   1      41.511  29.865  33.497  1.00  0.00     0.167 HD
ATOM     50  C   UNL A   1      38.079  32.036  31.841  1.00  0.00     0.031 A 
ATOM     51  C   UNL A   1      43.480  29.352  35.413  1.00  0.00     0.031 A 
ATOM     52  C   UNL A   1      38.258  32.568  33.165  1.00  0.00     0.049 A 
ATOM     53  C   UNL A   1      42.618  30.452  35.979  1.00  0.00     0.074 A 
ATOM     54  C   UNL A   1      37.492  33.515  33.822  1.00  0.00     0.029 A 
ATOM     55  N   UNL A   1      39.281  32.210  34.030  1.00  0.00    -0.354 N 
ATOM     56  N   UNL A   1      41.569  31.035  35.450  1.00  0.00    -0.248 NA
ATOM     57  C   UNL A   1      42.977  30.956  37.313  1.00  0.00     0.031 C 
ATOM     58  C   UNL A   1      38.085  33.769  35.063  1.00  0.00     0.029 A 
ATOM     59  C   UNL A   1      39.181  32.932  35.206  1.00  0.00     0.049 A 
ATOM     60  H   UNL A   1      39.975  31.539  33.836  1.00  0.00     0.167 HD
ATOM     61  C   UNL A   1      41.124  31.952  36.397  1.00  0.00     0.074 A 
ATOM     62  C   UNL A   1      42.012  31.838  37.536  1.00  0.00     0.031 C 
ATOM     63  C   UNL A   1      40.072  32.807  36.333  1.00  0.00     0.031 A 
BRANCH  50  64
ATOM     64  C   UNL A   1      36.951  32.562  30.995  1.00  0.00    -0.014 A 
ATOM     65  C   UNL A   1      35.638  32.079  31.142  1.00  0.00     0.010 A 
ATOM     66  C   UNL A   1      37.207  33.567  30.043  1.00  0.00     0.010 A 
ATOM     67  C   UNL A   1      34.612  32.557  30.323  1.00  0.00     0.020 A 
ATOM     68  C   UNL A   1      36.178  34.069  29.242  1.00  0.00     0.020 A 
ATOM     69  C   UNL A   1      34.890  33.546  29.375  1.00  0.00     0.054 A 
BRANCH  69  70
ATOM     70  S   UNL A   1      33.538  34.155  28.330  1.00  0.00     0.124 S 
ATOM     71  O   UNL A   1      33.042  32.918  27.730  1.00  0.00    -0.237 OA
ATOM     72  O   UNL A   1      32.645  34.785  29.298  1.00  0.00    -0.237 OA
ATOM     73  O   UNL A   1      34.199  35.073  27.406  1.00  0.00    -0.744 OA
ENDBRANCH  69  70
ENDBRANCH  50  64
BRANCH  51  74
ATOM     74  C   UNL A   1      44.650  28.831  36.171  1.00  0.00    -0.014 A 
ATOM     75  C   UNL A   1      45.947  29.308  35.910  1.00  0.00     0.010 A 
ATOM     76  C   UNL A   1      44.472  27.851  37.165  1.00  0.00     0.010 A 
ATOM     77  C   UNL A   1      47.043  28.806  36.620  1.00  0.00     0.020 A 
ATOM     78  C   UNL A   1      45.560  27.367  37.896  1.00  0.00     0.020 A 
ATOM     79  C   UNL A   1      46.841  27.841  37.611  1.00  0.00     0.054 A 
BRANCH  79  80
ATOM     80  S   UNL A   1      48.271  27.245  38.555  1.00  0.00     0.124 S 
ATOM     81  O   UNL A   1      48.008  27.792  39.883  1.00  0.00    -0.237 OA
ATOM     82  O   UNL A   1      48.147  25.794  38.432  1.00  0.00    -0.237 OA
ATOM     83  O   UNL A   1      49.413  27.826  37.853  1.00  0.00    -0.744 OA
ENDBRANCH  79  80
ENDBRANCH  51  74
BRANCH  63  84
ATOM     84  C   UNL A   1      39.789  33.660  37.543  1.00  0.00    -0.014 A 
ATOM     85  C   UNL A   1      38.981  33.199  38.595  1.00  0.00     0.010 A 
ATOM     86  C   UNL A   1      40.400  34.924  37.652  1.00  0.00     0.010 A 
ATOM     87  C   UNL A   1      38.764  33.998  39.723  1.00  0.00     0.020 A 
ATOM     88  C   UNL A   1      40.210  35.713  38.790  1.00  0.00     0.020 A 
ATOM     89  C   UNL A   1      39.381  35.249  39.813  1.00  0.00     0.054 A 
BRANCH  89  90
ATOM     90  S   UNL A   1      39.123  36.246  41.306  1.00  0.00     0.124 S 
ATOM     91  O   UNL A   1      37.916  35.647  41.868  1.00  0.00    -0.237 OA
ATOM     92  O   UNL A   1      40.351  36.014  42.063  1.00  0.00    -0.237 OA
ATOM     93  O   UNL A   1      38.961  37.605  40.793  1.00  0.00    -0.744 OA
ENDBRANCH  89  90
ENDBRANCH  63  84
ENDBRANCH  37  38
ENDBRANCH  30  32
ENDBRANCH  29  30
ENDBRANCH  28  29
ENDBRANCH  27  28
ENDBRANCH  26  27
ENDBRANCH   1  26
TORSDOF 23
ENDMDL
MODEL 3
REMARK VINA RESULT:      -8.5      3.344     10.237
REMARK SMILES COc1c(N)cc(-c2ccccc2)cc1C(=O)OCCOCCOCCOC(=O)c1ccc(-c2c3nc(c(-c4ccc(S(=O)(=O)[O-])cc4)c4ccc([nH]4)c(-c4ccc(S(=O)(=O)[O-])cc4)c4nc(c(-c5ccc(S(=O)(=O)[O-])cc5)c5ccc2[nH]5)C=C4)C=C3)cc1
REMARK SMILES IDX 23 1 22 2 21 3 20 4 19 5 18 6 16 7 17 8 15 9 3 10 4 11 6 12
REMARK SMILES IDX 14 13 7 14 2 15 1 16 5 17 8 20 9 21 13 22 10 23 12 24 11 25
REMARK SMILES IDX 24 26 25 27 26 28 27 29 28 30 29 31 30 32 31 33 89 34 32 35
REMARK SMILES IDX 88 36 33 37 34 38 35 39 82 40 36 41 87 42 81 43 83 44 37 45
REMARK SMILES IDX 86 46 80 47 79 48 38 50 68 51 49 52 67 53 50 54 53 55 66 56
REMARK SMILES IDX 84 57 51 58 52 59 65 61 85 62 54 63 39 64 40 65 48 66 41 67
REMARK SMILES IDX 47 68 42 69 43 70 44 71 45 72 46 73 69 74 70 75 78 76 71 77
REMARK SMILES IDX 77 78 72 79 73 80 74 81 75 82 76 83 55 84 56 85 64 86 57 87
REMARK SMILES IDX 63 88 58 89 59 90 60 91 61 92 62 93
REMARK H PARENT 5 18 5 19 83 49 53 60
REMARK Flexibility Score: inf
ROOT
ATOM      1  C   UNL A   1      34.255  22.157  27.503  1.00  0.00     0.188 C 
ENDROOT
BRANCH   1   2
ATOM      2  C   UNL A   1      32.930  22.700  26.923  1.00  0.00     0.188 C 
BRANCH   2   3
ATOM      3  O   UNL A   1      32.425  22.084  25.761  1.00  0.00    -0.376 OA
BRANCH   3   4
ATOM      4  C   UNL A   1      31.104  22.344  25.315  1.00  0.00     0.202 C 
BRANCH   4   5
ATOM      5  C   UNL A   1      30.599  23.683  24.751  1.00  0.00     0.261 C 
BRANCH   5   6
ATOM      6  O   UNL A   1      31.480  24.804  24.852  1.00  0.00    -0.460 OA
BRANCH   6   7
ATOM      7  C   UNL A   1      30.954  25.899  25.460  1.00  0.00     0.342 C 
ATOM      8  O   UNL A   1      30.359  25.918  26.527  1.00  0.00    -0.246 OA
BRANCH   7   9
ATOM      9  C   UNL A   1      31.352  27.142  24.770  1.00  0.00     0.104 A 
ATOM     10  C   UNL A   1      32.684  27.549  24.633  1.00  0.00     0.156 A 
ATOM     11  C   UNL A   1      32.996  28.645  23.807  1.00  0.00     0.076 A 
ATOM     12  C   UNL A   1      31.952  29.437  23.315  1.00  0.00     0.038 A 
ATOM     13  C   UNL A   1      30.318  27.916  24.215  1.00  0.00     0.028 A 
ATOM     14  C   UNL A   1      30.607  29.091  23.512  1.00  0.00    -0.015 A 
BRANCH  10  15
ATOM     15  O   UNL A   1      33.689  26.837  25.246  1.00  0.00    -0.494 OA
ATOM     16  C   UNL A   1      34.098  27.487  26.460  1.00  0.00     0.278 C 
ENDBRANCH  10  15
BRANCH  11  17
ATOM     17  N   UNL A   1      34.314  29.031  23.564  1.00  0.00    -0.396 N 
ATOM     18  H   UNL A   1      34.728  29.740  24.106  1.00  0.00     0.156 HD
ATOM     19  H   UNL A   1      34.831  28.594  22.848  1.00  0.00     0.156 HD
ENDBRANCH  11  17
BRANCH  14  20
ATOM     20  C   UNL A   1      29.551  29.940  22.956  1.00  0.00    -0.018 A 
ATOM     21  C   UNL A   1      29.249  29.894  21.587  1.00  0.00     0.009 A 
ATOM     22  C   UNL A   1      28.860  30.856  23.763  1.00  0.00     0.009 A 
ATOM     23  C   UNL A   1      28.291  30.748  21.036  1.00  0.00     0.001 A 
ATOM     24  C   UNL A   1      27.899  31.710  23.213  1.00  0.00     0.001 A 
ATOM     25  C   UNL A   1      27.619  31.657  21.850  1.00  0.00     0.000 A 
ENDBRANCH  14  20
ENDBRANCH   7   9
ENDBRANCH   6   7
ENDBRANCH   5   6
ENDBRANCH   4   5
ENDBRANCH   3   4
ENDBRANCH   2   3
ENDBRANCH   1   2
BRANCH   1  26
ATOM     26  O   UNL A   1      35.507  22.663  27.073  1.00  0.00    -0.376 OA
BRANCH  26  27
ATOM     27  C   UNL A   1      35.737  22.865  25.687  1.00  0.00     0.202 C 
BRANCH  27  28
ATOM     28  C   UNL A   1      36.784  22.047  24.919  1.00  0.00     0.261 C 
BRANCH  28  29
ATOM     29  O   UNL A   1      38.104  22.605  24.884  1.00  0.00    -0.460 OA
BRANCH  29  30
ATOM     30  C   UNL A   1      38.795  22.518  26.043  1.00  0.00     0.338 C 
ATOM     31  O   UNL A   1      39.206  21.497  26.589  1.00  0.00    -0.246 OA
BRANCH  30  32
ATOM     32  C   UNL A   1      39.163  23.867  26.500  1.00  0.00     0.060 A 
ATOM     33  C   UNL A   1      39.997  24.648  25.689  1.00  0.00     0.016 A 
ATOM     34  C   UNL A   1      38.739  24.334  27.745  1.00  0.00     0.016 A 
ATOM     35  C   UNL A   1      40.425  25.898  26.129  1.00  0.00     0.010 A 
ATOM     36  C   UNL A   1      39.191  25.577  28.194  1.00  0.00     0.010 A 
ATOM     37  C   UNL A   1      40.056  26.351  27.400  1.00  0.00    -0.014 A 
BRANCH  37  38
ATOM     38  C   UNL A   1      40.717  27.544  27.973  1.00  0.00     0.031 A 
ATOM     39  C   UNL A   1      42.220  27.581  28.010  1.00  0.00     0.074 A 
ATOM     40  C   UNL A   1      40.000  28.581  28.440  1.00  0.00     0.049 A 
ATOM     41  N   UNL A   1      43.014  28.472  28.541  1.00  0.00    -0.248 NA
ATOM     42  C   UNL A   1      42.917  26.460  27.358  1.00  0.00     0.031 C 
ATOM     43  C   UNL A   1      38.543  28.692  28.396  1.00  0.00     0.029 A 
ATOM     44  N   UNL A   1      40.411  29.736  29.058  1.00  0.00    -0.354 N 
ATOM     45  C   UNL A   1      44.304  28.015  28.302  1.00  0.00     0.074 A 
ATOM     46  C   UNL A   1      44.185  26.757  27.596  1.00  0.00     0.031 C 
ATOM     47  C   UNL A   1      38.179  29.845  28.987  1.00  0.00     0.029 A 
ATOM     48  C   UNL A   1      39.371  30.529  29.485  1.00  0.00     0.049 A 
ATOM     49  H   UNL A   1      41.357  29.974  29.184  1.00  0.00     0.167 HD
ATOM     50  C   UNL A   1      45.483  28.589  28.640  1.00  0.00     0.031 A 
ATOM     51  C   UNL A   1      39.382  31.657  30.222  1.00  0.00     0.031 A 
ATOM     52  C   UNL A   1      45.594  29.827  29.365  1.00  0.00     0.049 A 
ATOM     53  C   UNL A   1      40.702  32.230  30.672  1.00  0.00     0.074 A 
ATOM     54  C   UNL A   1      46.740  30.491  29.763  1.00  0.00     0.029 A 
ATOM     55  N   UNL A   1      44.519  30.580  29.812  1.00  0.00    -0.354 N 
ATOM     56  N   UNL A   1      41.915  31.791  30.438  1.00  0.00    -0.248 NA
ATOM     57  C   UNL A   1      40.651  33.456  31.482  1.00  0.00     0.031 C 
ATOM     58  C   UNL A   1      46.358  31.617  30.499  1.00  0.00     0.029 A 
ATOM     59  C   UNL A   1      44.973  31.691  30.501  1.00  0.00     0.049 A 
ATOM     60  H   UNL A   1      43.571  30.359  29.659  1.00  0.00     0.167 HD
ATOM     61  C   UNL A   1      42.774  32.703  31.045  1.00  0.00     0.074 A 
ATOM     62  C   UNL A   1      41.940  33.723  31.648  1.00  0.00     0.031 C 
ATOM     63  C   UNL A   1      44.130  32.700  31.095  1.00  0.00     0.031 A 
BRANCH  50  64
ATOM     64  C   UNL A   1      46.741  27.853  28.267  1.00  0.00    -0.014 A 
ATOM     65  C   UNL A   1      47.251  26.819  29.074  1.00  0.00     0.010 A 
ATOM     66  C   UNL A   1      47.420  28.194  27.083  1.00  0.00     0.010 A 
ATOM     67  C   UNL A   1      48.439  26.172  28.727  1.00  0.00     0.020 A 
ATOM     68  C   UNL A   1      48.593  27.529  26.717  1.00  0.00     0.020 A 
ATOM     69  C   UNL A   1      49.105  26.534  27.552  1.00  0.00     0.054 A 
BRANCH  69  70
ATOM     70  S   UNL A   1      50.642  25.672  27.122  1.00  0.00     0.124 S 
ATOM     71  O   UNL A   1      51.647  26.497  27.791  1.00  0.00    -0.237 OA
ATOM     72  O   UNL A   1      50.436  24.346  27.697  1.00  0.00    -0.237 OA
ATOM     73  O   UNL A   1      50.670  25.719  25.663  1.00  0.00    -0.744 OA
ENDBRANCH  69  70
ENDBRANCH  50  64
BRANCH  51  74
ATOM     74  C   UNL A   1      38.097  32.301  30.611  1.00  0.00    -0.014 A 
ATOM     75  C   UNL A   1      37.368  31.839  31.721  1.00  0.00     0.010 A 
ATOM     76  C   UNL A   1      37.596  33.387  29.870  1.00  0.00     0.010 A 
ATOM     77  C   UNL A   1      36.156  32.442  32.073  1.00  0.00     0.020 A 
ATOM     78  C   UNL A   1      36.400  34.011  30.235  1.00  0.00     0.020 A 
ATOM     79  C   UNL A   1      35.682  33.527  31.330  1.00  0.00     0.054 A 
BRANCH  79  80
ATOM     80  S   UNL A   1      34.136  34.328  31.839  1.00  0.00     0.124 S 
ATOM     81  O   UNL A   1      34.615  35.590  32.393  1.00  0.00    -0.237 OA
ATOM     82  O   UNL A   1      33.402  34.427  30.579  1.00  0.00    -0.237 OA
ATOM     83  O   UNL A   1      33.569  33.394  32.809  1.00  0.00    -0.744 OA
ENDBRANCH  79  80
ENDBRANCH  51  74
BRANCH  63  84
ATOM     84  C   UNL A   1      44.808  33.855  31.786  1.00  0.00    -0.014 A 
ATOM     85  C   UNL A   1      44.978  35.096  31.148  1.00  0.00     0.010 A 
ATOM     86  C   UNL A   1      45.223  33.710  33.123  1.00  0.00     0.010 A 
ATOM     87  C   UNL A   1      45.578  36.163  31.825  1.00  0.00     0.020 A 
ATOM     88  C   UNL A   1      45.797  34.782  33.812  1.00  0.00     0.020 A 
ATOM     89  C   UNL A   1      45.983  35.999  33.154  1.00  0.00     0.054 A 
BRANCH  89  90
ATOM     90  S   UNL A   1      46.715  37.411  34.025  1.00  0.00     0.124 S 
ATOM     91  O   UNL A   1      48.100  36.981  34.192  1.00  0.00    -0.237 OA
ATOM     92  O   UNL A   1      46.506  38.510  33.086  1.00  0.00    -0.237 OA
ATOM     93  O   UNL A   1      45.938  37.497  35.260  1.00  0.00    -0.744 OA
ENDBRANCH  89  90
ENDBRANCH  63  84
ENDBRANCH  37  38
ENDBRANCH  30  32
ENDBRANCH  29  30
ENDBRANCH  28  29
ENDBRANCH  27  28
ENDBRANCH  26  27
ENDBRANCH   1  26
TORSDOF 23
ENDMDL
