MODEL 1
REMARK VINA RESULT:      -6.9      0.000      0.000
REMARK SMILES C[C@H](NS(=O)(=O)c1ccc(-c2cc(-c3ccccc3)c3cc([N+](=O)[O-])ccc3n2)cc1)C(=O)OCCOCCOCCOC(=O)c1ccc(-c2c3nc(c(-c4ccc(S(=O)(=O)[O-])cc4)c4ccc([nH]4)c(-c4ccc(S(=O)(=O)[O-])cc4)c4nc(c(-c5ccc(S(=O)(=O)[O-])cc5)c5ccc2[nH]5)C=C4)C=C3)cc1
REMARK SMILES IDX 38 1 37 2 36 3 35 4 34 5 32 6 33 7 2 8 1 9 3 10 4 12 5 13
REMARK SMILES IDX 6 14 7 15 8 16 31 17 9 18 30 19 10 20 11 21 12 22 29 23
REMARK SMILES IDX 13 24 28 25 20 26 27 27 21 28 26 29 22 30 14 31 15 32 19 33
REMARK SMILES IDX 16 34 18 35 17 36 23 37 24 38 25 39 39 40 40 41 41 42 42 43
REMARK SMILES IDX 43 44 44 45 45 46 46 47 47 48 105 49 48 50 104 51 49 52
REMARK SMILES IDX 50 53 51 54 98 55 52 56 103 57 97 58 99 59 53 60 102 61
REMARK SMILES IDX 96 62 95 63 54 65 84 66 65 67 83 68 66 69 69 70 82 71 100 72
REMARK SMILES IDX 67 73 68 74 81 76 101 77 70 78 55 79 56 80 64 81 57 82 63 83
REMARK SMILES IDX 58 84 59 85 60 86 61 87 62 88 85 89 86 90 94 91 87 92 93 93
REMARK SMILES IDX 88 94 89 95 90 96 91 97 92 98 71 99 72 100 80 101 73 102
REMARK SMILES IDX 79 103 74 104 75 105 76 106 77 107 78 108
REMARK H PARENT 3 11 99 64 69 75
REMARK Flexibility Score: inf
ROOT
ATOM      1  C   UNL A   1      48.329  31.556  26.933  1.00  0.00     0.188 C 
ENDROOT
BRANCH   1   2
ATOM      2  O   UNL A   1      48.967  30.345  26.571  1.00  0.00    -0.376 OA
BRANCH   2   3
ATOM      3  C   UNL A   1      48.680  29.151  27.301  1.00  0.00     0.202 C 
BRANCH   3   4
ATOM      4  C   UNL A   1      47.399  28.358  27.029  1.00  0.00     0.261 C 
BRANCH   4   5
ATOM      5  O   UNL A   1      47.585  27.460  25.930  1.00  0.00    -0.462 OA
BRANCH   5   6
ATOM      6  C   UNL A   1      46.500  27.244  25.150  1.00  0.00     0.323 C 
ATOM      7  O   UNL A   1      46.461  27.494  23.950  1.00  0.00    -0.250 OA
BRANCH   6   8
ATOM      8  C   UNL A   1      45.369  26.591  25.933  1.00  0.00     0.176 C 
ATOM      9  C   UNL A   1      44.848  25.387  25.124  1.00  0.00     0.038 C 
BRANCH   8  10
ATOM     10  N   UNL A   1      44.182  27.360  26.338  1.00  0.00    -0.197 NA
ATOM     11  H   UNL A   1      43.439  27.057  25.708  1.00  0.00     0.142 HD
BRANCH  10  12
ATOM     12  S   UNL A   1      43.495  27.361  27.865  1.00  0.00     0.241 S 
ATOM     13  O   UNL A   1      43.814  26.028  28.364  1.00  0.00    -0.207 OA
ATOM     14  O   UNL A   1      43.830  28.530  28.619  1.00  0.00    -0.207 OA
BRANCH  12  15
ATOM     15  C   UNL A   1      41.738  27.362  27.594  1.00  0.00     0.082 A 
ATOM     16  C   UNL A   1      41.124  28.581  27.298  1.00  0.00     0.022 A 
ATOM     17  C   UNL A   1      40.953  26.256  27.904  1.00  0.00     0.022 A 
ATOM     18  C   UNL A   1      39.767  28.746  27.588  1.00  0.00     0.012 A 
ATOM     19  C   UNL A   1      39.587  26.401  28.101  1.00  0.00     0.012 A 
ATOM     20  C   UNL A   1      39.070  27.704  28.232  1.00  0.00     0.000 A 
BRANCH  20  21
ATOM     21  C   UNL A   1      38.491  27.997  29.595  1.00  0.00     0.072 A 
ATOM     22  C   UNL A   1      39.299  27.922  30.723  1.00  0.00     0.038 A 
ATOM     23  N   UNL A   1      37.634  29.041  29.455  1.00  0.00    -0.248 NA
ATOM     24  C   UNL A   1      39.579  29.119  31.400  1.00  0.00    -0.007 A 
ATOM     25  C   UNL A   1      38.061  30.228  29.883  1.00  0.00     0.072 A 
ATOM     26  C   UNL A   1      39.110  30.330  30.810  1.00  0.00     0.015 A 
ATOM     27  C   UNL A   1      37.538  31.377  29.301  1.00  0.00     0.036 A 
ATOM     28  C   UNL A   1      39.687  31.606  31.037  1.00  0.00     0.096 A 
ATOM     29  C   UNL A   1      38.099  32.636  29.533  1.00  0.00     0.088 A 
ATOM     30  C   UNL A   1      39.200  32.739  30.381  1.00  0.00     0.270 A 
BRANCH  24  31
ATOM     31  C   UNL A   1      40.376  29.150  32.644  1.00  0.00    -0.018 A 
ATOM     32  C   UNL A   1      41.765  28.913  32.567  1.00  0.00     0.009 A 
ATOM     33  C   UNL A   1      39.822  29.373  33.911  1.00  0.00     0.009 A 
ATOM     34  C   UNL A   1      42.557  28.820  33.709  1.00  0.00     0.001 A 
ATOM     35  C   UNL A   1      40.623  29.307  35.059  1.00  0.00     0.001 A 
ATOM     36  C   UNL A   1      41.982  29.012  34.958  1.00  0.00     0.000 A 
ENDBRANCH  24  31
BRANCH  30  37
ATOM     37  N   UNL A   1      39.892  34.023  30.536  1.00  0.00     0.062 N 
ATOM     38  O   UNL A   1      40.714  34.341  29.666  1.00  0.00    -0.258 OA
ATOM     39  O   UNL A   1      39.590  34.721  31.513  1.00  0.00    -0.258 OA
ENDBRANCH  30  37
ENDBRANCH  20  21
ENDBRANCH  12  15
ENDBRANCH  10  12
ENDBRANCH   8  10
ENDBRANCH   6   8
ENDBRANCH   5   6
ENDBRANCH   4   5
ENDBRANCH   3   4
ENDBRANCH   2   3
ENDBRANCH   1   2
BRANCH   1  40
ATOM     40  C   UNL A   1      49.254  32.702  27.347  1.00  0.00     0.188 C 
BRANCH  40  41
ATOM     41  O   UNL A   1      48.745  33.958  27.762  1.00  0.00    -0.376 OA
BRANCH  41  42
ATOM     42  C   UNL A   1      48.256  34.101  29.093  1.00  0.00     0.202 C 
BRANCH  42  43
ATOM     43  C   UNL A   1      48.495  33.002  30.153  1.00  0.00     0.261 C 
BRANCH  43  44
ATOM     44  O   UNL A   1      47.343  32.588  30.883  1.00  0.00    -0.460 OA
BRANCH  44  45
ATOM     45  C   UNL A   1      47.573  31.626  31.810  1.00  0.00     0.338 C 
ATOM     46  O   UNL A   1      48.520  30.860  31.849  1.00  0.00    -0.246 OA
BRANCH  45  47
ATOM     47  C   UNL A   1      46.605  31.831  32.916  1.00  0.00     0.060 A 
ATOM     48  C   UNL A   1      46.110  30.691  33.565  1.00  0.00     0.016 A 
ATOM     49  C   UNL A   1      46.285  33.108  33.393  1.00  0.00     0.016 A 
ATOM     50  C   UNL A   1      45.259  30.825  34.663  1.00  0.00     0.010 A 
ATOM     51  C   UNL A   1      45.425  33.241  34.486  1.00  0.00     0.010 A 
ATOM     52  C   UNL A   1      44.879  32.101  35.101  1.00  0.00    -0.014 A 
BRANCH  52  53
ATOM     53  C   UNL A   1      43.720  32.253  36.011  1.00  0.00     0.031 A 
ATOM     54  C   UNL A   1      43.979  32.107  37.486  1.00  0.00     0.074 A 
ATOM     55  C   UNL A   1      42.477  32.502  35.561  1.00  0.00     0.049 A 
ATOM     56  N   UNL A   1      43.136  32.133  38.484  1.00  0.00    -0.248 NA
ATOM     57  C   UNL A   1      45.383  31.898  37.886  1.00  0.00     0.031 C 
ATOM     58  C   UNL A   1      42.099  32.702  34.163  1.00  0.00     0.029 A 
ATOM     59  N   UNL A   1      41.293  32.620  36.249  1.00  0.00    -0.354 N 
ATOM     60  C   UNL A   1      43.905  31.935  39.626  1.00  0.00     0.074 A 
ATOM     61  C   UNL A   1      45.275  31.765  39.197  1.00  0.00     0.031 C 
ATOM     62  C   UNL A   1      40.770  32.904  34.095  1.00  0.00     0.029 A 
ATOM     63  C   UNL A   1      40.200  32.818  35.440  1.00  0.00     0.049 A 
ATOM     64  H   UNL A   1      41.235  32.569  37.230  1.00  0.00     0.167 HD
ATOM     65  C   UNL A   1      43.508  31.898  40.919  1.00  0.00     0.031 A 
ATOM     66  C   UNL A   1      38.889  32.899  35.749  1.00  0.00     0.031 A 
ATOM     67  C   UNL A   1      42.146  32.043  41.346  1.00  0.00     0.049 A 
ATOM     68  C   UNL A   1      38.461  32.786  37.193  1.00  0.00     0.074 A 
ATOM     69  C   UNL A   1      41.643  32.026  42.634  1.00  0.00     0.029 A 
ATOM     70  N   UNL A   1      41.066  32.220  40.494  1.00  0.00    -0.354 N 
ATOM     71  N   UNL A   1      39.201  32.625  38.264  1.00  0.00    -0.248 NA
ATOM     72  C   UNL A   1      37.019  32.876  37.467  1.00  0.00     0.031 C 
ATOM     73  C   UNL A   1      40.251  32.142  42.557  1.00  0.00     0.029 A 
ATOM     74  C   UNL A   1      39.896  32.291  41.226  1.00  0.00     0.049 A 
ATOM     75  H   UNL A   1      41.125  32.286  39.513  1.00  0.00     0.167 HD
ATOM     76  C   UNL A   1      38.319  32.620  39.340  1.00  0.00     0.074 A 
ATOM     77  C   UNL A   1      36.991  32.806  38.792  1.00  0.00     0.031 C 
ATOM     78  C   UNL A   1      38.582  32.478  40.663  1.00  0.00     0.031 A 
BRANCH  65  79
ATOM     79  C   UNL A   1      44.569  31.650  41.955  1.00  0.00    -0.014 A 
ATOM     80  C   UNL A   1      44.984  30.345  42.273  1.00  0.00     0.010 A 
ATOM     81  C   UNL A   1      45.169  32.742  42.609  1.00  0.00     0.010 A 
ATOM     82  C   UNL A   1      45.956  30.133  43.254  1.00  0.00     0.020 A 
ATOM     83  C   UNL A   1      46.160  32.535  43.571  1.00  0.00     0.020 A 
ATOM     84  C   UNL A   1      46.536  31.231  43.898  1.00  0.00     0.054 A 
BRANCH  84  85
ATOM     85  S   UNL A   1      47.814  30.929  45.149  1.00  0.00     0.124 S 
ATOM     86  O   UNL A   1      47.029  30.900  46.380  1.00  0.00    -0.237 OA
ATOM     87  O   UNL A   1      48.376  29.647  44.731  1.00  0.00    -0.237 OA
ATOM     88  O   UNL A   1      48.712  32.074  45.010  1.00  0.00    -0.744 OA
ENDBRANCH  84  85
ENDBRANCH  65  79
BRANCH  66  89
ATOM     89  C   UNL A   1      37.875  33.070  34.672  1.00  0.00    -0.014 A 
ATOM     90  C   UNL A   1      37.369  31.957  33.975  1.00  0.00     0.010 A 
ATOM     91  C   UNL A   1      37.418  34.355  34.326  1.00  0.00     0.010 A 
ATOM     92  C   UNL A   1      36.437  32.128  32.947  1.00  0.00     0.020 A 
ATOM     93  C   UNL A   1      36.468  34.527  33.315  1.00  0.00     0.020 A 
ATOM     94  C   UNL A   1      35.990  33.413  32.625  1.00  0.00     0.054 A 
BRANCH  94  95
ATOM     95  S   UNL A   1      34.738  33.608  31.325  1.00  0.00     0.124 S 
ATOM     96  O   UNL A   1      34.508  32.227  30.913  1.00  0.00    -0.237 OA
ATOM     97  O   UNL A   1      33.636  34.246  32.042  1.00  0.00    -0.237 OA
ATOM     98  O   UNL A   1      35.401  34.456  30.337  1.00  0.00    -0.744 OA
ENDBRANCH  94  95
ENDBRANCH  66  89
BRANCH  78  99
ATOM     99  C   UNL A   1      37.423  32.556  41.622  1.00  0.00    -0.014 A 
ATOM    100  C   UNL A   1      36.649  33.723  41.740  1.00  0.00     0.010 A 
ATOM    101  C   UNL A   1      37.061  31.416  42.364  1.00  0.00     0.010 A 
ATOM    102  C   UNL A   1      35.551  33.758  42.605  1.00  0.00     0.020 A 
ATOM    103  C   UNL A   1      35.949  31.437  43.208  1.00  0.00     0.020 A 
ATOM    104  C   UNL A   1      35.208  32.615  43.334  1.00  0.00     0.054 A 
BRANCH 104 105
ATOM    105  S   UNL A   1      33.754  32.671  44.416  1.00  0.00     0.124 S 
ATOM    106  O   UNL A   1      34.083  33.776  45.312  1.00  0.00    -0.237 OA
ATOM    107  O   UNL A   1      32.664  32.924  43.477  1.00  0.00    -0.237 OA
ATOM    108  O   UNL A   1      33.735  31.349  45.039  1.00  0.00    -0.744 OA
ENDBRANCH 104 105
ENDBRANCH  78  99
ENDBRANCH  52  53
ENDBRANCH  45  47
ENDBRANCH  44  45
ENDBRANCH  43  44
ENDBRANCH  42  43
ENDBRANCH  41  42
ENDBRANCH  40  41
ENDBRANCH   1  40
TORSDOF 26
ENDMDL
MODEL 2
REMARK VINA RESULT:      -6.7      8.688     12.648
REMARK SMILES C[C@H](NS(=O)(=O)c1ccc(-c2cc(-c3ccccc3)c3cc([N+](=O)[O-])ccc3n2)cc1)C(=O)OCCOCCOCCOC(=O)c1ccc(-c2c3nc(c(-c4ccc(S(=O)(=O)[O-])cc4)c4ccc([nH]4)c(-c4ccc(S(=O)(=O)[O-])cc4)c4nc(c(-c5ccc(S(=O)(=O)[O-])cc5)c5ccc2[nH]5)C=C4)C=C3)cc1
REMARK SMILES IDX 38 1 37 2 36 3 35 4 34 5 32 6 33 7 2 8 1 9 3 10 4 12 5 13
REMARK SMILES IDX 6 14 7 15 8 16 31 17 9 18 30 19 10 20 11 21 12 22 29 23
REMARK SMILES IDX 13 24 28 25 20 26 27 27 21 28 26 29 22 30 14 31 15 32 19 33
REMARK SMILES IDX 16 34 18 35 17 36 23 37 24 38 25 39 39 40 40 41 41 42 42 43
REMARK SMILES IDX 43 44 44 45 45 46 46 47 47 48 105 49 48 50 104 51 49 52
REMARK SMILES IDX 50 53 51 54 98 55 52 56 103 57 97 58 99 59 53 60 102 61
REMARK SMILES IDX 96 62 95 63 54 65 84 66 65 67 83 68 66 69 69 70 82 71 100 72
REMARK SMILES IDX 67 73 68 74 81 76 101 77 70 78 55 79 56 80 64 81 57 82 63 83
REMARK SMILES IDX 58 84 59 85 60 86 61 87 62 88 85 89 86 90 94 91 87 92 93 93
REMARK SMILES IDX 88 94 89 95 90 96 91 97 92 98 71 99 72 100 80 101 73 102
REMARK SMILES IDX 79 103 74 104 75 105 76 106 77 107 78 108
REMARK H PARENT 3 11 99 64 69 75
REMARK Flexibility Score: inf
ROOT
ATOM      1  C   UNL A   1      40.064  33.389  34.577  1.00  0.00     0.188 C 
ENDROOT
BRANCH   1   2
ATOM      2  O   UNL A   1      39.895  34.085  33.356  1.00  0.00    -0.376 OA
BRANCH   2   3
ATOM      3  C   UNL A   1      38.782  33.775  32.515  1.00  0.00     0.202 C 
BRANCH   3   4
ATOM      4  C   UNL A   1      37.793  34.864  32.094  1.00  0.00     0.261 C 
BRANCH   4   5
ATOM      5  O   UNL A   1      36.675  34.294  31.407  1.00  0.00    -0.462 OA
BRANCH   5   6
ATOM      6  C   UNL A   1      35.535  34.171  32.127  1.00  0.00     0.323 C 
ATOM      7  O   UNL A   1      34.950  35.117  32.644  1.00  0.00    -0.250 OA
BRANCH   6   8
ATOM      8  C   UNL A   1      35.041  32.732  32.152  1.00  0.00     0.176 C 
ATOM      9  C   UNL A   1      35.948  31.920  33.094  1.00  0.00     0.038 C 
BRANCH   8  10
ATOM     10  N   UNL A   1      34.927  31.947  30.913  1.00  0.00    -0.197 NA
ATOM     11  H   UNL A   1      34.791  32.635  30.171  1.00  0.00     0.142 HD
BRANCH  10  12
ATOM     12  S   UNL A   1      36.077  30.882  30.322  1.00  0.00     0.241 S 
ATOM     13  O   UNL A   1      37.279  31.706  30.262  1.00  0.00    -0.207 OA
ATOM     14  O   UNL A   1      36.075  29.631  31.015  1.00  0.00    -0.207 OA
BRANCH  12  15
ATOM     15  C   UNL A   1      35.619  30.579  28.631  1.00  0.00     0.082 A 
ATOM     16  C   UNL A   1      34.693  31.441  28.042  1.00  0.00     0.022 A 
ATOM     17  C   UNL A   1      35.963  29.396  27.986  1.00  0.00     0.022 A 
ATOM     18  C   UNL A   1      33.924  30.983  26.969  1.00  0.00     0.012 A 
ATOM     19  C   UNL A   1      35.260  28.983  26.862  1.00  0.00     0.012 A 
ATOM     20  C   UNL A   1      34.056  29.642  26.553  1.00  0.00     0.000 A 
BRANCH  20  21
ATOM     21  C   UNL A   1      32.834  28.762  26.660  1.00  0.00     0.072 A 
ATOM     22  C   UNL A   1      31.690  29.071  25.934  1.00  0.00     0.038 A 
ATOM     23  N   UNL A   1      33.265  27.474  26.711  1.00  0.00    -0.248 NA
ATOM     24  C   UNL A   1      31.321  28.194  24.902  1.00  0.00    -0.007 A 
ATOM     25  C   UNL A   1      33.128  26.753  25.601  1.00  0.00     0.072 A 
ATOM     26  C   UNL A   1      32.213  27.123  24.603  1.00  0.00     0.015 A 
ATOM     27  C   UNL A   1      33.999  25.691  25.380  1.00  0.00     0.036 A 
ATOM     28  C   UNL A   1      32.286  26.471  23.345  1.00  0.00     0.096 A 
ATOM     29  C   UNL A   1      34.065  25.041  24.145  1.00  0.00     0.088 A 
ATOM     30  C   UNL A   1      33.224  25.461  23.117  1.00  0.00     0.270 A 
BRANCH  24  31
ATOM     31  C   UNL A   1      30.092  28.391  24.107  1.00  0.00    -0.018 A 
ATOM     32  C   UNL A   1      29.893  29.630  23.459  1.00  0.00     0.009 A 
ATOM     33  C   UNL A   1      29.088  27.422  23.982  1.00  0.00     0.009 A 
ATOM     34  C   UNL A   1      28.710  29.922  22.783  1.00  0.00     0.001 A 
ATOM     35  C   UNL A   1      27.909  27.706  23.280  1.00  0.00     0.001 A 
ATOM     36  C   UNL A   1      27.714  28.959  22.699  1.00  0.00     0.000 A 
ENDBRANCH  24  31
BRANCH  30  37
ATOM     37  N   UNL A   1      33.365  24.890  21.772  1.00  0.00     0.062 N 
ATOM     38  O   UNL A   1      33.559  23.670  21.683  1.00  0.00    -0.258 OA
ATOM     39  O   UNL A   1      33.253  25.661  20.809  1.00  0.00    -0.258 OA
ENDBRANCH  30  37
ENDBRANCH  20  21
ENDBRANCH  12  15
ENDBRANCH  10  12
ENDBRANCH   8  10
ENDBRANCH   6   8
ENDBRANCH   5   6
ENDBRANCH   4   5
ENDBRANCH   3   4
ENDBRANCH   2   3
ENDBRANCH   1   2
BRANCH   1  40
ATOM     40  C   UNL A   1      39.711  31.901  34.554  1.00  0.00     0.188 C 
BRANCH  40  41
ATOM     41  O   UNL A   1      38.517  31.410  35.139  1.00  0.00    -0.376 OA
BRANCH  41  42
ATOM     42  C   UNL A   1      38.477  31.182  36.545  1.00  0.00     0.202 C 
BRANCH  42  43
ATOM     43  C   UNL A   1      37.943  32.263  37.512  1.00  0.00     0.261 C 
BRANCH  43  44
ATOM     44  O   UNL A   1      38.700  32.452  38.705  1.00  0.00    -0.460 OA
BRANCH  44  45
ATOM     45  C   UNL A   1      38.229  33.421  39.529  1.00  0.00     0.338 C 
ATOM     46  O   UNL A   1      37.326  33.315  40.340  1.00  0.00    -0.246 OA
BRANCH  45  47
ATOM     47  C   UNL A   1      39.170  34.565  39.455  1.00  0.00     0.060 A 
ATOM     48  C   UNL A   1      40.042  34.760  40.535  1.00  0.00     0.016 A 
ATOM     49  C   UNL A   1      39.289  35.354  38.304  1.00  0.00     0.016 A 
ATOM     50  C   UNL A   1      41.003  35.770  40.486  1.00  0.00     0.010 A 
ATOM     51  C   UNL A   1      40.244  36.372  38.260  1.00  0.00     0.010 A 
ATOM     52  C   UNL A   1      41.079  36.608  39.365  1.00  0.00    -0.014 A 
BRANCH  52  53
ATOM     53  C   UNL A   1      41.830  37.883  39.448  1.00  0.00     0.031 A 
ATOM     54  C   UNL A   1      43.256  37.874  38.965  1.00  0.00     0.074 A 
ATOM     55  C   UNL A   1      41.286  39.011  39.938  1.00  0.00     0.049 A 
ATOM     56  N   UNL A   1      44.145  38.832  38.983  1.00  0.00    -0.248 NA
ATOM     57  C   UNL A   1      43.743  36.608  38.387  1.00  0.00     0.031 C 
ATOM     58  C   UNL A   1      39.908  39.162  40.403  1.00  0.00     0.029 A 
ATOM     59  N   UNL A   1      41.844  40.251  40.133  1.00  0.00    -0.354 N 
ATOM     60  C   UNL A   1      45.296  38.281  38.430  1.00  0.00     0.074 A 
ATOM     61  C   UNL A   1      45.002  36.903  38.110  1.00  0.00     0.031 C 
ATOM     62  C   UNL A   1      39.732  40.422  40.843  1.00  0.00     0.029 A 
ATOM     63  C   UNL A   1      40.992  41.157  40.719  1.00  0.00     0.049 A 
ATOM     64  H   UNL A   1      42.769  40.471  39.876  1.00  0.00     0.167 HD
ATOM     65  C   UNL A   1      46.493  38.870  38.205  1.00  0.00     0.031 A 
ATOM     66  C   UNL A   1      41.211  42.423  41.127  1.00  0.00     0.031 A 
ATOM     67  C   UNL A   1      46.795  40.231  38.544  1.00  0.00     0.049 A 
ATOM     68  C   UNL A   1      42.576  43.039  40.930  1.00  0.00     0.074 A 
ATOM     69  C   UNL A   1      47.978  40.922  38.352  1.00  0.00     0.029 A 
ATOM     70  N   UNL A   1      45.912  41.107  39.156  1.00  0.00    -0.354 N 
ATOM     71  N   UNL A   1      43.647  42.515  40.382  1.00  0.00    -0.248 NA
ATOM     72  C   UNL A   1      42.756  44.420  41.400  1.00  0.00     0.031 C 
ATOM     73  C   UNL A   1      47.825  42.202  38.895  1.00  0.00     0.029 A 
ATOM     74  C   UNL A   1      46.529  42.326  39.370  1.00  0.00     0.049 A 
ATOM     75  H   UNL A   1      44.982  40.893  39.401  1.00  0.00     0.167 HD
ATOM     76  C   UNL A   1      44.619  43.511  40.418  1.00  0.00     0.074 A 
ATOM     77  C   UNL A   1      44.006  44.671  41.030  1.00  0.00     0.031 C 
ATOM     78  C   UNL A   1      45.902  43.471  39.981  1.00  0.00     0.031 A 
BRANCH  65  79
ATOM     79  C   UNL A   1      47.574  38.018  37.600  1.00  0.00    -0.014 A 
ATOM     80  C   UNL A   1      48.451  37.272  38.408  1.00  0.00     0.010 A 
ATOM     81  C   UNL A   1      47.702  37.951  36.201  1.00  0.00     0.010 A 
ATOM     82  C   UNL A   1      49.462  36.503  37.828  1.00  0.00     0.020 A 
ATOM     83  C   UNL A   1      48.696  37.163  35.616  1.00  0.00     0.020 A 
ATOM     84  C   UNL A   1      49.579  36.455  36.435  1.00  0.00     0.054 A 
BRANCH  84  85
ATOM     85  S   UNL A   1      50.884  35.428  35.706  1.00  0.00     0.124 S 
ATOM     86  O   UNL A   1      51.511  34.851  36.892  1.00  0.00    -0.237 OA
ATOM     87  O   UNL A   1      50.130  34.492  34.875  1.00  0.00    -0.237 OA
ATOM     88  O   UNL A   1      51.707  36.385  34.970  1.00  0.00    -0.744 OA
ENDBRANCH  84  85
ENDBRANCH  65  79
BRANCH  66  89
ATOM     89  C   UNL A   1      40.123  43.195  41.790  1.00  0.00    -0.014 A 
ATOM     90  C   UNL A   1      39.345  44.114  41.062  1.00  0.00     0.010 A 
ATOM     91  C   UNL A   1      39.868  43.025  43.163  1.00  0.00     0.010 A 
ATOM     92  C   UNL A   1      38.343  44.854  41.697  1.00  0.00     0.020 A 
ATOM     93  C   UNL A   1      38.851  43.745  43.795  1.00  0.00     0.020 A 
ATOM     94  C   UNL A   1      38.100  44.663  43.059  1.00  0.00     0.054 A 
BRANCH  94  95
ATOM     95  S   UNL A   1      36.757  45.593  43.853  1.00  0.00     0.124 S 
ATOM     96  O   UNL A   1      37.467  46.313  44.906  1.00  0.00    -0.237 OA
ATOM     97  O   UNL A   1      36.251  46.413  42.755  1.00  0.00    -0.237 OA
ATOM     98  O   UNL A   1      35.844  44.549  44.312  1.00  0.00    -0.744 OA
ENDBRANCH  94  95
ENDBRANCH  66  89
BRANCH  78  99
ATOM     99  C   UNL A   1      46.726  44.725  40.108  1.00  0.00    -0.014 A 
ATOM    100  C   UNL A   1      46.607  45.776  39.183  1.00  0.00     0.010 A 
ATOM    101  C   UNL A   1      47.583  44.880  41.215  1.00  0.00     0.010 A 
ATOM    102  C   UNL A   1      47.350  46.949  39.346  1.00  0.00     0.020 A 
ATOM    103  C   UNL A   1      48.307  46.061  41.396  1.00  0.00     0.020 A 
ATOM    104  C   UNL A   1      48.196  47.084  40.452  1.00  0.00     0.054 A 
BRANCH 104 105
ATOM    105  S   UNL A   1      49.117  48.631  40.666  1.00  0.00     0.124 S 
ATOM    106  O   UNL A   1      49.731  48.804  39.352  1.00  0.00    -0.237 OA
ATOM    107  O   UNL A   1      48.065  49.588  41.000  1.00  0.00    -0.237 OA
ATOM    108  O   UNL A   1      50.047  48.334  41.753  1.00  0.00    -0.744 OA
ENDBRANCH 104 105
ENDBRANCH  78  99
ENDBRANCH  52  53
ENDBRANCH  45  47
ENDBRANCH  44  45
ENDBRANCH  43  44
ENDBRANCH  42  43
ENDBRANCH  41  42
ENDBRANCH  40  41
ENDBRANCH   1  40
TORSDOF 26
ENDMDL
MODEL 3
REMARK VINA RESULT:      -6.5      6.651     12.434
REMARK SMILES C[C@H](NS(=O)(=O)c1ccc(-c2cc(-c3ccccc3)c3cc([N+](=O)[O-])ccc3n2)cc1)C(=O)OCCOCCOCCOC(=O)c1ccc(-c2c3nc(c(-c4ccc(S(=O)(=O)[O-])cc4)c4ccc([nH]4)c(-c4ccc(S(=O)(=O)[O-])cc4)c4nc(c(-c5ccc(S(=O)(=O)[O-])cc5)c5ccc2[nH]5)C=C4)C=C3)cc1
REMARK SMILES IDX 38 1 37 2 36 3 35 4 34 5 32 6 33 7 2 8 1 9 3 10 4 12 5 13
REMARK SMILES IDX 6 14 7 15 8 16 31 17 9 18 30 19 10 20 11 21 12 22 29 23
REMARK SMILES IDX 13 24 28 25 20 26 27 27 21 28 26 29 22 30 14 31 15 32 19 33
REMARK SMILES IDX 16 34 18 35 17 36 23 37 24 38 25 39 39 40 40 41 41 42 42 43
REMARK SMILES IDX 43 44 44 45 45 46 46 47 47 48 105 49 48 50 104 51 49 52
REMARK SMILES IDX 50 53 51 54 98 55 52 56 103 57 97 58 99 59 53 60 102 61
REMARK SMILES IDX 96 62 95 63 54 65 84 66 65 67 83 68 66 69 69 70 82 71 100 72
REMARK SMILES IDX 67 73 68 74 81 76 101 77 70 78 55 79 56 80 64 81 57 82 63 83
REMARK SMILES IDX 58 84 59 85 60 86 61 87 62 88 85 89 86 90 94 91 87 92 93 93
REMARK SMILES IDX 88 94 89 95 90 96 91 97 92 98 71 99 72 100 80 101 73 102
REMARK SMILES IDX 79 103 74 104 75 105 76 106 77 107 78 108
REMARK H PARENT 3 11 99 64 69 75
REMARK Flexibility Score: inf
ROOT
ATOM      1  C   UNL A   1      47.595  24.431  37.253  1.00  0.00     0.188 C 
ENDROOT
BRANCH   1   2
ATOM      2  O   UNL A   1      47.076  25.032  36.080  1.00  0.00    -0.376 OA
BRANCH   2   3
ATOM      3  C   UNL A   1      45.859  24.541  35.516  1.00  0.00     0.202 C 
BRANCH   3   4
ATOM      4  C   UNL A   1      45.788  23.136  34.914  1.00  0.00     0.261 C 
BRANCH   4   5
ATOM      5  O   UNL A   1      45.023  22.265  35.753  1.00  0.00    -0.462 OA
BRANCH   5   6
ATOM      6  C   UNL A   1      45.732  21.397  36.512  1.00  0.00     0.323 C 
ATOM      7  O   UNL A   1      45.692  21.372  37.737  1.00  0.00    -0.250 OA
BRANCH   6   8
ATOM      8  C   UNL A   1      46.523  20.420  35.653  1.00  0.00     0.176 C 
ATOM      9  C   UNL A   1      45.682  19.143  35.466  1.00  0.00     0.038 C 
BRANCH   8  10
ATOM     10  N   UNL A   1      47.867  19.973  36.053  1.00  0.00    -0.197 NA
ATOM     11  H   UNL A   1      48.173  19.345  35.310  1.00  0.00     0.142 HD
BRANCH  10  12
ATOM     12  S   UNL A   1      49.177  20.972  36.356  1.00  0.00     0.241 S 
ATOM     13  O   UNL A   1      48.916  22.117  35.492  1.00  0.00    -0.207 OA
ATOM     14  O   UNL A   1      49.427  21.144  37.754  1.00  0.00    -0.207 OA
BRANCH  12  15
ATOM     15  C   UNL A   1      50.579  20.143  35.642  1.00  0.00     0.082 A 
ATOM     16  C   UNL A   1      51.720  19.992  36.432  1.00  0.00     0.022 A 
ATOM     17  C   UNL A   1      50.647  19.873  34.279  1.00  0.00     0.022 A 
ATOM     18  C   UNL A   1      52.963  19.848  35.810  1.00  0.00     0.012 A 
ATOM     19  C   UNL A   1      51.874  19.637  33.673  1.00  0.00     0.012 A 
ATOM     20  C   UNL A   1      53.041  19.926  34.405  1.00  0.00     0.000 A 
BRANCH  20  21
ATOM     21  C   UNL A   1      53.866  21.046  33.819  1.00  0.00     0.072 A 
ATOM     22  C   UNL A   1      53.291  21.937  32.922  1.00  0.00     0.038 A 
ATOM     23  N   UNL A   1      54.668  21.520  34.809  1.00  0.00    -0.248 NA
ATOM     24  C   UNL A   1      53.131  23.267  33.340  1.00  0.00    -0.007 A 
ATOM     25  C   UNL A   1      54.315  22.679  35.361  1.00  0.00     0.072 A 
ATOM     26  C   UNL A   1      53.462  23.571  34.694  1.00  0.00     0.015 A 
ATOM     27  C   UNL A   1      54.702  22.941  36.671  1.00  0.00     0.036 A 
ATOM     28  C   UNL A   1      52.923  24.662  35.423  1.00  0.00     0.096 A 
ATOM     29  C   UNL A   1      54.180  24.022  37.387  1.00  0.00     0.088 A 
ATOM     30  C   UNL A   1      53.261  24.863  36.764  1.00  0.00     0.270 A 
BRANCH  24  31
ATOM     31  C   UNL A   1      52.587  24.311  32.448  1.00  0.00    -0.018 A 
ATOM     32  C   UNL A   1      51.219  24.264  32.102  1.00  0.00     0.009 A 
ATOM     33  C   UNL A   1      53.364  25.337  31.896  1.00  0.00     0.009 A 
ATOM     34  C   UNL A   1      50.665  25.151  31.181  1.00  0.00     0.001 A 
ATOM     35  C   UNL A   1      52.801  26.247  30.991  1.00  0.00     0.001 A 
ATOM     36  C   UNL A   1      51.461  26.141  30.621  1.00  0.00     0.000 A 
ENDBRANCH  24  31
BRANCH  30  37
ATOM     37  N   UNL A   1      52.595  25.922  37.530  1.00  0.00     0.062 N 
ATOM     38  O   UNL A   1      52.249  25.661  38.690  1.00  0.00    -0.258 OA
ATOM     39  O   UNL A   1      52.445  27.020  36.977  1.00  0.00    -0.258 OA
ENDBRANCH  30  37
ENDBRANCH  20  21
ENDBRANCH  12  15
ENDBRANCH  10  12
ENDBRANCH   8  10
ENDBRANCH   6   8
ENDBRANCH   5   6
ENDBRANCH   4   5
ENDBRANCH   3   4
ENDBRANCH   2   3
ENDBRANCH   1   2
BRANCH   1  40
ATOM     40  C   UNL A   1      48.726  25.190  37.949  1.00  0.00     0.188 C 
BRANCH  40  41
ATOM     41  O   UNL A   1      48.764  25.343  39.357  1.00  0.00    -0.376 OA
BRANCH  41  42
ATOM     42  C   UNL A   1      49.042  26.629  39.907  1.00  0.00     0.202 C 
BRANCH  42  43
ATOM     43  C   UNL A   1      47.977  27.748  39.894  1.00  0.00     0.261 C 
BRANCH  43  44
ATOM     44  O   UNL A   1      48.357  28.955  39.238  1.00  0.00    -0.460 OA
BRANCH  44  45
ATOM     45  C   UNL A   1      48.688  28.811  37.931  1.00  0.00     0.338 C 
ATOM     46  O   UNL A   1      49.720  28.341  37.486  1.00  0.00    -0.246 OA
BRANCH  45  47
ATOM     47  C   UNL A   1      47.471  29.091  37.129  1.00  0.00     0.060 A 
ATOM     48  C   UNL A   1      47.538  30.124  36.186  1.00  0.00     0.016 A 
ATOM     49  C   UNL A   1      46.331  28.280  37.205  1.00  0.00     0.016 A 
ATOM     50  C   UNL A   1      46.451  30.380  35.349  1.00  0.00     0.010 A 
ATOM     51  C   UNL A   1      45.240  28.543  36.374  1.00  0.00     0.010 A 
ATOM     52  C   UNL A   1      45.282  29.617  35.469  1.00  0.00    -0.014 A 
BRANCH  52  53
ATOM     53  C   UNL A   1      44.022  30.098  34.856  1.00  0.00     0.031 A 
ATOM     54  C   UNL A   1      43.663  29.550  33.501  1.00  0.00     0.074 A 
ATOM     55  C   UNL A   1      43.220  30.993  35.460  1.00  0.00     0.049 A 
ATOM     56  N   UNL A   1      42.656  29.848  32.724  1.00  0.00    -0.248 NA
ATOM     57  C   UNL A   1      44.570  28.528  32.948  1.00  0.00     0.031 C 
ATOM     58  C   UNL A   1      43.434  31.572  36.786  1.00  0.00     0.029 A 
ATOM     59  N   UNL A   1      42.058  31.579  35.021  1.00  0.00    -0.354 N 
ATOM     60  C   UNL A   1      42.814  29.060  31.590  1.00  0.00     0.074 A 
ATOM     61  C   UNL A   1      44.024  28.290  31.767  1.00  0.00     0.031 C 
ATOM     62  C   UNL A   1      42.441  32.443  37.046  1.00  0.00     0.029 A 
ATOM     63  C   UNL A   1      41.540  32.505  35.895  1.00  0.00     0.049 A 
ATOM     64  H   UNL A   1      41.635  31.356  34.160  1.00  0.00     0.167 HD
ATOM     65  C   UNL A   1      42.022  28.980  30.496  1.00  0.00     0.031 A 
ATOM     66  C   UNL A   1      40.474  33.322  35.769  1.00  0.00     0.031 A 
ATOM     67  C   UNL A   1      40.832  29.761  30.306  1.00  0.00     0.049 A 
ATOM     68  C   UNL A   1      39.643  33.267  34.510  1.00  0.00     0.074 A 
ATOM     69  C   UNL A   1      39.959  29.749  29.234  1.00  0.00     0.029 A 
ATOM     70  N   UNL A   1      40.355  30.702  31.205  1.00  0.00    -0.354 N 
ATOM     71  N   UNL A   1      39.789  32.498  33.457  1.00  0.00    -0.248 NA
ATOM     72  C   UNL A   1      38.497  34.185  34.428  1.00  0.00     0.031 C 
ATOM     73  C   UNL A   1      38.979  30.721  29.463  1.00  0.00     0.029 A 
ATOM     74  C   UNL A   1      39.211  31.295  30.703  1.00  0.00     0.049 A 
ATOM     75  H   UNL A   1      40.769  30.916  32.073  1.00  0.00     0.167 HD
ATOM     76  C   UNL A   1      38.741  32.821  32.600  1.00  0.00     0.074 A 
ATOM     77  C   UNL A   1      37.961  33.846  33.262  1.00  0.00     0.031 C 
ATOM     78  C   UNL A   1      38.447  32.314  31.377  1.00  0.00     0.031 A 
BRANCH  65  79
ATOM     79  C   UNL A   1      42.452  28.040  29.404  1.00  0.00    -0.014 A 
ATOM     80  C   UNL A   1      41.990  26.712  29.364  1.00  0.00     0.010 A 
ATOM     81  C   UNL A   1      43.320  28.497  28.396  1.00  0.00     0.010 A 
ATOM     82  C   UNL A   1      42.417  25.847  28.354  1.00  0.00     0.020 A 
ATOM     83  C   UNL A   1      43.728  27.643  27.370  1.00  0.00     0.020 A 
ATOM     84  C   UNL A   1      43.285  26.319  27.364  1.00  0.00     0.054 A 
BRANCH  84  85
ATOM     85  S   UNL A   1      43.804  25.182  26.050  1.00  0.00     0.124 S 
ATOM     86  O   UNL A   1      45.196  25.573  25.846  1.00  0.00    -0.237 OA
ATOM     87  O   UNL A   1      43.602  23.870  26.662  1.00  0.00    -0.237 OA
ATOM     88  O   UNL A   1      42.901  25.495  24.944  1.00  0.00    -0.744 OA
ENDBRANCH  84  85
ENDBRANCH  65  79
BRANCH  66  89
ATOM     89  C   UNL A   1      40.139  34.288  36.853  1.00  0.00    -0.014 A 
ATOM     90  C   UNL A   1      39.281  33.920  37.906  1.00  0.00     0.010 A 
ATOM     91  C   UNL A   1      40.668  35.592  36.830  1.00  0.00     0.010 A 
ATOM     92  C   UNL A   1      38.950  34.840  38.906  1.00  0.00     0.020 A 
ATOM     93  C   UNL A   1      40.359  36.506  37.841  1.00  0.00     0.020 A 
ATOM     94  C   UNL A   1      39.494  36.127  38.868  1.00  0.00     0.054 A 
BRANCH  94  95
ATOM     95  S   UNL A   1      39.096  37.289  40.206  1.00  0.00     0.124 S 
ATOM     96  O   UNL A   1      38.334  38.315  39.501  1.00  0.00    -0.237 OA
ATOM     97  O   UNL A   1      38.332  36.456  41.130  1.00  0.00    -0.237 OA
ATOM     98  O   UNL A   1      40.407  37.706  40.696  1.00  0.00    -0.744 OA
ENDBRANCH  94  95
ENDBRANCH  66  89
BRANCH  78  99
ATOM     99  C   UNL A   1      37.211  32.825  30.684  1.00  0.00    -0.014 A 
ATOM    100  C   UNL A   1      35.927  32.413  31.081  1.00  0.00     0.010 A 
ATOM    101  C   UNL A   1      37.337  33.787  29.665  1.00  0.00     0.010 A 
ATOM    102  C   UNL A   1      34.792  32.934  30.452  1.00  0.00     0.020 A 
ATOM    103  C   UNL A   1      36.206  34.330  29.052  1.00  0.00     0.020 A 
ATOM    104  C   UNL A   1      34.939  33.889  29.441  1.00  0.00     0.054 A 
BRANCH 104 105
ATOM    105  S   UNL A   1      33.451  34.582  28.669  1.00  0.00     0.124 S 
ATOM    106  O   UNL A   1      33.994  35.717  27.928  1.00  0.00    -0.237 OA
ATOM    107  O   UNL A   1      32.964  33.472  27.854  1.00  0.00    -0.237 OA
ATOM    108  O   UNL A   1      32.601  34.930  29.807  1.00  0.00    -0.744 OA
ENDBRANCH 104 105
ENDBRANCH  78  99
ENDBRANCH  52  53
ENDBRANCH  45  47
ENDBRANCH  44  45
ENDBRANCH  43  44
ENDBRANCH  42  43
ENDBRANCH  41  42
ENDBRANCH  40  41
ENDBRANCH   1  40
TORSDOF 26
ENDMDL
