MODEL 1
REMARK VINA RESULT:      -8.4      0.000      0.000
REMARK SMILES CC[N@H+](Cc1cccc(C)n1)[C@H](C(=O)OCCOCCOCCOC(=O)c1ccc(-c2c3nc(c(-c4ccc(S(=O)(=O)[O-])cc4)c4ccc([nH]4)c(-c4ccc(S(=O)(=O)[O-])cc4)c4nc(c(-c5ccc(S(=O)(=O)[O-])cc5)c5ccc2[nH]5)C=C4)C=C3)cc1)C(C)C
REMARK SMILES IDX 19 1 18 2 17 3 16 4 15 5 13 6 14 7 12 8 3 9 2 11 1 12 4 13
REMARK SMILES IDX 5 14 6 15 11 16 7 17 9 18 8 19 10 20 87 21 88 22 89 23 20 24
REMARK SMILES IDX 21 25 22 26 23 27 24 28 25 29 26 30 27 31 28 32 86 33 29 34
REMARK SMILES IDX 85 35 30 36 31 37 32 38 79 39 33 40 84 41 78 42 80 43 34 44
REMARK SMILES IDX 83 45 77 46 76 47 35 49 65 50 46 51 64 52 47 53 50 54 63 55
REMARK SMILES IDX 81 56 48 57 49 58 62 60 82 61 51 62 36 63 37 64 45 65 38 66
REMARK SMILES IDX 44 67 39 68 40 69 41 70 42 71 43 72 66 73 67 74 75 75 68 76
REMARK SMILES IDX 74 77 69 78 70 79 71 80 72 81 73 82 52 83 53 84 61 85 54 86
REMARK SMILES IDX 60 87 55 88 56 89 57 90 58 91 59 92
REMARK H PARENT 3 10 80 48 50 59
REMARK Flexibility Score: inf
ROOT
ATOM      1  C   UNL A   1      34.987  31.252  27.776  1.00  0.00     0.188 C 
ENDROOT
BRANCH   1   2
ATOM      2  O   UNL A   1      33.605  30.912  27.760  1.00  0.00    -0.376 OA
BRANCH   2   3
ATOM      3  C   UNL A   1      33.213  29.566  27.545  1.00  0.00     0.202 C 
BRANCH   3   4
ATOM      4  C   UNL A   1      31.906  29.330  26.782  1.00  0.00     0.261 C 
BRANCH   4   5
ATOM      5  O   UNL A   1      31.994  29.680  25.393  1.00  0.00    -0.459 OA
BRANCH   5   6
ATOM      6  C   UNL A   1      31.390  28.828  24.514  1.00  0.00     0.365 C 
ATOM      7  O   UNL A   1      30.256  28.986  24.080  1.00  0.00    -0.245 OA
BRANCH   6   8
ATOM      8  C   UNL A   1      32.339  27.661  24.116  1.00  0.00     0.297 C 
BRANCH   8   9
ATOM      9  N   UNL A   1      31.991  26.359  24.774  1.00  0.00    -0.318 N 
ATOM     10  H   UNL A   1      31.773  25.763  23.975  1.00  0.00     0.349 HD
BRANCH   9  11
ATOM     11  C   UNL A   1      30.811  26.419  25.666  1.00  0.00     0.259 C 
ATOM     12  C   UNL A   1      29.538  25.748  25.169  1.00  0.00     0.071 C 
ENDBRANCH   9  11
BRANCH   9  13
ATOM     13  C   UNL A   1      33.122  25.768  25.560  1.00  0.00     0.320 C 
BRANCH  13  14
ATOM     14  C   UNL A   1      34.105  24.808  24.895  1.00  0.00     0.095 A 
ATOM     15  C   UNL A   1      33.811  24.079  23.750  1.00  0.00     0.030 A 
ATOM     16  N   UNL A   1      35.310  24.679  25.518  1.00  0.00    -0.252 NA
ATOM     17  C   UNL A   1      34.793  23.277  23.174  1.00  0.00     0.004 A 
ATOM     18  C   UNL A   1      36.244  23.856  24.976  1.00  0.00     0.038 A 
ATOM     19  C   UNL A   1      36.031  23.164  23.793  1.00  0.00     0.023 A 
ATOM     20  C   UNL A   1      37.520  23.677  25.744  1.00  0.00     0.067 C 
ENDBRANCH  13  14
ENDBRANCH   9  13
ENDBRANCH   8   9
BRANCH   8  21
ATOM     21  C   UNL A   1      32.453  27.582  22.551  1.00  0.00     0.053 C 
ATOM     22  C   UNL A   1      33.932  27.585  22.118  1.00  0.00     0.014 C 
ATOM     23  C   UNL A   1      31.786  26.356  21.918  1.00  0.00     0.014 C 
ENDBRANCH   8  21
ENDBRANCH   6   8
ENDBRANCH   5   6
ENDBRANCH   4   5
ENDBRANCH   3   4
ENDBRANCH   2   3
ENDBRANCH   1   2
BRANCH   1  24
ATOM     24  C   UNL A   1      35.655  31.782  29.061  1.00  0.00     0.188 C 
BRANCH  24  25
ATOM     25  O   UNL A   1      34.777  32.494  29.915  1.00  0.00    -0.376 OA
BRANCH  25  26
ATOM     26  C   UNL A   1      34.995  32.294  31.301  1.00  0.00     0.202 C 
BRANCH  26  27
ATOM     27  C   UNL A   1      35.885  31.077  31.573  1.00  0.00     0.261 C 
BRANCH  27  28
ATOM     28  O   UNL A   1      36.883  31.270  32.593  1.00  0.00    -0.460 OA
BRANCH  28  29
ATOM     29  C   UNL A   1      37.910  32.095  32.291  1.00  0.00     0.338 C 
ATOM     30  O   UNL A   1      38.039  33.255  32.649  1.00  0.00    -0.246 OA
BRANCH  29  31
ATOM     31  C   UNL A   1      38.960  31.321  31.590  1.00  0.00     0.060 A 
ATOM     32  C   UNL A   1      39.846  30.548  32.353  1.00  0.00     0.016 A 
ATOM     33  C   UNL A   1      39.099  31.379  30.200  1.00  0.00     0.016 A 
ATOM     34  C   UNL A   1      40.916  29.895  31.735  1.00  0.00     0.010 A 
ATOM     35  C   UNL A   1      40.178  30.730  29.584  1.00  0.00     0.010 A 
ATOM     36  C   UNL A   1      41.122  30.029  30.354  1.00  0.00    -0.014 A 
BRANCH  36  37
ATOM     37  C   UNL A   1      42.435  29.642  29.767  1.00  0.00     0.031 A 
ATOM     38  C   UNL A   1      42.569  28.261  29.170  1.00  0.00     0.074 A 
ATOM     39  C   UNL A   1      43.478  30.491  29.716  1.00  0.00     0.049 A 
ATOM     40  N   UNL A   1      43.595  27.707  28.575  1.00  0.00    -0.248 NA
ATOM     41  C   UNL A   1      41.385  27.391  29.257  1.00  0.00     0.031 C 
ATOM     42  C   UNL A   1      43.486  31.861  30.224  1.00  0.00     0.029 A 
ATOM     43  N   UNL A   1      44.741  30.315  29.203  1.00  0.00    -0.354 N 
ATOM     44  C   UNL A   1      43.181  26.429  28.218  1.00  0.00     0.074 A 
ATOM     45  C   UNL A   1      41.825  26.274  28.698  1.00  0.00     0.031 C 
ATOM     46  C   UNL A   1      44.697  32.402  29.998  1.00  0.00     0.029 A 
ATOM     47  C   UNL A   1      45.558  31.412  29.349  1.00  0.00     0.049 A 
ATOM     48  H   UNL A   1      45.036  29.481  28.771  1.00  0.00     0.167 HD
ATOM     49  C   UNL A   1      43.856  25.468  27.542  1.00  0.00     0.031 A 
ATOM     50  C   UNL A   1      46.850  31.596  29.007  1.00  0.00     0.031 A 
ATOM     51  C   UNL A   1      45.211  25.602  27.077  1.00  0.00     0.049 A 
ATOM     52  C   UNL A   1      47.605  30.487  28.313  1.00  0.00     0.074 A 
ATOM     53  C   UNL A   1      45.972  24.686  26.371  1.00  0.00     0.029 A 
ATOM     54  N   UNL A   1      46.011  26.715  27.280  1.00  0.00    -0.354 N 
ATOM     55  N   UNL A   1      47.183  29.299  27.948  1.00  0.00    -0.248 NA
ATOM     56  C   UNL A   1      49.010  30.756  27.971  1.00  0.00     0.031 C 
ATOM     57  C   UNL A   1      47.252  25.225  26.194  1.00  0.00     0.029 A 
ATOM     58  C   UNL A   1      47.267  26.500  26.735  1.00  0.00     0.049 A 
ATOM     59  H   UNL A   1      45.729  27.536  27.743  1.00  0.00     0.167 HD
ATOM     60  C   UNL A   1      48.262  28.693  27.309  1.00  0.00     0.074 A 
ATOM     61  C   UNL A   1      49.348  29.651  27.321  1.00  0.00     0.031 C 
ATOM     62  C   UNL A   1      48.345  27.456  26.757  1.00  0.00     0.031 A 
BRANCH  49  63
ATOM     63  C   UNL A   1      43.138  24.168  27.291  1.00  0.00    -0.014 A 
ATOM     64  C   UNL A   1      43.081  23.167  28.277  1.00  0.00     0.010 A 
ATOM     65  C   UNL A   1      42.490  23.955  26.060  1.00  0.00     0.010 A 
ATOM     66  C   UNL A   1      42.427  21.958  28.021  1.00  0.00     0.020 A 
ATOM     67  C   UNL A   1      41.812  22.759  25.811  1.00  0.00     0.020 A 
ATOM     68  C   UNL A   1      41.800  21.761  26.787  1.00  0.00     0.054 A 
BRANCH  68  69
ATOM     69  S   UNL A   1      40.948  20.188  26.486  1.00  0.00     0.124 S 
ATOM     70  O   UNL A   1      41.853  19.531  25.548  1.00  0.00    -0.237 OA
ATOM     71  O   UNL A   1      40.888  19.595  27.820  1.00  0.00    -0.237 OA
ATOM     72  O   UNL A   1      39.659  20.593  25.930  1.00  0.00    -0.744 OA
ENDBRANCH  68  69
ENDBRANCH  49  63
BRANCH  50  73
ATOM     73  C   UNL A   1      47.531  32.886  29.316  1.00  0.00    -0.014 A 
ATOM     74  C   UNL A   1      47.544  33.935  28.380  1.00  0.00     0.010 A 
ATOM     75  C   UNL A   1      48.193  33.060  30.545  1.00  0.00     0.010 A 
ATOM     76  C   UNL A   1      48.222  35.126  28.658  1.00  0.00     0.020 A 
ATOM     77  C   UNL A   1      48.848  34.259  30.839  1.00  0.00     0.020 A 
ATOM     78  C   UNL A   1      48.869  35.281  29.888  1.00  0.00     0.054 A 
BRANCH  78  79
ATOM     79  S   UNL A   1      49.702  36.854  30.247  1.00  0.00     0.124 S 
ATOM     80  O   UNL A   1      48.994  37.307  31.440  1.00  0.00    -0.237 OA
ATOM     81  O   UNL A   1      51.086  36.437  30.452  1.00  0.00    -0.237 OA
ATOM     82  O   UNL A   1      49.469  37.646  29.041  1.00  0.00    -0.744 OA
ENDBRANCH  78  79
ENDBRANCH  50  73
BRANCH  62  83
ATOM     83  C   UNL A   1      49.642  27.076  26.087  1.00  0.00    -0.014 A 
ATOM     84  C   UNL A   1      49.934  27.475  24.771  1.00  0.00     0.010 A 
ATOM     85  C   UNL A   1      50.599  26.329  26.801  1.00  0.00     0.010 A 
ATOM     86  C   UNL A   1      51.135  27.094  24.165  1.00  0.00     0.020 A 
ATOM     87  C   UNL A   1      51.814  25.971  26.210  1.00  0.00     0.020 A 
ATOM     88  C   UNL A   1      52.065  26.337  24.887  1.00  0.00     0.054 A 
BRANCH  88  89
ATOM     89  S   UNL A   1      53.621  25.861  24.083  1.00  0.00     0.124 S 
ATOM     90  O   UNL A   1      53.255  25.894  22.670  1.00  0.00    -0.237 OA
ATOM     91  O   UNL A   1      54.543  26.908  24.518  1.00  0.00    -0.237 OA
ATOM     92  O   UNL A   1      53.897  24.532  24.624  1.00  0.00    -0.744 OA
ENDBRANCH  88  89
ENDBRANCH  62  83
ENDBRANCH  36  37
ENDBRANCH  29  31
ENDBRANCH  28  29
ENDBRANCH  27  28
ENDBRANCH  26  27
ENDBRANCH  25  26
ENDBRANCH  24  25
ENDBRANCH   1  24
TORSDOF 25
ENDMDL
MODEL 2
REMARK VINA RESULT:      -7.8      5.300     11.162
REMARK SMILES CC[N@H+](Cc1cccc(C)n1)[C@H](C(=O)OCCOCCOCCOC(=O)c1ccc(-c2c3nc(c(-c4ccc(S(=O)(=O)[O-])cc4)c4ccc([nH]4)c(-c4ccc(S(=O)(=O)[O-])cc4)c4nc(c(-c5ccc(S(=O)(=O)[O-])cc5)c5ccc2[nH]5)C=C4)C=C3)cc1)C(C)C
REMARK SMILES IDX 19 1 18 2 17 3 16 4 15 5 13 6 14 7 12 8 3 9 2 11 1 12 4 13
REMARK SMILES IDX 5 14 6 15 11 16 7 17 9 18 8 19 10 20 87 21 88 22 89 23 20 24
REMARK SMILES IDX 21 25 22 26 23 27 24 28 25 29 26 30 27 31 28 32 86 33 29 34
REMARK SMILES IDX 85 35 30 36 31 37 32 38 79 39 33 40 84 41 78 42 80 43 34 44
REMARK SMILES IDX 83 45 77 46 76 47 35 49 65 50 46 51 64 52 47 53 50 54 63 55
REMARK SMILES IDX 81 56 48 57 49 58 62 60 82 61 51 62 36 63 37 64 45 65 38 66
REMARK SMILES IDX 44 67 39 68 40 69 41 70 42 71 43 72 66 73 67 74 75 75 68 76
REMARK SMILES IDX 74 77 69 78 70 79 71 80 72 81 73 82 52 83 53 84 61 85 54 86
REMARK SMILES IDX 60 87 55 88 56 89 57 90 58 91 59 92
REMARK H PARENT 3 10 80 48 50 59
REMARK Flexibility Score: inf
ROOT
ATOM      1  C   UNL A   1      46.414  24.761  28.004  1.00  0.00     0.188 C 
ENDROOT
BRANCH   1   2
ATOM      2  O   UNL A   1      45.323  25.470  27.426  1.00  0.00    -0.376 OA
BRANCH   2   3
ATOM      3  C   UNL A   1      44.019  25.318  27.966  1.00  0.00     0.202 C 
BRANCH   3   4
ATOM      4  C   UNL A   1      43.041  26.479  27.768  1.00  0.00     0.261 C 
BRANCH   4   5
ATOM      5  O   UNL A   1      42.140  26.651  28.872  1.00  0.00    -0.459 OA
BRANCH   5   6
ATOM      6  C   UNL A   1      41.823  27.937  29.201  1.00  0.00     0.365 C 
ATOM      7  O   UNL A   1      42.641  28.845  29.275  1.00  0.00    -0.245 OA
BRANCH   6   8
ATOM      8  C   UNL A   1      40.293  28.098  29.436  1.00  0.00     0.297 C 
BRANCH   8   9
ATOM      9  N   UNL A   1      39.924  29.394  30.095  1.00  0.00    -0.318 N 
ATOM     10  H   UNL A   1      40.643  30.029  29.745  1.00  0.00     0.349 HD
BRANCH   9  11
ATOM     11  C   UNL A   1      39.984  29.369  31.574  1.00  0.00     0.259 C 
ATOM     12  C   UNL A   1      39.569  28.073  32.257  1.00  0.00     0.071 C 
ENDBRANCH   9  11
BRANCH   9  13
ATOM     13  C   UNL A   1      38.567  29.895  29.706  1.00  0.00     0.320 C 
BRANCH  13  14
ATOM     14  C   UNL A   1      38.312  31.393  29.549  1.00  0.00     0.095 A 
ATOM     15  C   UNL A   1      39.178  32.372  30.019  1.00  0.00     0.030 A 
ATOM     16  N   UNL A   1      37.144  31.727  28.932  1.00  0.00    -0.252 NA
ATOM     17  C   UNL A   1      38.898  33.713  29.772  1.00  0.00     0.004 A 
ATOM     18  C   UNL A   1      36.856  33.040  28.741  1.00  0.00     0.038 A 
ATOM     19  C   UNL A   1      37.721  34.056  29.121  1.00  0.00     0.023 A 
ATOM     20  C   UNL A   1      35.521  33.362  28.139  1.00  0.00     0.067 C 
ENDBRANCH  13  14
ENDBRANCH   9  13
ENDBRANCH   8   9
BRANCH   8  21
ATOM     21  C   UNL A   1      39.519  27.813  28.100  1.00  0.00     0.053 C 
ATOM     22  C   UNL A   1      40.178  28.560  26.925  1.00  0.00     0.014 C 
ATOM     23  C   UNL A   1      39.423  26.332  27.714  1.00  0.00     0.014 C 
ENDBRANCH   8  21
ENDBRANCH   6   8
ENDBRANCH   5   6
ENDBRANCH   4   5
ENDBRANCH   3   4
ENDBRANCH   2   3
ENDBRANCH   1   2
BRANCH   1  24
ATOM     24  C   UNL A   1      47.836  25.355  27.994  1.00  0.00     0.188 C 
BRANCH  24  25
ATOM     25  O   UNL A   1      48.839  24.444  27.579  1.00  0.00    -0.376 OA
BRANCH  25  26
ATOM     26  C   UNL A   1      50.169  24.861  27.829  1.00  0.00     0.202 C 
BRANCH  26  27
ATOM     27  C   UNL A   1      50.857  25.381  26.562  1.00  0.00     0.261 C 
BRANCH  27  28
ATOM     28  O   UNL A   1      51.003  26.812  26.495  1.00  0.00    -0.460 OA
BRANCH  28  29
ATOM     29  C   UNL A   1      50.191  27.467  25.636  1.00  0.00     0.338 C 
ATOM     30  O   UNL A   1      50.160  27.337  24.423  1.00  0.00    -0.246 OA
BRANCH  29  31
ATOM     31  C   UNL A   1      49.205  28.256  26.411  1.00  0.00     0.060 A 
ATOM     32  C   UNL A   1      49.621  28.864  27.603  1.00  0.00     0.016 A 
ATOM     33  C   UNL A   1      47.876  28.370  25.993  1.00  0.00     0.016 A 
ATOM     34  C   UNL A   1      48.693  29.521  28.415  1.00  0.00     0.010 A 
ATOM     35  C   UNL A   1      46.946  29.021  26.813  1.00  0.00     0.010 A 
ATOM     36  C   UNL A   1      47.337  29.554  28.054  1.00  0.00    -0.014 A 
BRANCH  36  37
ATOM     37  C   UNL A   1      46.315  29.928  29.070  1.00  0.00     0.031 A 
ATOM     38  C   UNL A   1      45.997  28.933  30.161  1.00  0.00     0.074 A 
ATOM     39  C   UNL A   1      45.705  31.127  29.068  1.00  0.00     0.049 A 
ATOM     40  N   UNL A   1      45.172  29.041  31.171  1.00  0.00    -0.248 NA
ATOM     41  C   UNL A   1      46.707  27.645  30.102  1.00  0.00     0.031 C 
ATOM     42  C   UNL A   1      45.932  32.196  28.097  1.00  0.00     0.029 A 
ATOM     43  N   UNL A   1      44.763  31.646  29.925  1.00  0.00    -0.354 N 
ATOM     44  C   UNL A   1      45.265  27.839  31.865  1.00  0.00     0.074 A 
ATOM     45  C   UNL A   1      46.195  27.002  31.140  1.00  0.00     0.031 C 
ATOM     46  C   UNL A   1      45.149  33.244  28.412  1.00  0.00     0.029 A 
ATOM     47  C   UNL A   1      44.349  32.915  29.593  1.00  0.00     0.049 A 
ATOM     48  H   UNL A   1      44.415  31.154  30.703  1.00  0.00     0.167 HD
ATOM     49  C   UNL A   1      44.645  27.462  33.009  1.00  0.00     0.031 A 
ATOM     50  C   UNL A   1      43.429  33.716  30.169  1.00  0.00     0.031 A 
ATOM     51  C   UNL A   1      43.703  28.277  33.730  1.00  0.00     0.049 A 
ATOM     52  C   UNL A   1      42.700  33.249  31.407  1.00  0.00     0.074 A 
ATOM     53  C   UNL A   1      43.035  27.984  34.907  1.00  0.00     0.029 A 
ATOM     54  N   UNL A   1      43.286  29.538  33.338  1.00  0.00    -0.354 N 
ATOM     55  N   UNL A   1      42.831  32.125  32.071  1.00  0.00    -0.248 NA
ATOM     56  C   UNL A   1      41.709  34.173  31.980  1.00  0.00     0.031 C 
ATOM     57  C   UNL A   1      42.173  29.047  35.197  1.00  0.00     0.029 A 
ATOM     58  C   UNL A   1      42.351  30.028  34.236  1.00  0.00     0.049 A 
ATOM     59  H   UNL A   1      43.607  30.016  32.539  1.00  0.00     0.167 HD
ATOM     60  C   UNL A   1      41.961  32.221  33.155  1.00  0.00     0.074 A 
ATOM     61  C   UNL A   1      41.325  33.518  33.066  1.00  0.00     0.031 C 
ATOM     62  C   UNL A   1      41.716  31.317  34.138  1.00  0.00     0.031 A 
BRANCH  49  63
ATOM     63  C   UNL A   1      44.951  26.085  33.537  1.00  0.00    -0.014 A 
ATOM     64  C   UNL A   1      45.929  25.887  34.529  1.00  0.00     0.010 A 
ATOM     65  C   UNL A   1      44.233  24.976  33.053  1.00  0.00     0.010 A 
ATOM     66  C   UNL A   1      46.214  24.600  34.994  1.00  0.00     0.020 A 
ATOM     67  C   UNL A   1      44.495  23.691  33.536  1.00  0.00     0.020 A 
ATOM     68  C   UNL A   1      45.497  23.510  34.491  1.00  0.00     0.054 A 
BRANCH  68  69
ATOM     69  S   UNL A   1      45.878  21.852  35.122  1.00  0.00     0.124 S 
ATOM     70  O   UNL A   1      47.050  21.491  34.328  1.00  0.00    -0.237 OA
ATOM     71  O   UNL A   1      46.132  22.100  36.539  1.00  0.00    -0.237 OA
ATOM     72  O   UNL A   1      44.669  21.085  34.834  1.00  0.00    -0.744 OA
ENDBRANCH  68  69
ENDBRANCH  49  63
BRANCH  50  73
ATOM     73  C   UNL A   1      43.129  35.054  29.583  1.00  0.00    -0.014 A 
ATOM     74  C   UNL A   1      42.105  35.209  28.631  1.00  0.00     0.010 A 
ATOM     75  C   UNL A   1      43.886  36.178  29.959  1.00  0.00     0.010 A 
ATOM     76  C   UNL A   1      41.858  36.457  28.052  1.00  0.00     0.020 A 
ATOM     77  C   UNL A   1      43.624  37.433  29.404  1.00  0.00     0.020 A 
ATOM     78  C   UNL A   1      42.619  37.563  28.444  1.00  0.00     0.054 A 
BRANCH  78  79
ATOM     79  S   UNL A   1      42.248  39.183  27.715  1.00  0.00     0.124 S 
ATOM     80  O   UNL A   1      43.583  39.738  27.514  1.00  0.00    -0.237 OA
ATOM     81  O   UNL A   1      41.522  38.823  26.499  1.00  0.00    -0.237 OA
ATOM     82  O   UNL A   1      41.442  39.843  28.740  1.00  0.00    -0.744 OA
ENDBRANCH  78  79
ENDBRANCH  50  73
BRANCH  62  83
ATOM     83  C   UNL A   1      40.741  31.711  35.220  1.00  0.00    -0.014 A 
ATOM     84  C   UNL A   1      41.157  32.421  36.361  1.00  0.00     0.010 A 
ATOM     85  C   UNL A   1      39.378  31.390  35.077  1.00  0.00     0.010 A 
ATOM     86  C   UNL A   1      40.239  32.758  37.360  1.00  0.00     0.020 A 
ATOM     87  C   UNL A   1      38.451  31.751  36.059  1.00  0.00     0.020 A 
ATOM     88  C   UNL A   1      38.891  32.414  37.205  1.00  0.00     0.054 A 
BRANCH  88  89
ATOM     89  S   UNL A   1      37.715  32.868  38.510  1.00  0.00     0.124 S 
ATOM     90  O   UNL A   1      38.345  34.052  39.088  1.00  0.00    -0.237 OA
ATOM     91  O   UNL A   1      36.483  33.114  37.763  1.00  0.00    -0.237 OA
ATOM     92  O   UNL A   1      37.688  31.692  39.376  1.00  0.00    -0.744 OA
ENDBRANCH  88  89
ENDBRANCH  62  83
ENDBRANCH  36  37
ENDBRANCH  29  31
ENDBRANCH  28  29
ENDBRANCH  27  28
ENDBRANCH  26  27
ENDBRANCH  25  26
ENDBRANCH  24  25
ENDBRANCH   1  24
TORSDOF 25
ENDMDL
MODEL 3
REMARK VINA RESULT:      -7.3      3.989      7.861
REMARK SMILES CC[N@H+](Cc1cccc(C)n1)[C@H](C(=O)OCCOCCOCCOC(=O)c1ccc(-c2c3nc(c(-c4ccc(S(=O)(=O)[O-])cc4)c4ccc([nH]4)c(-c4ccc(S(=O)(=O)[O-])cc4)c4nc(c(-c5ccc(S(=O)(=O)[O-])cc5)c5ccc2[nH]5)C=C4)C=C3)cc1)C(C)C
REMARK SMILES IDX 19 1 18 2 17 3 16 4 15 5 13 6 14 7 12 8 3 9 2 11 1 12 4 13
REMARK SMILES IDX 5 14 6 15 11 16 7 17 9 18 8 19 10 20 87 21 88 22 89 23 20 24
REMARK SMILES IDX 21 25 22 26 23 27 24 28 25 29 26 30 27 31 28 32 86 33 29 34
REMARK SMILES IDX 85 35 30 36 31 37 32 38 79 39 33 40 84 41 78 42 80 43 34 44
REMARK SMILES IDX 83 45 77 46 76 47 35 49 65 50 46 51 64 52 47 53 50 54 63 55
REMARK SMILES IDX 81 56 48 57 49 58 62 60 82 61 51 62 36 63 37 64 45 65 38 66
REMARK SMILES IDX 44 67 39 68 40 69 41 70 42 71 43 72 66 73 67 74 75 75 68 76
REMARK SMILES IDX 74 77 69 78 70 79 71 80 72 81 73 82 52 83 53 84 61 85 54 86
REMARK SMILES IDX 60 87 55 88 56 89 57 90 58 91 59 92
REMARK H PARENT 3 10 80 48 50 59
REMARK Flexibility Score: inf
ROOT
ATOM      1  C   UNL A   1      38.762  34.229  30.085  1.00  0.00     0.188 C 
ENDROOT
BRANCH   1   2
ATOM      2  O   UNL A   1      38.904  34.906  31.330  1.00  0.00    -0.376 OA
BRANCH   2   3
ATOM      3  C   UNL A   1      38.937  34.161  32.536  1.00  0.00     0.202 C 
BRANCH   3   4
ATOM      4  C   UNL A   1      37.866  34.477  33.584  1.00  0.00     0.261 C 
BRANCH   4   5
ATOM      5  O   UNL A   1      37.344  33.305  34.227  1.00  0.00    -0.459 OA
BRANCH   5   6
ATOM      6  C   UNL A   1      37.079  33.412  35.561  1.00  0.00     0.365 C 
ATOM      7  O   UNL A   1      35.954  33.551  36.025  1.00  0.00    -0.245 OA
BRANCH   6   8
ATOM      8  C   UNL A   1      38.380  33.300  36.406  1.00  0.00     0.297 C 
BRANCH   8   9
ATOM      9  N   UNL A   1      38.175  33.604  37.860  1.00  0.00    -0.318 N 
ATOM     10  H   UNL A   1      37.259  34.055  37.862  1.00  0.00     0.349 HD
BRANCH   9  11
ATOM     11  C   UNL A   1      39.170  34.535  38.439  1.00  0.00     0.259 C 
ATOM     12  C   UNL A   1      40.210  33.936  39.375  1.00  0.00     0.071 C 
ENDBRANCH   9  11
BRANCH   9  13
ATOM     13  C   UNL A   1      38.144  32.382  38.726  1.00  0.00     0.320 C 
BRANCH  13  14
ATOM     14  C   UNL A   1      37.116  32.255  39.847  1.00  0.00     0.095 A 
ATOM     15  C   UNL A   1      37.334  31.528  41.011  1.00  0.00     0.030 A 
ATOM     16  N   UNL A   1      35.929  32.887  39.628  1.00  0.00    -0.252 NA
ATOM     17  C   UNL A   1      36.365  31.522  42.010  1.00  0.00     0.004 A 
ATOM     18  C   UNL A   1      34.971  32.834  40.589  1.00  0.00     0.038 A 
ATOM     19  C   UNL A   1      35.165  32.187  41.800  1.00  0.00     0.023 A 
ATOM     20  C   UNL A   1      33.650  33.467  40.266  1.00  0.00     0.067 C 
ENDBRANCH  13  14
ENDBRANCH   9  13
ENDBRANCH   8   9
BRANCH   8  21
ATOM     21  C   UNL A   1      39.076  31.920  36.129  1.00  0.00     0.053 C 
ATOM     22  C   UNL A   1      38.163  31.018  35.276  1.00  0.00     0.014 C 
ATOM     23  C   UNL A   1      40.432  32.012  35.420  1.00  0.00     0.014 C 
ENDBRANCH   8  21
ENDBRANCH   6   8
ENDBRANCH   5   6
ENDBRANCH   4   5
ENDBRANCH   3   4
ENDBRANCH   2   3
ENDBRANCH   1   2
BRANCH   1  24
ATOM     24  C   UNL A   1      37.369  34.004  29.462  1.00  0.00     0.188 C 
BRANCH  24  25
ATOM     25  O   UNL A   1      36.297  34.166  30.375  1.00  0.00    -0.376 OA
BRANCH  25  26
ATOM     26  C   UNL A   1      35.177  33.332  30.139  1.00  0.00     0.202 C 
BRANCH  26  27
ATOM     27  C   UNL A   1      35.551  31.845  30.170  1.00  0.00     0.261 C 
BRANCH  27  28
ATOM     28  O   UNL A   1      36.444  31.467  31.234  1.00  0.00    -0.460 OA
BRANCH  28  29
ATOM     29  C   UNL A   1      36.950  30.215  31.187  1.00  0.00     0.338 C 
ATOM     30  O   UNL A   1      36.336  29.176  31.368  1.00  0.00    -0.246 OA
BRANCH  29  31
ATOM     31  C   UNL A   1      38.350  30.278  30.706  1.00  0.00     0.060 A 
ATOM     32  C   UNL A   1      38.584  30.284  29.324  1.00  0.00     0.016 A 
ATOM     33  C   UNL A   1      39.425  30.296  31.599  1.00  0.00     0.016 A 
ATOM     34  C   UNL A   1      39.893  30.231  28.836  1.00  0.00     0.010 A 
ATOM     35  C   UNL A   1      40.735  30.234  31.107  1.00  0.00     0.010 A 
ATOM     36  C   UNL A   1      40.975  30.147  29.725  1.00  0.00    -0.014 A 
BRANCH  36  37
ATOM     37  C   UNL A   1      42.313  29.734  29.217  1.00  0.00     0.031 A 
ATOM     38  C   UNL A   1      42.481  28.319  28.719  1.00  0.00     0.074 A 
ATOM     39  C   UNL A   1      43.351  30.588  29.151  1.00  0.00     0.049 A 
ATOM     40  N   UNL A   1      43.534  27.736  28.203  1.00  0.00    -0.248 NA
ATOM     41  C   UNL A   1      41.300  27.444  28.818  1.00  0.00     0.031 C 
ATOM     42  C   UNL A   1      43.329  31.989  29.567  1.00  0.00     0.029 A 
ATOM     43  N   UNL A   1      44.635  30.391  28.700  1.00  0.00    -0.354 N 
ATOM     44  C   UNL A   1      43.142  26.433  27.917  1.00  0.00     0.074 A 
ATOM     45  C   UNL A   1      41.770  26.297  28.352  1.00  0.00     0.031 C 
ATOM     46  C   UNL A   1      44.544  32.526  29.352  1.00  0.00     0.029 A 
ATOM     47  C   UNL A   1      45.437  31.503  28.805  1.00  0.00     0.049 A 
ATOM     48  H   UNL A   1      44.952  29.533  28.337  1.00  0.00     0.167 HD
ATOM     49  C   UNL A   1      43.851  25.437  27.333  1.00  0.00     0.031 A 
ATOM     50  C   UNL A   1      46.740  31.677  28.502  1.00  0.00     0.031 A 
ATOM     51  C   UNL A   1      45.223  25.552  26.914  1.00  0.00     0.049 A 
ATOM     52  C   UNL A   1      47.531  30.532  27.915  1.00  0.00     0.074 A 
ATOM     53  C   UNL A   1      46.018  24.599  26.300  1.00  0.00     0.029 A 
ATOM     54  N   UNL A   1      46.006  26.684  27.074  1.00  0.00    -0.354 N 
ATOM     55  N   UNL A   1      47.132  29.318  27.613  1.00  0.00    -0.248 NA
ATOM     56  C   UNL A   1      48.946  30.791  27.610  1.00  0.00     0.031 C 
ATOM     57  C   UNL A   1      47.299  25.138  26.139  1.00  0.00     0.029 A 
ATOM     58  C   UNL A   1      47.284  26.446  26.593  1.00  0.00     0.049 A 
ATOM     59  H   UNL A   1      45.699  27.531  27.469  1.00  0.00     0.167 HD
ATOM     60  C   UNL A   1      48.240  28.681  27.058  1.00  0.00     0.074 A 
ATOM     61  C   UNL A   1      49.317  29.649  27.050  1.00  0.00     0.031 C 
ATOM     62  C   UNL A   1      48.353  27.411  26.594  1.00  0.00     0.031 A 
BRANCH  49  63
ATOM     63  C   UNL A   1      43.153  24.116  27.141  1.00  0.00    -0.014 A 
ATOM     64  C   UNL A   1      42.583  23.767  25.903  1.00  0.00     0.010 A 
ATOM     65  C   UNL A   1      43.088  23.199  28.207  1.00  0.00     0.010 A 
ATOM     66  C   UNL A   1      41.922  22.545  25.748  1.00  0.00     0.020 A 
ATOM     67  C   UNL A   1      42.452  21.965  28.047  1.00  0.00     0.020 A 
ATOM     68  C   UNL A   1      41.858  21.654  26.823  1.00  0.00     0.054 A 
BRANCH  68  69
ATOM     69  S   UNL A   1      41.006  20.070  26.589  1.00  0.00     0.124 S 
ATOM     70  O   UNL A   1      41.911  19.374  25.678  1.00  0.00    -0.237 OA
ATOM     71  O   UNL A   1      40.948  19.534  27.947  1.00  0.00    -0.237 OA
ATOM     72  O   UNL A   1      39.716  20.449  26.017  1.00  0.00    -0.744 OA
ENDBRANCH  68  69
ENDBRANCH  49  63
BRANCH  50  73
ATOM     73  C   UNL A   1      47.399  32.991  28.752  1.00  0.00    -0.014 A 
ATOM     74  C   UNL A   1      47.994  33.273  29.995  1.00  0.00     0.010 A 
ATOM     75  C   UNL A   1      47.411  33.979  27.750  1.00  0.00     0.010 A 
ATOM     76  C   UNL A   1      48.571  34.523  30.238  1.00  0.00     0.020 A 
ATOM     77  C   UNL A   1      48.011  35.220  27.980  1.00  0.00     0.020 A 
ATOM     78  C   UNL A   1      48.577  35.489  29.227  1.00  0.00     0.054 A 
BRANCH  78  79
ATOM     79  S   UNL A   1      49.374  37.088  29.549  1.00  0.00     0.124 S 
ATOM     80  O   UNL A   1      50.765  36.698  29.756  1.00  0.00    -0.237 OA
ATOM     81  O   UNL A   1      49.100  37.829  28.321  1.00  0.00    -0.237 OA
ATOM     82  O   UNL A   1      48.679  37.583  30.736  1.00  0.00    -0.744 OA
ENDBRANCH  78  79
ENDBRANCH  50  73
BRANCH  62  83
ATOM     83  C   UNL A   1      49.679  27.000  26.002  1.00  0.00    -0.014 A 
ATOM     84  C   UNL A   1      50.683  26.408  26.789  1.00  0.00     0.010 A 
ATOM     85  C   UNL A   1      49.912  27.185  24.626  1.00  0.00     0.010 A 
ATOM     86  C   UNL A   1      51.911  26.054  26.222  1.00  0.00     0.020 A 
ATOM     87  C   UNL A   1      51.126  26.804  24.049  1.00  0.00     0.020 A 
ATOM     88  C   UNL A   1      52.127  26.261  24.855  1.00  0.00     0.054 A 
BRANCH  88  89
ATOM     89  S   UNL A   1      53.725  25.785  24.139  1.00  0.00     0.124 S 
ATOM     90  O   UNL A   1      53.824  24.380  24.522  1.00  0.00    -0.237 OA
ATOM     91  O   UNL A   1      53.526  26.035  22.712  1.00  0.00    -0.237 OA
ATOM     92  O   UNL A   1      54.678  26.679  24.794  1.00  0.00    -0.744 OA
ENDBRANCH  88  89
ENDBRANCH  62  83
ENDBRANCH  36  37
ENDBRANCH  29  31
ENDBRANCH  28  29
ENDBRANCH  27  28
ENDBRANCH  26  27
ENDBRANCH  25  26
ENDBRANCH  24  25
ENDBRANCH   1  24
TORSDOF 25
ENDMDL
