MODEL 1
REMARK VINA RESULT:      -9.4      0.000      0.000
REMARK SMILES Cc1ccc(S(=O)(=O)n2cc(C(=O)C(=O)N[C@@H](Cc3c[nH]c4ccccc34)C(=O)OCCOCCOCCOC(=O)c3ccc(-c4c5nc(c(-c6ccc(S(=O)(=O)[O-])cc6)c6ccc([nH]6)c(-c6ccc(S(=O)(=O)[O-])cc6)c6nc(c(-c7ccc(S(=O)(=O)[O-])cc7)c7ccc4[nH]7)C=C6)C=C5)cc3)c3ccccc32)cc1
REMARK SMILES IDX 34 1 33 2 32 3 31 4 30 5 28 6 29 7 17 8 16 9 14 10 15 11
REMARK SMILES IDX 12 13 13 14 11 15 9 16 10 17 107 18 102 19 106 20 103 21
REMARK SMILES IDX 105 22 104 23 6 24 7 25 8 26 5 27 1 28 2 29 3 30 109 31 4 32
REMARK SMILES IDX 108 33 18 34 19 35 20 36 27 37 21 38 22 39 26 40 23 42 25 43
REMARK SMILES IDX 24 44 35 45 36 46 37 47 38 48 39 49 40 50 41 51 42 52 43 53
REMARK SMILES IDX 101 54 44 55 100 56 45 57 46 58 47 59 94 60 48 61 99 62
REMARK SMILES IDX 93 63 95 64 49 65 98 66 92 67 91 68 50 70 80 71 61 72 79 73
REMARK SMILES IDX 62 74 65 75 78 76 96 77 63 78 64 79 77 81 97 82 66 83 51 84
REMARK SMILES IDX 52 85 60 86 53 87 59 88 54 89 55 90 56 91 57 92 58 93 81 94
REMARK SMILES IDX 82 95 90 96 83 97 89 98 84 99 85 100 86 101 87 102 88 103
REMARK SMILES IDX 67 104 68 105 76 106 69 107 75 108 70 109 71 110 72 111
REMARK SMILES IDX 73 112 74 113
REMARK H PARENT 16 12 21 41 95 69 65 80
REMARK Flexibility Score: inf
ROOT
ATOM      1  C   UNL A   1      40.918  34.287  29.880  1.00  0.00     0.188 C 
ENDROOT
BRANCH   1   2
ATOM      2  O   UNL A   1      41.411  33.477  30.913  1.00  0.00    -0.376 OA
BRANCH   2   3
ATOM      3  C   UNL A   1      42.784  33.280  30.800  1.00  0.00     0.202 C 
BRANCH   3   4
ATOM      4  C   UNL A   1      43.509  32.110  31.540  1.00  0.00     0.261 C 
BRANCH   4   5
ATOM      5  O   UNL A   1      43.801  31.839  33.309  1.00  0.00    -0.462 OA
BRANCH   5   6
ATOM      6  C   UNL A   1      43.878  30.814  34.417  1.00  0.00     0.329 C 
ATOM      7  O   UNL A   1      44.188  31.201  35.549  1.00  0.00    -0.250 OA
BRANCH   6   8
ATOM      8  C   UNL A   1      43.816  29.114  34.477  1.00  0.00     0.197 C 
BRANCH   8   9
ATOM      9  N   UNL A   1      42.812  28.036  34.218  1.00  0.00    -0.335 N 
ATOM     10  C   UNL A   1      41.453  28.089  34.304  1.00  0.00     0.293 C 
ATOM     11  O   UNL A   1      40.749  27.149  33.958  1.00  0.00    -0.265 OA
ATOM     12  H   UNL A   1      43.186  27.166  33.947  1.00  0.00     0.164 HD
BRANCH  10  13
ATOM     13  C   UNL A   1      40.902  29.389  34.832  1.00  0.00     0.252 C 
ATOM     14  O   UNL A   1      41.103  29.605  36.023  1.00  0.00    -0.283 OA
BRANCH  13  15
ATOM     15  C   UNL A   1      39.877  30.122  34.155  1.00  0.00     0.054 A 
ATOM     16  N   UNL A   1      37.824  30.788  33.911  1.00  0.00    -0.240 N 
ATOM     17  C   UNL A   1      38.707  29.808  33.469  1.00  0.00     0.117 A 
ATOM     18  C   UNL A   1      38.476  31.491  34.951  1.00  0.00     0.065 A 
ATOM     19  C   UNL A   1      39.784  31.471  34.513  1.00  0.00     0.012 A 
ATOM     20  C   UNL A   1      38.025  32.463  35.856  1.00  0.00     0.028 A 
ATOM     21  C   UNL A   1      40.681  32.470  34.906  1.00  0.00     0.011 A 
ATOM     22  C   UNL A   1      38.900  33.517  36.136  1.00  0.00     0.002 A 
ATOM     23  C   UNL A   1      40.208  33.531  35.660  1.00  0.00     0.001 A 
BRANCH  16  24
ATOM     24  S   UNL A   1      36.918  31.934  33.065  1.00  0.00     0.268 S 
ATOM     25  O   UNL A   1      36.039  31.106  32.248  1.00  0.00    -0.201 OA
ATOM     26  O   UNL A   1      38.025  32.691  32.479  1.00  0.00    -0.201 OA
BRANCH  24  27
ATOM     27  C   UNL A   1      35.881  33.256  33.427  1.00  0.00     0.088 A 
ATOM     28  C   UNL A   1      34.000  37.046  32.877  1.00  0.00     0.044 C 
ATOM     29  C   UNL A   1      34.589  35.698  33.132  1.00  0.00    -0.051 A 
ATOM     30  C   UNL A   1      34.906  34.984  31.996  1.00  0.00     0.005 A 
ATOM     31  C   UNL A   1      34.859  35.154  34.415  1.00  0.00     0.005 A 
ATOM     32  C   UNL A   1      35.503  33.773  32.156  1.00  0.00     0.022 A 
ATOM     33  C   UNL A   1      35.528  33.917  34.580  1.00  0.00     0.022 A 
ENDBRANCH  24  27
ENDBRANCH  16  24
ENDBRANCH  13  15
ENDBRANCH  10  13
ENDBRANCH   8   9
BRANCH   8  34
ATOM     34  C   UNL A   1      45.025  28.534  33.733  1.00  0.00     0.074 C 
BRANCH  34  35
ATOM     35  C   UNL A   1      45.398  27.358  34.495  1.00  0.00    -0.020 A 
ATOM     36  C   UNL A   1      46.412  27.532  35.971  1.00  0.00     0.087 A 
ATOM     37  C   UNL A   1      45.215  25.448  34.115  1.00  0.00     0.003 A 
ATOM     38  N   UNL A   1      46.957  25.788  36.494  1.00  0.00    -0.361 N 
ATOM     39  C   UNL A   1      46.223  24.551  35.330  1.00  0.00     0.046 A 
ATOM     40  C   UNL A   1      44.455  24.615  33.230  1.00  0.00     0.010 A 
ATOM     41  H   UNL A   1      47.536  25.576  37.262  1.00  0.00     0.166 HD
ATOM     42  C   UNL A   1      46.058  23.150  35.385  1.00  0.00     0.026 A 
ATOM     43  C   UNL A   1      44.532  23.209  33.357  1.00  0.00     0.001 A 
ATOM     44  C   UNL A   1      45.246  22.534  34.387  1.00  0.00     0.002 A 
ENDBRANCH  34  35
ENDBRANCH   8  34
ENDBRANCH   6   8
ENDBRANCH   5   6
ENDBRANCH   4   5
ENDBRANCH   3   4
ENDBRANCH   2   3
ENDBRANCH   1   2
BRANCH   1  45
ATOM     45  C   UNL A   1      41.838  35.339  29.267  1.00  0.00     0.188 C 
BRANCH  45  46
ATOM     46  O   UNL A   1      41.225  36.477  28.707  1.00  0.00    -0.376 OA
BRANCH  46  47
ATOM     47  C   UNL A   1      41.823  37.667  28.289  1.00  0.00     0.202 C 
BRANCH  47  48
ATOM     48  C   UNL A   1      42.306  37.497  26.895  1.00  0.00     0.261 C 
BRANCH  48  49
ATOM     49  O   UNL A   1      43.751  37.370  26.689  1.00  0.00    -0.460 OA
BRANCH  49  50
ATOM     50  C   UNL A   1      44.681  36.584  27.305  1.00  0.00     0.338 C 
ATOM     51  O   UNL A   1      45.294  37.006  28.283  1.00  0.00    -0.246 OA
BRANCH  50  52
ATOM     52  C   UNL A   1      44.895  35.170  26.864  1.00  0.00     0.060 A 
ATOM     53  C   UNL A   1      43.798  34.394  26.639  1.00  0.00     0.016 A 
ATOM     54  C   UNL A   1      46.123  34.508  26.774  1.00  0.00     0.016 A 
ATOM     55  C   UNL A   1      44.018  33.006  26.520  1.00  0.00     0.010 A 
ATOM     56  C   UNL A   1      46.220  33.069  26.976  1.00  0.00     0.010 A 
ATOM     57  C   UNL A   1      45.098  32.213  26.998  1.00  0.00    -0.014 A 
BRANCH  57  58
ATOM     58  C   UNL A   1      44.999  30.393  27.407  1.00  0.00     0.031 A 
ATOM     59  C   UNL A   1      46.352  28.867  26.454  1.00  0.00     0.074 A 
ATOM     60  C   UNL A   1      43.759  29.971  28.470  1.00  0.00     0.049 A 
ATOM     61  N   UNL A   1      46.167  27.483  26.220  1.00  0.00    -0.248 NA
ATOM     62  C   UNL A   1      47.844  28.842  25.679  1.00  0.00     0.031 C 
ATOM     63  C   UNL A   1      43.768  29.036  29.718  1.00  0.00     0.029 A 
ATOM     64  N   UNL A   1      42.318  30.299  28.745  1.00  0.00    -0.354 N 
ATOM     65  C   UNL A   1      47.329  26.892  26.579  1.00  0.00     0.074 A 
ATOM     66  C   UNL A   1      48.285  27.590  25.798  1.00  0.00     0.031 C 
ATOM     67  C   UNL A   1      42.525  28.749  30.204  1.00  0.00     0.029 A 
ATOM     68  C   UNL A   1      41.504  29.447  29.453  1.00  0.00     0.049 A 
ATOM     69  H   UNL A   1      41.948  31.147  28.408  1.00  0.00     0.167 HD
ATOM     70  C   UNL A   1      47.392  26.286  27.800  1.00  0.00     0.031 A 
ATOM     71  C   UNL A   1      40.191  29.108  29.160  1.00  0.00     0.031 A 
ATOM     72  C   UNL A   1      46.114  26.043  28.521  1.00  0.00     0.049 A 
ATOM     73  C   UNL A   1      40.312  27.641  28.786  1.00  0.00     0.074 A 
ATOM     74  C   UNL A   1      45.700  26.318  29.819  1.00  0.00     0.029 A 
ATOM     75  N   UNL A   1      44.968  25.584  27.863  1.00  0.00    -0.354 N 
ATOM     76  N   UNL A   1      41.471  27.153  28.421  1.00  0.00    -0.248 NA
ATOM     77  C   UNL A   1      39.281  26.608  28.888  1.00  0.00     0.031 C 
ATOM     78  C   UNL A   1      44.318  25.997  29.940  1.00  0.00     0.029 A 
ATOM     79  C   UNL A   1      43.850  25.578  28.706  1.00  0.00     0.049 A 
ATOM     80  H   UNL A   1      44.950  25.298  26.921  1.00  0.00     0.167 HD
ATOM     81  C   UNL A   1      41.422  25.803  28.424  1.00  0.00     0.074 A 
ATOM     82  C   UNL A   1      40.015  25.500  28.662  1.00  0.00     0.031 C 
ATOM     83  C   UNL A   1      42.548  25.049  28.266  1.00  0.00     0.031 A 
BRANCH  70  84
ATOM     84  C   UNL A   1      48.713  26.119  28.485  1.00  0.00    -0.014 A 
ATOM     85  C   UNL A   1      49.514  27.261  28.620  1.00  0.00     0.010 A 
ATOM     86  C   UNL A   1      49.203  24.911  29.022  1.00  0.00     0.010 A 
ATOM     87  C   UNL A   1      50.661  27.238  29.401  1.00  0.00     0.020 A 
ATOM     88  C   UNL A   1      50.311  24.888  29.860  1.00  0.00     0.020 A 
ATOM     89  C   UNL A   1      51.011  26.068  30.071  1.00  0.00     0.054 A 
BRANCH  89  90
ATOM     90  S   UNL A   1      52.331  26.142  31.288  1.00  0.00     0.124 S 
ATOM     91  O   UNL A   1      52.325  24.782  31.820  1.00  0.00    -0.237 OA
ATOM     92  O   UNL A   1      53.483  26.502  30.469  1.00  0.00    -0.237 OA
ATOM     93  O   UNL A   1      51.884  27.177  32.219  1.00  0.00    -0.744 OA
ENDBRANCH  89  90
ENDBRANCH  70  84
BRANCH  71  94
ATOM     94  C   UNL A   1      39.188  30.088  28.504  1.00  0.00    -0.014 A 
ATOM     95  C   UNL A   1      38.404  29.690  27.394  1.00  0.00     0.010 A 
ATOM     96  C   UNL A   1      38.747  31.255  29.147  1.00  0.00     0.010 A 
ATOM     97  C   UNL A   1      37.100  30.216  27.166  1.00  0.00     0.020 A 
ATOM     98  C   UNL A   1      37.392  31.669  29.041  1.00  0.00     0.020 A 
ATOM     99  C   UNL A   1      36.549  31.105  28.088  1.00  0.00     0.054 A 
BRANCH  99 100
ATOM    100  S   UNL A   1      34.720  31.283  28.287  1.00  0.00     0.124 S 
ATOM    101  O   UNL A   1      34.602  31.929  29.587  1.00  0.00    -0.237 OA
ATOM    102  O   UNL A   1      34.302  32.108  27.156  1.00  0.00    -0.237 OA
ATOM    103  O   UNL A   1      34.248  29.902  28.208  1.00  0.00    -0.744 OA
ENDBRANCH  99 100
ENDBRANCH  71  94
BRANCH  83 104
ATOM    104  C   UNL A   1      42.486  23.650  27.769  1.00  0.00    -0.014 A 
ATOM    105  C   UNL A   1      42.836  22.542  28.550  1.00  0.00     0.010 A 
ATOM    106  C   UNL A   1      41.905  23.418  26.507  1.00  0.00     0.010 A 
ATOM    107  C   UNL A   1      42.727  21.258  28.033  1.00  0.00     0.020 A 
ATOM    108  C   UNL A   1      41.678  22.141  26.034  1.00  0.00     0.020 A 
ATOM    109  C   UNL A   1      42.145  21.072  26.780  1.00  0.00     0.054 A 
BRANCH 109 110
ATOM    110  S   UNL A   1      42.018  19.407  26.128  1.00  0.00     0.124 S 
ATOM    111  O   UNL A   1      42.441  18.612  27.278  1.00  0.00    -0.237 OA
ATOM    112  O   UNL A   1      40.603  19.315  25.781  1.00  0.00    -0.237 OA
ATOM    113  O   UNL A   1      42.937  19.409  24.993  1.00  0.00    -0.744 OA
ENDBRANCH 109 110
ENDBRANCH  83 104
ENDBRANCH  57  58
ENDBRANCH  50  52
ENDBRANCH  49  50
ENDBRANCH  48  49
ENDBRANCH  47  48
ENDBRANCH  46  47
ENDBRANCH  45  46
ENDBRANCH   1  45
TORSDOF 27
ENDMDL
MODEL 2
REMARK VINA RESULT:      -9.2      5.741     13.248
REMARK SMILES Cc1ccc(S(=O)(=O)n2cc(C(=O)C(=O)N[C@@H](Cc3c[nH]c4ccccc34)C(=O)OCCOCCOCCOC(=O)c3ccc(-c4c5nc(c(-c6ccc(S(=O)(=O)[O-])cc6)c6ccc([nH]6)c(-c6ccc(S(=O)(=O)[O-])cc6)c6nc(c(-c7ccc(S(=O)(=O)[O-])cc7)c7ccc4[nH]7)C=C6)C=C5)cc3)c3ccccc32)cc1
REMARK SMILES IDX 34 1 33 2 32 3 31 4 30 5 28 6 29 7 17 8 16 9 14 10 15 11
REMARK SMILES IDX 12 13 13 14 11 15 9 16 10 17 107 18 102 19 106 20 103 21
REMARK SMILES IDX 105 22 104 23 6 24 7 25 8 26 5 27 1 28 2 29 3 30 109 31 4 32
REMARK SMILES IDX 108 33 18 34 19 35 20 36 27 37 21 38 22 39 26 40 23 42 25 43
REMARK SMILES IDX 24 44 35 45 36 46 37 47 38 48 39 49 40 50 41 51 42 52 43 53
REMARK SMILES IDX 101 54 44 55 100 56 45 57 46 58 47 59 94 60 48 61 99 62
REMARK SMILES IDX 93 63 95 64 49 65 98 66 92 67 91 68 50 70 80 71 61 72 79 73
REMARK SMILES IDX 62 74 65 75 78 76 96 77 63 78 64 79 77 81 97 82 66 83 51 84
REMARK SMILES IDX 52 85 60 86 53 87 59 88 54 89 55 90 56 91 57 92 58 93 81 94
REMARK SMILES IDX 82 95 90 96 83 97 89 98 84 99 85 100 86 101 87 102 88 103
REMARK SMILES IDX 67 104 68 105 76 106 69 107 75 108 70 109 71 110 72 111
REMARK SMILES IDX 73 112 74 113
REMARK H PARENT 16 12 21 41 95 69 65 80
REMARK Flexibility Score: inf
ROOT
ATOM      1  C   UNL A   1      35.952  32.884  28.045  1.00  0.00     0.188 C 
ENDROOT
BRANCH   1   2
ATOM      2  O   UNL A   1      34.550  32.909  28.067  1.00  0.00    -0.376 OA
BRANCH   2   3
ATOM      3  C   UNL A   1      34.011  31.645  27.845  1.00  0.00     0.202 C 
BRANCH   3   4
ATOM      4  C   UNL A   1      34.919  30.387  27.656  1.00  0.00     0.261 C 
BRANCH   4   5
ATOM      5  O   UNL A   1      34.480  28.654  27.354  1.00  0.00    -0.462 OA
BRANCH   5   6
ATOM      6  C   UNL A   1      33.570  27.712  26.599  1.00  0.00     0.329 C 
ATOM      7  O   UNL A   1      34.082  26.749  26.017  1.00  0.00    -0.250 OA
BRANCH   6   8
ATOM      8  C   UNL A   1      31.926  27.734  26.162  1.00  0.00     0.197 C 
BRANCH   8   9
ATOM      9  N   UNL A   1      30.646  27.134  26.650  1.00  0.00    -0.335 N 
ATOM     10  C   UNL A   1      30.061  25.953  26.298  1.00  0.00     0.293 C 
ATOM     11  O   UNL A   1      29.057  25.539  26.862  1.00  0.00    -0.265 OA
ATOM     12  H   UNL A   1      30.158  27.665  27.320  1.00  0.00     0.164 HD
BRANCH  10  13
ATOM     13  C   UNL A   1      30.758  25.209  25.188  1.00  0.00     0.252 C 
ATOM     14  O   UNL A   1      30.243  25.309  24.078  1.00  0.00    -0.283 OA
BRANCH  13  15
ATOM     15  C   UNL A   1      31.675  24.140  25.436  1.00  0.00     0.054 A 
ATOM     16  N   UNL A   1      32.269  22.052  25.356  1.00  0.00    -0.240 N 
ATOM     17  C   UNL A   1      31.677  22.979  26.206  1.00  0.00     0.117 A 
ATOM     18  C   UNL A   1      32.406  22.678  24.094  1.00  0.00     0.065 A 
ATOM     19  C   UNL A   1      32.669  23.980  24.465  1.00  0.00     0.012 A 
ATOM     20  C   UNL A   1      32.786  22.186  22.837  1.00  0.00     0.028 A 
ATOM     21  C   UNL A   1      33.393  24.828  23.620  1.00  0.00     0.011 A 
ATOM     22  C   UNL A   1      33.611  23.008  22.063  1.00  0.00     0.002 A 
ATOM     23  C   UNL A   1      33.924  24.308  22.451  1.00  0.00     0.001 A 
BRANCH  16  24
ATOM     24  S   UNL A   1      33.634  21.078  25.548  1.00  0.00     0.268 S 
ATOM     25  O   UNL A   1      33.337  19.938  24.689  1.00  0.00    -0.201 OA
ATOM     26  O   UNL A   1      33.615  20.968  27.007  1.00  0.00    -0.201 OA
BRANCH  24  27
ATOM     27  C   UNL A   1      35.334  21.214  25.334  1.00  0.00     0.088 A 
ATOM     28  C   UNL A   1      39.406  19.936  25.262  1.00  0.00     0.044 C 
ATOM     29  C   UNL A   1      38.006  20.458  25.235  1.00  0.00    -0.051 A 
ATOM     30  C   UNL A   1      37.049  19.523  24.904  1.00  0.00     0.005 A 
ATOM     31  C   UNL A   1      37.625  21.789  25.548  1.00  0.00     0.005 A 
ATOM     32  C   UNL A   1      35.748  19.917  24.919  1.00  0.00     0.022 A 
ATOM     33  C   UNL A   1      36.267  22.185  25.615  1.00  0.00     0.022 A 
ENDBRANCH  24  27
ENDBRANCH  16  24
ENDBRANCH  13  15
ENDBRANCH  10  13
ENDBRANCH   8   9
BRANCH   8  34
ATOM     34  C   UNL A   1      31.473  29.185  25.952  1.00  0.00     0.074 C 
BRANCH  34  35
ATOM     35  C   UNL A   1      30.967  29.220  24.594  1.00  0.00    -0.020 A 
ATOM     36  C   UNL A   1      31.762  28.236  23.315  1.00  0.00     0.087 A 
ATOM     37  C   UNL A   1      29.641  30.369  23.728  1.00  0.00     0.003 A 
ATOM     38  N   UNL A   1      31.045  28.788  21.644  1.00  0.00    -0.361 N 
ATOM     39  C   UNL A   1      29.772  30.100  21.937  1.00  0.00     0.046 A 
ATOM     40  C   UNL A   1      28.586  31.252  24.130  1.00  0.00     0.010 A 
ATOM     41  H   UNL A   1      31.307  28.434  20.764  1.00  0.00     0.166 HD
ATOM     42  C   UNL A   1      28.754  30.656  21.133  1.00  0.00     0.026 A 
ATOM     43  C   UNL A   1      27.747  31.828  23.147  1.00  0.00     0.001 A 
ATOM     44  C   UNL A   1      27.803  31.516  21.760  1.00  0.00     0.002 A 
ENDBRANCH  34  35
ENDBRANCH   8  34
ENDBRANCH   6   8
ENDBRANCH   5   6
ENDBRANCH   4   5
ENDBRANCH   3   4
ENDBRANCH   2   3
ENDBRANCH   1   2
BRANCH   1  45
ATOM     45  C   UNL A   1      36.718  33.521  29.202  1.00  0.00     0.188 C 
BRANCH  45  46
ATOM     46  O   UNL A   1      36.060  33.584  30.447  1.00  0.00    -0.376 OA
BRANCH  46  47
ATOM     47  C   UNL A   1      36.606  33.843  31.705  1.00  0.00     0.202 C 
BRANCH  47  48
ATOM     48  C   UNL A   1      37.131  32.574  32.270  1.00  0.00     0.261 C 
BRANCH  48  49
ATOM     49  O   UNL A   1      36.406  31.341  31.952  1.00  0.00    -0.460 OA
BRANCH  49  50
ATOM     50  C   UNL A   1      36.783  30.232  31.251  1.00  0.00     0.338 C 
ATOM     51  O   UNL A   1      35.966  29.344  31.020  1.00  0.00    -0.246 OA
BRANCH  50  52
ATOM     52  C   UNL A   1      38.158  30.129  30.670  1.00  0.00     0.060 A 
ATOM     53  C   UNL A   1      39.165  29.693  31.478  1.00  0.00     0.016 A 
ATOM     54  C   UNL A   1      38.554  30.556  29.399  1.00  0.00     0.016 A 
ATOM     55  C   UNL A   1      40.481  29.887  31.009  1.00  0.00     0.010 A 
ATOM     56  C   UNL A   1      39.912  31.018  29.149  1.00  0.00     0.010 A 
ATOM     57  C   UNL A   1      40.977  30.817  30.053  1.00  0.00    -0.014 A 
BRANCH  57  58
ATOM     58  C   UNL A   1      42.725  31.471  29.995  1.00  0.00     0.031 A 
ATOM     59  C   UNL A   1      43.186  33.670  29.849  1.00  0.00     0.074 A 
ATOM     60  C   UNL A   1      43.927  30.287  29.965  1.00  0.00     0.049 A 
ATOM     61  N   UNL A   1      44.311  34.347  29.319  1.00  0.00    -0.248 NA
ATOM     62  C   UNL A   1      42.412  35.125  30.180  1.00  0.00     0.031 C 
ATOM     63  C   UNL A   1      45.260  30.174  30.766  1.00  0.00     0.029 A 
ATOM     64  N   UNL A   1      44.211  28.952  29.335  1.00  0.00    -0.354 N 
ATOM     65  C   UNL A   1      44.613  35.314  30.216  1.00  0.00     0.074 A 
ATOM     66  C   UNL A   1      43.389  36.020  30.332  1.00  0.00     0.031 C 
ATOM     67  C   UNL A   1      46.095  29.193  30.316  1.00  0.00     0.029 A 
ATOM     68  C   UNL A   1      45.490  28.460  29.226  1.00  0.00     0.049 A 
ATOM     69  H   UNL A   1      43.459  28.416  28.992  1.00  0.00     0.167 HD
ATOM     70  C   UNL A   1      45.639  35.086  31.086  1.00  0.00     0.031 A 
ATOM     71  C   UNL A   1      46.050  27.824  28.127  1.00  0.00     0.031 A 
ATOM     72  C   UNL A   1      46.551  33.946  30.802  1.00  0.00     0.049 A 
ATOM     73  C   UNL A   1      47.090  28.830  27.667  1.00  0.00     0.074 A 
ATOM     74  C   UNL A   1      47.012  32.894  31.583  1.00  0.00     0.029 A 
ATOM     75  N   UNL A   1      47.003  33.665  29.508  1.00  0.00    -0.354 N 
ATOM     76  N   UNL A   1      46.989  30.085  28.026  1.00  0.00    -0.248 NA
ATOM     77  C   UNL A   1      48.324  28.561  26.928  1.00  0.00     0.031 C 
ATOM     78  C   UNL A   1      47.759  32.002  30.762  1.00  0.00     0.029 A 
ATOM     79  C   UNL A   1      47.718  32.462  29.456  1.00  0.00     0.049 A 
ATOM     80  H   UNL A   1      46.838  34.243  28.728  1.00  0.00     0.167 HD
ATOM     81  C   UNL A   1      48.147  30.731  27.769  1.00  0.00     0.074 A 
ATOM     82  C   UNL A   1      48.938  29.757  27.024  1.00  0.00     0.031 C 
ATOM     83  C   UNL A   1      48.371  31.999  28.220  1.00  0.00     0.031 A 
BRANCH  70  84
ATOM     84  C   UNL A   1      45.675  35.799  32.403  1.00  0.00    -0.014 A 
ATOM     85  C   UNL A   1      46.518  36.913  32.507  1.00  0.00     0.010 A 
ATOM     86  C   UNL A   1      44.911  35.450  33.536  1.00  0.00     0.010 A 
ATOM     87  C   UNL A   1      46.473  37.739  33.621  1.00  0.00     0.020 A 
ATOM     88  C   UNL A   1      44.806  36.303  34.628  1.00  0.00     0.020 A 
ATOM     89  C   UNL A   1      45.566  37.464  34.641  1.00  0.00     0.054 A 
BRANCH  89  90
ATOM     90  S   UNL A   1      45.330  38.694  35.930  1.00  0.00     0.124 S 
ATOM     91  O   UNL A   1      45.129  39.912  35.151  1.00  0.00    -0.237 OA
ATOM     92  O   UNL A   1      44.156  38.183  36.630  1.00  0.00    -0.237 OA
ATOM     93  O   UNL A   1      46.578  38.640  36.691  1.00  0.00    -0.744 OA
ENDBRANCH  89  90
ENDBRANCH  70  84
BRANCH  71  94
ATOM     94  C   UNL A   1      45.241  26.916  27.168  1.00  0.00    -0.014 A 
ATOM     95  C   UNL A   1      45.588  26.815  25.799  1.00  0.00     0.010 A 
ATOM     96  C   UNL A   1      44.381  25.910  27.633  1.00  0.00     0.010 A 
ATOM     97  C   UNL A   1      45.373  25.621  25.054  1.00  0.00     0.020 A 
ATOM     98  C   UNL A   1      44.308  24.657  26.966  1.00  0.00     0.020 A 
ATOM     99  C   UNL A   1      44.859  24.495  25.698  1.00  0.00     0.054 A 
BRANCH  99 100
ATOM    100  S   UNL A   1      45.193  22.787  25.075  1.00  0.00     0.124 S 
ATOM    101  O   UNL A   1      45.687  23.030  23.727  1.00  0.00    -0.237 OA
ATOM    102  O   UNL A   1      46.185  22.242  25.999  1.00  0.00    -0.237 OA
ATOM    103  O   UNL A   1      43.886  22.142  25.175  1.00  0.00    -0.744 OA
ENDBRANCH  99 100
ENDBRANCH  71  94
BRANCH  83 104
ATOM    104  C   UNL A   1      49.357  32.898  27.565  1.00  0.00    -0.014 A 
ATOM    105  C   UNL A   1      49.100  33.578  26.369  1.00  0.00     0.010 A 
ATOM    106  C   UNL A   1      50.546  33.198  28.259  1.00  0.00     0.010 A 
ATOM    107  C   UNL A   1      50.055  34.426  25.826  1.00  0.00     0.020 A 
ATOM    108  C   UNL A   1      51.446  34.133  27.789  1.00  0.00     0.020 A 
ATOM    109  C   UNL A   1      51.218  34.697  26.546  1.00  0.00     0.054 A 
BRANCH 109 110
ATOM    110  S   UNL A   1      52.441  35.792  25.825  1.00  0.00     0.124 S 
ATOM    111  O   UNL A   1      52.668  36.734  26.918  1.00  0.00    -0.237 OA
ATOM    112  O   UNL A   1      53.545  34.880  25.536  1.00  0.00    -0.237 OA
ATOM    113  O   UNL A   1      51.765  36.341  24.653  1.00  0.00    -0.744 OA
ENDBRANCH 109 110
ENDBRANCH  83 104
ENDBRANCH  57  58
ENDBRANCH  50  52
ENDBRANCH  49  50
ENDBRANCH  48  49
ENDBRANCH  47  48
ENDBRANCH  46  47
ENDBRANCH  45  46
ENDBRANCH   1  45
TORSDOF 27
ENDMDL
MODEL 3
REMARK VINA RESULT:      -9.0      7.950     16.809
REMARK SMILES Cc1ccc(S(=O)(=O)n2cc(C(=O)C(=O)N[C@@H](Cc3c[nH]c4ccccc34)C(=O)OCCOCCOCCOC(=O)c3ccc(-c4c5nc(c(-c6ccc(S(=O)(=O)[O-])cc6)c6ccc([nH]6)c(-c6ccc(S(=O)(=O)[O-])cc6)c6nc(c(-c7ccc(S(=O)(=O)[O-])cc7)c7ccc4[nH]7)C=C6)C=C5)cc3)c3ccccc32)cc1
REMARK SMILES IDX 34 1 33 2 32 3 31 4 30 5 28 6 29 7 17 8 16 9 14 10 15 11
REMARK SMILES IDX 12 13 13 14 11 15 9 16 10 17 107 18 102 19 106 20 103 21
REMARK SMILES IDX 105 22 104 23 6 24 7 25 8 26 5 27 1 28 2 29 3 30 109 31 4 32
REMARK SMILES IDX 108 33 18 34 19 35 20 36 27 37 21 38 22 39 26 40 23 42 25 43
REMARK SMILES IDX 24 44 35 45 36 46 37 47 38 48 39 49 40 50 41 51 42 52 43 53
REMARK SMILES IDX 101 54 44 55 100 56 45 57 46 58 47 59 94 60 48 61 99 62
REMARK SMILES IDX 93 63 95 64 49 65 98 66 92 67 91 68 50 70 80 71 61 72 79 73
REMARK SMILES IDX 62 74 65 75 78 76 96 77 63 78 64 79 77 81 97 82 66 83 51 84
REMARK SMILES IDX 52 85 60 86 53 87 59 88 54 89 55 90 56 91 57 92 58 93 81 94
REMARK SMILES IDX 82 95 90 96 83 97 89 98 84 99 85 100 86 101 87 102 88 103
REMARK SMILES IDX 67 104 68 105 76 106 69 107 75 108 70 109 71 110 72 111
REMARK SMILES IDX 73 112 74 113
REMARK H PARENT 16 12 21 41 95 69 65 80
REMARK Flexibility Score: inf
ROOT
ATOM      1  C   UNL A   1      35.844  32.873  27.967  1.00  0.00     0.188 C 
ENDROOT
BRANCH   1   2
ATOM      2  O   UNL A   1      34.656  32.486  28.604  1.00  0.00    -0.376 OA
BRANCH   2   3
ATOM      3  C   UNL A   1      34.504  31.103  28.610  1.00  0.00     0.202 C 
BRANCH   3   4
ATOM      4  C   UNL A   1      35.040  30.213  27.443  1.00  0.00     0.261 C 
BRANCH   4   5
ATOM      5  O   UNL A   1      34.689  28.484  27.024  1.00  0.00    -0.462 OA
BRANCH   5   6
ATOM      6  C   UNL A   1      33.667  27.519  26.468  1.00  0.00     0.329 C 
ATOM      7  O   UNL A   1      34.067  26.432  26.036  1.00  0.00    -0.250 OA
BRANCH   6   8
ATOM      8  C   UNL A   1      32.011  27.620  26.093  1.00  0.00     0.197 C 
BRANCH   8   9
ATOM      9  N   UNL A   1      30.724  27.072  26.622  1.00  0.00    -0.335 N 
ATOM     10  C   UNL A   1      30.058  25.939  26.259  1.00  0.00     0.293 C 
ATOM     11  O   UNL A   1      29.060  25.559  26.858  1.00  0.00    -0.265 OA
ATOM     12  H   UNL A   1      30.297  27.605  27.332  1.00  0.00     0.164 HD
BRANCH  10  13
ATOM     13  C   UNL A   1      30.659  25.198  25.093  1.00  0.00     0.252 C 
ATOM     14  O   UNL A   1      30.110  25.378  24.010  1.00  0.00    -0.283 OA
BRANCH  13  15
ATOM     15  C   UNL A   1      31.511  24.061  25.260  1.00  0.00     0.054 A 
ATOM     16  N   UNL A   1      31.965  21.946  25.058  1.00  0.00    -0.240 N 
ATOM     17  C   UNL A   1      31.457  22.864  25.971  1.00  0.00     0.117 A 
ATOM     18  C   UNL A   1      32.111  22.627  23.826  1.00  0.00     0.065 A 
ATOM     19  C   UNL A   1      32.468  23.889  24.255  1.00  0.00     0.012 A 
ATOM     20  C   UNL A   1      32.426  22.179  22.535  1.00  0.00     0.028 A 
ATOM     21  C   UNL A   1      33.223  24.732  23.433  1.00  0.00     0.011 A 
ATOM     22  C   UNL A   1      33.283  22.986  21.780  1.00  0.00     0.002 A 
ATOM     23  C   UNL A   1      33.689  24.242  22.224  1.00  0.00     0.001 A 
BRANCH  16  24
ATOM     24  S   UNL A   1      33.269  20.879  25.161  1.00  0.00     0.268 S 
ATOM     25  O   UNL A   1      32.849  19.779  24.302  1.00  0.00    -0.201 OA
ATOM     26  O   UNL A   1      33.319  20.742  26.617  1.00  0.00    -0.201 OA
BRANCH  24  27
ATOM     27  C   UNL A   1      34.961  20.904  24.858  1.00  0.00     0.088 A 
ATOM     28  C   UNL A   1      39.013  19.578  25.054  1.00  0.00     0.044 C 
ATOM     29  C   UNL A   1      37.619  20.096  24.911  1.00  0.00    -0.051 A 
ATOM     30  C   UNL A   1      36.640  19.126  24.922  1.00  0.00     0.005 A 
ATOM     31  C   UNL A   1      37.264  21.466  24.804  1.00  0.00     0.005 A 
ATOM     32  C   UNL A   1      35.344  19.533  24.857  1.00  0.00     0.022 A 
ATOM     33  C   UNL A   1      35.914  21.893  24.789  1.00  0.00     0.022 A 
ENDBRANCH  24  27
ENDBRANCH  16  24
ENDBRANCH  13  15
ENDBRANCH  10  13
ENDBRANCH   8   9
BRANCH   8  34
ATOM     34  C   UNL A   1      31.617  29.091  25.911  1.00  0.00     0.074 C 
BRANCH  34  35
ATOM     35  C   UNL A   1      31.088  29.169  24.564  1.00  0.00    -0.020 A 
ATOM     36  C   UNL A   1      31.866  28.232  23.240  1.00  0.00     0.087 A 
ATOM     37  C   UNL A   1      29.743  30.339  23.759  1.00  0.00     0.003 A 
ATOM     38  N   UNL A   1      31.118  28.836  21.601  1.00  0.00    -0.361 N 
ATOM     39  C   UNL A   1      29.844  30.130  21.959  1.00  0.00     0.046 A 
ATOM     40  C   UNL A   1      28.690  31.203  24.208  1.00  0.00     0.010 A 
ATOM     41  H   UNL A   1      31.367  28.512  20.705  1.00  0.00     0.166 HD
ATOM     42  C   UNL A   1      28.810  30.707  21.191  1.00  0.00     0.026 A 
ATOM     43  C   UNL A   1      27.832  31.806  23.258  1.00  0.00     0.001 A 
ATOM     44  C   UNL A   1      27.866  31.541  21.861  1.00  0.00     0.002 A 
ENDBRANCH  34  35
ENDBRANCH   8  34
ENDBRANCH   6   8
ENDBRANCH   5   6
ENDBRANCH   4   5
ENDBRANCH   3   4
ENDBRANCH   2   3
ENDBRANCH   1   2
BRANCH   1  45
ATOM     45  C   UNL A   1      37.014  33.352  28.821  1.00  0.00     0.188 C 
BRANCH  45  46
ATOM     46  O   UNL A   1      37.117  32.819  30.122  1.00  0.00    -0.376 OA
BRANCH  46  47
ATOM     47  C   UNL A   1      37.190  33.504  31.337  1.00  0.00     0.202 C 
BRANCH  47  48
ATOM     48  C   UNL A   1      38.611  33.577  31.762  1.00  0.00     0.261 C 
BRANCH  48  49
ATOM     49  O   UNL A   1      39.593  32.833  30.969  1.00  0.00    -0.460 OA
BRANCH  49  50
ATOM     50  C   UNL A   1      40.954  32.914  30.917  1.00  0.00     0.338 C 
ATOM     51  O   UNL A   1      41.555  32.549  29.909  1.00  0.00    -0.246 OA
BRANCH  50  52
ATOM     52  C   UNL A   1      41.723  33.536  32.040  1.00  0.00     0.060 A 
ATOM     53  C   UNL A   1      41.623  32.973  33.276  1.00  0.00     0.016 A 
ATOM     54  C   UNL A   1      42.451  34.728  31.983  1.00  0.00     0.016 A 
ATOM     55  C   UNL A   1      42.103  33.738  34.361  1.00  0.00     0.010 A 
ATOM     56  C   UNL A   1      42.606  35.573  33.160  1.00  0.00     0.010 A 
ATOM     57  C   UNL A   1      42.293  35.144  34.468  1.00  0.00    -0.014 A 
BRANCH  57  58
ATOM     58  C   UNL A   1      42.261  36.116  36.062  1.00  0.00     0.031 A 
ATOM     59  C   UNL A   1      40.492  36.090  37.455  1.00  0.00     0.074 A 
ATOM     60  C   UNL A   1      43.615  37.085  36.331  1.00  0.00     0.049 A 
ATOM     61  N   UNL A   1      40.038  37.049  38.391  1.00  0.00    -0.248 NA
ATOM     62  C   UNL A   1      39.177  35.092  37.773  1.00  0.00     0.031 C 
ATOM     63  C   UNL A   1      44.480  37.285  37.613  1.00  0.00     0.029 A 
ATOM     64  N   UNL A   1      44.544  37.997  35.580  1.00  0.00    -0.354 N 
ATOM     65  C   UNL A   1      39.718  36.351  39.505  1.00  0.00     0.074 A 
ATOM     66  C   UNL A   1      38.797  35.391  39.015  1.00  0.00     0.031 C 
ATOM     67  C   UNL A   1      45.364  38.323  37.528  1.00  0.00     0.029 A 
ATOM     68  C   UNL A   1      45.306  38.944  36.223  1.00  0.00     0.049 A 
ATOM     69  H   UNL A   1      44.608  37.914  34.601  1.00  0.00     0.167 HD
ATOM     70  C   UNL A   1      40.615  36.335  40.534  1.00  0.00     0.031 A 
ATOM     71  C   UNL A   1      45.526  40.254  35.822  1.00  0.00     0.031 A 
ATOM     72  C   UNL A   1      41.729  37.320  40.498  1.00  0.00     0.049 A 
ATOM     73  C   UNL A   1      44.799  41.046  36.895  1.00  0.00     0.074 A 
ATOM     74  C   UNL A   1      43.104  37.189  40.651  1.00  0.00     0.029 A 
ATOM     75  N   UNL A   1      41.530  38.649  40.111  1.00  0.00    -0.354 N 
ATOM     76  N   UNL A   1      43.873  40.469  37.619  1.00  0.00    -0.248 NA
ATOM     77  C   UNL A   1      45.080  42.412  37.337  1.00  0.00     0.031 C 
ATOM     78  C   UNL A   1      43.720  38.445  40.381  1.00  0.00     0.029 A 
ATOM     79  C   UNL A   1      42.740  39.347  40.002  1.00  0.00     0.049 A 
ATOM     80  H   UNL A   1      40.647  39.047  39.936  1.00  0.00     0.167 HD
ATOM     81  C   UNL A   1      43.576  41.242  38.686  1.00  0.00     0.074 A 
ATOM     82  C   UNL A   1      44.308  42.481  38.441  1.00  0.00     0.031 C 
ATOM     83  C   UNL A   1      42.782  40.787  39.697  1.00  0.00     0.031 A 
BRANCH  70  84
ATOM     84  C   UNL A   1      40.614  35.199  41.510  1.00  0.00    -0.014 A 
ATOM     85  C   UNL A   1      39.778  35.315  42.628  1.00  0.00     0.010 A 
ATOM     86  C   UNL A   1      41.370  34.016  41.379  1.00  0.00     0.010 A 
ATOM     87  C   UNL A   1      39.573  34.238  43.479  1.00  0.00     0.020 A 
ATOM     88  C   UNL A   1      41.125  32.909  42.183  1.00  0.00     0.020 A 
ATOM     89  C   UNL A   1      40.195  33.023  43.207  1.00  0.00     0.054 A 
BRANCH  89  90
ATOM     90  S   UNL A   1      39.699  31.578  44.153  1.00  0.00     0.124 S 
ATOM     91  O   UNL A   1      40.716  30.603  43.770  1.00  0.00    -0.237 OA
ATOM     92  O   UNL A   1      39.772  32.070  45.525  1.00  0.00    -0.237 OA
ATOM     93  O   UNL A   1      38.349  31.294  43.667  1.00  0.00    -0.744 OA
ENDBRANCH  89  90
ENDBRANCH  70  84
BRANCH  71  94
ATOM     94  C   UNL A   1      45.610  40.684  34.337  1.00  0.00    -0.014 A 
ATOM     95  C   UNL A   1      45.108  39.849  33.309  1.00  0.00     0.010 A 
ATOM     96  C   UNL A   1      45.850  42.012  33.952  1.00  0.00     0.010 A 
ATOM     97  C   UNL A   1      44.567  40.381  32.104  1.00  0.00     0.020 A 
ATOM     98  C   UNL A   1      45.167  42.576  32.841  1.00  0.00     0.020 A 
ATOM     99  C   UNL A   1      44.473  41.764  31.947  1.00  0.00     0.054 A 
BRANCH  99 100
ATOM    100  S   UNL A   1      43.212  42.528  30.832  1.00  0.00     0.124 S 
ATOM    101  O   UNL A   1      42.071  41.634  30.982  1.00  0.00    -0.237 OA
ATOM    102  O   UNL A   1      43.007  43.872  31.369  1.00  0.00    -0.237 OA
ATOM    103  O   UNL A   1      43.876  42.513  29.531  1.00  0.00    -0.744 OA
ENDBRANCH  99 100
ENDBRANCH  71  94
BRANCH  83 104
ATOM    104  C   UNL A   1      42.041  41.718  40.587  1.00  0.00    -0.014 A 
ATOM    105  C   UNL A   1      40.802  42.277  40.255  1.00  0.00     0.010 A 
ATOM    106  C   UNL A   1      42.537  41.927  41.890  1.00  0.00     0.010 A 
ATOM    107  C   UNL A   1      40.150  43.117  41.147  1.00  0.00     0.020 A 
ATOM    108  C   UNL A   1      41.837  42.660  42.827  1.00  0.00     0.020 A 
ATOM    109  C   UNL A   1      40.674  43.296  42.427  1.00  0.00     0.054 A 
BRANCH 109 110
ATOM    110  S   UNL A   1      39.820  44.388  43.562  1.00  0.00     0.124 S 
ATOM    111  O   UNL A   1      38.430  44.200  43.156  1.00  0.00    -0.237 OA
ATOM    112  O   UNL A   1      40.180  43.830  44.863  1.00  0.00    -0.237 OA
ATOM    113  O   UNL A   1      40.387  45.702  43.271  1.00  0.00    -0.744 OA
ENDBRANCH 109 110
ENDBRANCH  83 104
ENDBRANCH  57  58
ENDBRANCH  50  52
ENDBRANCH  49  50
ENDBRANCH  48  49
ENDBRANCH  47  48
ENDBRANCH  46  47
ENDBRANCH  45  46
ENDBRANCH   1  45
TORSDOF 27
ENDMDL
