MODEL 1
REMARK VINA RESULT:     -10.4      0.000      0.000
REMARK SMILES Cc1cc2c(c(C)c1Cl)C=C(C(=O)OCCOCCOCCOC(=O)c1ccc(-c3c4nc(c(-c5ccc(S(=O)(=O)[O-])cc5)c5ccc([nH]5)c(-c5ccc(S(=O)(=O)[O-])cc5)c5nc(c(-c6ccc(S(=O)(=O)[O-])cc6)c6ccc3[nH]6)C=C5)C=C4)cc1)[C@@H](C(F)(F)F)O2
REMARK SMILES IDX 19 1 18 2 17 3 16 4 15 5 14 6 12 7 13 8 11 9 1 10 2 11 3 12
REMARK SMILES IDX 8 13 4 14 6 15 9 16 5 17 91 18 7 19 10 20 86 21 87 22 88 23
REMARK SMILES IDX 89 24 90 25 20 26 21 27 22 28 23 29 24 30 25 31 26 32 27 33
REMARK SMILES IDX 85 34 28 35 84 36 29 37 30 38 31 39 78 40 32 41 83 42 77 43
REMARK SMILES IDX 79 44 33 45 82 46 76 47 75 48 34 50 64 51 45 52 63 53 46 54
REMARK SMILES IDX 49 55 62 56 80 57 47 58 48 59 61 61 81 62 50 63 35 64 36 65
REMARK SMILES IDX 44 66 37 67 43 68 38 69 39 70 40 71 41 72 42 73 65 74 66 75
REMARK SMILES IDX 74 76 67 77 73 78 68 79 69 80 70 81 71 82 72 83 51 84 52 85
REMARK SMILES IDX 60 86 53 87 59 88 54 89 55 90 56 91 57 92 58 93
REMARK H PARENT 79 49 49 60
REMARK Flexibility Score: inf
ROOT
ATOM      1  C   UNL A   1      39.557  21.453  26.088  1.00  0.00     0.188 C 
ENDROOT
BRANCH   1   2
ATOM      2  C   UNL A   1      38.173  22.120  25.934  1.00  0.00     0.188 C 
BRANCH   2   3
ATOM      3  O   UNL A   1      37.324  21.768  24.864  1.00  0.00    -0.376 OA
BRANCH   3   4
ATOM      4  C   UNL A   1      36.706  20.496  24.781  1.00  0.00     0.202 C 
BRANCH   4   5
ATOM      5  C   UNL A   1      35.195  20.267  24.899  1.00  0.00     0.261 C 
BRANCH   5   6
ATOM      6  O   UNL A   1      34.370  21.252  24.275  1.00  0.00    -0.460 OA
BRANCH   6   7
ATOM      7  C   UNL A   1      33.060  21.193  24.619  1.00  0.00     0.338 C 
ATOM      8  O   UNL A   1      32.353  20.199  24.646  1.00  0.00    -0.246 OA
BRANCH   7   9
ATOM      9  C   UNL A   1      32.613  22.519  25.075  1.00  0.00     0.087 C 
ATOM     10  C   UNL A   1      31.703  28.836  26.113  1.00  0.00     0.046 C 
ATOM     11  C   UNL A   1      31.822  27.453  25.532  1.00  0.00    -0.028 A 
ATOM     12  C   UNL A   1      31.787  26.357  26.400  1.00  0.00     0.052 A 
ATOM     13  C   UNL A   1      31.954  27.224  24.148  1.00  0.00     0.047 A 
ATOM     14  C   UNL A   1      31.975  25.062  25.921  1.00  0.00     0.128 A 
ATOM     15  C   UNL A   1      32.124  25.914  23.640  1.00  0.00    -0.021 A 
ATOM     16  Cl  UNL A   1      31.922  28.593  23.079  1.00  0.00    -0.084 Cl
ATOM     17  C   UNL A   1      32.189  24.834  24.556  1.00  0.00     0.022 A 
ATOM     18  O   UNL A   1      31.939  24.088  26.878  1.00  0.00    -0.475 OA
ATOM     19  C   UNL A   1      32.250  25.647  22.156  1.00  0.00     0.047 C 
ATOM     20  C   UNL A   1      32.541  23.478  24.143  1.00  0.00     0.027 C 
ATOM     21  C   UNL A   1      32.284  22.726  26.523  1.00  0.00     0.316 C 
BRANCH  21  22
ATOM     22  C   UNL A   1      33.406  22.259  27.463  1.00  0.00     0.430 C 
ATOM     23  F   UNL A   1      33.479  20.906  27.503  1.00  0.00    -0.167 F 
ATOM     24  F   UNL A   1      34.622  22.695  27.056  1.00  0.00    -0.167 F 
ATOM     25  F   UNL A   1      33.224  22.692  28.730  1.00  0.00    -0.167 F 
ENDBRANCH  21  22
ENDBRANCH   7   9
ENDBRANCH   6   7
ENDBRANCH   5   6
ENDBRANCH   4   5
ENDBRANCH   3   4
ENDBRANCH   2   3
ENDBRANCH   1   2
BRANCH   1  26
ATOM     26  O   UNL A   1      40.237  21.458  27.329  1.00  0.00    -0.376 OA
BRANCH  26  27
ATOM     27  C   UNL A   1      41.184  22.482  27.595  1.00  0.00     0.202 C 
BRANCH  27  28
ATOM     28  C   UNL A   1      41.620  23.459  26.499  1.00  0.00     0.261 C 
BRANCH  28  29
ATOM     29  O   UNL A   1      40.696  24.526  26.251  1.00  0.00    -0.460 OA
BRANCH  29  30
ATOM     30  C   UNL A   1      41.262  25.751  26.101  1.00  0.00     0.338 C 
ATOM     31  O   UNL A   1      41.552  26.307  25.055  1.00  0.00    -0.246 OA
BRANCH  30  32
ATOM     32  C   UNL A   1      41.310  26.430  27.409  1.00  0.00     0.060 A 
ATOM     33  C   UNL A   1      40.266  26.196  28.313  1.00  0.00     0.016 A 
ATOM     34  C   UNL A   1      42.340  27.318  27.722  1.00  0.00     0.016 A 
ATOM     35  C   UNL A   1      40.239  26.867  29.533  1.00  0.00     0.010 A 
ATOM     36  C   UNL A   1      42.294  28.012  28.935  1.00  0.00     0.010 A 
ATOM     37  C   UNL A   1      41.232  27.808  29.832  1.00  0.00    -0.014 A 
BRANCH  37  38
ATOM     38  C   UNL A   1      41.062  28.702  31.002  1.00  0.00     0.031 A 
ATOM     39  C   UNL A   1      40.000  29.765  30.944  1.00  0.00     0.074 A 
ATOM     40  C   UNL A   1      41.818  28.554  32.105  1.00  0.00     0.049 A 
ATOM     41  N   UNL A   1      39.694  30.676  31.830  1.00  0.00    -0.248 NA
ATOM     42  C   UNL A   1      39.165  29.799  29.731  1.00  0.00     0.031 C 
ATOM     43  C   UNL A   1      42.837  27.525  32.305  1.00  0.00     0.029 A 
ATOM     44  N   UNL A   1      41.839  29.281  33.270  1.00  0.00    -0.354 N 
ATOM     45  C   UNL A   1      38.630  31.386  31.287  1.00  0.00     0.074 A 
ATOM     46  C   UNL A   1      38.358  30.818  29.985  1.00  0.00     0.031 C 
ATOM     47  C   UNL A   1      43.391  27.692  33.519  1.00  0.00     0.029 A 
ATOM     48  C   UNL A   1      42.790  28.857  34.167  1.00  0.00     0.049 A 
ATOM     49  H   UNL A   1      41.232  30.036  33.445  1.00  0.00     0.167 HD
ATOM     50  C   UNL A   1      37.937  32.415  31.827  1.00  0.00     0.031 A 
ATOM     51  C   UNL A   1      43.147  29.366  35.365  1.00  0.00     0.031 A 
ATOM     52  C   UNL A   1      38.225  32.999  33.108  1.00  0.00     0.049 A 
ATOM     53  C   UNL A   1      42.430  30.583  35.895  1.00  0.00     0.074 A 
ATOM     54  C   UNL A   1      37.589  34.059  33.731  1.00  0.00     0.029 A 
ATOM     55  N   UNL A   1      39.233  32.578  33.961  1.00  0.00    -0.354 N 
ATOM     56  N   UNL A   1      41.427  31.244  35.369  1.00  0.00    -0.248 NA
ATOM     57  C   UNL A   1      42.894  31.120  37.184  1.00  0.00     0.031 C 
ATOM     58  C   UNL A   1      38.247  34.312  34.939  1.00  0.00     0.029 A 
ATOM     59  C   UNL A   1      39.251  33.371  35.094  1.00  0.00     0.049 A 
ATOM     60  H   UNL A   1      39.845  31.827  33.786  1.00  0.00     0.167 HD
ATOM     61  C   UNL A   1      41.123  32.256  36.275  1.00  0.00     0.074 A 
ATOM     62  C   UNL A   1      42.041  32.115  37.386  1.00  0.00     0.031 C 
ATOM     63  C   UNL A   1      40.168  33.214  36.196  1.00  0.00     0.031 A 
BRANCH  50  64
ATOM     64  C   UNL A   1      36.809  32.995  31.022  1.00  0.00    -0.014 A 
ATOM     65  C   UNL A   1      35.471  32.746  31.375  1.00  0.00     0.010 A 
ATOM     66  C   UNL A   1      37.088  33.856  29.945  1.00  0.00     0.010 A 
ATOM     67  C   UNL A   1      34.430  33.340  30.657  1.00  0.00     0.020 A 
ATOM     68  C   UNL A   1      36.050  34.469  29.238  1.00  0.00     0.020 A 
ATOM     69  C   UNL A   1      34.726  34.201  29.595  1.00  0.00     0.054 A 
BRANCH  69  70
ATOM     70  S   UNL A   1      33.356  35.000  28.717  1.00  0.00     0.124 S 
ATOM     71  O   UNL A   1      34.052  36.021  27.936  1.00  0.00    -0.237 OA
ATOM     72  O   UNL A   1      32.786  33.899  27.945  1.00  0.00    -0.237 OA
ATOM     73  O   UNL A   1      32.506  35.511  29.790  1.00  0.00    -0.744 OA
ENDBRANCH  69  70
ENDBRANCH  50  64
BRANCH  51  74
ATOM     74  C   UNL A   1      44.253  28.744  36.143  1.00  0.00    -0.014 A 
ATOM     75  C   UNL A   1      43.995  27.691  37.039  1.00  0.00     0.010 A 
ATOM     76  C   UNL A   1      45.570  29.219  36.008  1.00  0.00     0.010 A 
ATOM     77  C   UNL A   1      45.030  27.139  37.801  1.00  0.00     0.020 A 
ATOM     78  C   UNL A   1      46.611  28.653  36.749  1.00  0.00     0.020 A 
ATOM     79  C   UNL A   1      46.332  27.625  37.650  1.00  0.00     0.054 A 
BRANCH  79  80
ATOM     80  S   UNL A   1      47.664  26.870  38.625  1.00  0.00     0.124 S 
ATOM     81  O   UNL A   1      47.023  25.659  39.129  1.00  0.00    -0.237 OA
ATOM     82  O   UNL A   1      48.709  26.667  37.625  1.00  0.00    -0.237 OA
ATOM     83  O   UNL A   1      47.966  27.884  39.633  1.00  0.00    -0.744 OA
ENDBRANCH  79  80
ENDBRANCH  51  74
BRANCH  63  84
ATOM     84  C   UNL A   1      40.030  34.171  37.351  1.00  0.00    -0.014 A 
ATOM     85  C   UNL A   1      40.711  35.400  37.364  1.00  0.00     0.010 A 
ATOM     86  C   UNL A   1      39.137  33.869  38.397  1.00  0.00     0.010 A 
ATOM     87  C   UNL A   1      40.516  36.304  38.412  1.00  0.00     0.020 A 
ATOM     88  C   UNL A   1      38.921  34.781  39.434  1.00  0.00     0.020 A 
ATOM     89  C   UNL A   1      39.620  35.989  39.440  1.00  0.00     0.054 A 
BRANCH  89  90
ATOM     90  S   UNL A   1      39.340  37.205  40.757  1.00  0.00     0.124 S 
ATOM     91  O   UNL A   1      38.869  36.364  41.854  1.00  0.00    -0.237 OA
ATOM     92  O   UNL A   1      40.667  37.790  40.939  1.00  0.00    -0.237 OA
ATOM     93  O   UNL A   1      38.341  38.108  40.190  1.00  0.00    -0.744 OA
ENDBRANCH  89  90
ENDBRANCH  63  84
ENDBRANCH  37  38
ENDBRANCH  30  32
ENDBRANCH  29  30
ENDBRANCH  28  29
ENDBRANCH  27  28
ENDBRANCH  26  27
ENDBRANCH   1  26
TORSDOF 21
ENDMDL
MODEL 2
REMARK VINA RESULT:     -10.2      6.281     11.704
REMARK SMILES Cc1cc2c(c(C)c1Cl)C=C(C(=O)OCCOCCOCCOC(=O)c1ccc(-c3c4nc(c(-c5ccc(S(=O)(=O)[O-])cc5)c5ccc([nH]5)c(-c5ccc(S(=O)(=O)[O-])cc5)c5nc(c(-c6ccc(S(=O)(=O)[O-])cc6)c6ccc3[nH]6)C=C5)C=C4)cc1)[C@@H](C(F)(F)F)O2
REMARK SMILES IDX 19 1 18 2 17 3 16 4 15 5 14 6 12 7 13 8 11 9 1 10 2 11 3 12
REMARK SMILES IDX 8 13 4 14 6 15 9 16 5 17 91 18 7 19 10 20 86 21 87 22 88 23
REMARK SMILES IDX 89 24 90 25 20 26 21 27 22 28 23 29 24 30 25 31 26 32 27 33
REMARK SMILES IDX 85 34 28 35 84 36 29 37 30 38 31 39 78 40 32 41 83 42 77 43
REMARK SMILES IDX 79 44 33 45 82 46 76 47 75 48 34 50 64 51 45 52 63 53 46 54
REMARK SMILES IDX 49 55 62 56 80 57 47 58 48 59 61 61 81 62 50 63 35 64 36 65
REMARK SMILES IDX 44 66 37 67 43 68 38 69 39 70 40 71 41 72 42 73 65 74 66 75
REMARK SMILES IDX 74 76 67 77 73 78 68 79 69 80 70 81 71 82 72 83 51 84 52 85
REMARK SMILES IDX 60 86 53 87 59 88 54 89 55 90 56 91 57 92 58 93
REMARK H PARENT 79 49 49 60
REMARK Flexibility Score: inf
ROOT
ATOM      1  C   UNL A   1      34.431  32.094  28.244  1.00  0.00     0.188 C 
ENDROOT
BRANCH   1   2
ATOM      2  C   UNL A   1      34.220  30.872  27.326  1.00  0.00     0.188 C 
BRANCH   2   3
ATOM      3  O   UNL A   1      33.700  29.668  27.845  1.00  0.00    -0.376 OA
BRANCH   3   4
ATOM      4  C   UNL A   1      32.948  28.769  27.048  1.00  0.00     0.202 C 
BRANCH   4   5
ATOM      5  C   UNL A   1      33.555  27.858  25.977  1.00  0.00     0.261 C 
BRANCH   5   6
ATOM      6  O   UNL A   1      32.645  27.381  24.982  1.00  0.00    -0.460 OA
BRANCH   6   7
ATOM      7  C   UNL A   1      33.226  26.700  23.965  1.00  0.00     0.338 C 
ATOM      8  O   UNL A   1      33.746  27.173  22.968  1.00  0.00    -0.246 OA
BRANCH   7   9
ATOM      9  C   UNL A   1      33.242  25.262  24.284  1.00  0.00     0.087 C 
ATOM     10  C   UNL A   1      34.477  18.930  24.716  1.00  0.00     0.046 C 
ATOM     11  C   UNL A   1      34.529  20.434  24.739  1.00  0.00    -0.028 A 
ATOM     12  C   UNL A   1      33.325  21.146  24.743  1.00  0.00     0.052 A 
ATOM     13  C   UNL A   1      35.744  21.147  24.770  1.00  0.00     0.047 A 
ATOM     14  C   UNL A   1      33.320  22.537  24.681  1.00  0.00     0.128 A 
ATOM     15  C   UNL A   1      35.759  22.562  24.732  1.00  0.00    -0.021 A 
ATOM     16  Cl  UNL A   1      37.228  20.246  24.839  1.00  0.00    -0.084 Cl
ATOM     17  C   UNL A   1      34.523  23.250  24.629  1.00  0.00     0.022 A 
ATOM     18  O   UNL A   1      32.077  23.104  24.669  1.00  0.00    -0.475 OA
ATOM     19  C   UNL A   1      37.052  23.345  24.781  1.00  0.00     0.047 C 
ATOM     20  C   UNL A   1      34.448  24.691  24.402  1.00  0.00     0.027 C 
ATOM     21  C   UNL A   1      31.944  24.529  24.442  1.00  0.00     0.316 C 
BRANCH  21  22
ATOM     22  C   UNL A   1      30.993  24.735  23.254  1.00  0.00     0.430 C 
ATOM     23  F   UNL A   1      30.192  23.656  23.075  1.00  0.00    -0.167 F 
ATOM     24  F   UNL A   1      30.170  25.794  23.442  1.00  0.00    -0.167 F 
ATOM     25  F   UNL A   1      31.658  24.941  22.096  1.00  0.00    -0.167 F 
ENDBRANCH  21  22
ENDBRANCH   7   9
ENDBRANCH   6   7
ENDBRANCH   5   6
ENDBRANCH   4   5
ENDBRANCH   3   4
ENDBRANCH   2   3
ENDBRANCH   1   2
BRANCH   1  26
ATOM     26  O   UNL A   1      35.680  32.336  28.865  1.00  0.00    -0.376 OA
BRANCH  26  27
ATOM     27  C   UNL A   1      35.722  33.095  30.064  1.00  0.00     0.202 C 
BRANCH  27  28
ATOM     28  C   UNL A   1      35.527  32.427  31.429  1.00  0.00     0.261 C 
BRANCH  28  29
ATOM     29  O   UNL A   1      36.686  31.749  31.931  1.00  0.00    -0.460 OA
BRANCH  29  30
ATOM     30  C   UNL A   1      36.853  30.482  31.472  1.00  0.00     0.338 C 
ATOM     31  O   UNL A   1      36.003  29.613  31.380  1.00  0.00    -0.246 OA
BRANCH  30  32
ATOM     32  C   UNL A   1      38.205  30.343  30.902  1.00  0.00     0.060 A 
ATOM     33  C   UNL A   1      38.321  30.108  29.526  1.00  0.00     0.016 A 
ATOM     34  C   UNL A   1      39.338  30.396  31.715  1.00  0.00     0.016 A 
ATOM     35  C   UNL A   1      39.576  29.906  28.957  1.00  0.00     0.010 A 
ATOM     36  C   UNL A   1      40.594  30.164  31.146  1.00  0.00     0.010 A 
ATOM     37  C   UNL A   1      40.715  29.893  29.772  1.00  0.00    -0.014 A 
BRANCH  37  38
ATOM     38  C   UNL A   1      42.006  29.425  29.215  1.00  0.00     0.031 A 
ATOM     39  C   UNL A   1      43.138  30.409  29.103  1.00  0.00     0.074 A 
ATOM     40  C   UNL A   1      42.179  28.144  28.843  1.00  0.00     0.049 A 
ATOM     41  N   UNL A   1      44.340  30.234  28.619  1.00  0.00    -0.248 NA
ATOM     42  C   UNL A   1      42.884  31.768  29.612  1.00  0.00     0.031 C 
ATOM     43  C   UNL A   1      41.178  27.084  28.960  1.00  0.00     0.029 A 
ATOM     44  N   UNL A   1      43.269  27.520  28.288  1.00  0.00    -0.354 N 
ATOM     45  C   UNL A   1      44.987  31.454  28.772  1.00  0.00     0.074 A 
ATOM     46  C   UNL A   1      44.040  32.368  29.368  1.00  0.00     0.031 C 
ATOM     47  C   UNL A   1      41.700  25.939  28.481  1.00  0.00     0.029 A 
ATOM     48  C   UNL A   1      43.056  26.194  27.997  1.00  0.00     0.049 A 
ATOM     49  H   UNL A   1      44.122  27.980  28.115  1.00  0.00     0.167 HD
ATOM     50  C   UNL A   1      46.259  31.781  28.449  1.00  0.00     0.031 A 
ATOM     51  C   UNL A   1      43.858  25.296  27.389  1.00  0.00     0.031 A 
ATOM     52  C   UNL A   1      47.193  30.881  27.829  1.00  0.00     0.049 A 
ATOM     53  C   UNL A   1      45.235  25.718  26.939  1.00  0.00     0.074 A 
ATOM     54  C   UNL A   1      48.500  31.130  27.447  1.00  0.00     0.029 A 
ATOM     55  N   UNL A   1      46.921  29.564  27.497  1.00  0.00    -0.354 N 
ATOM     56  N   UNL A   1      45.833  26.876  27.088  1.00  0.00    -0.248 NA
ATOM     57  C   UNL A   1      46.046  24.709  26.239  1.00  0.00     0.031 C 
ATOM     58  C   UNL A   1      49.001  29.976  26.836  1.00  0.00     0.029 A 
ATOM     59  C   UNL A   1      48.027  28.993  26.894  1.00  0.00     0.049 A 
ATOM     60  H   UNL A   1      46.068  29.103  27.666  1.00  0.00     0.167 HD
ATOM     61  C   UNL A   1      47.098  26.725  26.527  1.00  0.00     0.074 A 
ATOM     62  C   UNL A   1      47.184  25.363  26.044  1.00  0.00     0.031 C 
ATOM     63  C   UNL A   1      48.100  27.632  26.424  1.00  0.00     0.031 A 
BRANCH  50  64
ATOM     64  C   UNL A   1      46.714  33.184  28.739  1.00  0.00    -0.014 A 
ATOM     65  C   UNL A   1      47.325  33.503  29.964  1.00  0.00     0.010 A 
ATOM     66  C   UNL A   1      46.596  34.176  27.750  1.00  0.00     0.010 A 
ATOM     67  C   UNL A   1      47.799  34.796  30.200  1.00  0.00     0.020 A 
ATOM     68  C   UNL A   1      47.088  35.465  27.974  1.00  0.00     0.020 A 
ATOM     69  C   UNL A   1      47.681  35.768  29.201  1.00  0.00     0.054 A 
BRANCH  69  70
ATOM     70  S   UNL A   1      48.355  37.422  29.515  1.00  0.00     0.124 S 
ATOM     71  O   UNL A   1      49.790  37.152  29.594  1.00  0.00    -0.237 OA
ATOM     72  O   UNL A   1      47.922  38.172  28.339  1.00  0.00    -0.237 OA
ATOM     73  O   UNL A   1      47.729  37.821  30.773  1.00  0.00    -0.744 OA
ENDBRANCH  69  70
ENDBRANCH  50  64
BRANCH  51  74
ATOM     74  C   UNL A   1      43.379  23.908  27.144  1.00  0.00    -0.014 A 
ATOM     75  C   UNL A   1      42.952  23.513  25.863  1.00  0.00     0.010 A 
ATOM     76  C   UNL A   1      43.325  22.978  28.198  1.00  0.00     0.010 A 
ATOM     77  C   UNL A   1      42.460  22.222  25.647  1.00  0.00     0.020 A 
ATOM     78  C   UNL A   1      42.859  21.679  27.980  1.00  0.00     0.020 A 
ATOM     79  C   UNL A   1      42.418  21.312  26.708  1.00  0.00     0.054 A 
BRANCH  79  80
ATOM     80  S   UNL A   1      41.808  19.633  26.395  1.00  0.00     0.124 S 
ATOM     81  O   UNL A   1      40.367  19.846  26.296  1.00  0.00    -0.237 OA
ATOM     82  O   UNL A   1      42.484  19.279  25.150  1.00  0.00    -0.237 OA
ATOM     83  O   UNL A   1      42.251  18.884  27.570  1.00  0.00    -0.744 OA
ENDBRANCH  79  80
ENDBRANCH  51  74
BRANCH  63  84
ATOM     84  C   UNL A   1      49.395  27.184  25.799  1.00  0.00    -0.014 A 
ATOM     85  C   UNL A   1      49.689  27.465  24.454  1.00  0.00     0.010 A 
ATOM     86  C   UNL A   1      50.366  26.550  26.597  1.00  0.00     0.010 A 
ATOM     87  C   UNL A   1      50.926  27.102  23.912  1.00  0.00     0.020 A 
ATOM     88  C   UNL A   1      51.612  26.209  26.066  1.00  0.00     0.020 A 
ATOM     89  C   UNL A   1      51.881  26.478  24.723  1.00  0.00     0.054 A 
BRANCH  89  90
ATOM     90  S   UNL A   1      53.499  26.072  24.010  1.00  0.00     0.124 S 
ATOM     91  O   UNL A   1      53.849  24.848  24.725  1.00  0.00    -0.237 OA
ATOM     92  O   UNL A   1      53.191  25.904  22.591  1.00  0.00    -0.237 OA
ATOM     93  O   UNL A   1      54.321  27.236  24.329  1.00  0.00    -0.744 OA
ENDBRANCH  89  90
ENDBRANCH  63  84
ENDBRANCH  37  38
ENDBRANCH  30  32
ENDBRANCH  29  30
ENDBRANCH  28  29
ENDBRANCH  27  28
ENDBRANCH  26  27
ENDBRANCH   1  26
TORSDOF 21
ENDMDL
MODEL 3
REMARK VINA RESULT:      -9.9      1.853      8.079
REMARK SMILES Cc1cc2c(c(C)c1Cl)C=C(C(=O)OCCOCCOCCOC(=O)c1ccc(-c3c4nc(c(-c5ccc(S(=O)(=O)[O-])cc5)c5ccc([nH]5)c(-c5ccc(S(=O)(=O)[O-])cc5)c5nc(c(-c6ccc(S(=O)(=O)[O-])cc6)c6ccc3[nH]6)C=C5)C=C4)cc1)[C@@H](C(F)(F)F)O2
REMARK SMILES IDX 19 1 18 2 17 3 16 4 15 5 14 6 12 7 13 8 11 9 1 10 2 11 3 12
REMARK SMILES IDX 8 13 4 14 6 15 9 16 5 17 91 18 7 19 10 20 86 21 87 22 88 23
REMARK SMILES IDX 89 24 90 25 20 26 21 27 22 28 23 29 24 30 25 31 26 32 27 33
REMARK SMILES IDX 85 34 28 35 84 36 29 37 30 38 31 39 78 40 32 41 83 42 77 43
REMARK SMILES IDX 79 44 33 45 82 46 76 47 75 48 34 50 64 51 45 52 63 53 46 54
REMARK SMILES IDX 49 55 62 56 80 57 47 58 48 59 61 61 81 62 50 63 35 64 36 65
REMARK SMILES IDX 44 66 37 67 43 68 38 69 39 70 40 71 41 72 42 73 65 74 66 75
REMARK SMILES IDX 74 76 67 77 73 78 68 79 69 80 70 81 71 82 72 83 51 84 52 85
REMARK SMILES IDX 60 86 53 87 59 88 54 89 55 90 56 91 57 92 58 93
REMARK H PARENT 79 49 49 60
REMARK Flexibility Score: inf
ROOT
ATOM      1  C   UNL A   1      41.022  21.869  26.188  1.00  0.00     0.188 C 
ENDROOT
BRANCH   1   2
ATOM      2  C   UNL A   1      39.912  22.424  27.107  1.00  0.00     0.188 C 
BRANCH   2   3
ATOM      3  O   UNL A   1      39.304  23.666  26.826  1.00  0.00    -0.376 OA
BRANCH   3   4
ATOM      4  C   UNL A   1      38.095  23.762  26.094  1.00  0.00     0.202 C 
BRANCH   4   5
ATOM      5  C   UNL A   1      37.230  22.558  25.705  1.00  0.00     0.261 C 
BRANCH   5   6
ATOM      6  O   UNL A   1      35.885  22.860  25.325  1.00  0.00    -0.460 OA
BRANCH   6   7
ATOM      7  C   UNL A   1      35.685  22.967  23.989  1.00  0.00     0.338 C 
ATOM      8  O   UNL A   1      36.447  22.617  23.103  1.00  0.00    -0.246 OA
BRANCH   7   9
ATOM      9  C   UNL A   1      34.329  23.482  23.737  1.00  0.00     0.087 C 
ATOM     10  C   UNL A   1      28.684  26.635  23.814  1.00  0.00     0.046 C 
ATOM     11  C   UNL A   1      30.133  26.233  23.742  1.00  0.00    -0.028 A 
ATOM     12  C   UNL A   1      30.445  24.898  23.466  1.00  0.00     0.052 A 
ATOM     13  C   UNL A   1      31.182  27.155  23.931  1.00  0.00     0.047 A 
ATOM     14  C   UNL A   1      31.767  24.460  23.471  1.00  0.00     0.128 A 
ATOM     15  C   UNL A   1      32.533  26.733  23.916  1.00  0.00    -0.021 A 
ATOM     16  Cl  UNL A   1      30.776  28.822  24.201  1.00  0.00    -0.084 Cl
ATOM     17  C   UNL A   1      32.811  25.354  23.739  1.00  0.00     0.022 A 
ATOM     18  O   UNL A   1      31.929  23.129  23.208  1.00  0.00    -0.475 OA
ATOM     19  C   UNL A   1      33.673  27.710  24.100  1.00  0.00     0.047 C 
ATOM     20  C   UNL A   1      34.155  24.801  23.889  1.00  0.00     0.027 C 
ATOM     21  C   UNL A   1      33.240  22.528  23.347  1.00  0.00     0.316 C 
BRANCH  21  22
ATOM     22  C   UNL A   1      33.119  21.337  24.307  1.00  0.00     0.430 C 
ATOM     23  F   UNL A   1      31.995  20.619  24.057  1.00  0.00    -0.167 F 
ATOM     24  F   UNL A   1      34.156  20.476  24.181  1.00  0.00    -0.167 F 
ATOM     25  F   UNL A   1      33.070  21.725  25.601  1.00  0.00    -0.167 F 
ENDBRANCH  21  22
ENDBRANCH   7   9
ENDBRANCH   6   7
ENDBRANCH   5   6
ENDBRANCH   4   5
ENDBRANCH   3   4
ENDBRANCH   2   3
ENDBRANCH   1   2
BRANCH   1  26
ATOM     26  O   UNL A   1      42.389  22.017  26.522  1.00  0.00    -0.376 OA
BRANCH  26  27
ATOM     27  C   UNL A   1      42.869  23.290  26.928  1.00  0.00     0.202 C 
BRANCH  27  28
ATOM     28  C   UNL A   1      42.677  24.526  26.043  1.00  0.00     0.261 C 
BRANCH  28  29
ATOM     29  O   UNL A   1      42.544  25.758  26.762  1.00  0.00    -0.460 OA
BRANCH  29  30
ATOM     30  C   UNL A   1      41.407  26.453  26.504  1.00  0.00     0.338 C 
ATOM     31  O   UNL A   1      40.667  26.326  25.543  1.00  0.00    -0.246 OA
BRANCH  30  32
ATOM     32  C   UNL A   1      41.067  27.284  27.672  1.00  0.00     0.060 A 
ATOM     33  C   UNL A   1      41.559  28.595  27.716  1.00  0.00     0.016 A 
ATOM     34  C   UNL A   1      40.316  26.768  28.730  1.00  0.00     0.016 A 
ATOM     35  C   UNL A   1      41.317  29.393  28.832  1.00  0.00     0.010 A 
ATOM     36  C   UNL A   1      40.099  27.561  29.860  1.00  0.00     0.010 A 
ATOM     37  C   UNL A   1      40.619  28.866  29.926  1.00  0.00    -0.014 A 
BRANCH  37  38
ATOM     38  C   UNL A   1      40.587  29.618  31.202  1.00  0.00     0.031 A 
ATOM     39  C   UNL A   1      41.689  29.386  32.199  1.00  0.00     0.074 A 
ATOM     40  C   UNL A   1      39.614  30.510  31.459  1.00  0.00     0.049 A 
ATOM     41  N   UNL A   1      41.849  29.903  33.389  1.00  0.00    -0.248 NA
ATOM     42  C   UNL A   1      42.757  28.453  31.798  1.00  0.00     0.031 C 
ATOM     43  C   UNL A   1      38.527  30.866  30.549  1.00  0.00     0.029 A 
ATOM     44  N   UNL A   1      39.388  31.280  32.573  1.00  0.00    -0.354 N 
ATOM     45  C   UNL A   1      43.036  29.367  33.875  1.00  0.00     0.074 A 
ATOM     46  C   UNL A   1      43.542  28.466  32.865  1.00  0.00     0.031 C 
ATOM     47  C   UNL A   1      37.742  31.782  31.146  1.00  0.00     0.029 A 
ATOM     48  C   UNL A   1      38.253  32.052  32.490  1.00  0.00     0.049 A 
ATOM     49  H   UNL A   1      39.982  31.280  33.358  1.00  0.00     0.167 HD
ATOM     50  C   UNL A   1      43.651  29.610  35.055  1.00  0.00     0.031 A 
ATOM     51  C   UNL A   1      37.682  32.864  33.403  1.00  0.00     0.031 A 
ATOM     52  C   UNL A   1      43.134  30.484  36.071  1.00  0.00     0.049 A 
ATOM     53  C   UNL A   1      38.332  33.031  34.754  1.00  0.00     0.074 A 
ATOM     54  C   UNL A   1      43.679  30.777  37.310  1.00  0.00     0.029 A 
ATOM     55  N   UNL A   1      41.953  31.201  35.973  1.00  0.00    -0.354 N 
ATOM     56  N   UNL A   1      39.453  32.517  35.200  1.00  0.00    -0.248 NA
ATOM     57  C   UNL A   1      37.639  33.893  35.724  1.00  0.00     0.031 C 
ATOM     58  C   UNL A   1      42.800  31.633  37.980  1.00  0.00     0.029 A 
ATOM     59  C   UNL A   1      41.740  31.919  37.136  1.00  0.00     0.049 A 
ATOM     60  H   UNL A   1      41.355  31.200  35.191  1.00  0.00     0.167 HD
ATOM     61  C   UNL A   1      39.613  33.014  36.490  1.00  0.00     0.074 A 
ATOM     62  C   UNL A   1      38.480  33.877  36.750  1.00  0.00     0.031 C 
ATOM     63  C   UNL A   1      40.610  32.780  37.378  1.00  0.00     0.031 A 
BRANCH  50  64
ATOM     64  C   UNL A   1      44.949  28.900  35.324  1.00  0.00    -0.014 A 
ATOM     65  C   UNL A   1      44.960  27.588  35.829  1.00  0.00     0.010 A 
ATOM     66  C   UNL A   1      46.167  29.524  35.003  1.00  0.00     0.010 A 
ATOM     67  C   UNL A   1      46.170  26.916  36.019  1.00  0.00     0.020 A 
ATOM     68  C   UNL A   1      47.378  28.847  35.171  1.00  0.00     0.020 A 
ATOM     69  C   UNL A   1      47.371  27.549  35.685  1.00  0.00     0.054 A 
BRANCH  69  70
ATOM     70  S   UNL A   1      48.921  26.631  35.889  1.00  0.00     0.124 S 
ATOM     71  O   UNL A   1      48.666  25.427  35.100  1.00  0.00    -0.237 OA
ATOM     72  O   UNL A   1      49.912  27.548  35.332  1.00  0.00    -0.237 OA
ATOM     73  O   UNL A   1      49.013  26.419  37.332  1.00  0.00    -0.744 OA
ENDBRANCH  69  70
ENDBRANCH  50  64
BRANCH  51  74
ATOM     74  C   UNL A   1      36.410  33.569  33.086  1.00  0.00    -0.014 A 
ATOM     75  C   UNL A   1      35.174  33.031  33.486  1.00  0.00     0.010 A 
ATOM     76  C   UNL A   1      36.428  34.775  32.362  1.00  0.00     0.010 A 
ATOM     77  C   UNL A   1      33.978  33.674  33.148  1.00  0.00     0.020 A 
ATOM     78  C   UNL A   1      35.236  35.434  32.046  1.00  0.00     0.020 A 
ATOM     79  C   UNL A   1      34.018  34.872  32.430  1.00  0.00     0.054 A 
BRANCH  79  80
ATOM     80  S   UNL A   1      32.456  35.705  32.034  1.00  0.00     0.124 S 
ATOM     81  O   UNL A   1      31.490  34.918  32.793  1.00  0.00    -0.237 OA
ATOM     82  O   UNL A   1      32.691  37.062  32.520  1.00  0.00    -0.237 OA
ATOM     83  O   UNL A   1      32.362  35.581  30.581  1.00  0.00    -0.744 OA
ENDBRANCH  79  80
ENDBRANCH  51  74
BRANCH  63  84
ATOM     84  C   UNL A   1      40.552  33.489  38.706  1.00  0.00    -0.014 A 
ATOM     85  C   UNL A   1      41.186  34.727  38.899  1.00  0.00     0.010 A 
ATOM     86  C   UNL A   1      39.776  32.944  39.747  1.00  0.00     0.010 A 
ATOM     87  C   UNL A   1      41.062  35.402  40.116  1.00  0.00     0.020 A 
ATOM     88  C   UNL A   1      39.629  33.628  40.958  1.00  0.00     0.020 A 
ATOM     89  C   UNL A   1      40.282  34.848  41.138  1.00  0.00     0.054 A 
BRANCH  89  90
ATOM     90  S   UNL A   1      40.089  35.774  42.686  1.00  0.00     0.124 S 
ATOM     91  O   UNL A   1      41.286  36.611  42.692  1.00  0.00    -0.237 OA
ATOM     92  O   UNL A   1      38.828  36.483  42.480  1.00  0.00    -0.237 OA
ATOM     93  O   UNL A   1      40.051  34.734  43.711  1.00  0.00    -0.744 OA
ENDBRANCH  89  90
ENDBRANCH  63  84
ENDBRANCH  37  38
ENDBRANCH  30  32
ENDBRANCH  29  30
ENDBRANCH  28  29
ENDBRANCH  27  28
ENDBRANCH  26  27
ENDBRANCH   1  26
TORSDOF 21
ENDMDL
