MODEL 1
REMARK VINA RESULT:      -9.6      0.000      0.000
REMARK SMILES O=C(NC[C@@H]1CCOC1)NC[C@@H]1CC[C@H](C(=O)OCCOCCOCCOC(=O)c2ccc(-c3c4nc(c(-c5ccc(S(=O)(=O)[O-])cc5)c5ccc([nH]5)c(-c5ccc(S(=O)(=O)[O-])cc5)c5nc(c(-c6ccc(S(=O)(=O)[O-])cc6)c6ccc3[nH]6)C=C5)C=C4)cc2)O1
REMARK SMILES IDX 22 1 21 2 20 3 19 4 18 5 16 6 17 7 15 8 12 9 13 10 90 11
REMARK SMILES IDX 14 12 11 13 10 14 1 15 2 16 3 17 4 20 5 21 6 22 9 23 7 24
REMARK SMILES IDX 8 25 23 26 24 27 25 28 26 29 27 30 28 31 29 32 30 33 31 34
REMARK SMILES IDX 89 35 32 36 88 37 33 38 34 39 35 40 82 41 36 42 87 43 81 44
REMARK SMILES IDX 83 45 37 46 86 47 80 48 79 49 38 51 68 52 49 53 67 54 50 55
REMARK SMILES IDX 53 56 66 57 84 58 51 59 52 60 65 62 85 63 54 64 39 65 40 66
REMARK SMILES IDX 48 67 41 68 47 69 42 70 43 71 44 72 45 73 46 74 69 75 70 76
REMARK SMILES IDX 78 77 71 78 77 79 72 80 73 81 74 82 75 83 76 84 55 85 56 86
REMARK SMILES IDX 64 87 57 88 63 89 58 90 59 91 60 92 61 93 62 94
REMARK H PARENT 3 18 10 19 83 50 53 61
REMARK Flexibility Score: inf
ROOT
ATOM      1  C   UNL A   1      35.184  33.329  27.993  1.00  0.00     0.188 C 
ENDROOT
BRANCH   1   2
ATOM      2  O   UNL A   1      35.079  31.993  27.537  1.00  0.00    -0.376 OA
BRANCH   2   3
ATOM      3  C   UNL A   1      33.894  31.269  27.833  1.00  0.00     0.202 C 
BRANCH   3   4
ATOM      4  C   UNL A   1      33.245  30.342  26.784  1.00  0.00     0.261 C 
BRANCH   4   5
ATOM      5  O   UNL A   1      33.653  28.958  26.676  1.00  0.00    -0.461 OA
BRANCH   5   6
ATOM      6  C   UNL A   1      32.899  28.130  25.899  1.00  0.00     0.335 C 
ATOM      7  O   UNL A   1      31.703  28.299  25.695  1.00  0.00    -0.249 OA
BRANCH   6   8
ATOM      8  C   UNL A   1      33.680  26.960  25.267  1.00  0.00     0.228 C 
ATOM      9  C   UNL A   1      32.326  25.416  24.156  1.00  0.00     0.138 C 
ATOM     10  C   UNL A   1      32.550  24.907  25.570  1.00  0.00     0.037 C 
ATOM     11  O   UNL A   1      33.099  26.619  23.999  1.00  0.00    -0.361 OA
ATOM     12  C   UNL A   1      33.789  25.636  25.999  1.00  0.00     0.047 C 
BRANCH   9  13
ATOM     13  C   UNL A   1      30.838  25.644  23.847  1.00  0.00     0.149 C 
BRANCH  13  14
ATOM     14  N   UNL A   1      30.501  27.027  23.522  1.00  0.00    -0.336 N 
ATOM     15  O   UNL A   1      31.154  26.828  21.350  1.00  0.00    -0.249 OA
ATOM     16  C   UNL A   1      30.748  27.519  22.282  1.00  0.00     0.314 C 
ATOM     17  N   UNL A   1      30.501  28.822  22.038  1.00  0.00    -0.338 N 
ATOM     18  H   UNL A   1      30.798  29.108  21.144  1.00  0.00     0.165 HD
ATOM     19  H   UNL A   1      30.093  27.605  24.206  1.00  0.00     0.165 HD
BRANCH  17  20
ATOM     20  C   UNL A   1      29.897  29.895  22.800  1.00  0.00     0.123 C 
BRANCH  20  21
ATOM     21  C   UNL A   1      28.376  30.057  22.587  1.00  0.00     0.036 C 
ATOM     22  C   UNL A   1      28.087  30.715  21.248  1.00  0.00     0.036 C 
ATOM     23  C   UNL A   1      27.649  30.995  23.528  1.00  0.00     0.165 C 
ATOM     24  C   UNL A   1      28.112  32.192  21.596  1.00  0.00     0.160 C 
ATOM     25  O   UNL A   1      27.824  32.311  22.995  1.00  0.00    -0.381 OA
ENDBRANCH  20  21
ENDBRANCH  17  20
ENDBRANCH  13  14
ENDBRANCH   9  13
ENDBRANCH   6   8
ENDBRANCH   5   6
ENDBRANCH   4   5
ENDBRANCH   3   4
ENDBRANCH   2   3
ENDBRANCH   1   2
BRANCH   1  26
ATOM     26  C   UNL A   1      33.927  34.009  28.541  1.00  0.00     0.188 C 
BRANCH  26  27
ATOM     27  O   UNL A   1      33.811  34.055  29.946  1.00  0.00    -0.376 OA
BRANCH  27  28
ATOM     28  C   UNL A   1      34.919  33.696  30.760  1.00  0.00     0.202 C 
BRANCH  28  29
ATOM     29  C   UNL A   1      35.068  32.259  31.301  1.00  0.00     0.261 C 
BRANCH  29  30
ATOM     30  O   UNL A   1      36.229  31.520  30.886  1.00  0.00    -0.460 OA
BRANCH  30  31
ATOM     31  C   UNL A   1      37.168  31.261  31.830  1.00  0.00     0.338 C 
ATOM     32  O   UNL A   1      36.983  31.209  33.036  1.00  0.00    -0.246 OA
BRANCH  31  33
ATOM     33  C   UNL A   1      38.362  30.718  31.129  1.00  0.00     0.060 A 
ATOM     34  C   UNL A   1      39.317  30.017  31.886  1.00  0.00     0.016 A 
ATOM     35  C   UNL A   1      38.498  30.807  29.743  1.00  0.00     0.016 A 
ATOM     36  C   UNL A   1      40.425  29.438  31.267  1.00  0.00     0.010 A 
ATOM     37  C   UNL A   1      39.629  30.260  29.126  1.00  0.00     0.010 A 
ATOM     38  C   UNL A   1      40.616  29.609  29.891  1.00  0.00    -0.014 A 
BRANCH  38  39
ATOM     39  C   UNL A   1      41.960  29.343  29.318  1.00  0.00     0.031 A 
ATOM     40  C   UNL A   1      42.218  27.972  28.750  1.00  0.00     0.074 A 
ATOM     41  C   UNL A   1      42.913  30.290  29.250  1.00  0.00     0.049 A 
ATOM     42  N   UNL A   1      43.296  27.496  28.181  1.00  0.00    -0.248 NA
ATOM     43  C   UNL A   1      41.108  27.009  28.839  1.00  0.00     0.031 C 
ATOM     44  C   UNL A   1      42.780  31.665  29.724  1.00  0.00     0.029 A 
ATOM     45  N   UNL A   1      44.191  30.225  28.751  1.00  0.00    -0.354 N 
ATOM     46  C   UNL A   1      42.999  26.176  27.863  1.00  0.00     0.074 A 
ATOM     47  C   UNL A   1      41.653  25.918  28.327  1.00  0.00     0.031 C 
ATOM     48  C   UNL A   1      43.938  32.313  29.504  1.00  0.00     0.029 A 
ATOM     49  C   UNL A   1      44.901  31.392  28.901  1.00  0.00     0.049 A 
ATOM     50  H   UNL A   1      44.563  29.419  28.325  1.00  0.00     0.167 HD
ATOM     51  C   UNL A   1      43.773  25.256  27.240  1.00  0.00     0.031 A 
ATOM     52  C   UNL A   1      46.186  31.677  28.604  1.00  0.00     0.031 A 
ATOM     53  C   UNL A   1      45.118  25.505  26.797  1.00  0.00     0.049 A 
ATOM     54  C   UNL A   1      47.050  30.626  27.955  1.00  0.00     0.074 A 
ATOM     55  C   UNL A   1      45.975  24.648  26.129  1.00  0.00     0.029 A 
ATOM     56  N   UNL A   1      45.812  26.691  26.990  1.00  0.00    -0.354 N 
ATOM     57  N   UNL A   1      46.744  29.393  27.623  1.00  0.00    -0.248 NA
ATOM     58  C   UNL A   1      48.429  31.013  27.623  1.00  0.00     0.031 C 
ATOM     59  C   UNL A   1      47.210  25.290  25.987  1.00  0.00     0.029 A 
ATOM     60  C   UNL A   1      47.097  26.576  26.490  1.00  0.00     0.049 A 
ATOM     61  H   UNL A   1      45.443  27.496  27.422  1.00  0.00     0.167 HD
ATOM     62  C   UNL A   1      47.885  28.866  27.020  1.00  0.00     0.074 A 
ATOM     63  C   UNL A   1      48.877  29.922  27.016  1.00  0.00     0.031 C 
ATOM     64  C   UNL A   1      48.088  27.625  26.509  1.00  0.00     0.031 A 
BRANCH  51  65
ATOM     65  C   UNL A   1      43.196  23.876  27.064  1.00  0.00    -0.014 A 
ATOM     66  C   UNL A   1      43.111  22.964  28.133  1.00  0.00     0.010 A 
ATOM     67  C   UNL A   1      42.728  23.484  25.796  1.00  0.00     0.010 A 
ATOM     68  C   UNL A   1      42.622  21.672  27.924  1.00  0.00     0.020 A 
ATOM     69  C   UNL A   1      42.207  22.205  25.590  1.00  0.00     0.020 A 
ATOM     70  C   UNL A   1      42.179  21.299  26.651  1.00  0.00     0.054 A 
BRANCH  70  71
ATOM     71  S   UNL A   1      41.552  19.615  26.407  1.00  0.00     0.124 S 
ATOM     72  O   UNL A   1      42.335  19.167  25.256  1.00  0.00    -0.237 OA
ATOM     73  O   UNL A   1      41.875  18.967  27.675  1.00  0.00    -0.237 OA
ATOM     74  O   UNL A   1      40.127  19.808  26.153  1.00  0.00    -0.744 OA
ENDBRANCH  70  71
ENDBRANCH  51  65
BRANCH  52  75
ATOM     75  C   UNL A   1      46.739  33.020  28.942  1.00  0.00    -0.014 A 
ATOM     76  C   UNL A   1      47.408  33.249  30.156  1.00  0.00     0.010 A 
ATOM     77  C   UNL A   1      46.610  34.080  28.024  1.00  0.00     0.010 A 
ATOM     78  C   UNL A   1      47.937  34.511  30.447  1.00  0.00     0.020 A 
ATOM     79  C   UNL A   1      47.164  35.333  28.297  1.00  0.00     0.020 A 
ATOM     80  C   UNL A   1      47.821  35.542  29.511  1.00  0.00     0.054 A 
BRANCH  80  81
ATOM     81  S   UNL A   1      48.588  37.146  29.874  1.00  0.00     0.124 S 
ATOM     82  O   UNL A   1      48.033  37.995  28.825  1.00  0.00    -0.237 OA
ATOM     83  O   UNL A   1      48.113  37.419  31.228  1.00  0.00    -0.237 OA
ATOM     84  O   UNL A   1      50.020  36.873  29.767  1.00  0.00    -0.744 OA
ENDBRANCH  80  81
ENDBRANCH  52  75
BRANCH  64  85
ATOM     85  C   UNL A   1      49.427  27.346  25.870  1.00  0.00    -0.014 A 
ATOM     86  C   UNL A   1      49.653  27.567  24.499  1.00  0.00     0.010 A 
ATOM     87  C   UNL A   1      50.488  26.876  26.667  1.00  0.00     0.010 A 
ATOM     88  C   UNL A   1      50.893  27.267  23.928  1.00  0.00     0.020 A 
ATOM     89  C   UNL A   1      51.740  26.610  26.107  1.00  0.00     0.020 A 
ATOM     90  C   UNL A   1      51.928  26.783  24.736  1.00  0.00     0.054 A 
BRANCH  90  91
ATOM     91  S   UNL A   1      53.528  26.399  23.972  1.00  0.00     0.124 S 
ATOM     92  O   UNL A   1      53.229  26.547  22.550  1.00  0.00    -0.237 OA
ATOM     93  O   UNL A   1      54.407  27.419  24.538  1.00  0.00    -0.237 OA
ATOM     94  O   UNL A   1      53.803  25.034  24.412  1.00  0.00    -0.744 OA
ENDBRANCH  90  91
ENDBRANCH  64  85
ENDBRANCH  38  39
ENDBRANCH  31  33
ENDBRANCH  30  31
ENDBRANCH  29  30
ENDBRANCH  28  29
ENDBRANCH  27  28
ENDBRANCH  26  27
ENDBRANCH   1  26
TORSDOF 24
ENDMDL
MODEL 2
REMARK VINA RESULT:      -9.4      6.142     12.261
REMARK SMILES O=C(NC[C@@H]1CCOC1)NC[C@@H]1CC[C@H](C(=O)OCCOCCOCCOC(=O)c2ccc(-c3c4nc(c(-c5ccc(S(=O)(=O)[O-])cc5)c5ccc([nH]5)c(-c5ccc(S(=O)(=O)[O-])cc5)c5nc(c(-c6ccc(S(=O)(=O)[O-])cc6)c6ccc3[nH]6)C=C5)C=C4)cc2)O1
REMARK SMILES IDX 22 1 21 2 20 3 19 4 18 5 16 6 17 7 15 8 12 9 13 10 90 11
REMARK SMILES IDX 14 12 11 13 10 14 1 15 2 16 3 17 4 20 5 21 6 22 9 23 7 24
REMARK SMILES IDX 8 25 23 26 24 27 25 28 26 29 27 30 28 31 29 32 30 33 31 34
REMARK SMILES IDX 89 35 32 36 88 37 33 38 34 39 35 40 82 41 36 42 87 43 81 44
REMARK SMILES IDX 83 45 37 46 86 47 80 48 79 49 38 51 68 52 49 53 67 54 50 55
REMARK SMILES IDX 53 56 66 57 84 58 51 59 52 60 65 62 85 63 54 64 39 65 40 66
REMARK SMILES IDX 48 67 41 68 47 69 42 70 43 71 44 72 45 73 46 74 69 75 70 76
REMARK SMILES IDX 78 77 71 78 77 79 72 80 73 81 74 82 75 83 76 84 55 85 56 86
REMARK SMILES IDX 64 87 57 88 63 89 58 90 59 91 60 92 61 93 62 94
REMARK H PARENT 3 18 10 19 83 50 53 61
REMARK Flexibility Score: inf
ROOT
ATOM      1  C   UNL A   1      38.903  22.027  26.101  1.00  0.00     0.188 C 
ENDROOT
BRANCH   1   2
ATOM      2  O   UNL A   1      38.581  23.404  26.152  1.00  0.00    -0.376 OA
BRANCH   2   3
ATOM      3  C   UNL A   1      37.214  23.782  26.086  1.00  0.00     0.202 C 
BRANCH   3   4
ATOM      4  C   UNL A   1      36.390  23.566  24.799  1.00  0.00     0.261 C 
BRANCH   4   5
ATOM      5  O   UNL A   1      34.984  23.231  24.876  1.00  0.00    -0.461 OA
BRANCH   5   6
ATOM      6  C   UNL A   1      34.187  23.581  23.828  1.00  0.00     0.335 C 
ATOM      7  O   UNL A   1      34.244  23.043  22.728  1.00  0.00    -0.249 OA
BRANCH   6   8
ATOM      8  C   UNL A   1      33.177  24.703  24.139  1.00  0.00     0.228 C 
ATOM      9  C   UNL A   1      31.863  24.292  26.024  1.00  0.00     0.138 C 
ATOM     10  C   UNL A   1      31.088  23.821  24.806  1.00  0.00     0.037 C 
ATOM     11  O   UNL A   1      33.084  24.893  25.559  1.00  0.00    -0.361 OA
ATOM     12  C   UNL A   1      31.736  24.575  23.682  1.00  0.00     0.047 C 
BRANCH   9  13
ATOM     13  C   UNL A   1      32.126  23.153  27.023  1.00  0.00     0.149 C 
BRANCH  13  14
ATOM     14  N   UNL A   1      32.354  21.853  26.399  1.00  0.00    -0.336 N 
ATOM     15  O   UNL A   1      34.249  21.450  27.595  1.00  0.00    -0.249 OA
ATOM     16  C   UNL A   1      33.455  21.126  26.714  1.00  0.00     0.314 C 
ATOM     17  N   UNL A   1      33.680  19.969  26.060  1.00  0.00    -0.338 N 
ATOM     18  H   UNL A   1      34.546  19.561  26.288  1.00  0.00     0.165 HD
ATOM     19  H   UNL A   1      31.706  21.503  25.747  1.00  0.00     0.165 HD
BRANCH  17  20
ATOM     20  C   UNL A   1      32.928  19.191  25.097  1.00  0.00     0.123 C 
BRANCH  20  21
ATOM     21  C   UNL A   1      33.789  18.486  24.027  1.00  0.00     0.036 C 
ATOM     22  C   UNL A   1      33.038  17.314  23.418  1.00  0.00     0.036 C 
ATOM     23  C   UNL A   1      35.050  17.798  24.507  1.00  0.00     0.165 C 
ATOM     24  C   UNL A   1      33.405  16.171  24.347  1.00  0.00     0.160 C 
ATOM     25  O   UNL A   1      34.649  16.508  24.976  1.00  0.00    -0.381 OA
ENDBRANCH  20  21
ENDBRANCH  17  20
ENDBRANCH  13  14
ENDBRANCH   9  13
ENDBRANCH   6   8
ENDBRANCH   5   6
ENDBRANCH   4   5
ENDBRANCH   3   4
ENDBRANCH   2   3
ENDBRANCH   1   2
BRANCH   1  26
ATOM     26  C   UNL A   1      40.208  21.564  26.754  1.00  0.00     0.188 C 
BRANCH  26  27
ATOM     27  O   UNL A   1      41.108  22.583  27.131  1.00  0.00    -0.376 OA
BRANCH  27  28
ATOM     28  C   UNL A   1      42.408  22.626  26.559  1.00  0.00     0.202 C 
BRANCH  28  29
ATOM     29  C   UNL A   1      42.765  23.675  25.486  1.00  0.00     0.261 C 
BRANCH  29  30
ATOM     30  O   UNL A   1      42.948  25.030  25.929  1.00  0.00    -0.460 OA
BRANCH  30  31
ATOM     31  C   UNL A   1      41.844  25.815  25.989  1.00  0.00     0.338 C 
ATOM     32  O   UNL A   1      40.872  25.751  25.252  1.00  0.00    -0.246 OA
BRANCH  31  33
ATOM     33  C   UNL A   1      41.872  26.518  27.300  1.00  0.00     0.060 A 
ATOM     34  C   UNL A   1      40.964  26.112  28.293  1.00  0.00     0.016 A 
ATOM     35  C   UNL A   1      42.833  27.489  27.587  1.00  0.00     0.016 A 
ATOM     36  C   UNL A   1      40.989  26.700  29.558  1.00  0.00     0.010 A 
ATOM     37  C   UNL A   1      42.833  28.106  28.843  1.00  0.00     0.010 A 
ATOM     38  C   UNL A   1      41.885  27.742  29.819  1.00  0.00    -0.014 A 
BRANCH  38  39
ATOM     39  C   UNL A   1      41.647  28.611  30.999  1.00  0.00     0.031 A 
ATOM     40  C   UNL A   1      40.467  29.545  30.953  1.00  0.00     0.074 A 
ATOM     41  C   UNL A   1      42.414  28.550  32.102  1.00  0.00     0.049 A 
ATOM     42  N   UNL A   1      40.037  30.388  31.856  1.00  0.00    -0.248 NA
ATOM     43  C   UNL A   1      39.664  29.522  29.719  1.00  0.00     0.031 C 
ATOM     44  C   UNL A   1      43.560  27.664  32.294  1.00  0.00     0.029 A 
ATOM     45  N   UNL A   1      42.337  29.260  33.275  1.00  0.00    -0.354 N 
ATOM     46  C   UNL A   1      38.928  31.008  31.291  1.00  0.00     0.074 A 
ATOM     47  C   UNL A   1      38.769  30.466  29.960  1.00  0.00     0.031 C 
ATOM     48  C   UNL A   1      44.087  27.894  33.509  1.00  0.00     0.029 A 
ATOM     49  C   UNL A   1      43.335  28.960  34.170  1.00  0.00     0.049 A 
ATOM     50  H   UNL A   1      41.630  29.922  33.458  1.00  0.00     0.167 HD
ATOM     51  C   UNL A   1      38.112  31.946  31.828  1.00  0.00     0.031 A 
ATOM     52  C   UNL A   1      43.622  29.498  35.374  1.00  0.00     0.031 A 
ATOM     53  C   UNL A   1      38.282  32.501  33.144  1.00  0.00     0.049 A 
ATOM     54  C   UNL A   1      42.730  30.576  35.937  1.00  0.00     0.074 A 
ATOM     55  C   UNL A   1      37.491  33.434  33.791  1.00  0.00     0.029 A 
ATOM     56  N   UNL A   1      39.321  32.190  34.009  1.00  0.00    -0.354 N 
ATOM     57  N   UNL A   1      41.661  31.125  35.408  1.00  0.00    -0.248 NA
ATOM     58  C   UNL A   1      43.076  31.093  37.268  1.00  0.00     0.031 C 
ATOM     59  C   UNL A   1      38.094  33.742  35.015  1.00  0.00     0.029 A 
ATOM     60  C   UNL A   1      39.213  32.941  35.168  1.00  0.00     0.049 A 
ATOM     61  H   UNL A   1      40.030  31.533  33.825  1.00  0.00     0.167 HD
ATOM     62  C   UNL A   1      41.192  32.034  36.355  1.00  0.00     0.074 A 
ATOM     63  C   UNL A   1      42.083  31.944  37.494  1.00  0.00     0.031 C 
ATOM     64  C   UNL A   1      40.117  32.861  36.290  1.00  0.00     0.031 A 
BRANCH  51  65
ATOM     65  C   UNL A   1      37.001  32.472  30.957  1.00  0.00    -0.014 A 
ATOM     66  C   UNL A   1      35.683  31.987  31.062  1.00  0.00     0.010 A 
ATOM     67  C   UNL A   1      37.285  33.474  30.012  1.00  0.00     0.010 A 
ATOM     68  C   UNL A   1      34.687  32.455  30.201  1.00  0.00     0.020 A 
ATOM     69  C   UNL A   1      36.285  33.970  29.173  1.00  0.00     0.020 A 
ATOM     70  C   UNL A   1      34.997  33.440  29.257  1.00  0.00     0.054 A 
BRANCH  70  71
ATOM     71  S   UNL A   1      33.686  34.027  28.150  1.00  0.00     0.124 S 
ATOM     72  O   UNL A   1      32.808  34.739  29.075  1.00  0.00    -0.237 OA
ATOM     73  O   UNL A   1      34.418  34.867  27.206  1.00  0.00    -0.237 OA
ATOM     74  O   UNL A   1      33.132  32.799  27.586  1.00  0.00    -0.744 OA
ENDBRANCH  70  71
ENDBRANCH  51  65
BRANCH  52  75
ATOM     75  C   UNL A   1      44.826  29.034  36.119  1.00  0.00    -0.014 A 
ATOM     76  C   UNL A   1      44.748  27.980  37.045  1.00  0.00     0.010 A 
ATOM     77  C   UNL A   1      46.073  29.643  35.882  1.00  0.00     0.010 A 
ATOM     78  C   UNL A   1      45.893  27.545  37.722  1.00  0.00     0.020 A 
ATOM     79  C   UNL A   1      47.224  29.191  36.533  1.00  0.00     0.020 A 
ATOM     80  C   UNL A   1      47.126  28.146  37.453  1.00  0.00     0.054 A 
BRANCH  80  81
ATOM     81  S   UNL A   1      48.611  27.510  38.279  1.00  0.00     0.124 S 
ATOM     82  O   UNL A   1      48.156  27.367  39.658  1.00  0.00    -0.237 OA
ATOM     83  O   UNL A   1      48.858  26.263  37.560  1.00  0.00    -0.237 OA
ATOM     84  O   UNL A   1      49.604  28.558  38.052  1.00  0.00    -0.744 OA
ENDBRANCH  80  81
ENDBRANCH  52  75
BRANCH  64  85
ATOM     85  C   UNL A   1      39.821  33.715  37.499  1.00  0.00    -0.014 A 
ATOM     86  C   UNL A   1      38.914  33.302  38.491  1.00  0.00     0.010 A 
ATOM     87  C   UNL A   1      40.487  34.945  37.655  1.00  0.00     0.010 A 
ATOM     88  C   UNL A   1      38.633  34.130  39.583  1.00  0.00     0.020 A 
ATOM     89  C   UNL A   1      40.238  35.758  38.764  1.00  0.00     0.020 A 
ATOM     90  C   UNL A   1      39.293  35.356  39.709  1.00  0.00     0.054 A 
BRANCH  90  91
ATOM     91  S   UNL A   1      38.912  36.414  41.133  1.00  0.00     0.124 S 
ATOM     92  O   UNL A   1      38.361  37.603  40.489  1.00  0.00    -0.237 OA
ATOM     93  O   UNL A   1      37.955  35.607  41.885  1.00  0.00    -0.237 OA
ATOM     94  O   UNL A   1      40.208  36.600  41.783  1.00  0.00    -0.744 OA
ENDBRANCH  90  91
ENDBRANCH  64  85
ENDBRANCH  38  39
ENDBRANCH  31  33
ENDBRANCH  30  31
ENDBRANCH  29  30
ENDBRANCH  28  29
ENDBRANCH  27  28
ENDBRANCH  26  27
ENDBRANCH   1  26
TORSDOF 24
ENDMDL
MODEL 3
REMARK VINA RESULT:      -9.3      5.715     11.475
REMARK SMILES O=C(NC[C@@H]1CCOC1)NC[C@@H]1CC[C@H](C(=O)OCCOCCOCCOC(=O)c2ccc(-c3c4nc(c(-c5ccc(S(=O)(=O)[O-])cc5)c5ccc([nH]5)c(-c5ccc(S(=O)(=O)[O-])cc5)c5nc(c(-c6ccc(S(=O)(=O)[O-])cc6)c6ccc3[nH]6)C=C5)C=C4)cc2)O1
REMARK SMILES IDX 22 1 21 2 20 3 19 4 18 5 16 6 17 7 15 8 12 9 13 10 90 11
REMARK SMILES IDX 14 12 11 13 10 14 1 15 2 16 3 17 4 20 5 21 6 22 9 23 7 24
REMARK SMILES IDX 8 25 23 26 24 27 25 28 26 29 27 30 28 31 29 32 30 33 31 34
REMARK SMILES IDX 89 35 32 36 88 37 33 38 34 39 35 40 82 41 36 42 87 43 81 44
REMARK SMILES IDX 83 45 37 46 86 47 80 48 79 49 38 51 68 52 49 53 67 54 50 55
REMARK SMILES IDX 53 56 66 57 84 58 51 59 52 60 65 62 85 63 54 64 39 65 40 66
REMARK SMILES IDX 48 67 41 68 47 69 42 70 43 71 44 72 45 73 46 74 69 75 70 76
REMARK SMILES IDX 78 77 71 78 77 79 72 80 73 81 74 82 75 83 76 84 55 85 56 86
REMARK SMILES IDX 64 87 57 88 63 89 58 90 59 91 60 92 61 93 62 94
REMARK H PARENT 3 18 10 19 83 50 53 61
REMARK Flexibility Score: inf
ROOT
ATOM      1  C   UNL A   1      41.007  19.571  26.134  1.00  0.00     0.188 C 
ENDROOT
BRANCH   1   2
ATOM      2  O   UNL A   1      40.960  20.402  27.279  1.00  0.00    -0.376 OA
BRANCH   2   3
ATOM      3  C   UNL A   1      40.362  21.684  27.161  1.00  0.00     0.202 C 
BRANCH   3   4
ATOM      4  C   UNL A   1      39.262  21.954  26.112  1.00  0.00     0.261 C 
BRANCH   4   5
ATOM      5  O   UNL A   1      38.025  21.204  26.137  1.00  0.00    -0.461 OA
BRANCH   5   6
ATOM      6  C   UNL A   1      37.129  21.417  25.132  1.00  0.00     0.335 C 
ATOM      7  O   UNL A   1      36.381  20.548  24.699  1.00  0.00    -0.249 OA
BRANCH   6   8
ATOM      8  C   UNL A   1      37.110  22.859  24.587  1.00  0.00     0.228 C 
ATOM      9  C   UNL A   1      35.013  23.880  24.700  1.00  0.00     0.138 C 
ATOM     10  C   UNL A   1      35.162  23.273  23.316  1.00  0.00     0.037 C 
ATOM     11  O   UNL A   1      36.252  23.674  25.401  1.00  0.00    -0.361 OA
ATOM     12  C   UNL A   1      36.648  23.128  23.167  1.00  0.00     0.047 C 
BRANCH   9  13
ATOM     13  C   UNL A   1      33.814  23.298  25.466  1.00  0.00     0.149 C 
BRANCH  13  14
ATOM     14  N   UNL A   1      33.657  21.854  25.319  1.00  0.00    -0.336 N 
ATOM     15  O   UNL A   1      31.390  21.935  25.514  1.00  0.00    -0.249 OA
ATOM     16  C   UNL A   1      32.429  21.286  25.412  1.00  0.00     0.314 C 
ATOM     17  N   UNL A   1      32.327  19.943  25.355  1.00  0.00    -0.338 N 
ATOM     18  H   UNL A   1      31.414  19.619  25.526  1.00  0.00     0.165 HD
ATOM     19  H   UNL A   1      34.446  21.290  25.150  1.00  0.00     0.165 HD
BRANCH  17  20
ATOM     20  C   UNL A   1      33.264  18.870  25.096  1.00  0.00     0.123 C 
BRANCH  20  21
ATOM     21  C   UNL A   1      32.615  17.540  24.656  1.00  0.00     0.036 C 
ATOM     22  C   UNL A   1      32.809  16.469  25.717  1.00  0.00     0.036 C 
ATOM     23  C   UNL A   1      33.212  16.853  23.446  1.00  0.00     0.165 C 
ATOM     24  C   UNL A   1      34.138  15.854  25.323  1.00  0.00     0.160 C 
ATOM     25  O   UNL A   1      34.331  16.102  23.924  1.00  0.00    -0.381 OA
ENDBRANCH  20  21
ENDBRANCH  17  20
ENDBRANCH  13  14
ENDBRANCH   9  13
ENDBRANCH   6   8
ENDBRANCH   5   6
ENDBRANCH   4   5
ENDBRANCH   3   4
ENDBRANCH   2   3
ENDBRANCH   1   2
BRANCH   1  26
ATOM     26  C   UNL A   1      42.254  18.711  25.914  1.00  0.00     0.188 C 
BRANCH  26  27
ATOM     27  O   UNL A   1      43.480  19.285  26.310  1.00  0.00    -0.376 OA
BRANCH  27  28
ATOM     28  C   UNL A   1      44.539  19.410  25.371  1.00  0.00     0.202 C 
BRANCH  28  29
ATOM     29  C   UNL A   1      44.462  20.441  24.226  1.00  0.00     0.261 C 
BRANCH  29  30
ATOM     30  O   UNL A   1      43.784  21.678  24.502  1.00  0.00    -0.460 OA
BRANCH  30  31
ATOM     31  C   UNL A   1      44.515  22.816  24.417  1.00  0.00     0.338 C 
ATOM     32  O   UNL A   1      45.201  23.164  23.469  1.00  0.00    -0.246 OA
BRANCH  31  33
ATOM     33  C   UNL A   1      44.066  23.713  25.516  1.00  0.00     0.060 A 
ATOM     34  C   UNL A   1      44.200  25.101  25.340  1.00  0.00     0.016 A 
ATOM     35  C   UNL A   1      43.436  23.211  26.656  1.00  0.00     0.016 A 
ATOM     36  C   UNL A   1      43.741  25.986  26.315  1.00  0.00     0.010 A 
ATOM     37  C   UNL A   1      43.011  24.097  27.653  1.00  0.00     0.010 A 
ATOM     38  C   UNL A   1      43.199  25.485  27.504  1.00  0.00    -0.014 A 
BRANCH  38  39
ATOM     39  C   UNL A   1      43.081  26.391  28.674  1.00  0.00     0.031 A 
ATOM     40  C   UNL A   1      44.149  26.308  29.732  1.00  0.00     0.074 A 
ATOM     41  C   UNL A   1      42.094  27.298  28.785  1.00  0.00     0.049 A 
ATOM     42  N   UNL A   1      44.283  26.997  30.836  1.00  0.00    -0.248 NA
ATOM     43  C   UNL A   1      45.209  25.309  29.513  1.00  0.00     0.031 C 
ATOM     44  C   UNL A   1      41.023  27.511  27.815  1.00  0.00     0.029 A 
ATOM     45  N   UNL A   1      41.838  28.211  29.778  1.00  0.00    -0.354 N 
ATOM     46  C   UNL A   1      45.429  26.502  31.450  1.00  0.00     0.074 A 
ATOM     47  C   UNL A   1      45.935  25.437  30.611  1.00  0.00     0.031 C 
ATOM     48  C   UNL A   1      40.214  28.485  28.269  1.00  0.00     0.029 A 
ATOM     49  C   UNL A   1      40.695  28.946  29.572  1.00  0.00     0.049 A 
ATOM     50  H   UNL A   1      42.420  28.329  30.564  1.00  0.00     0.167 HD
ATOM     51  C   UNL A   1      46.011  26.895  32.607  1.00  0.00     0.031 A 
ATOM     52  C   UNL A   1      40.095  29.867  30.353  1.00  0.00     0.031 A 
ATOM     53  C   UNL A   1      45.498  27.940  33.451  1.00  0.00     0.049 A 
ATOM     54  C   UNL A   1      40.732  30.260  31.662  1.00  0.00     0.074 A 
ATOM     55  C   UNL A   1      46.032  28.432  34.629  1.00  0.00     0.029 A 
ATOM     56  N   UNL A   1      44.324  28.642  33.221  1.00  0.00    -0.354 N 
ATOM     57  N   UNL A   1      41.837  29.812  32.211  1.00  0.00    -0.248 NA
ATOM     58  C   UNL A   1      40.048  31.296  32.448  1.00  0.00     0.031 C 
ATOM     59  C   UNL A   1      45.142  29.378  35.148  1.00  0.00     0.029 A 
ATOM     60  C   UNL A   1      44.096  29.536  34.253  1.00  0.00     0.049 A 
ATOM     61  H   UNL A   1      43.738  28.521  32.438  1.00  0.00     0.167 HD
ATOM     62  C   UNL A   1      41.993  30.531  33.395  1.00  0.00     0.074 A 
ATOM     63  C   UNL A   1      40.880  31.456  33.468  1.00  0.00     0.031 C 
ATOM     64  C   UNL A   1      42.973  30.440  34.330  1.00  0.00     0.031 A 
BRANCH  51  65
ATOM     65  C   UNL A   1      47.237  26.140  33.052  1.00  0.00    -0.014 A 
ATOM     66  C   UNL A   1      48.531  26.526  32.655  1.00  0.00     0.010 A 
ATOM     67  C   UNL A   1      47.087  25.017  33.887  1.00  0.00     0.010 A 
ATOM     68  C   UNL A   1      49.643  25.772  33.038  1.00  0.00     0.020 A 
ATOM     69  C   UNL A   1      48.198  24.281  34.301  1.00  0.00     0.020 A 
ATOM     70  C   UNL A   1      49.468  24.649  33.854  1.00  0.00     0.054 A 
BRANCH  70  71
ATOM     71  S   UNL A   1      50.927  23.686  34.334  1.00  0.00     0.124 S 
ATOM     72  O   UNL A   1      50.547  23.206  35.662  1.00  0.00    -0.237 OA
ATOM     73  O   UNL A   1      50.993  22.664  33.293  1.00  0.00    -0.237 OA
ATOM     74  O   UNL A   1      52.012  24.664  34.313  1.00  0.00    -0.744 OA
ENDBRANCH  70  71
ENDBRANCH  51  65
BRANCH  52  75
ATOM     75  C   UNL A   1      38.802  30.469  29.920  1.00  0.00    -0.014 A 
ATOM     76  C   UNL A   1      38.745  31.770  29.392  1.00  0.00     0.010 A 
ATOM     77  C   UNL A   1      37.614  29.721  30.020  1.00  0.00     0.010 A 
ATOM     78  C   UNL A   1      37.525  32.312  28.973  1.00  0.00     0.020 A 
ATOM     79  C   UNL A   1      36.399  30.246  29.574  1.00  0.00     0.020 A 
ATOM     80  C   UNL A   1      36.360  31.541  29.056  1.00  0.00     0.054 A 
BRANCH  80  81
ATOM     81  S   UNL A   1      34.805  32.233  28.430  1.00  0.00     0.124 S 
ATOM     82  O   UNL A   1      34.269  31.123  27.649  1.00  0.00    -0.237 OA
ATOM     83  O   UNL A   1      34.085  32.549  29.661  1.00  0.00    -0.237 OA
ATOM     84  O   UNL A   1      35.236  33.395  27.654  1.00  0.00    -0.744 OA
ENDBRANCH  80  81
ENDBRANCH  52  75
BRANCH  64  85
ATOM     85  C   UNL A   1      42.908  31.388  35.503  1.00  0.00    -0.014 A 
ATOM     86  C   UNL A   1      42.270  31.035  36.705  1.00  0.00     0.010 A 
ATOM     87  C   UNL A   1      43.522  32.652  35.404  1.00  0.00     0.010 A 
ATOM     88  C   UNL A   1      42.194  31.947  37.762  1.00  0.00     0.020 A 
ATOM     89  C   UNL A   1      43.481  33.552  36.471  1.00  0.00     0.020 A 
ATOM     90  C   UNL A   1      42.796  33.204  37.636  1.00  0.00     0.054 A 
BRANCH  90  91
ATOM     91  S   UNL A   1      42.685  34.371  39.020  1.00  0.00     0.124 S 
ATOM     92  O   UNL A   1      41.407  34.003  39.625  1.00  0.00    -0.237 OA
ATOM     93  O   UNL A   1      43.870  34.047  39.809  1.00  0.00    -0.237 OA
ATOM     94  O   UNL A   1      42.713  35.680  38.372  1.00  0.00    -0.744 OA
ENDBRANCH  90  91
ENDBRANCH  64  85
ENDBRANCH  38  39
ENDBRANCH  31  33
ENDBRANCH  30  31
ENDBRANCH  29  30
ENDBRANCH  28  29
ENDBRANCH  27  28
ENDBRANCH  26  27
ENDBRANCH   1  26
TORSDOF 24
ENDMDL
