MODEL 1
REMARK VINA RESULT:     -11.3      0.000      0.000
REMARK SMILES Cc1ccccc1[C@@H](Cc1c(Cl)cccc1Cl)C(=O)OCCOCCOCCOC(=O)c1ccc(-c2c3nc(c(-c4ccc(S(=O)(=O)[O-])cc4)c4ccc([nH]4)c(-c4ccc(S(=O)(=O)[O-])cc4)c4nc(c(-c5ccc(S(=O)(=O)[O-])cc5)c5ccc2[nH]5)C=C4)C=C3)cc1
REMARK SMILES IDX 25 1 24 2 23 3 22 4 21 5 20 6 18 7 19 8 8 9 7 10 1 11 2 12
REMARK SMILES IDX 3 13 4 14 6 15 5 16 9 17 10 18 11 19 16 20 12 21 13 22 15 23
REMARK SMILES IDX 17 24 14 25 26 26 27 27 28 28 29 29 30 30 31 31 32 32 33 33
REMARK SMILES IDX 91 34 34 35 90 36 35 37 36 38 37 39 84 40 38 41 89 42 83 43
REMARK SMILES IDX 85 44 39 45 88 46 82 47 81 48 40 50 70 51 51 52 69 53 52 54
REMARK SMILES IDX 55 55 68 56 86 57 53 58 54 59 67 61 87 62 56 63 41 64 42 65
REMARK SMILES IDX 50 66 43 67 49 68 44 69 45 70 46 71 47 72 48 73 71 74 72 75
REMARK SMILES IDX 80 76 73 77 79 78 74 79 75 80 76 81 77 82 78 83 57 84 58 85
REMARK SMILES IDX 66 86 59 87 65 88 60 89 61 90 62 91 63 92 64 93
REMARK H PARENT 85 49 55 60
REMARK Flexibility Score: inf
ROOT
ATOM      1  C   UNL A   1      35.072  32.351  28.703  1.00  0.00     0.188 C 
ENDROOT
BRANCH   1   2
ATOM      2  C   UNL A   1      34.148  31.226  28.231  1.00  0.00     0.188 C 
BRANCH   2   3
ATOM      3  O   UNL A   1      33.128  31.361  27.214  1.00  0.00    -0.376 OA
BRANCH   3   4
ATOM      4  C   UNL A   1      32.605  30.321  26.364  1.00  0.00     0.202 C 
BRANCH   4   5
ATOM      5  C   UNL A   1      31.638  28.907  26.745  1.00  0.00     0.261 C 
BRANCH   5   6
ATOM      6  O   UNL A   1      32.034  27.210  27.026  1.00  0.00    -0.463 OA
BRANCH   6   7
ATOM      7  C   UNL A   1      31.812  25.907  26.420  1.00  0.00     0.313 C 
ATOM      8  O   UNL A   1      30.801  25.203  26.525  1.00  0.00    -0.252 OA
BRANCH   7   9
ATOM      9  C   UNL A   1      32.745  25.160  25.521  1.00  0.00     0.134 C 
BRANCH   9  10
ATOM     10  C   UNL A   1      33.259  25.924  24.345  1.00  0.00    -0.031 A 
ATOM     11  C   UNL A   1      32.571  24.070  22.666  1.00  0.00     0.044 C 
ATOM     12  C   UNL A   1      33.029  25.465  23.028  1.00  0.00    -0.047 A 
ATOM     13  C   UNL A   1      33.252  26.352  21.971  1.00  0.00     0.004 A 
ATOM     14  C   UNL A   1      33.699  27.651  22.209  1.00  0.00     0.000 A 
ATOM     15  C   UNL A   1      33.803  27.199  24.565  1.00  0.00     0.005 A 
ATOM     16  C   UNL A   1      33.994  28.068  23.502  1.00  0.00     0.000 A 
ENDBRANCH   9  10
BRANCH   9  17
ATOM     17  C   UNL A   1      33.750  24.215  26.330  1.00  0.00     0.058 C 
BRANCH  17  18
ATOM     18  C   UNL A   1      34.295  22.875  25.729  1.00  0.00    -0.010 A 
ATOM     19  C   UNL A   1      35.674  22.690  25.454  1.00  0.00     0.045 A 
ATOM     20  C   UNL A   1      33.478  21.759  25.421  1.00  0.00     0.045 A 
ATOM     21  Cl  UNL A   1      36.810  23.998  25.511  1.00  0.00    -0.084 Cl
ATOM     22  C   UNL A   1      36.209  21.443  25.052  1.00  0.00     0.021 A 
ATOM     23  C   UNL A   1      34.016  20.511  25.036  1.00  0.00     0.021 A 
ATOM     24  Cl  UNL A   1      31.753  21.840  25.396  1.00  0.00    -0.084 Cl
ATOM     25  C   UNL A   1      35.384  20.341  24.877  1.00  0.00     0.003 A 
ENDBRANCH  17  18
ENDBRANCH   9  17
ENDBRANCH   7   9
ENDBRANCH   6   7
ENDBRANCH   5   6
ENDBRANCH   4   5
ENDBRANCH   3   4
ENDBRANCH   2   3
ENDBRANCH   1   2
BRANCH   1  26
ATOM     26  O   UNL A   1      34.967  32.565  30.096  1.00  0.00    -0.376 OA
BRANCH  26  27
ATOM     27  C   UNL A   1      35.867  31.807  30.890  1.00  0.00     0.202 C 
BRANCH  27  28
ATOM     28  C   UNL A   1      37.044  31.160  30.125  1.00  0.00     0.261 C 
BRANCH  28  29
ATOM     29  O   UNL A   1      36.952  29.718  30.012  1.00  0.00    -0.460 OA
BRANCH  29  30
ATOM     30  C   UNL A   1      37.394  29.110  28.836  1.00  0.00     0.338 C 
ATOM     31  O   UNL A   1      36.751  29.122  27.828  1.00  0.00    -0.246 OA
BRANCH  30  32
ATOM     32  C   UNL A   1      38.843  28.710  28.965  1.00  0.00     0.060 A 
ATOM     33  C   UNL A   1      39.618  28.383  30.088  1.00  0.00     0.016 A 
ATOM     34  C   UNL A   1      39.522  28.741  27.807  1.00  0.00     0.016 A 
ATOM     35  C   UNL A   1      41.092  28.337  30.058  1.00  0.00     0.010 A 
ATOM     36  C   UNL A   1      40.899  28.873  27.872  1.00  0.00     0.010 A 
ATOM     37  C   UNL A   1      41.839  28.680  28.925  1.00  0.00    -0.014 A 
BRANCH  37  38
ATOM     38  C   UNL A   1      43.535  28.920  28.802  1.00  0.00     0.031 A 
ATOM     39  C   UNL A   1      44.541  30.128  28.000  1.00  0.00     0.074 A 
ATOM     40  C   UNL A   1      44.311  27.920  29.273  1.00  0.00     0.049 A 
ATOM     41  N   UNL A   1      45.767  29.897  27.568  1.00  0.00    -0.248 NA
ATOM     42  C   UNL A   1      44.208  31.537  27.458  1.00  0.00     0.031 C 
ATOM     43  C   UNL A   1      45.747  27.951  29.531  1.00  0.00     0.029 A 
ATOM     44  N   UNL A   1      43.953  26.596  29.505  1.00  0.00    -0.354 N 
ATOM     45  C   UNL A   1      46.257  31.082  27.009  1.00  0.00     0.074 A 
ATOM     46  C   UNL A   1      45.168  31.863  26.623  1.00  0.00     0.031 C 
ATOM     47  C   UNL A   1      46.192  26.692  29.624  1.00  0.00     0.029 A 
ATOM     48  C   UNL A   1      45.090  25.817  29.280  1.00  0.00     0.049 A 
ATOM     49  H   UNL A   1      43.066  26.270  29.779  1.00  0.00     0.167 HD
ATOM     50  C   UNL A   1      47.540  31.502  27.126  1.00  0.00     0.031 A 
ATOM     51  C   UNL A   1      45.076  24.858  28.315  1.00  0.00     0.031 A 
ATOM     52  C   UNL A   1      48.378  30.344  27.286  1.00  0.00     0.049 A 
ATOM     53  C   UNL A   1      46.141  25.075  27.257  1.00  0.00     0.074 A 
ATOM     54  C   UNL A   1      49.111  29.778  28.305  1.00  0.00     0.029 A 
ATOM     55  N   UNL A   1      48.192  29.343  26.343  1.00  0.00    -0.354 N 
ATOM     56  N   UNL A   1      47.028  26.037  27.270  1.00  0.00    -0.248 NA
ATOM     57  C   UNL A   1      46.262  24.244  26.065  1.00  0.00     0.031 C 
ATOM     58  C   UNL A   1      49.311  28.395  27.971  1.00  0.00     0.029 A 
ATOM     59  C   UNL A   1      48.763  28.151  26.722  1.00  0.00     0.049 A 
ATOM     60  H   UNL A   1      47.706  29.472  25.497  1.00  0.00     0.167 HD
ATOM     61  C   UNL A   1      47.741  26.046  26.098  1.00  0.00     0.074 A 
ATOM     62  C   UNL A   1      47.236  24.880  25.389  1.00  0.00     0.031 C 
ATOM     63  C   UNL A   1      48.634  27.039  25.779  1.00  0.00     0.031 A 
BRANCH  50  64
ATOM     64  C   UNL A   1      47.906  32.997  27.222  1.00  0.00    -0.014 A 
ATOM     65  C   UNL A   1      48.185  33.746  26.068  1.00  0.00     0.010 A 
ATOM     66  C   UNL A   1      48.126  33.703  28.444  1.00  0.00     0.010 A 
ATOM     67  C   UNL A   1      48.649  35.086  26.135  1.00  0.00     0.020 A 
ATOM     68  C   UNL A   1      48.529  35.045  28.530  1.00  0.00     0.020 A 
ATOM     69  C   UNL A   1      48.819  35.727  27.367  1.00  0.00     0.054 A 
BRANCH  69  70
ATOM     70  S   UNL A   1      49.480  37.415  27.461  1.00  0.00     0.124 S 
ATOM     71  O   UNL A   1      48.272  38.210  27.666  1.00  0.00    -0.237 OA
ATOM     72  O   UNL A   1      50.391  37.341  28.599  1.00  0.00    -0.237 OA
ATOM     73  O   UNL A   1      50.129  37.611  26.164  1.00  0.00    -0.744 OA
ENDBRANCH  69  70
ENDBRANCH  50  64
BRANCH  51  74
ATOM     74  C   UNL A   1      43.738  24.175  28.205  1.00  0.00    -0.014 A 
ATOM     75  C   UNL A   1      43.122  24.217  26.928  1.00  0.00     0.010 A 
ATOM     76  C   UNL A   1      43.284  23.199  29.112  1.00  0.00     0.010 A 
ATOM     77  C   UNL A   1      42.215  23.235  26.513  1.00  0.00     0.020 A 
ATOM     78  C   UNL A   1      42.336  22.226  28.709  1.00  0.00     0.020 A 
ATOM     79  C   UNL A   1      41.859  22.217  27.393  1.00  0.00     0.054 A 
BRANCH  79  80
ATOM     80  S   UNL A   1      40.925  20.808  26.706  1.00  0.00     0.124 S 
ATOM     81  O   UNL A   1      40.799  19.919  27.856  1.00  0.00    -0.237 OA
ATOM     82  O   UNL A   1      39.683  21.451  26.276  1.00  0.00    -0.237 OA
ATOM     83  O   UNL A   1      41.784  20.319  25.631  1.00  0.00    -0.744 OA
ENDBRANCH  79  80
ENDBRANCH  51  74
BRANCH  63  84
ATOM     84  C   UNL A   1      49.357  27.163  24.442  1.00  0.00    -0.014 A 
ATOM     85  C   UNL A   1      50.747  27.103  24.292  1.00  0.00     0.010 A 
ATOM     86  C   UNL A   1      48.614  27.381  23.250  1.00  0.00     0.010 A 
ATOM     87  C   UNL A   1      51.346  27.094  23.023  1.00  0.00     0.020 A 
ATOM     88  C   UNL A   1      49.194  27.384  21.981  1.00  0.00     0.020 A 
ATOM     89  C   UNL A   1      50.561  27.203  21.874  1.00  0.00     0.054 A 
BRANCH  89  90
ATOM     90  S   UNL A   1      51.351  27.130  20.252  1.00  0.00     0.124 S 
ATOM     91  O   UNL A   1      50.261  26.661  19.398  1.00  0.00    -0.237 OA
ATOM     92  O   UNL A   1      51.757  28.518  20.051  1.00  0.00    -0.237 OA
ATOM     93  O   UNL A   1      52.447  26.182  20.437  1.00  0.00    -0.744 OA
ENDBRANCH  89  90
ENDBRANCH  63  84
ENDBRANCH  37  38
ENDBRANCH  30  32
ENDBRANCH  29  30
ENDBRANCH  28  29
ENDBRANCH  27  28
ENDBRANCH  26  27
ENDBRANCH   1  26
TORSDOF 23
ENDMDL
MODEL 2
REMARK VINA RESULT:     -10.9      4.846      9.517
REMARK SMILES Cc1ccccc1[C@@H](Cc1c(Cl)cccc1Cl)C(=O)OCCOCCOCCOC(=O)c1ccc(-c2c3nc(c(-c4ccc(S(=O)(=O)[O-])cc4)c4ccc([nH]4)c(-c4ccc(S(=O)(=O)[O-])cc4)c4nc(c(-c5ccc(S(=O)(=O)[O-])cc5)c5ccc2[nH]5)C=C4)C=C3)cc1
REMARK SMILES IDX 25 1 24 2 23 3 22 4 21 5 20 6 18 7 19 8 8 9 7 10 1 11 2 12
REMARK SMILES IDX 3 13 4 14 6 15 5 16 9 17 10 18 11 19 16 20 12 21 13 22 15 23
REMARK SMILES IDX 17 24 14 25 26 26 27 27 28 28 29 29 30 30 31 31 32 32 33 33
REMARK SMILES IDX 91 34 34 35 90 36 35 37 36 38 37 39 84 40 38 41 89 42 83 43
REMARK SMILES IDX 85 44 39 45 88 46 82 47 81 48 40 50 70 51 51 52 69 53 52 54
REMARK SMILES IDX 55 55 68 56 86 57 53 58 54 59 67 61 87 62 56 63 41 64 42 65
REMARK SMILES IDX 50 66 43 67 49 68 44 69 45 70 46 71 47 72 48 73 71 74 72 75
REMARK SMILES IDX 80 76 73 77 79 78 74 79 75 80 76 81 77 82 78 83 57 84 58 85
REMARK SMILES IDX 66 86 59 87 65 88 60 89 61 90 62 91 63 92 64 93
REMARK H PARENT 85 49 55 60
REMARK Flexibility Score: inf
ROOT
ATOM      1  C   UNL A   1      35.239  31.203  28.516  1.00  0.00     0.188 C 
ENDROOT
BRANCH   1   2
ATOM      2  C   UNL A   1      34.454  30.602  27.348  1.00  0.00     0.188 C 
BRANCH   2   3
ATOM      3  O   UNL A   1      34.639  29.268  26.822  1.00  0.00    -0.376 OA
BRANCH   3   4
ATOM      4  C   UNL A   1      33.780  28.569  25.901  1.00  0.00     0.202 C 
BRANCH   4   5
ATOM      5  C   UNL A   1      33.795  26.899  25.360  1.00  0.00     0.261 C 
BRANCH   5   6
ATOM      6  O   UNL A   1      33.496  25.361  26.172  1.00  0.00    -0.463 OA
BRANCH   6   7
ATOM      7  C   UNL A   1      32.914  24.057  25.894  1.00  0.00     0.313 C 
ATOM      8  O   UNL A   1      32.424  23.273  26.714  1.00  0.00    -0.252 OA
BRANCH   7   9
ATOM      9  C   UNL A   1      32.759  23.407  24.555  1.00  0.00     0.134 C 
BRANCH   9  10
ATOM     10  C   UNL A   1      33.226  21.992  24.467  1.00  0.00    -0.031 A 
ATOM     11  C   UNL A   1      35.730  22.670  24.516  1.00  0.00     0.044 C 
ATOM     12  C   UNL A   1      34.597  21.673  24.603  1.00  0.00    -0.047 A 
ATOM     13  C   UNL A   1      34.945  20.336  24.821  1.00  0.00     0.004 A 
ATOM     14  C   UNL A   1      33.969  19.344  24.891  1.00  0.00     0.000 A 
ATOM     15  C   UNL A   1      32.262  20.973  24.440  1.00  0.00     0.005 A 
ATOM     16  C   UNL A   1      32.631  19.657  24.680  1.00  0.00     0.000 A 
ENDBRANCH   9  10
BRANCH   9  17
ATOM     17  C   UNL A   1      31.397  23.821  23.827  1.00  0.00     0.058 C 
BRANCH  17  18
ATOM     18  C   UNL A   1      31.015  25.317  23.567  1.00  0.00    -0.010 A 
ATOM     19  C   UNL A   1      31.503  26.025  22.438  1.00  0.00     0.045 A 
ATOM     20  C   UNL A   1      30.166  26.073  24.413  1.00  0.00     0.045 A 
ATOM     21  Cl  UNL A   1      32.749  25.384  21.416  1.00  0.00    -0.084 Cl
ATOM     22  C   UNL A   1      31.057  27.325  22.104  1.00  0.00     0.021 A 
ATOM     23  C   UNL A   1      29.708  27.364  24.068  1.00  0.00     0.021 A 
ATOM     24  Cl  UNL A   1      29.685  25.532  25.982  1.00  0.00    -0.084 Cl
ATOM     25  C   UNL A   1      30.130  27.983  22.900  1.00  0.00     0.003 A 
ENDBRANCH  17  18
ENDBRANCH   9  17
ENDBRANCH   7   9
ENDBRANCH   6   7
ENDBRANCH   5   6
ENDBRANCH   4   5
ENDBRANCH   3   4
ENDBRANCH   2   3
ENDBRANCH   1   2
BRANCH   1  26
ATOM     26  O   UNL A   1      34.390  31.863  29.433  1.00  0.00    -0.376 OA
BRANCH  26  27
ATOM     27  C   UNL A   1      34.359  33.277  29.313  1.00  0.00     0.202 C 
BRANCH  27  28
ATOM     28  C   UNL A   1      35.611  34.016  29.841  1.00  0.00     0.261 C 
BRANCH  28  29
ATOM     29  O   UNL A   1      36.135  33.477  31.080  1.00  0.00    -0.460 OA
BRANCH  29  30
ATOM     30  C   UNL A   1      37.463  33.744  31.416  1.00  0.00     0.338 C 
ATOM     31  O   UNL A   1      37.798  34.764  31.943  1.00  0.00    -0.246 OA
BRANCH  30  32
ATOM     32  C   UNL A   1      38.302  32.498  31.269  1.00  0.00     0.060 A 
ATOM     33  C   UNL A   1      38.352  31.321  32.029  1.00  0.00     0.016 A 
ATOM     34  C   UNL A   1      39.203  32.562  30.276  1.00  0.00     0.016 A 
ATOM     35  C   UNL A   1      39.459  30.351  31.931  1.00  0.00     0.010 A 
ATOM     36  C   UNL A   1      40.307  31.730  30.355  1.00  0.00     0.010 A 
ATOM     37  C   UNL A   1      40.581  30.559  31.120  1.00  0.00    -0.014 A 
BRANCH  37  38
ATOM     38  C   UNL A   1      42.048  29.668  31.086  1.00  0.00     0.031 A 
ATOM     39  C   UNL A   1      42.523  28.126  30.372  1.00  0.00     0.074 A 
ATOM     40  C   UNL A   1      43.037  30.124  31.885  1.00  0.00     0.049 A 
ATOM     41  N   UNL A   1      43.480  27.353  30.852  1.00  0.00    -0.248 NA
ATOM     42  C   UNL A   1      41.869  27.271  29.262  1.00  0.00     0.031 C 
ATOM     43  C   UNL A   1      44.443  29.734  31.874  1.00  0.00     0.029 A 
ATOM     44  N   UNL A   1      42.929  30.974  32.981  1.00  0.00    -0.354 N 
ATOM     45  C   UNL A   1      43.588  26.233  30.022  1.00  0.00     0.074 A 
ATOM     46  C   UNL A   1      42.369  26.062  29.365  1.00  0.00     0.031 C 
ATOM     47  C   UNL A   1      45.002  30.114  33.031  1.00  0.00     0.029 A 
ATOM     48  C   UNL A   1      43.940  30.621  33.877  1.00  0.00     0.049 A 
ATOM     49  H   UNL A   1      42.265  31.691  33.101  1.00  0.00     0.167 HD
ATOM     50  C   UNL A   1      44.762  25.640  29.696  1.00  0.00     0.031 A 
ATOM     51  C   UNL A   1      43.621  30.200  35.131  1.00  0.00     0.031 A 
ATOM     52  C   UNL A   1      45.694  25.875  30.766  1.00  0.00     0.049 A 
ATOM     53  C   UNL A   1      44.135  28.805  35.430  1.00  0.00     0.074 A 
ATOM     54  C   UNL A   1      46.828  26.633  30.950  1.00  0.00     0.029 A 
ATOM     55  N   UNL A   1      45.231  25.559  32.036  1.00  0.00    -0.354 N 
ATOM     56  N   UNL A   1      44.857  28.080  34.614  1.00  0.00    -0.248 NA
ATOM     57  C   UNL A   1      43.833  28.092  36.665  1.00  0.00     0.031 C 
ATOM     58  C   UNL A   1      47.000  26.809  32.366  1.00  0.00     0.029 A 
ATOM     59  C   UNL A   1      46.014  26.098  33.029  1.00  0.00     0.049 A 
ATOM     60  H   UNL A   1      44.432  25.011  32.206  1.00  0.00     0.167 HD
ATOM     61  C   UNL A   1      45.024  26.815  35.119  1.00  0.00     0.074 A 
ATOM     62  C   UNL A   1      44.382  26.888  36.424  1.00  0.00     0.031 C 
ATOM     63  C   UNL A   1      45.613  25.801  34.405  1.00  0.00     0.031 A 
BRANCH  50  64
ATOM     64  C   UNL A   1      44.996  24.992  28.316  1.00  0.00    -0.014 A 
ATOM     65  C   UNL A   1      44.818  23.612  28.130  1.00  0.00     0.010 A 
ATOM     66  C   UNL A   1      45.528  25.672  27.179  1.00  0.00     0.010 A 
ATOM     67  C   UNL A   1      45.151  22.970  26.908  1.00  0.00     0.020 A 
ATOM     68  C   UNL A   1      45.809  25.065  25.945  1.00  0.00     0.020 A 
ATOM     69  C   UNL A   1      45.645  23.701  25.823  1.00  0.00     0.054 A 
BRANCH  69  70
ATOM     70  S   UNL A   1      46.139  22.875  24.283  1.00  0.00     0.124 S 
ATOM     71  O   UNL A   1      46.613  21.581  24.765  1.00  0.00    -0.237 OA
ATOM     72  O   UNL A   1      44.897  22.852  23.518  1.00  0.00    -0.237 OA
ATOM     73  O   UNL A   1      47.182  23.745  23.738  1.00  0.00    -0.744 OA
ENDBRANCH  69  70
ENDBRANCH  50  64
BRANCH  51  74
ATOM     74  C   UNL A   1      42.423  30.924  35.690  1.00  0.00    -0.014 A 
ATOM     75  C   UNL A   1      42.629  32.282  36.043  1.00  0.00     0.010 A 
ATOM     76  C   UNL A   1      41.096  30.495  35.503  1.00  0.00     0.010 A 
ATOM     77  C   UNL A   1      41.580  33.209  36.050  1.00  0.00     0.020 A 
ATOM     78  C   UNL A   1      40.026  31.424  35.549  1.00  0.00     0.020 A 
ATOM     79  C   UNL A   1      40.288  32.783  35.759  1.00  0.00     0.054 A 
BRANCH  79  80
ATOM     80  S   UNL A   1      39.025  34.071  35.481  1.00  0.00     0.124 S 
ATOM     81  O   UNL A   1      38.814  34.603  36.824  1.00  0.00    -0.237 OA
ATOM     82  O   UNL A   1      39.713  34.972  34.556  1.00  0.00    -0.237 OA
ATOM     83  O   UNL A   1      37.900  33.331  34.919  1.00  0.00    -0.744 OA
ENDBRANCH  79  80
ENDBRANCH  51  74
BRANCH  63  84
ATOM     84  C   UNL A   1      45.711  24.352  34.870  1.00  0.00    -0.014 A 
ATOM     85  C   UNL A   1      44.798  23.352  34.519  1.00  0.00     0.010 A 
ATOM     86  C   UNL A   1      46.762  23.954  35.739  1.00  0.00     0.010 A 
ATOM     87  C   UNL A   1      45.011  22.010  34.872  1.00  0.00     0.020 A 
ATOM     88  C   UNL A   1      46.985  22.627  36.107  1.00  0.00     0.020 A 
ATOM     89  C   UNL A   1      46.122  21.652  35.638  1.00  0.00     0.054 A 
BRANCH  89  90
ATOM     90  S   UNL A   1      46.405  19.913  36.030  1.00  0.00     0.124 S 
ATOM     91  O   UNL A   1      47.856  19.866  36.199  1.00  0.00    -0.237 OA
ATOM     92  O   UNL A   1      45.621  19.746  37.250  1.00  0.00    -0.237 OA
ATOM     93  O   UNL A   1      45.894  19.202  34.860  1.00  0.00    -0.744 OA
ENDBRANCH  89  90
ENDBRANCH  63  84
ENDBRANCH  37  38
ENDBRANCH  30  32
ENDBRANCH  29  30
ENDBRANCH  28  29
ENDBRANCH  27  28
ENDBRANCH  26  27
ENDBRANCH   1  26
TORSDOF 23
ENDMDL
MODEL 3
REMARK VINA RESULT:     -10.5      4.463      9.505
REMARK SMILES Cc1ccccc1[C@@H](Cc1c(Cl)cccc1Cl)C(=O)OCCOCCOCCOC(=O)c1ccc(-c2c3nc(c(-c4ccc(S(=O)(=O)[O-])cc4)c4ccc([nH]4)c(-c4ccc(S(=O)(=O)[O-])cc4)c4nc(c(-c5ccc(S(=O)(=O)[O-])cc5)c5ccc2[nH]5)C=C4)C=C3)cc1
REMARK SMILES IDX 25 1 24 2 23 3 22 4 21 5 20 6 18 7 19 8 8 9 7 10 1 11 2 12
REMARK SMILES IDX 3 13 4 14 6 15 5 16 9 17 10 18 11 19 16 20 12 21 13 22 15 23
REMARK SMILES IDX 17 24 14 25 26 26 27 27 28 28 29 29 30 30 31 31 32 32 33 33
REMARK SMILES IDX 91 34 34 35 90 36 35 37 36 38 37 39 84 40 38 41 89 42 83 43
REMARK SMILES IDX 85 44 39 45 88 46 82 47 81 48 40 50 70 51 51 52 69 53 52 54
REMARK SMILES IDX 55 55 68 56 86 57 53 58 54 59 67 61 87 62 56 63 41 64 42 65
REMARK SMILES IDX 50 66 43 67 49 68 44 69 45 70 46 71 47 72 48 73 71 74 72 75
REMARK SMILES IDX 80 76 73 77 79 78 74 79 75 80 76 81 77 82 78 83 57 84 58 85
REMARK SMILES IDX 66 86 59 87 65 88 60 89 61 90 62 91 63 92 64 93
REMARK H PARENT 85 49 55 60
REMARK Flexibility Score: inf
ROOT
ATOM      1  C   UNL A   1      41.092  19.992  26.656  1.00  0.00     0.188 C 
ENDROOT
BRANCH   1   2
ATOM      2  C   UNL A   1      39.927  19.595  25.746  1.00  0.00     0.188 C 
BRANCH   2   3
ATOM      3  O   UNL A   1      38.675  20.310  25.640  1.00  0.00    -0.376 OA
BRANCH   3   4
ATOM      4  C   UNL A   1      38.489  21.738  25.602  1.00  0.00     0.202 C 
BRANCH   4   5
ATOM      5  C   UNL A   1      37.077  22.700  25.198  1.00  0.00     0.261 C 
BRANCH   5   6
ATOM      6  O   UNL A   1      35.818  22.545  23.971  1.00  0.00    -0.463 OA
BRANCH   6   7
ATOM      7  C   UNL A   1      34.583  23.198  23.565  1.00  0.00     0.313 C 
ATOM      8  O   UNL A   1      34.451  24.046  22.675  1.00  0.00    -0.252 OA
BRANCH   7   9
ATOM      9  C   UNL A   1      33.214  22.958  24.116  1.00  0.00     0.134 C 
BRANCH   9  10
ATOM     10  C   UNL A   1      32.865  21.530  24.379  1.00  0.00    -0.031 A 
ATOM     11  C   UNL A   1      31.942  21.170  21.981  1.00  0.00     0.044 C 
ATOM     12  C   UNL A   1      32.420  20.689  23.333  1.00  0.00    -0.047 A 
ATOM     13  C   UNL A   1      32.403  19.310  23.556  1.00  0.00     0.004 A 
ATOM     14  C   UNL A   1      32.803  18.778  24.781  1.00  0.00     0.000 A 
ATOM     15  C   UNL A   1      33.169  20.991  25.639  1.00  0.00     0.005 A 
ATOM     16  C   UNL A   1      33.165  19.617  25.828  1.00  0.00     0.000 A 
ENDBRANCH   9  10
BRANCH   9  17
ATOM     17  C   UNL A   1      32.777  24.071  25.177  1.00  0.00     0.058 C 
BRANCH  17  18
ATOM     18  C   UNL A   1      32.074  25.402  24.744  1.00  0.00    -0.010 A 
ATOM     19  C   UNL A   1      30.900  25.399  23.948  1.00  0.00     0.045 A 
ATOM     20  C   UNL A   1      32.536  26.691  25.107  1.00  0.00     0.045 A 
ATOM     21  Cl  UNL A   1      30.308  23.960  23.183  1.00  0.00    -0.084 Cl
ATOM     22  C   UNL A   1      30.167  26.576  23.669  1.00  0.00     0.021 A 
ATOM     23  C   UNL A   1      31.794  27.864  24.842  1.00  0.00     0.021 A 
ATOM     24  Cl  UNL A   1      34.086  26.964  25.820  1.00  0.00    -0.084 Cl
ATOM     25  C   UNL A   1      30.595  27.807  24.147  1.00  0.00     0.003 A 
ENDBRANCH  17  18
ENDBRANCH   9  17
ENDBRANCH   7   9
ENDBRANCH   6   7
ENDBRANCH   5   6
ENDBRANCH   4   5
ENDBRANCH   3   4
ENDBRANCH   2   3
ENDBRANCH   1   2
BRANCH   1  26
ATOM     26  O   UNL A   1      42.337  19.862  26.001  1.00  0.00    -0.376 OA
BRANCH  26  27
ATOM     27  C   UNL A   1      43.101  21.056  25.916  1.00  0.00     0.202 C 
BRANCH  27  28
ATOM     28  C   UNL A   1      42.306  22.327  25.541  1.00  0.00     0.261 C 
BRANCH  28  29
ATOM     29  O   UNL A   1      42.747  23.523  26.232  1.00  0.00    -0.460 OA
BRANCH  29  30
ATOM     30  C   UNL A   1      42.081  23.906  27.397  1.00  0.00     0.338 C 
ATOM     31  O   UNL A   1      41.159  23.286  27.842  1.00  0.00    -0.246 OA
BRANCH  30  32
ATOM     32  C   UNL A   1      42.847  24.995  28.106  1.00  0.00     0.060 A 
ATOM     33  C   UNL A   1      43.501  25.012  29.347  1.00  0.00     0.016 A 
ATOM     34  C   UNL A   1      42.841  26.173  27.462  1.00  0.00     0.016 A 
ATOM     35  C   UNL A   1      43.915  26.258  30.018  1.00  0.00     0.010 A 
ATOM     36  C   UNL A   1      43.071  27.316  28.209  1.00  0.00     0.010 A 
ATOM     37  C   UNL A   1      43.630  27.528  29.502  1.00  0.00    -0.014 A 
BRANCH  37  38
ATOM     38  C   UNL A   1      43.813  29.053  30.271  1.00  0.00     0.031 A 
ATOM     39  C   UNL A   1      42.681  30.201  30.988  1.00  0.00     0.074 A 
ATOM     40  C   UNL A   1      45.043  29.607  30.204  1.00  0.00     0.049 A 
ATOM     41  N   UNL A   1      42.894  31.502  31.058  1.00  0.00    -0.248 NA
ATOM     42  C   UNL A   1      41.219  30.032  31.463  1.00  0.00     0.031 C 
ATOM     43  C   UNL A   1      45.551  30.743  30.964  1.00  0.00     0.029 A 
ATOM     44  N   UNL A   1      46.070  29.305  29.316  1.00  0.00    -0.354 N 
ATOM     45  C   UNL A   1      41.799  32.085  31.703  1.00  0.00     0.074 A 
ATOM     46  C   UNL A   1      40.703  31.236  31.549  1.00  0.00     0.031 C 
ATOM     47  C   UNL A   1      46.650  31.208  30.355  1.00  0.00     0.029 A 
ATOM     48  C   UNL A   1      46.794  30.482  29.109  1.00  0.00     0.049 A 
ATOM     49  H   UNL A   1      46.253  28.427  28.910  1.00  0.00     0.167 HD
ATOM     50  C   UNL A   1      41.894  33.118  32.575  1.00  0.00     0.031 A 
ATOM     51  C   UNL A   1      46.890  31.011  27.860  1.00  0.00     0.031 A 
ATOM     52  C   UNL A   1      43.062  33.886  32.234  1.00  0.00     0.049 A 
ATOM     53  C   UNL A   1      46.341  32.422  27.777  1.00  0.00     0.074 A 
ATOM     54  C   UNL A   1      44.305  34.105  32.783  1.00  0.00     0.029 A 
ATOM     55  N   UNL A   1      43.158  34.257  30.900  1.00  0.00    -0.354 N 
ATOM     56  N   UNL A   1      45.870  33.106  28.788  1.00  0.00    -0.248 NA
ATOM     57  C   UNL A   1      46.235  33.164  26.526  1.00  0.00     0.031 C 
ATOM     58  C   UNL A   1      45.164  34.565  31.726  1.00  0.00     0.029 A 
ATOM     59  C   UNL A   1      44.419  34.691  30.566  1.00  0.00     0.049 A 
ATOM     60  H   UNL A   1      42.407  34.215  30.265  1.00  0.00     0.167 HD
ATOM     61  C   UNL A   1      45.312  34.281  28.353  1.00  0.00     0.074 A 
ATOM     62  C   UNL A   1      45.594  34.277  26.924  1.00  0.00     0.031 C 
ATOM     63  C   UNL A   1      44.611  35.123  29.180  1.00  0.00     0.031 A 
BRANCH  50  64
ATOM     64  C   UNL A   1      40.949  33.256  33.786  1.00  0.00    -0.014 A 
ATOM     65  C   UNL A   1      41.237  32.612  35.000  1.00  0.00     0.010 A 
ATOM     66  C   UNL A   1      39.678  33.905  33.756  1.00  0.00     0.010 A 
ATOM     67  C   UNL A   1      40.323  32.615  36.087  1.00  0.00     0.020 A 
ATOM     68  C   UNL A   1      38.787  33.968  34.838  1.00  0.00     0.020 A 
ATOM     69  C   UNL A   1      39.103  33.293  35.999  1.00  0.00     0.054 A 
BRANCH  69  70
ATOM     70  S   UNL A   1      37.901  33.241  37.359  1.00  0.00     0.124 S 
ATOM     71  O   UNL A   1      38.334  34.357  38.197  1.00  0.00    -0.237 OA
ATOM     72  O   UNL A   1      36.628  33.421  36.670  1.00  0.00    -0.237 OA
ATOM     73  O   UNL A   1      38.099  31.918  37.952  1.00  0.00    -0.744 OA
ENDBRANCH  69  70
ENDBRANCH  50  64
BRANCH  51  74
ATOM     74  C   UNL A   1      46.979  29.949  26.794  1.00  0.00    -0.014 A 
ATOM     75  C   UNL A   1      48.150  29.150  26.811  1.00  0.00     0.010 A 
ATOM     76  C   UNL A   1      45.864  29.452  26.094  1.00  0.00     0.010 A 
ATOM     77  C   UNL A   1      48.162  27.848  26.297  1.00  0.00     0.020 A 
ATOM     78  C   UNL A   1      45.885  28.149  25.537  1.00  0.00     0.020 A 
ATOM     79  C   UNL A   1      47.013  27.337  25.701  1.00  0.00     0.054 A 
BRANCH  79  80
ATOM     80  S   UNL A   1      46.988  25.550  25.331  1.00  0.00     0.124 S 
ATOM     81  O   UNL A   1      47.609  24.971  26.518  1.00  0.00    -0.237 OA
ATOM     82  O   UNL A   1      45.554  25.292  25.190  1.00  0.00    -0.237 OA
ATOM     83  O   UNL A   1      47.769  25.444  24.102  1.00  0.00    -0.744 OA
ENDBRANCH  79  80
ENDBRANCH  51  74
BRANCH  63  84
ATOM     84  C   UNL A   1      43.868  36.373  28.723  1.00  0.00    -0.014 A 
ATOM     85  C   UNL A   1      44.260  37.679  29.036  1.00  0.00     0.010 A 
ATOM     86  C   UNL A   1      42.681  36.252  27.951  1.00  0.00     0.010 A 
ATOM     87  C   UNL A   1      43.611  38.792  28.480  1.00  0.00     0.020 A 
ATOM     88  C   UNL A   1      42.017  37.347  27.397  1.00  0.00     0.020 A 
ATOM     89  C   UNL A   1      42.511  38.616  27.637  1.00  0.00     0.054 A 
BRANCH  89  90
ATOM     90  S   UNL A   1      41.729  40.061  26.888  1.00  0.00     0.124 S 
ATOM     91  O   UNL A   1      40.826  39.453  25.915  1.00  0.00    -0.237 OA
ATOM     92  O   UNL A   1      41.087  40.688  28.040  1.00  0.00    -0.237 OA
ATOM     93  O   UNL A   1      42.846  40.809  26.317  1.00  0.00    -0.744 OA
ENDBRANCH  89  90
ENDBRANCH  63  84
ENDBRANCH  37  38
ENDBRANCH  30  32
ENDBRANCH  29  30
ENDBRANCH  28  29
ENDBRANCH  27  28
ENDBRANCH  26  27
ENDBRANCH   1  26
TORSDOF 23
ENDMDL
