MODEL 1
REMARK VINA RESULT:      -9.4      0.000      0.000
REMARK SMILES O=C(CNC(=O)OCc1ccccc1)NCC(=O)OCCOCCOCCOC(=O)c1ccc(-c2c3nc(c(-c4ccc(S(=O)(=O)[O-])cc4)c4ccc([nH]4)c(-c4ccc(S(=O)(=O)[O-])cc4)c4nc(c(-c5ccc(S(=O)(=O)[O-])cc5)c5ccc2[nH]5)C=C4)C=C3)cc1
REMARK SMILES IDX 22 1 21 2 20 3 19 4 17 5 18 6 16 7 15 8 1 9 2 10 3 12 4 13
REMARK SMILES IDX 5 14 6 16 7 17 8 18 9 19 10 20 14 21 11 22 13 23 12 24 23 25
REMARK SMILES IDX 24 26 25 27 26 28 27 29 28 30 29 31 30 32 31 33 32 34 90 35
REMARK SMILES IDX 33 36 89 37 34 38 35 39 36 40 83 41 37 42 88 43 82 44 84 45
REMARK SMILES IDX 38 46 87 47 81 48 80 49 39 51 69 52 50 53 68 54 51 55 54 56
REMARK SMILES IDX 67 57 85 58 52 59 53 60 66 62 86 63 55 64 40 65 41 66 49 67
REMARK SMILES IDX 42 68 48 69 43 70 44 71 45 72 46 73 47 74 70 75 71 76 79 77
REMARK SMILES IDX 72 78 78 79 73 80 74 81 75 82 76 83 77 84 56 85 57 86 65 87
REMARK SMILES IDX 58 88 64 89 59 90 60 91 61 92 62 93 63 94
REMARK H PARENT 15 11 4 15 84 50 54 61
REMARK Flexibility Score: inf
ROOT
ATOM      1  O   UNL A   1      38.812  23.172  26.150  1.00  0.00    -0.376 OA
ENDROOT
BRANCH   1   2
ATOM      2  C   UNL A   1      37.854  22.118  26.067  1.00  0.00     0.202 C 
BRANCH   2   3
ATOM      3  C   UNL A   1      37.594  21.451  24.705  1.00  0.00     0.261 C 
BRANCH   3   4
ATOM      4  O   UNL A   1      36.233  21.572  24.238  1.00  0.00    -0.462 OA
BRANCH   4   5
ATOM      5  C   UNL A   1      35.947  22.705  23.543  1.00  0.00     0.325 C 
ATOM      6  O   UNL A   1      36.593  23.092  22.571  1.00  0.00    -0.250 OA
BRANCH   5   7
ATOM      7  C   UNL A   1      34.634  23.393  23.952  1.00  0.00     0.238 C 
BRANCH   7   8
ATOM      8  N   UNL A   1      34.092  24.542  23.240  1.00  0.00    -0.344 N 
ATOM      9  O   UNL A   1      33.276  23.391  21.442  1.00  0.00    -0.273 OA
ATOM     10  C   UNL A   1      33.376  24.440  22.071  1.00  0.00     0.240 C 
ATOM     11  H   UNL A   1      34.245  25.439  23.616  1.00  0.00     0.164 HD
BRANCH  10  12
ATOM     12  C   UNL A   1      32.822  25.779  21.550  1.00  0.00     0.219 C 
BRANCH  12  13
ATOM     13  N   UNL A   1      33.629  26.899  22.017  1.00  0.00    -0.312 N 
ATOM     14  C   UNL A   1      33.195  28.056  22.588  1.00  0.00     0.407 C 
ATOM     15  H   UNL A   1      34.603  26.807  21.908  1.00  0.00     0.167 HD
ATOM     16  O   UNL A   1      33.995  28.951  22.837  1.00  0.00    -0.225 OA
BRANCH  14  17
ATOM     17  O   UNL A   1      31.864  28.089  22.819  1.00  0.00    -0.445 OA
BRANCH  17  18
ATOM     18  C   UNL A   1      31.433  29.039  23.811  1.00  0.00     0.270 C 
BRANCH  18  19
ATOM     19  C   UNL A   1      29.993  29.434  23.578  1.00  0.00    -0.011 A 
ATOM     20  C   UNL A   1      29.072  28.494  23.091  1.00  0.00     0.007 A 
ATOM     21  C   UNL A   1      29.556  30.744  23.815  1.00  0.00     0.007 A 
ATOM     22  C   UNL A   1      27.748  28.857  22.838  1.00  0.00     0.000 A 
ATOM     23  C   UNL A   1      28.227  31.104  23.570  1.00  0.00     0.000 A 
ATOM     24  C   UNL A   1      27.326  30.163  23.076  1.00  0.00     0.000 A 
ENDBRANCH  18  19
ENDBRANCH  17  18
ENDBRANCH  14  17
ENDBRANCH  12  13
ENDBRANCH  10  12
ENDBRANCH   7   8
ENDBRANCH   5   7
ENDBRANCH   4   5
ENDBRANCH   3   4
ENDBRANCH   2   3
ENDBRANCH   1   2
BRANCH   1  25
ATOM     25  C   UNL A   1      39.964  22.975  26.957  1.00  0.00     0.188 C 
BRANCH  25  26
ATOM     26  C   UNL A   1      40.815  21.718  26.712  1.00  0.00     0.188 C 
BRANCH  26  27
ATOM     27  O   UNL A   1      42.199  21.917  26.583  1.00  0.00    -0.376 OA
BRANCH  27  28
ATOM     28  C   UNL A   1      42.737  22.518  25.421  1.00  0.00     0.202 C 
BRANCH  28  29
ATOM     29  C   UNL A   1      43.160  23.995  25.291  1.00  0.00     0.261 C 
BRANCH  29  30
ATOM     30  O   UNL A   1      42.889  24.884  26.376  1.00  0.00    -0.460 OA
BRANCH  30  31
ATOM     31  C   UNL A   1      42.125  25.972  26.105  1.00  0.00     0.338 C 
ATOM     32  O   UNL A   1      41.558  26.227  25.059  1.00  0.00    -0.246 OA
BRANCH  31  33
ATOM     33  C   UNL A   1      41.909  26.668  27.394  1.00  0.00     0.060 A 
ATOM     34  C   UNL A   1      40.954  26.168  28.292  1.00  0.00     0.016 A 
ATOM     35  C   UNL A   1      42.694  27.769  27.737  1.00  0.00     0.016 A 
ATOM     36  C   UNL A   1      40.798  26.760  29.547  1.00  0.00     0.010 A 
ATOM     37  C   UNL A   1      42.511  28.381  28.979  1.00  0.00     0.010 A 
ATOM     38  C   UNL A   1      41.559  27.885  29.887  1.00  0.00    -0.014 A 
BRANCH  38  39
ATOM     39  C   UNL A   1      41.269  28.652  31.122  1.00  0.00     0.031 A 
ATOM     40  C   UNL A   1      40.155  29.659  31.093  1.00  0.00     0.074 A 
ATOM     41  C   UNL A   1      42.005  28.489  32.237  1.00  0.00     0.049 A 
ATOM     42  N   UNL A   1      39.811  30.540  31.993  1.00  0.00    -0.248 NA
ATOM     43  C   UNL A   1      39.321  29.672  29.880  1.00  0.00     0.031 C 
ATOM     44  C   UNL A   1      43.071  27.505  32.416  1.00  0.00     0.029 A 
ATOM     45  N   UNL A   1      41.973  29.172  33.429  1.00  0.00    -0.354 N 
ATOM     46  C   UNL A   1      38.729  31.225  31.453  1.00  0.00     0.074 A 
ATOM     47  C   UNL A   1      38.488  30.669  30.139  1.00  0.00     0.031 C 
ATOM     48  C   UNL A   1      43.605  27.659  33.640  1.00  0.00     0.029 A 
ATOM     49  C   UNL A   1      42.954  28.783  34.311  1.00  0.00     0.049 A 
ATOM     50  H   UNL A   1      41.311  29.871  33.632  1.00  0.00     0.167 HD
ATOM     51  C   UNL A   1      38.003  32.229  32.001  1.00  0.00     0.031 A 
ATOM     52  C   UNL A   1      43.310  29.302  35.505  1.00  0.00     0.031 A 
ATOM     53  C   UNL A   1      38.266  32.797  33.296  1.00  0.00     0.049 A 
ATOM     54  C   UNL A   1      42.565  30.498  36.045  1.00  0.00     0.074 A 
ATOM     55  C   UNL A   1      37.585  33.815  33.940  1.00  0.00     0.029 A 
ATOM     56  N   UNL A   1      39.297  32.410  34.136  1.00  0.00    -0.354 N 
ATOM     57  N   UNL A   1      41.533  31.128  35.532  1.00  0.00    -0.248 NA
ATOM     58  C   UNL A   1      43.036  31.056  37.321  1.00  0.00     0.031 C 
ATOM     59  C   UNL A   1      38.246  34.087  35.142  1.00  0.00     0.029 A 
ATOM     60  C   UNL A   1      39.295  33.193  35.278  1.00  0.00     0.049 A 
ATOM     61  H   UNL A   1      39.936  31.685  33.949  1.00  0.00     0.167 HD
ATOM     62  C   UNL A   1      41.218  32.139  36.436  1.00  0.00     0.074 A 
ATOM     63  C   UNL A   1      42.159  32.029  37.532  1.00  0.00     0.031 C 
ATOM     64  C   UNL A   1      40.238  33.073  36.364  1.00  0.00     0.031 A 
BRANCH  51  65
ATOM     65  C   UNL A   1      36.886  32.805  31.174  1.00  0.00    -0.014 A 
ATOM     66  C   UNL A   1      35.541  32.496  31.445  1.00  0.00     0.010 A 
ATOM     67  C   UNL A   1      37.186  33.689  30.121  1.00  0.00     0.010 A 
ATOM     68  C   UNL A   1      34.520  33.025  30.652  1.00  0.00     0.020 A 
ATOM     69  C   UNL A   1      36.166  34.244  29.343  1.00  0.00     0.020 A 
ATOM     70  C   UNL A   1      34.840  33.894  29.604  1.00  0.00     0.054 A 
BRANCH  70  71
ATOM     71  S   UNL A   1      33.494  34.573  28.597  1.00  0.00     0.124 S 
ATOM     72  O   UNL A   1      32.523  34.965  29.616  1.00  0.00    -0.237 OA
ATOM     73  O   UNL A   1      34.145  35.675  27.894  1.00  0.00    -0.237 OA
ATOM     74  O   UNL A   1      33.090  33.451  27.754  1.00  0.00    -0.744 OA
ENDBRANCH  70  71
ENDBRANCH  51  65
BRANCH  52  75
ATOM     75  C   UNL A   1      44.452  28.718  36.263  1.00  0.00    -0.014 A 
ATOM     76  C   UNL A   1      45.768  29.146  36.014  1.00  0.00     0.010 A 
ATOM     77  C   UNL A   1      44.231  27.723  37.234  1.00  0.00     0.010 A 
ATOM     78  C   UNL A   1      46.841  28.584  36.715  1.00  0.00     0.020 A 
ATOM     79  C   UNL A   1      45.297  27.181  37.957  1.00  0.00     0.020 A 
ATOM     80  C   UNL A   1      46.597  27.609  37.686  1.00  0.00     0.054 A 
BRANCH  80  81
ATOM     81  S   UNL A   1      48.001  26.938  38.620  1.00  0.00     0.124 S 
ATOM     82  O   UNL A   1      48.817  28.127  38.840  1.00  0.00    -0.237 OA
ATOM     83  O   UNL A   1      47.352  26.387  39.807  1.00  0.00    -0.237 OA
ATOM     84  O   UNL A   1      48.572  25.945  37.713  1.00  0.00    -0.744 OA
ENDBRANCH  80  81
ENDBRANCH  52  75
BRANCH  64  85
ATOM     85  C   UNL A   1      40.100  34.041  37.511  1.00  0.00    -0.014 A 
ATOM     86  C   UNL A   1      40.711  35.307  37.474  1.00  0.00     0.010 A 
ATOM     87  C   UNL A   1      39.270  33.714  38.601  1.00  0.00     0.010 A 
ATOM     88  C   UNL A   1      40.506  36.222  38.511  1.00  0.00     0.020 A 
ATOM     89  C   UNL A   1      39.039  34.638  39.624  1.00  0.00     0.020 A 
ATOM     90  C   UNL A   1      39.664  35.884  39.576  1.00  0.00     0.054 A 
BRANCH  90  91
ATOM     91  S   UNL A   1      39.353  37.121  40.868  1.00  0.00     0.124 S 
ATOM     92  O   UNL A   1      38.363  37.984  40.232  1.00  0.00    -0.237 OA
ATOM     93  O   UNL A   1      38.859  36.306  41.976  1.00  0.00    -0.237 OA
ATOM     94  O   UNL A   1      40.663  37.730  41.087  1.00  0.00    -0.744 OA
ENDBRANCH  90  91
ENDBRANCH  64  85
ENDBRANCH  38  39
ENDBRANCH  31  33
ENDBRANCH  30  31
ENDBRANCH  29  30
ENDBRANCH  28  29
ENDBRANCH  27  28
ENDBRANCH  26  27
ENDBRANCH  25  26
ENDBRANCH   1  25
TORSDOF 26
ENDMDL
MODEL 2
REMARK VINA RESULT:      -9.1      5.219      9.499
REMARK SMILES O=C(CNC(=O)OCc1ccccc1)NCC(=O)OCCOCCOCCOC(=O)c1ccc(-c2c3nc(c(-c4ccc(S(=O)(=O)[O-])cc4)c4ccc([nH]4)c(-c4ccc(S(=O)(=O)[O-])cc4)c4nc(c(-c5ccc(S(=O)(=O)[O-])cc5)c5ccc2[nH]5)C=C4)C=C3)cc1
REMARK SMILES IDX 22 1 21 2 20 3 19 4 17 5 18 6 16 7 15 8 1 9 2 10 3 12 4 13
REMARK SMILES IDX 5 14 6 16 7 17 8 18 9 19 10 20 14 21 11 22 13 23 12 24 23 25
REMARK SMILES IDX 24 26 25 27 26 28 27 29 28 30 29 31 30 32 31 33 32 34 90 35
REMARK SMILES IDX 33 36 89 37 34 38 35 39 36 40 83 41 37 42 88 43 82 44 84 45
REMARK SMILES IDX 38 46 87 47 81 48 80 49 39 51 69 52 50 53 68 54 51 55 54 56
REMARK SMILES IDX 67 57 85 58 52 59 53 60 66 62 86 63 55 64 40 65 41 66 49 67
REMARK SMILES IDX 42 68 48 69 43 70 44 71 45 72 46 73 47 74 70 75 71 76 79 77
REMARK SMILES IDX 72 78 78 79 73 80 74 81 75 82 76 83 77 84 56 85 57 86 65 87
REMARK SMILES IDX 58 88 64 89 59 90 60 91 61 92 62 93 63 94
REMARK H PARENT 15 11 4 15 84 50 54 61
REMARK Flexibility Score: inf
ROOT
ATOM      1  O   UNL A   1      32.445  20.674  25.178  1.00  0.00    -0.376 OA
ENDROOT
BRANCH   1   2
ATOM      2  C   UNL A   1      32.381  20.538  23.759  1.00  0.00     0.202 C 
BRANCH   2   3
ATOM      3  C   UNL A   1      31.979  21.756  22.910  1.00  0.00     0.261 C 
BRANCH   3   4
ATOM      4  O   UNL A   1      32.989  22.179  21.968  1.00  0.00    -0.462 OA
BRANCH   4   5
ATOM      5  C   UNL A   1      33.591  23.368  22.245  1.00  0.00     0.325 C 
ATOM      6  O   UNL A   1      34.707  23.467  22.748  1.00  0.00    -0.250 OA
BRANCH   5   7
ATOM      7  C   UNL A   1      32.840  24.602  21.718  1.00  0.00     0.238 C 
BRANCH   7   8
ATOM      8  N   UNL A   1      32.404  25.688  22.584  1.00  0.00    -0.344 N 
ATOM      9  O   UNL A   1      33.790  27.293  21.731  1.00  0.00    -0.273 OA
ATOM     10  C   UNL A   1      32.858  26.980  22.467  1.00  0.00     0.240 C 
ATOM     11  H   UNL A   1      31.749  25.486  23.291  1.00  0.00     0.164 HD
BRANCH  10  12
ATOM     12  C   UNL A   1      32.186  27.977  23.429  1.00  0.00     0.219 C 
BRANCH  12  13
ATOM     13  N   UNL A   1      31.611  27.290  24.579  1.00  0.00    -0.312 N 
ATOM     14  C   UNL A   1      31.402  27.789  25.827  1.00  0.00     0.407 C 
ATOM     15  H   UNL A   1      31.341  26.354  24.434  1.00  0.00     0.167 HD
ATOM     16  O   UNL A   1      31.000  27.052  26.720  1.00  0.00    -0.225 OA
BRANCH  14  17
ATOM     17  O   UNL A   1      31.682  29.106  25.946  1.00  0.00    -0.445 OA
BRANCH  17  18
ATOM     18  C   UNL A   1      31.928  29.566  27.287  1.00  0.00     0.270 C 
BRANCH  18  19
ATOM     19  C   UNL A   1      33.349  30.063  27.425  1.00  0.00    -0.011 A 
ATOM     20  C   UNL A   1      34.424  29.166  27.337  1.00  0.00     0.007 A 
ATOM     21  C   UNL A   1      33.621  31.416  27.670  1.00  0.00     0.007 A 
ATOM     22  C   UNL A   1      35.738  29.607  27.499  1.00  0.00     0.000 A 
ATOM     23  C   UNL A   1      34.938  31.859  27.823  1.00  0.00     0.000 A 
ATOM     24  C   UNL A   1      35.995  30.954  27.744  1.00  0.00     0.000 A 
ENDBRANCH  18  19
ENDBRANCH  17  18
ENDBRANCH  14  17
ENDBRANCH  12  13
ENDBRANCH  10  12
ENDBRANCH   7   8
ENDBRANCH   5   7
ENDBRANCH   4   5
ENDBRANCH   3   4
ENDBRANCH   2   3
ENDBRANCH   1   2
BRANCH   1  25
ATOM     25  C   UNL A   1      33.148  21.783  25.718  1.00  0.00     0.188 C 
BRANCH  25  26
ATOM     26  C   UNL A   1      34.565  21.548  26.266  1.00  0.00     0.188 C 
BRANCH  26  27
ATOM     27  O   UNL A   1      35.392  20.697  25.514  1.00  0.00    -0.376 OA
BRANCH  27  28
ATOM     28  C   UNL A   1      36.525  21.206  24.835  1.00  0.00     0.202 C 
BRANCH  28  29
ATOM     29  C   UNL A   1      37.986  21.068  25.305  1.00  0.00     0.261 C 
BRANCH  29  30
ATOM     30  O   UNL A   1      38.675  22.235  25.758  1.00  0.00    -0.460 OA
BRANCH  30  31
ATOM     31  C   UNL A   1      39.639  22.057  26.695  1.00  0.00     0.338 C 
ATOM     32  O   UNL A   1      40.152  21.004  27.028  1.00  0.00    -0.246 OA
BRANCH  31  33
ATOM     33  C   UNL A   1      40.123  23.407  27.065  1.00  0.00     0.060 A 
ATOM     34  C   UNL A   1      39.656  24.521  26.354  1.00  0.00     0.016 A 
ATOM     35  C   UNL A   1      40.984  23.570  28.151  1.00  0.00     0.016 A 
ATOM     36  C   UNL A   1      40.034  25.808  26.743  1.00  0.00     0.010 A 
ATOM     37  C   UNL A   1      41.389  24.856  28.516  1.00  0.00     0.010 A 
ATOM     38  C   UNL A   1      40.923  25.980  27.811  1.00  0.00    -0.014 A 
BRANCH  38  39
ATOM     39  C   UNL A   1      41.499  27.312  28.113  1.00  0.00     0.031 A 
ATOM     40  C   UNL A   1      42.982  27.499  27.967  1.00  0.00     0.074 A 
ATOM     41  C   UNL A   1      40.728  28.327  28.545  1.00  0.00     0.049 A 
ATOM     42  N   UNL A   1      43.726  28.517  28.305  1.00  0.00    -0.248 NA
ATOM     43  C   UNL A   1      43.722  26.379  27.362  1.00  0.00     0.031 C 
ATOM     44  C   UNL A   1      39.271  28.296  28.668  1.00  0.00     0.029 A 
ATOM     45  N   UNL A   1      41.076  29.583  28.979  1.00  0.00    -0.354 N 
ATOM     46  C   UNL A   1      45.026  28.160  27.968  1.00  0.00     0.074 A 
ATOM     47  C   UNL A   1      44.969  26.823  27.418  1.00  0.00     0.031 C 
ATOM     48  C   UNL A   1      38.852  29.473  29.165  1.00  0.00     0.029 A 
ATOM     49  C   UNL A   1      40.011  30.321  29.440  1.00  0.00     0.049 A 
ATOM     50  H   UNL A   1      42.000  29.923  28.961  1.00  0.00     0.167 HD
ATOM     51  C   UNL A   1      46.165  28.880  28.108  1.00  0.00     0.031 A 
ATOM     52  C   UNL A   1      39.980  31.523  30.051  1.00  0.00     0.031 A 
ATOM     53  C   UNL A   1      46.219  30.197  28.683  1.00  0.00     0.049 A 
ATOM     54  C   UNL A   1      41.275  32.258  30.306  1.00  0.00     0.074 A 
ATOM     55  C   UNL A   1      47.324  31.009  28.865  1.00  0.00     0.029 A 
ATOM     56  N   UNL A   1      45.126  30.888  29.182  1.00  0.00    -0.354 N 
ATOM     57  N   UNL A   1      42.497  31.918  29.969  1.00  0.00    -0.248 NA
ATOM     58  C   UNL A   1      41.185  33.535  31.028  1.00  0.00     0.031 C 
ATOM     59  C   UNL A   1      46.909  32.165  29.534  1.00  0.00     0.029 A 
ATOM     60  C   UNL A   1      45.535  32.103  29.707  1.00  0.00     0.049 A 
ATOM     61  H   UNL A   1      44.197  30.564  29.167  1.00  0.00     0.167 HD
ATOM     62  C   UNL A   1      43.315  32.951  30.416  1.00  0.00     0.074 A 
ATOM     63  C   UNL A   1      42.450  33.933  31.035  1.00  0.00     0.031 C 
ATOM     64  C   UNL A   1      44.663  33.074  30.321  1.00  0.00     0.031 A 
BRANCH  51  65
ATOM     65  C   UNL A   1      47.450  28.230  27.671  1.00  0.00    -0.014 A 
ATOM     66  C   UNL A   1      47.969  28.432  26.380  1.00  0.00     0.010 A 
ATOM     67  C   UNL A   1      48.163  27.423  28.578  1.00  0.00     0.010 A 
ATOM     68  C   UNL A   1      49.154  27.802  25.989  1.00  0.00     0.020 A 
ATOM     69  C   UNL A   1      49.363  26.816  28.200  1.00  0.00     0.020 A 
ATOM     70  C   UNL A   1      49.841  26.996  26.901  1.00  0.00     0.054 A 
BRANCH  70  71
ATOM     71  S   UNL A   1      51.381  26.200  26.368  1.00  0.00     0.124 S 
ATOM     72  O   UNL A   1      52.392  27.072  26.961  1.00  0.00    -0.237 OA
ATOM     73  O   UNL A   1      51.275  24.870  26.960  1.00  0.00    -0.237 OA
ATOM     74  O   UNL A   1      51.306  26.239  24.910  1.00  0.00    -0.744 OA
ENDBRANCH  70  71
ENDBRANCH  51  65
BRANCH  52  75
ATOM     75  C   UNL A   1      38.683  32.101  30.501  1.00  0.00    -0.014 A 
ATOM     76  C   UNL A   1      38.079  33.147  29.782  1.00  0.00     0.010 A 
ATOM     77  C   UNL A   1      38.046  31.612  31.658  1.00  0.00     0.010 A 
ATOM     78  C   UNL A   1      36.869  33.699  30.216  1.00  0.00     0.020 A 
ATOM     79  C   UNL A   1      36.823  32.141  32.077  1.00  0.00     0.020 A 
ATOM     80  C   UNL A   1      36.246  33.189  31.357  1.00  0.00     0.054 A 
BRANCH  80  81
ATOM     81  S   UNL A   1      34.649  33.886  31.866  1.00  0.00     0.124 S 
ATOM     82  O   UNL A   1      34.215  32.938  32.887  1.00  0.00    -0.237 OA
ATOM     83  O   UNL A   1      35.027  35.211  32.352  1.00  0.00    -0.237 OA
ATOM     84  O   UNL A   1      33.866  33.882  30.633  1.00  0.00    -0.744 OA
ENDBRANCH  80  81
ENDBRANCH  52  75
BRANCH  64  85
ATOM     85  C   UNL A   1      45.297  34.327  30.869  1.00  0.00    -0.014 A 
ATOM     86  C   UNL A   1      45.240  35.541  30.164  1.00  0.00     0.010 A 
ATOM     87  C   UNL A   1      45.878  34.307  32.152  1.00  0.00     0.010 A 
ATOM     88  C   UNL A   1      45.763  36.710  30.726  1.00  0.00     0.020 A 
ATOM     89  C   UNL A   1      46.375  35.479  32.728  1.00  0.00     0.020 A 
ATOM     90  C   UNL A   1      46.321  36.673  32.008  1.00  0.00     0.054 A 
BRANCH  90  91
ATOM     91  S   UNL A   1      46.921  38.220  32.744  1.00  0.00     0.124 S 
ATOM     92  O   UNL A   1      47.560  38.872  31.605  1.00  0.00    -0.237 OA
ATOM     93  O   UNL A   1      45.689  38.846  33.218  1.00  0.00    -0.237 OA
ATOM     94  O   UNL A   1      47.830  37.773  33.797  1.00  0.00    -0.744 OA
ENDBRANCH  90  91
ENDBRANCH  64  85
ENDBRANCH  38  39
ENDBRANCH  31  33
ENDBRANCH  30  31
ENDBRANCH  29  30
ENDBRANCH  28  29
ENDBRANCH  27  28
ENDBRANCH  26  27
ENDBRANCH  25  26
ENDBRANCH   1  25
TORSDOF 26
ENDMDL
MODEL 3
REMARK VINA RESULT:      -8.6      1.680      2.372
REMARK SMILES O=C(CNC(=O)OCc1ccccc1)NCC(=O)OCCOCCOCCOC(=O)c1ccc(-c2c3nc(c(-c4ccc(S(=O)(=O)[O-])cc4)c4ccc([nH]4)c(-c4ccc(S(=O)(=O)[O-])cc4)c4nc(c(-c5ccc(S(=O)(=O)[O-])cc5)c5ccc2[nH]5)C=C4)C=C3)cc1
REMARK SMILES IDX 22 1 21 2 20 3 19 4 17 5 18 6 16 7 15 8 1 9 2 10 3 12 4 13
REMARK SMILES IDX 5 14 6 16 7 17 8 18 9 19 10 20 14 21 11 22 13 23 12 24 23 25
REMARK SMILES IDX 24 26 25 27 26 28 27 29 28 30 29 31 30 32 31 33 32 34 90 35
REMARK SMILES IDX 33 36 89 37 34 38 35 39 36 40 83 41 37 42 88 43 82 44 84 45
REMARK SMILES IDX 38 46 87 47 81 48 80 49 39 51 69 52 50 53 68 54 51 55 54 56
REMARK SMILES IDX 67 57 85 58 52 59 53 60 66 62 86 63 55 64 40 65 41 66 49 67
REMARK SMILES IDX 42 68 48 69 43 70 44 71 45 72 46 73 47 74 70 75 71 76 79 77
REMARK SMILES IDX 72 78 78 79 73 80 74 81 75 82 76 83 77 84 56 85 57 86 65 87
REMARK SMILES IDX 58 88 64 89 59 90 60 91 61 92 62 93 63 94
REMARK H PARENT 15 11 4 15 84 50 54 61
REMARK Flexibility Score: inf
ROOT
ATOM      1  O   UNL A   1      39.194  22.693  26.460  1.00  0.00    -0.376 OA
ENDROOT
BRANCH   1   2
ATOM      2  C   UNL A   1      38.447  21.610  25.908  1.00  0.00     0.202 C 
BRANCH   2   3
ATOM      3  C   UNL A   1      37.087  21.900  25.250  1.00  0.00     0.261 C 
BRANCH   3   4
ATOM      4  O   UNL A   1      35.967  21.261  25.902  1.00  0.00    -0.462 OA
BRANCH   4   5
ATOM      5  C   UNL A   1      35.014  22.100  26.389  1.00  0.00     0.325 C 
ATOM      6  O   UNL A   1      35.067  23.324  26.293  1.00  0.00    -0.250 OA
BRANCH   5   7
ATOM      7  C   UNL A   1      33.755  21.397  26.923  1.00  0.00     0.238 C 
BRANCH   7   8
ATOM      8  N   UNL A   1      32.464  22.063  27.025  1.00  0.00    -0.344 N 
ATOM      9  O   UNL A   1      32.110  22.318  24.781  1.00  0.00    -0.273 OA
ATOM     10  C   UNL A   1      31.698  22.400  25.934  1.00  0.00     0.240 C 
ATOM     11  H   UNL A   1      32.122  22.282  27.921  1.00  0.00     0.164 HD
BRANCH  10  12
ATOM     12  C   UNL A   1      30.328  23.009  26.288  1.00  0.00     0.219 C 
BRANCH  12  13
ATOM     13  N   UNL A   1      30.468  24.389  26.736  1.00  0.00    -0.312 N 
ATOM     14  C   UNL A   1      30.374  25.521  25.985  1.00  0.00     0.407 C 
ATOM     15  H   UNL A   1      30.651  24.518  27.695  1.00  0.00     0.167 HD
ATOM     16  O   UNL A   1      30.617  26.610  26.491  1.00  0.00    -0.225 OA
BRANCH  14  17
ATOM     17  O   UNL A   1      30.011  25.300  24.702  1.00  0.00    -0.445 OA
BRANCH  17  18
ATOM     18  C   UNL A   1      29.835  26.481  23.899  1.00  0.00     0.270 C 
BRANCH  18  19
ATOM     19  C   UNL A   1      31.152  26.914  23.296  1.00  0.00    -0.011 A 
ATOM     20  C   UNL A   1      31.923  26.006  22.555  1.00  0.00     0.007 A 
ATOM     21  C   UNL A   1      31.641  28.213  23.486  1.00  0.00     0.007 A 
ATOM     22  C   UNL A   1      33.158  26.383  22.025  1.00  0.00     0.000 A 
ATOM     23  C   UNL A   1      32.874  28.594  22.946  1.00  0.00     0.000 A 
ATOM     24  C   UNL A   1      33.634  27.678  22.221  1.00  0.00     0.000 A 
ENDBRANCH  18  19
ENDBRANCH  17  18
ENDBRANCH  14  17
ENDBRANCH  12  13
ENDBRANCH  10  12
ENDBRANCH   7   8
ENDBRANCH   5   7
ENDBRANCH   4   5
ENDBRANCH   3   4
ENDBRANCH   2   3
ENDBRANCH   1   2
BRANCH   1  25
ATOM     25  C   UNL A   1      40.230  22.397  27.385  1.00  0.00     0.188 C 
BRANCH  25  26
ATOM     26  C   UNL A   1      41.248  21.308  27.010  1.00  0.00     0.188 C 
BRANCH  26  27
ATOM     27  O   UNL A   1      42.544  21.747  26.692  1.00  0.00    -0.376 OA
BRANCH  27  28
ATOM     28  C   UNL A   1      42.795  22.440  25.485  1.00  0.00     0.202 C 
BRANCH  28  29
ATOM     29  C   UNL A   1      42.526  23.938  25.240  1.00  0.00     0.261 C 
BRANCH  29  30
ATOM     30  O   UNL A   1      43.112  24.894  26.126  1.00  0.00    -0.460 OA
BRANCH  30  31
ATOM     31  C   UNL A   1      42.885  26.204  25.857  1.00  0.00     0.338 C 
ATOM     32  O   UNL A   1      42.741  26.713  24.760  1.00  0.00    -0.246 OA
BRANCH  31  33
ATOM     33  C   UNL A   1      42.603  26.860  27.154  1.00  0.00     0.060 A 
ATOM     34  C   UNL A   1      41.928  26.142  28.152  1.00  0.00     0.016 A 
ATOM     35  C   UNL A   1      43.063  28.154  27.401  1.00  0.00     0.016 A 
ATOM     36  C   UNL A   1      41.730  26.714  29.411  1.00  0.00     0.010 A 
ATOM     37  C   UNL A   1      42.833  28.736  28.649  1.00  0.00     0.010 A 
ATOM     38  C   UNL A   1      42.160  28.024  29.658  1.00  0.00    -0.014 A 
BRANCH  38  39
ATOM     39  C   UNL A   1      41.782  28.724  30.908  1.00  0.00     0.031 A 
ATOM     40  C   UNL A   1      40.596  29.646  30.881  1.00  0.00     0.074 A 
ATOM     41  C   UNL A   1      42.499  28.576  32.037  1.00  0.00     0.049 A 
ATOM     42  N   UNL A   1      40.164  30.467  31.800  1.00  0.00    -0.248 NA
ATOM     43  C   UNL A   1      39.796  29.640  29.645  1.00  0.00     0.031 C 
ATOM     44  C   UNL A   1      43.630  27.668  32.214  1.00  0.00     0.029 A 
ATOM     45  N   UNL A   1      42.385  29.213  33.250  1.00  0.00    -0.354 N 
ATOM     46  C   UNL A   1      39.049  31.089  31.251  1.00  0.00     0.074 A 
ATOM     47  C   UNL A   1      38.884  30.563  29.914  1.00  0.00     0.031 C 
ATOM     48  C   UNL A   1      44.119  27.818  33.458  1.00  0.00     0.029 A 
ATOM     49  C   UNL A   1      43.369  28.867  34.147  1.00  0.00     0.049 A 
ATOM     50  H   UNL A   1      41.668  29.854  33.457  1.00  0.00     0.167 HD
ATOM     51  C   UNL A   1      38.236  32.017  31.811  1.00  0.00     0.031 A 
ATOM     52  C   UNL A   1      43.655  29.369  35.366  1.00  0.00     0.031 A 
ATOM     53  C   UNL A   1      38.422  32.558  33.131  1.00  0.00     0.049 A 
ATOM     54  C   UNL A   1      42.808  30.487  35.924  1.00  0.00     0.074 A 
ATOM     55  C   UNL A   1      37.650  33.499  33.789  1.00  0.00     0.029 A 
ATOM     56  N   UNL A   1      39.457  32.218  33.987  1.00  0.00    -0.354 N 
ATOM     57  N   UNL A   1      41.746  31.057  35.404  1.00  0.00    -0.248 NA
ATOM     58  C   UNL A   1      43.203  31.034  37.230  1.00  0.00     0.031 C 
ATOM     59  C   UNL A   1      38.258  33.777  35.017  1.00  0.00     0.029 A 
ATOM     60  C   UNL A   1      39.367  32.958  35.154  1.00  0.00     0.049 A 
ATOM     61  H   UNL A   1      40.153  31.549  33.795  1.00  0.00     0.167 HD
ATOM     62  C   UNL A   1      41.333  32.009  36.331  1.00  0.00     0.074 A 
ATOM     63  C   UNL A   1      42.251  31.931  37.449  1.00  0.00     0.031 C 
ATOM     64  C   UNL A   1      40.288  32.870  36.262  1.00  0.00     0.031 A 
BRANCH  51  65
ATOM     65  C   UNL A   1      37.101  32.537  30.972  1.00  0.00    -0.014 A 
ATOM     66  C   UNL A   1      37.285  33.604  30.074  1.00  0.00     0.010 A 
ATOM     67  C   UNL A   1      35.833  31.933  31.067  1.00  0.00     0.010 A 
ATOM     68  C   UNL A   1      36.212  34.085  29.319  1.00  0.00     0.020 A 
ATOM     69  C   UNL A   1      34.765  32.392  30.292  1.00  0.00     0.020 A 
ATOM     70  C   UNL A   1      34.958  33.477  29.436  1.00  0.00     0.054 A 
BRANCH  70  71
ATOM     71  S   UNL A   1      33.587  34.117  28.436  1.00  0.00     0.124 S 
ATOM     72  O   UNL A   1      32.789  34.823  29.436  1.00  0.00    -0.237 OA
ATOM     73  O   UNL A   1      34.269  34.968  27.465  1.00  0.00    -0.237 OA
ATOM     74  O   UNL A   1      32.969  32.916  27.883  1.00  0.00    -0.744 OA
ENDBRANCH  70  71
ENDBRANCH  51  65
BRANCH  52  75
ATOM     75  C   UNL A   1      44.817  28.845  36.136  1.00  0.00    -0.014 A 
ATOM     76  C   UNL A   1      44.713  27.643  36.859  1.00  0.00     0.010 A 
ATOM     77  C   UNL A   1      46.036  29.550  36.159  1.00  0.00     0.010 A 
ATOM     78  C   UNL A   1      45.801  27.163  37.596  1.00  0.00     0.020 A 
ATOM     79  C   UNL A   1      47.133  29.058  36.869  1.00  0.00     0.020 A 
ATOM     80  C   UNL A   1      47.005  27.870  37.591  1.00  0.00     0.054 A 
BRANCH  80  81
ATOM     81  S   UNL A   1      48.418  27.195  38.510  1.00  0.00     0.124 S 
ATOM     82  O   UNL A   1      47.852  27.004  39.841  1.00  0.00    -0.237 OA
ATOM     83  O   UNL A   1      48.718  25.973  37.768  1.00  0.00    -0.237 OA
ATOM     84  O   UNL A   1      49.429  28.245  38.403  1.00  0.00    -0.744 OA
ENDBRANCH  80  81
ENDBRANCH  52  75
BRANCH  64  85
ATOM     85  C   UNL A   1      40.048  33.785  37.436  1.00  0.00    -0.014 A 
ATOM     86  C   UNL A   1      40.118  35.182  37.297  1.00  0.00     0.010 A 
ATOM     87  C   UNL A   1      39.658  33.239  38.674  1.00  0.00     0.010 A 
ATOM     88  C   UNL A   1      39.813  36.017  38.377  1.00  0.00     0.020 A 
ATOM     89  C   UNL A   1      39.324  34.071  39.747  1.00  0.00     0.020 A 
ATOM     90  C   UNL A   1      39.411  35.455  39.593  1.00  0.00     0.054 A 
BRANCH  90  91
ATOM     91  S   UNL A   1      38.946  36.563  40.954  1.00  0.00     0.124 S 
ATOM     92  O   UNL A   1      40.184  36.637  41.724  1.00  0.00    -0.237 OA
ATOM     93  O   UNL A   1      38.566  37.787  40.253  1.00  0.00    -0.237 OA
ATOM     94  O   UNL A   1      37.845  35.862  41.611  1.00  0.00    -0.744 OA
ENDBRANCH  90  91
ENDBRANCH  64  85
ENDBRANCH  38  39
ENDBRANCH  31  33
ENDBRANCH  30  31
ENDBRANCH  29  30
ENDBRANCH  28  29
ENDBRANCH  27  28
ENDBRANCH  26  27
ENDBRANCH  25  26
ENDBRANCH   1  25
TORSDOF 26
ENDMDL
