MODEL 1
REMARK VINA RESULT:      -9.5      0.000      0.000
REMARK SMILES Cc1cc(/C=C2/C(=O)NC(=S)N=C2OCCOCCOCCOC(=O)c2ccc(-c3c4nc(c(-c5ccc(S(=O)(=O)[O-])cc5)c5ccc([nH]5)c(-c5ccc(S(=O)(=O)[O-])cc5)c5nc(c(-c6ccc(S(=O)(=O)[O-])cc6)c6ccc3[nH]6)C=C5)C=C4)cc2)c(C)n1-c1cccc(C(=O)[O-])c1
REMARK SMILES IDX 19 1 18 2 17 3 16 4 15 5 14 6 13 7 5 8 6 9 7 10 8 11 9 12
REMARK SMILES IDX 12 13 10 14 11 16 4 17 1 18 2 19 3 20 88 21 86 22 87 23
REMARK SMILES IDX 89 24 90 25 97 26 91 27 93 28 92 29 94 30 95 31 96 32 20 33
REMARK SMILES IDX 21 34 22 35 23 36 24 37 25 38 26 39 27 40 85 41 28 42 84 43
REMARK SMILES IDX 29 44 30 45 31 46 78 47 32 48 83 49 77 50 79 51 33 52 82 53
REMARK SMILES IDX 76 54 75 55 34 57 64 58 45 59 63 60 46 61 49 62 62 63 80 64
REMARK SMILES IDX 47 65 48 66 61 68 81 69 50 70 35 71 36 72 44 73 37 74 43 75
REMARK SMILES IDX 38 76 39 77 40 78 41 79 42 80 65 81 66 82 74 83 67 84 73 85
REMARK SMILES IDX 68 86 69 87 70 88 71 89 72 90 51 91 52 92 60 93 53 94 59 95
REMARK SMILES IDX 54 96 55 97 56 98 57 99 58 100
REMARK H PARENT 9 15 79 56 49 67
REMARK Flexibility Score: inf
ROOT
ATOM      1  C   UNL A   1      37.435  29.170  27.922  1.00  0.00     0.188 C 
ENDROOT
BRANCH   1   2
ATOM      2  C   UNL A   1      38.915  29.077  28.297  1.00  0.00     0.188 C 
BRANCH   2   3
ATOM      3  O   UNL A   1      39.473  27.812  28.628  1.00  0.00    -0.376 OA
BRANCH   3   4
ATOM      4  C   UNL A   1      39.420  26.800  27.611  1.00  0.00     0.201 C 
BRANCH   4   5
ATOM      5  C   UNL A   1      38.987  25.364  28.030  1.00  0.00     0.260 C 
BRANCH   5   6
ATOM      6  O   UNL A   1      38.664  24.466  26.924  1.00  0.00    -0.475 OA
BRANCH   6   7
ATOM      7  C   UNL A   1      39.461  23.389  26.764  1.00  0.00     0.229 C 
ATOM      8  C   UNL A   1      37.623  21.962  25.538  1.00  0.00     0.029 C 
ATOM      9  C   UNL A   1      38.819  22.205  26.127  1.00  0.00     0.103 C 
ATOM     10  C   UNL A   1      39.682  20.974  26.222  1.00  0.00     0.262 C 
ATOM     11  O   UNL A   1      39.399  19.888  25.727  1.00  0.00    -0.269 OA
ATOM     12  N   UNL A   1      40.846  21.119  26.922  1.00  0.00    -0.297 N 
ATOM     13  N   UNL A   1      40.640  23.420  27.285  1.00  0.00    -0.184 NA
ATOM     14  C   UNL A   1      41.362  22.279  27.418  1.00  0.00     0.203 C 
ATOM     15  H   UNL A   1      41.368  20.299  27.085  1.00  0.00     0.172 HD
ATOM     16  S   UNL A   1      42.825  22.212  28.229  1.00  0.00    -0.038 S 
BRANCH   8  17
ATOM     17  C   UNL A   1      36.428  22.700  25.230  1.00  0.00    -0.003 A 
ATOM     18  C   UNL A   1      34.137  24.412  22.796  1.00  0.00     0.065 C 
ATOM     19  C   UNL A   1      34.887  23.781  23.911  1.00  0.00     0.020 A 
ATOM     20  C   UNL A   1      36.179  23.280  23.943  1.00  0.00     0.031 A 
ATOM     21  N   UNL A   1      34.383  23.636  25.184  1.00  0.00    -0.318 N 
ATOM     22  C   UNL A   1      35.221  22.786  25.891  1.00  0.00     0.027 A 
ATOM     23  C   UNL A   1      34.677  22.065  27.059  1.00  0.00     0.065 C 
BRANCH  21  24
ATOM     24  C   UNL A   1      33.150  24.098  25.704  1.00  0.00     0.046 A 
ATOM     25  C   UNL A   1      31.999  23.357  25.394  1.00  0.00     0.026 A 
ATOM     26  C   UNL A   1      33.055  25.404  26.193  1.00  0.00     0.036 A 
ATOM     27  C   UNL A   1      30.741  23.923  25.573  1.00  0.00     0.003 A 
ATOM     28  C   UNL A   1      31.786  25.980  26.339  1.00  0.00    -0.001 A 
ATOM     29  C   UNL A   1      30.634  25.236  26.033  1.00  0.00     0.010 A 
BRANCH  28  30
ATOM     30  C   UNL A   1      31.601  27.402  26.724  1.00  0.00     0.072 C 
ATOM     31  O   UNL A   1      31.314  27.806  27.829  1.00  0.00    -0.545 OA
ATOM     32  O   UNL A   1      31.754  28.243  25.683  1.00  0.00    -0.545 OA
ENDBRANCH  28  30
ENDBRANCH  21  24
ENDBRANCH   8  17
ENDBRANCH   6   7
ENDBRANCH   5   6
ENDBRANCH   4   5
ENDBRANCH   3   4
ENDBRANCH   2   3
ENDBRANCH   1   2
BRANCH   1  33
ATOM     33  O   UNL A   1      36.889  30.476  27.989  1.00  0.00    -0.376 OA
BRANCH  33  34
ATOM     34  C   UNL A   1      35.465  30.518  28.168  1.00  0.00     0.202 C 
BRANCH  34  35
ATOM     35  C   UNL A   1      34.759  31.866  27.834  1.00  0.00     0.261 C 
BRANCH  35  36
ATOM     36  O   UNL A   1      34.215  32.668  28.949  1.00  0.00    -0.460 OA
BRANCH  36  37
ATOM     37  C   UNL A   1      34.909  33.804  29.301  1.00  0.00     0.338 C 
ATOM     38  O   UNL A   1      34.571  34.921  28.928  1.00  0.00    -0.246 OA
BRANCH  37  39
ATOM     39  C   UNL A   1      36.095  33.616  30.263  1.00  0.00     0.060 A 
ATOM     40  C   UNL A   1      37.362  33.439  29.721  1.00  0.00     0.016 A 
ATOM     41  C   UNL A   1      36.016  33.360  31.649  1.00  0.00     0.016 A 
ATOM     42  C   UNL A   1      38.489  33.072  30.538  1.00  0.00     0.010 A 
ATOM     43  C   UNL A   1      37.166  32.907  32.468  1.00  0.00     0.010 A 
ATOM     44  C   UNL A   1      38.462  32.733  31.945  1.00  0.00    -0.014 A 
BRANCH  44  45
ATOM     45  C   UNL A   1      39.733  31.856  32.532  1.00  0.00     0.031 A 
ATOM     46  C   UNL A   1      40.590  32.909  33.150  1.00  0.00     0.074 A 
ATOM     47  C   UNL A   1      40.358  30.595  32.567  1.00  0.00     0.049 A 
ATOM     48  N   UNL A   1      40.989  33.908  32.418  1.00  0.00    -0.248 NA
ATOM     49  C   UNL A   1      40.711  33.120  34.593  1.00  0.00     0.031 C 
ATOM     50  C   UNL A   1      39.957  29.355  31.879  1.00  0.00     0.029 A 
ATOM     51  N   UNL A   1      41.542  30.102  33.241  1.00  0.00    -0.354 N 
ATOM     52  C   UNL A   1      41.672  34.751  33.250  1.00  0.00     0.074 A 
ATOM     53  C   UNL A   1      41.282  34.330  34.592  1.00  0.00     0.031 C 
ATOM     54  C   UNL A   1      40.725  28.283  32.252  1.00  0.00     0.029 A 
ATOM     55  C   UNL A   1      41.784  28.670  33.187  1.00  0.00     0.049 A 
ATOM     56  H   UNL A   1      42.155  30.710  33.713  1.00  0.00     0.167 HD
ATOM     57  C   UNL A   1      42.888  35.180  32.808  1.00  0.00     0.031 A 
ATOM     58  C   UNL A   1      42.779  27.860  33.754  1.00  0.00     0.031 A 
ATOM     59  C   UNL A   1      43.963  34.489  33.471  1.00  0.00     0.049 A 
ATOM     60  C   UNL A   1      43.952  28.726  33.951  1.00  0.00     0.074 A 
ATOM     61  C   UNL A   1      44.212  34.157  34.788  1.00  0.00     0.029 A 
ATOM     62  N   UNL A   1      44.705  33.623  32.693  1.00  0.00    -0.354 N 
ATOM     63  N   UNL A   1      44.709  29.072  32.956  1.00  0.00    -0.248 NA
ATOM     64  C   UNL A   1      44.428  29.134  35.269  1.00  0.00     0.031 C 
ATOM     65  C   UNL A   1      44.676  32.822  34.743  1.00  0.00     0.029 A 
ATOM     66  C   UNL A   1      45.011  32.498  33.432  1.00  0.00     0.049 A 
ATOM     67  H   UNL A   1      44.974  33.781  31.760  1.00  0.00     0.167 HD
ATOM     68  C   UNL A   1      45.397  30.140  33.446  1.00  0.00     0.074 A 
ATOM     69  C   UNL A   1      45.406  29.958  34.886  1.00  0.00     0.031 C 
ATOM     70  C   UNL A   1      45.353  31.287  32.722  1.00  0.00     0.031 A 
BRANCH  57  71
ATOM     71  C   UNL A   1      42.945  35.575  31.349  1.00  0.00    -0.014 A 
ATOM     72  C   UNL A   1      42.429  34.705  30.382  1.00  0.00     0.010 A 
ATOM     73  C   UNL A   1      43.566  36.770  30.914  1.00  0.00     0.010 A 
ATOM     74  C   UNL A   1      42.593  34.988  29.019  1.00  0.00     0.020 A 
ATOM     75  C   UNL A   1      43.762  37.042  29.560  1.00  0.00     0.020 A 
ATOM     76  C   UNL A   1      43.280  36.141  28.617  1.00  0.00     0.054 A 
BRANCH  76  77
ATOM     77  S   UNL A   1      43.599  36.399  26.850  1.00  0.00     0.124 S 
ATOM     78  O   UNL A   1      45.015  36.057  26.731  1.00  0.00    -0.237 OA
ATOM     79  O   UNL A   1      42.682  35.450  26.229  1.00  0.00    -0.237 OA
ATOM     80  O   UNL A   1      43.299  37.814  26.638  1.00  0.00    -0.744 OA
ENDBRANCH  76  77
ENDBRANCH  57  71
BRANCH  58  81
ATOM     81  C   UNL A   1      43.225  26.380  34.062  1.00  0.00    -0.014 A 
ATOM     82  C   UNL A   1      44.487  25.889  33.563  1.00  0.00     0.010 A 
ATOM     83  C   UNL A   1      42.700  25.612  35.116  1.00  0.00     0.010 A 
ATOM     84  C   UNL A   1      45.219  24.816  34.140  1.00  0.00     0.020 A 
ATOM     85  C   UNL A   1      43.419  24.506  35.688  1.00  0.00     0.020 A 
ATOM     86  C   UNL A   1      44.692  24.142  35.229  1.00  0.00     0.054 A 
BRANCH  86  87
ATOM     87  S   UNL A   1      45.729  22.900  36.104  1.00  0.00     0.124 S 
ATOM     88  O   UNL A   1      47.088  23.286  35.737  1.00  0.00    -0.237 OA
ATOM     89  O   UNL A   1      45.376  23.114  37.506  1.00  0.00    -0.237 OA
ATOM     90  O   UNL A   1      45.277  21.624  35.551  1.00  0.00    -0.744 OA
ENDBRANCH  86  87
ENDBRANCH  58  81
BRANCH  70  91
ATOM     91  C   UNL A   1      45.419  31.161  31.204  1.00  0.00    -0.014 A 
ATOM     92  C   UNL A   1      46.599  30.931  30.455  1.00  0.00     0.010 A 
ATOM     93  C   UNL A   1      44.230  31.349  30.479  1.00  0.00     0.010 A 
ATOM     94  C   UNL A   1      46.607  30.985  29.054  1.00  0.00     0.020 A 
ATOM     95  C   UNL A   1      44.220  31.355  29.078  1.00  0.00     0.020 A 
ATOM     96  C   UNL A   1      45.416  31.216  28.373  1.00  0.00     0.054 A 
BRANCH  96  97
ATOM     97  S   UNL A   1      45.450  31.368  26.565  1.00  0.00     0.124 S 
ATOM     98  O   UNL A   1      44.618  30.242  26.145  1.00  0.00    -0.237 OA
ATOM     99  O   UNL A   1      44.867  32.688  26.336  1.00  0.00    -0.237 OA
ATOM    100  O   UNL A   1      46.866  31.237  26.233  1.00  0.00    -0.744 OA
ENDBRANCH  96  97
ENDBRANCH  70  91
ENDBRANCH  44  45
ENDBRANCH  37  39
ENDBRANCH  36  37
ENDBRANCH  35  36
ENDBRANCH  34  35
ENDBRANCH  33  34
ENDBRANCH   1  33
TORSDOF 22
ENDMDL
MODEL 2
REMARK VINA RESULT:      -9.4      5.234     12.840
REMARK SMILES Cc1cc(/C=C2/C(=O)NC(=S)N=C2OCCOCCOCCOC(=O)c2ccc(-c3c4nc(c(-c5ccc(S(=O)(=O)[O-])cc5)c5ccc([nH]5)c(-c5ccc(S(=O)(=O)[O-])cc5)c5nc(c(-c6ccc(S(=O)(=O)[O-])cc6)c6ccc3[nH]6)C=C5)C=C4)cc2)c(C)n1-c1cccc(C(=O)[O-])c1
REMARK SMILES IDX 19 1 18 2 17 3 16 4 15 5 14 6 13 7 5 8 6 9 7 10 8 11 9 12
REMARK SMILES IDX 12 13 10 14 11 16 4 17 1 18 2 19 3 20 88 21 86 22 87 23
REMARK SMILES IDX 89 24 90 25 97 26 91 27 93 28 92 29 94 30 95 31 96 32 20 33
REMARK SMILES IDX 21 34 22 35 23 36 24 37 25 38 26 39 27 40 85 41 28 42 84 43
REMARK SMILES IDX 29 44 30 45 31 46 78 47 32 48 83 49 77 50 79 51 33 52 82 53
REMARK SMILES IDX 76 54 75 55 34 57 64 58 45 59 63 60 46 61 49 62 62 63 80 64
REMARK SMILES IDX 47 65 48 66 61 68 81 69 50 70 35 71 36 72 44 73 37 74 43 75
REMARK SMILES IDX 38 76 39 77 40 78 41 79 42 80 65 81 66 82 74 83 67 84 73 85
REMARK SMILES IDX 68 86 69 87 70 88 71 89 72 90 51 91 52 92 60 93 53 94 59 95
REMARK SMILES IDX 54 96 55 97 56 98 57 99 58 100
REMARK H PARENT 9 15 79 56 49 67
REMARK Flexibility Score: inf
ROOT
ATOM      1  C   UNL A   1      48.687  25.380  39.014  1.00  0.00     0.188 C 
ENDROOT
BRANCH   1   2
ATOM      2  C   UNL A   1      47.974  24.111  39.489  1.00  0.00     0.188 C 
BRANCH   2   3
ATOM      3  O   UNL A   1      47.400  23.233  38.529  1.00  0.00    -0.376 OA
BRANCH   3   4
ATOM      4  C   UNL A   1      46.026  22.871  38.732  1.00  0.00     0.201 C 
BRANCH   4   5
ATOM      5  C   UNL A   1      45.659  22.083  40.023  1.00  0.00     0.260 C 
BRANCH   5   6
ATOM      6  O   UNL A   1      46.640  21.086  40.442  1.00  0.00    -0.475 OA
BRANCH   6   7
ATOM      7  C   UNL A   1      46.157  19.922  40.924  1.00  0.00     0.229 C 
ATOM      8  C   UNL A   1      46.438  18.632  38.650  1.00  0.00     0.029 C 
ATOM      9  C   UNL A   1      46.049  18.813  39.935  1.00  0.00     0.103 C 
ATOM     10  C   UNL A   1      45.265  17.646  40.476  1.00  0.00     0.262 C 
ATOM     11  O   UNL A   1      45.085  16.593  39.875  1.00  0.00    -0.269 OA
ATOM     12  N   UNL A   1      44.731  17.817  41.721  1.00  0.00    -0.297 N 
ATOM     13  N   UNL A   1      45.708  19.902  42.132  1.00  0.00    -0.184 NA
ATOM     14  C   UNL A   1      44.946  18.866  42.565  1.00  0.00     0.203 C 
ATOM     15  H   UNL A   1      44.128  17.109  42.045  1.00  0.00     0.172 HD
ATOM     16  S   UNL A   1      44.193  18.847  44.061  1.00  0.00    -0.038 S 
BRANCH   8  17
ATOM     17  C   UNL A   1      47.136  19.383  37.641  1.00  0.00    -0.003 A 
ATOM     18  C   UNL A   1      47.180  21.647  34.645  1.00  0.00     0.065 C 
ATOM     19  C   UNL A   1      47.385  20.772  35.827  1.00  0.00     0.020 A 
ATOM     20  C   UNL A   1      46.476  19.991  36.524  1.00  0.00     0.031 A 
ATOM     21  N   UNL A   1      48.611  20.556  36.415  1.00  0.00    -0.318 N 
ATOM     22  C   UNL A   1      48.408  19.915  37.628  1.00  0.00     0.027 A 
ATOM     23  C   UNL A   1      49.449  20.022  38.669  1.00  0.00     0.065 C 
BRANCH  21  24
ATOM     24  C   UNL A   1      49.882  21.025  36.003  1.00  0.00     0.046 A 
ATOM     25  C   UNL A   1      50.128  22.403  36.106  1.00  0.00     0.026 A 
ATOM     26  C   UNL A   1      50.696  20.205  35.215  1.00  0.00     0.036 A 
ATOM     27  C   UNL A   1      51.195  22.970  35.418  1.00  0.00     0.003 A 
ATOM     28  C   UNL A   1      51.749  20.789  34.498  1.00  0.00    -0.001 A 
ATOM     29  C   UNL A   1      51.998  22.167  34.606  1.00  0.00     0.010 A 
BRANCH  28  30
ATOM     30  C   UNL A   1      52.577  20.016  33.537  1.00  0.00     0.072 C 
ATOM     31  O   UNL A   1      53.020  18.903  33.718  1.00  0.00    -0.545 OA
ATOM     32  O   UNL A   1      52.834  20.704  32.408  1.00  0.00    -0.545 OA
ENDBRANCH  28  30
ENDBRANCH  21  24
ENDBRANCH   8  17
ENDBRANCH   6   7
ENDBRANCH   5   6
ENDBRANCH   4   5
ENDBRANCH   3   4
ENDBRANCH   2   3
ENDBRANCH   1   2
BRANCH   1  33
ATOM     33  O   UNL A   1      47.881  26.545  39.015  1.00  0.00    -0.376 OA
BRANCH  33  34
ATOM     34  C   UNL A   1      47.145  26.759  40.230  1.00  0.00     0.202 C 
BRANCH  34  35
ATOM     35  C   UNL A   1      45.592  26.712  40.123  1.00  0.00     0.261 C 
BRANCH  35  36
ATOM     36  O   UNL A   1      44.951  27.334  38.946  1.00  0.00    -0.460 OA
BRANCH  36  37
ATOM     37  C   UNL A   1      44.501  26.488  37.957  1.00  0.00     0.338 C 
ATOM     38  O   UNL A   1      43.685  25.599  38.173  1.00  0.00    -0.246 OA
BRANCH  37  39
ATOM     39  C   UNL A   1      45.012  26.762  36.532  1.00  0.00     0.060 A 
ATOM     40  C   UNL A   1      44.114  27.251  35.592  1.00  0.00     0.016 A 
ATOM     41  C   UNL A   1      46.247  26.343  35.991  1.00  0.00     0.016 A 
ATOM     42  C   UNL A   1      44.459  27.355  34.198  1.00  0.00     0.010 A 
ATOM     43  C   UNL A   1      46.565  26.382  34.542  1.00  0.00     0.010 A 
ATOM     44  C   UNL A   1      45.677  26.886  33.573  1.00  0.00    -0.014 A 
BRANCH  44  45
ATOM     45  C   UNL A   1      45.636  26.634  31.940  1.00  0.00     0.031 A 
ATOM     46  C   UNL A   1      46.218  27.899  31.407  1.00  0.00     0.074 A 
ATOM     47  C   UNL A   1      45.177  25.799  30.904  1.00  0.00     0.049 A 
ATOM     48  N   UNL A   1      45.671  29.033  31.734  1.00  0.00    -0.248 NA
ATOM     49  C   UNL A   1      47.569  28.008  30.856  1.00  0.00     0.031 C 
ATOM     50  C   UNL A   1      44.352  24.582  31.006  1.00  0.00     0.029 A 
ATOM     51  N   UNL A   1      45.336  25.839  29.465  1.00  0.00    -0.354 N 
ATOM     52  C   UNL A   1      46.450  30.014  31.185  1.00  0.00     0.074 A 
ATOM     53  C   UNL A   1      47.700  29.340  30.853  1.00  0.00     0.031 C 
ATOM     54  C   UNL A   1      44.211  23.948  29.800  1.00  0.00     0.029 A 
ATOM     55  C   UNL A   1      44.864  24.686  28.717  1.00  0.00     0.049 A 
ATOM     56  H   UNL A   1      45.745  26.613  29.014  1.00  0.00     0.167 HD
ATOM     57  C   UNL A   1      45.794  30.989  30.494  1.00  0.00     0.031 A 
ATOM     58  C   UNL A   1      44.901  24.370  27.350  1.00  0.00     0.031 A 
ATOM     59  C   UNL A   1      45.925  30.805  29.072  1.00  0.00     0.049 A 
ATOM     60  C   UNL A   1      44.956  25.653  26.632  1.00  0.00     0.074 A 
ATOM     61  C   UNL A   1      46.989  30.502  28.247  1.00  0.00     0.029 A 
ATOM     62  N   UNL A   1      44.778  30.448  28.393  1.00  0.00    -0.354 N 
ATOM     63  N   UNL A   1      43.901  26.396  26.498  1.00  0.00    -0.248 NA
ATOM     64  C   UNL A   1      46.137  26.109  25.906  1.00  0.00     0.031 C 
ATOM     65  C   UNL A   1      46.485  29.536  27.346  1.00  0.00     0.029 A 
ATOM     66  C   UNL A   1      45.096  29.523  27.420  1.00  0.00     0.049 A 
ATOM     67  H   UNL A   1      43.875  30.797  28.573  1.00  0.00     0.167 HD
ATOM     68  C   UNL A   1      44.418  27.609  26.159  1.00  0.00     0.074 A 
ATOM     69  C   UNL A   1      45.702  27.319  25.549  1.00  0.00     0.031 C 
ATOM     70  C   UNL A   1      44.042  28.672  26.915  1.00  0.00     0.031 A 
BRANCH  57  71
ATOM     71  C   UNL A   1      44.525  31.499  31.140  1.00  0.00    -0.014 A 
ATOM     72  C   UNL A   1      43.591  30.583  31.638  1.00  0.00     0.010 A 
ATOM     73  C   UNL A   1      44.210  32.877  31.200  1.00  0.00     0.010 A 
ATOM     74  C   UNL A   1      42.351  31.029  32.117  1.00  0.00     0.020 A 
ATOM     75  C   UNL A   1      42.965  33.325  31.643  1.00  0.00     0.020 A 
ATOM     76  C   UNL A   1      42.037  32.393  32.092  1.00  0.00     0.054 A 
BRANCH  76  77
ATOM     77  S   UNL A   1      40.371  32.917  32.583  1.00  0.00     0.124 S 
ATOM     78  O   UNL A   1      39.846  33.501  31.349  1.00  0.00    -0.237 OA
ATOM     79  O   UNL A   1      39.754  31.655  32.976  1.00  0.00    -0.237 OA
ATOM     80  O   UNL A   1      40.602  33.881  33.656  1.00  0.00    -0.744 OA
ENDBRANCH  76  77
ENDBRANCH  57  71
BRANCH  58  81
ATOM     81  C   UNL A   1      44.693  23.234  26.278  1.00  0.00    -0.014 A 
ATOM     82  C   UNL A   1      45.832  22.668  25.596  1.00  0.00     0.010 A 
ATOM     83  C   UNL A   1      43.540  22.432  26.207  1.00  0.00     0.010 A 
ATOM     84  C   UNL A   1      45.861  21.373  25.012  1.00  0.00     0.020 A 
ATOM     85  C   UNL A   1      43.550  21.132  25.591  1.00  0.00     0.020 A 
ATOM     86  C   UNL A   1      44.718  20.590  25.038  1.00  0.00     0.054 A 
BRANCH  86  87
ATOM     87  S   UNL A   1      44.815  18.842  24.475  1.00  0.00     0.124 S 
ATOM     88  O   UNL A   1      46.178  18.456  24.825  1.00  0.00    -0.237 OA
ATOM     89  O   UNL A   1      43.762  18.192  25.255  1.00  0.00    -0.237 OA
ATOM     90  O   UNL A   1      44.543  18.928  23.041  1.00  0.00    -0.744 OA
ENDBRANCH  86  87
ENDBRANCH  58  81
BRANCH  70  91
ATOM     91  C   UNL A   1      42.589  28.732  27.370  1.00  0.00    -0.014 A 
ATOM     92  C   UNL A   1      41.468  28.836  26.509  1.00  0.00     0.010 A 
ATOM     93  C   UNL A   1      42.335  28.746  28.752  1.00  0.00     0.010 A 
ATOM     94  C   UNL A   1      40.173  29.046  27.004  1.00  0.00     0.020 A 
ATOM     95  C   UNL A   1      41.036  28.904  29.257  1.00  0.00     0.020 A 
ATOM     96  C   UNL A   1      39.968  29.096  28.380  1.00  0.00     0.054 A 
BRANCH  96  97
ATOM     97  S   UNL A   1      38.304  29.451  29.010  1.00  0.00     0.124 S 
ATOM     98  O   UNL A   1      38.016  28.260  29.807  1.00  0.00    -0.237 OA
ATOM     99  O   UNL A   1      38.499  30.678  29.778  1.00  0.00    -0.237 OA
ATOM    100  O   UNL A   1      37.497  29.585  27.801  1.00  0.00    -0.744 OA
ENDBRANCH  96  97
ENDBRANCH  70  91
ENDBRANCH  44  45
ENDBRANCH  37  39
ENDBRANCH  36  37
ENDBRANCH  35  36
ENDBRANCH  34  35
ENDBRANCH  33  34
ENDBRANCH   1  33
TORSDOF 22
ENDMDL
MODEL 3
REMARK VINA RESULT:      -9.3      5.245      9.588
REMARK SMILES Cc1cc(/C=C2/C(=O)NC(=S)N=C2OCCOCCOCCOC(=O)c2ccc(-c3c4nc(c(-c5ccc(S(=O)(=O)[O-])cc5)c5ccc([nH]5)c(-c5ccc(S(=O)(=O)[O-])cc5)c5nc(c(-c6ccc(S(=O)(=O)[O-])cc6)c6ccc3[nH]6)C=C5)C=C4)cc2)c(C)n1-c1cccc(C(=O)[O-])c1
REMARK SMILES IDX 19 1 18 2 17 3 16 4 15 5 14 6 13 7 5 8 6 9 7 10 8 11 9 12
REMARK SMILES IDX 12 13 10 14 11 16 4 17 1 18 2 19 3 20 88 21 86 22 87 23
REMARK SMILES IDX 89 24 90 25 97 26 91 27 93 28 92 29 94 30 95 31 96 32 20 33
REMARK SMILES IDX 21 34 22 35 23 36 24 37 25 38 26 39 27 40 85 41 28 42 84 43
REMARK SMILES IDX 29 44 30 45 31 46 78 47 32 48 83 49 77 50 79 51 33 52 82 53
REMARK SMILES IDX 76 54 75 55 34 57 64 58 45 59 63 60 46 61 49 62 62 63 80 64
REMARK SMILES IDX 47 65 48 66 61 68 81 69 50 70 35 71 36 72 44 73 37 74 43 75
REMARK SMILES IDX 38 76 39 77 40 78 41 79 42 80 65 81 66 82 74 83 67 84 73 85
REMARK SMILES IDX 68 86 69 87 70 88 71 89 72 90 51 91 52 92 60 93 53 94 59 95
REMARK SMILES IDX 54 96 55 97 56 98 57 99 58 100
REMARK H PARENT 9 15 79 56 49 67
REMARK Flexibility Score: inf
ROOT
ATOM      1  C   UNL A   1      39.557  28.288  29.874  1.00  0.00     0.188 C 
ENDROOT
BRANCH   1   2
ATOM      2  C   UNL A   1      38.913  29.407  29.053  1.00  0.00     0.188 C 
BRANCH   2   3
ATOM      3  O   UNL A   1      37.858  30.172  29.622  1.00  0.00    -0.376 OA
BRANCH   3   4
ATOM      4  C   UNL A   1      36.521  29.771  29.287  1.00  0.00     0.201 C 
BRANCH   4   5
ATOM      5  C   UNL A   1      36.009  30.060  27.846  1.00  0.00     0.260 C 
BRANCH   5   6
ATOM      6  O   UNL A   1      34.582  29.833  27.635  1.00  0.00    -0.475 OA
BRANCH   6   7
ATOM      7  C   UNL A   1      33.788  30.924  27.626  1.00  0.00     0.229 C 
ATOM      8  C   UNL A   1      31.894  29.781  26.203  1.00  0.00     0.029 C 
ATOM      9  C   UNL A   1      32.529  30.795  26.842  1.00  0.00     0.103 C 
ATOM     10  C   UNL A   1      31.834  32.119  26.663  1.00  0.00     0.262 C 
ATOM     11  O   UNL A   1      30.754  32.266  26.101  1.00  0.00    -0.269 OA
ATOM     12  N   UNL A   1      32.490  33.205  27.169  1.00  0.00    -0.297 N 
ATOM     13  N   UNL A   1      34.234  32.007  28.165  1.00  0.00    -0.184 NA
ATOM     14  C   UNL A   1      33.623  33.195  27.926  1.00  0.00     0.203 C 
ATOM     15  H   UNL A   1      32.103  34.089  26.967  1.00  0.00     0.172 HD
ATOM     16  S   UNL A   1      34.236  34.661  28.455  1.00  0.00    -0.038 S 
BRANCH   8  17
ATOM     17  C   UNL A   1      32.103  28.374  25.987  1.00  0.00    -0.003 A 
ATOM     18  C   UNL A   1      31.040  24.787  26.314  1.00  0.00     0.065 C 
ATOM     19  C   UNL A   1      31.631  26.126  26.066  1.00  0.00     0.020 A 
ATOM     20  C   UNL A   1      31.286  27.363  26.590  1.00  0.00     0.031 A 
ATOM     21  N   UNL A   1      32.723  26.340  25.254  1.00  0.00    -0.318 N 
ATOM     22  C   UNL A   1      32.844  27.705  25.037  1.00  0.00     0.027 A 
ATOM     23  C   UNL A   1      33.572  28.170  23.839  1.00  0.00     0.065 C 
BRANCH  21  24
ATOM     24  C   UNL A   1      33.524  25.386  24.582  1.00  0.00     0.046 A 
ATOM     25  C   UNL A   1      33.102  24.968  23.311  1.00  0.00     0.026 A 
ATOM     26  C   UNL A   1      34.474  24.656  25.303  1.00  0.00     0.036 A 
ATOM     27  C   UNL A   1      33.632  23.810  22.751  1.00  0.00     0.003 A 
ATOM     28  C   UNL A   1      34.979  23.472  24.747  1.00  0.00    -0.001 A 
ATOM     29  C   UNL A   1      34.560  23.056  23.472  1.00  0.00     0.010 A 
BRANCH  28  30
ATOM     30  C   UNL A   1      35.888  22.569  25.498  1.00  0.00     0.072 C 
ATOM     31  O   UNL A   1      37.062  22.769  25.720  1.00  0.00    -0.545 OA
ATOM     32  O   UNL A   1      35.275  21.440  25.902  1.00  0.00    -0.545 OA
ENDBRANCH  28  30
ENDBRANCH  21  24
ENDBRANCH   8  17
ENDBRANCH   6   7
ENDBRANCH   5   6
ENDBRANCH   4   5
ENDBRANCH   3   4
ENDBRANCH   2   3
ENDBRANCH   1   2
BRANCH   1  33
ATOM     33  O   UNL A   1      40.798  28.629  30.466  1.00  0.00    -0.376 OA
BRANCH  33  34
ATOM     34  C   UNL A   1      40.953  28.184  31.823  1.00  0.00     0.202 C 
BRANCH  34  35
ATOM     35  C   UNL A   1      41.511  29.224  32.840  1.00  0.00     0.261 C 
BRANCH  35  36
ATOM     36  O   UNL A   1      41.486  28.884  34.277  1.00  0.00    -0.460 OA
BRANCH  36  37
ATOM     37  C   UNL A   1      42.084  27.703  34.652  1.00  0.00     0.338 C 
ATOM     38  O   UNL A   1      41.564  26.924  35.443  1.00  0.00    -0.246 OA
BRANCH  37  39
ATOM     39  C   UNL A   1      43.416  27.356  33.963  1.00  0.00     0.060 A 
ATOM     40  C   UNL A   1      44.348  28.370  33.780  1.00  0.00     0.016 A 
ATOM     41  C   UNL A   1      43.714  26.164  33.269  1.00  0.00     0.016 A 
ATOM     42  C   UNL A   1      45.531  28.176  32.982  1.00  0.00     0.010 A 
ATOM     43  C   UNL A   1      44.895  25.998  32.388  1.00  0.00     0.010 A 
ATOM     44  C   UNL A   1      45.859  27.006  32.197  1.00  0.00    -0.014 A 
BRANCH  44  45
ATOM     45  C   UNL A   1      46.962  27.201  30.981  1.00  0.00     0.031 A 
ATOM     46  C   UNL A   1      46.298  28.211  30.107  1.00  0.00     0.074 A 
ATOM     47  C   UNL A   1      48.154  26.724  30.406  1.00  0.00     0.049 A 
ATOM     48  N   UNL A   1      45.108  27.962  29.645  1.00  0.00    -0.248 NA
ATOM     49  C   UNL A   1      46.704  29.615  30.029  1.00  0.00     0.031 C 
ATOM     50  C   UNL A   1      48.982  25.581  30.830  1.00  0.00     0.029 A 
ATOM     51  N   UNL A   1      48.939  27.154  29.267  1.00  0.00    -0.354 N 
ATOM     52  C   UNL A   1      44.715  29.079  28.960  1.00  0.00     0.074 A 
ATOM     53  C   UNL A   1      45.630  30.121  29.412  1.00  0.00     0.031 C 
ATOM     54  C   UNL A   1      50.148  25.491  30.117  1.00  0.00     0.029 A 
ATOM     55  C   UNL A   1      50.232  26.520  29.078  1.00  0.00     0.049 A 
ATOM     56  H   UNL A   1      48.609  27.845  28.648  1.00  0.00     0.167 HD
ATOM     57  C   UNL A   1      44.203  28.872  27.713  1.00  0.00     0.031 A 
ATOM     58  C   UNL A   1      51.251  26.720  28.135  1.00  0.00     0.031 A 
ATOM     59  C   UNL A   1      45.157  29.209  26.689  1.00  0.00     0.049 A 
ATOM     60  C   UNL A   1      50.601  27.275  26.937  1.00  0.00     0.074 A 
ATOM     61  C   UNL A   1      46.012  30.276  26.500  1.00  0.00     0.029 A 
ATOM     62  N   UNL A   1      45.663  28.156  25.954  1.00  0.00    -0.354 N 
ATOM     63  N   UNL A   1      49.915  26.522  26.133  1.00  0.00    -0.248 NA
ATOM     64  C   UNL A   1      50.794  28.651  26.492  1.00  0.00     0.031 C 
ATOM     65  C   UNL A   1      47.232  29.694  26.086  1.00  0.00     0.029 A 
ATOM     66  C   UNL A   1      47.005  28.372  25.718  1.00  0.00     0.049 A 
ATOM     67  H   UNL A   1      45.149  27.375  25.647  1.00  0.00     0.167 HD
ATOM     68  C   UNL A   1      49.177  27.420  25.423  1.00  0.00     0.074 A 
ATOM     69  C   UNL A   1      49.934  28.657  25.471  1.00  0.00     0.031 C 
ATOM     70  C   UNL A   1      47.834  27.231  25.397  1.00  0.00     0.031 A 
BRANCH  57  71
ATOM     71  C   UNL A   1      43.247  27.706  27.591  1.00  0.00    -0.014 A 
ATOM     72  C   UNL A   1      42.315  27.688  26.547  1.00  0.00     0.010 A 
ATOM     73  C   UNL A   1      43.213  26.656  28.539  1.00  0.00     0.010 A 
ATOM     74  C   UNL A   1      41.334  26.688  26.493  1.00  0.00     0.020 A 
ATOM     75  C   UNL A   1      42.219  25.677  28.511  1.00  0.00     0.020 A 
ATOM     76  C   UNL A   1      41.277  25.705  27.488  1.00  0.00     0.054 A 
BRANCH  76  77
ATOM     77  S   UNL A   1      39.908  24.515  27.467  1.00  0.00     0.124 S 
ATOM     78  O   UNL A   1      39.187  24.884  26.249  1.00  0.00    -0.237 OA
ATOM     79  O   UNL A   1      40.610  23.238  27.403  1.00  0.00    -0.237 OA
ATOM     80  O   UNL A   1      39.181  24.787  28.705  1.00  0.00    -0.744 OA
ENDBRANCH  76  77
ENDBRANCH  57  71
BRANCH  58  81
ATOM     81  C   UNL A   1      52.747  26.398  27.756  1.00  0.00    -0.014 A 
ATOM     82  C   UNL A   1      53.794  26.588  28.731  1.00  0.00     0.010 A 
ATOM     83  C   UNL A   1      53.118  25.561  26.689  1.00  0.00     0.010 A 
ATOM     84  C   UNL A   1      55.043  25.910  28.716  1.00  0.00     0.020 A 
ATOM     85  C   UNL A   1      54.391  24.894  26.648  1.00  0.00     0.020 A 
ATOM     86  C   UNL A   1      55.328  25.034  27.681  1.00  0.00     0.054 A 
BRANCH  86  87
ATOM     87  S   UNL A   1      56.846  24.001  27.772  1.00  0.00     0.124 S 
ATOM     88  O   UNL A   1      57.789  24.860  28.482  1.00  0.00    -0.237 OA
ATOM     89  O   UNL A   1      56.394  22.824  28.511  1.00  0.00    -0.237 OA
ATOM     90  O   UNL A   1      57.174  23.748  26.369  1.00  0.00    -0.744 OA
ENDBRANCH  86  87
ENDBRANCH  58  81
BRANCH  70  91
ATOM     91  C   UNL A   1      47.328  25.798  25.282  1.00  0.00    -0.014 A 
ATOM     92  C   UNL A   1      47.490  24.964  24.149  1.00  0.00     0.010 A 
ATOM     93  C   UNL A   1      46.590  25.276  26.358  1.00  0.00     0.010 A 
ATOM     94  C   UNL A   1      46.861  23.713  24.056  1.00  0.00     0.020 A 
ATOM     95  C   UNL A   1      46.000  24.006  26.295  1.00  0.00     0.020 A 
ATOM     96  C   UNL A   1      46.103  23.250  25.127  1.00  0.00     0.054 A 
BRANCH  96  97
ATOM     97  S   UNL A   1      45.225  21.670  24.965  1.00  0.00     0.124 S 
ATOM     98  O   UNL A   1      44.198  21.781  26.000  1.00  0.00    -0.237 OA
ATOM     99  O   UNL A   1      44.728  21.710  23.593  1.00  0.00    -0.237 OA
ATOM    100  O   UNL A   1      46.255  20.671  25.235  1.00  0.00    -0.744 OA
ENDBRANCH  96  97
ENDBRANCH  70  91
ENDBRANCH  44  45
ENDBRANCH  37  39
ENDBRANCH  36  37
ENDBRANCH  35  36
ENDBRANCH  34  35
ENDBRANCH  33  34
ENDBRANCH   1  33
TORSDOF 22
ENDMDL
