MODEL 1
REMARK VINA RESULT:      -8.4      0.000      0.000
REMARK SMILES O=C(C[N@@H+](Cc1c(F)cccc1Cl)C1CC1)OCCOCCOCCOC(=O)c1ccc(-c2c3nc(c(-c4ccc(S(=O)(=O)[O-])cc4)c4ccc([nH]4)c(-c4ccc(S(=O)(=O)[O-])cc4)c4nc(c(-c5ccc(S(=O)(=O)[O-])cc5)c5ccc2[nH]5)C=C4)C=C3)cc1
REMARK SMILES IDX 21 1 20 2 19 3 18 4 17 5 2 6 1 7 3 8 4 9 5 11 6 12 7 13
REMARK SMILES IDX 12 14 8 15 9 16 11 17 13 18 10 19 14 20 15 21 16 22 22 23
REMARK SMILES IDX 23 24 24 25 25 26 26 27 27 28 28 29 29 30 30 31 88 32 31 33
REMARK SMILES IDX 87 34 32 35 33 36 34 37 81 38 35 39 86 40 80 41 82 42 36 43
REMARK SMILES IDX 85 44 79 45 78 46 37 48 67 49 48 50 66 51 49 52 52 53 65 54
REMARK SMILES IDX 83 55 50 56 51 57 64 59 84 60 53 61 38 62 39 63 47 64 40 65
REMARK SMILES IDX 46 66 41 67 42 68 43 69 44 70 45 71 68 72 69 73 77 74 70 75
REMARK SMILES IDX 76 76 71 77 72 78 73 79 74 80 75 81 54 82 55 83 63 84 56 85
REMARK SMILES IDX 62 86 57 87 58 88 59 89 60 90 61 91
REMARK H PARENT 4 10 82 47 52 58
REMARK Flexibility Score: inf
ROOT
ATOM      1  C   UNL A   1      36.229  31.449  28.404  1.00  0.00     0.188 C 
ENDROOT
BRANCH   1   2
ATOM      2  O   UNL A   1      35.761  30.113  28.550  1.00  0.00    -0.376 OA
BRANCH   2   3
ATOM      3  C   UNL A   1      35.409  29.475  27.334  1.00  0.00     0.202 C 
BRANCH   3   4
ATOM      4  C   UNL A   1      33.888  29.390  27.260  1.00  0.00     0.261 C 
BRANCH   4   5
ATOM      5  O   UNL A   1      33.337  29.748  25.971  1.00  0.00    -0.459 OA
BRANCH   5   6
ATOM      6  C   UNL A   1      32.065  30.134  25.721  1.00  0.00     0.361 C 
ATOM      7  O   UNL A   1      31.616  31.144  26.263  1.00  0.00    -0.245 OA
BRANCH   6   8
ATOM      8  C   UNL A   1      31.197  29.282  24.806  1.00  0.00     0.387 C 
BRANCH   8   9
ATOM      9  N   UNL A   1      31.850  28.012  24.459  1.00  0.00    -0.319 N 
ATOM     10  H   UNL A   1      32.753  27.915  24.921  1.00  0.00     0.349 HD
BRANCH   9  11
ATOM     11  C   UNL A   1      31.243  26.821  25.100  1.00  0.00     0.304 C 
BRANCH  11  12
ATOM     12  C   UNL A   1      31.710  25.468  24.622  1.00  0.00     0.061 A 
ATOM     13  C   UNL A   1      30.871  24.721  23.788  1.00  0.00     0.133 A 
ATOM     14  C   UNL A   1      32.931  24.875  24.976  1.00  0.00     0.052 A 
ATOM     15  F   UNL A   1      29.868  25.330  23.143  1.00  0.00    -0.206 F 
ATOM     16  C   UNL A   1      31.072  23.370  23.549  1.00  0.00     0.040 A 
ATOM     17  C   UNL A   1      33.165  23.525  24.706  1.00  0.00     0.021 A 
ATOM     18  Cl  UNL A   1      34.251  25.759  25.660  1.00  0.00    -0.084 Cl
ATOM     19  C   UNL A   1      32.205  22.759  24.052  1.00  0.00     0.005 A 
ENDBRANCH  11  12
ENDBRANCH   9  11
BRANCH   9  20
ATOM     20  C   UNL A   1      32.272  28.012  23.043  1.00  0.00     0.185 C 
ATOM     21  C   UNL A   1      33.592  28.597  22.637  1.00  0.00     0.071 C 
ATOM     22  C   UNL A   1      33.294  27.147  22.387  1.00  0.00     0.071 C 
ENDBRANCH   9  20
ENDBRANCH   8   9
ENDBRANCH   6   8
ENDBRANCH   5   6
ENDBRANCH   4   5
ENDBRANCH   3   4
ENDBRANCH   2   3
ENDBRANCH   1   2
BRANCH   1  23
ATOM     23  C   UNL A   1      35.053  32.404  28.180  1.00  0.00     0.188 C 
BRANCH  23  24
ATOM     24  O   UNL A   1      35.261  33.810  28.293  1.00  0.00    -0.376 OA
BRANCH  24  25
ATOM     25  C   UNL A   1      34.345  34.702  27.678  1.00  0.00     0.202 C 
BRANCH  25  26
ATOM     26  C   UNL A   1      33.548  35.613  28.615  1.00  0.00     0.261 C 
BRANCH  26  27
ATOM     27  O   UNL A   1      32.834  34.925  29.661  1.00  0.00    -0.460 OA
BRANCH  27  28
ATOM     28  C   UNL A   1      32.839  35.554  30.862  1.00  0.00     0.338 C 
ATOM     29  O   UNL A   1      32.084  36.436  31.228  1.00  0.00    -0.246 OA
BRANCH  28  30
ATOM     30  C   UNL A   1      33.862  34.981  31.766  1.00  0.00     0.060 A 
ATOM     31  C   UNL A   1      34.486  35.834  32.685  1.00  0.00     0.016 A 
ATOM     32  C   UNL A   1      34.333  33.678  31.589  1.00  0.00     0.016 A 
ATOM     33  C   UNL A   1      35.628  35.414  33.378  1.00  0.00     0.010 A 
ATOM     34  C   UNL A   1      35.479  33.262  32.281  1.00  0.00     0.010 A 
ATOM     35  C   UNL A   1      36.162  34.141  33.144  1.00  0.00    -0.014 A 
BRANCH  35  36
ATOM     36  C   UNL A   1      37.504  33.759  33.665  1.00  0.00     0.031 A 
ATOM     37  C   UNL A   1      37.739  33.689  35.146  1.00  0.00     0.074 A 
ATOM     38  C   UNL A   1      38.535  33.470  32.850  1.00  0.00     0.049 A 
ATOM     39  N   UNL A   1      38.858  33.472  35.789  1.00  0.00    -0.248 NA
ATOM     40  C   UNL A   1      36.560  33.843  36.010  1.00  0.00     0.031 C 
ATOM     41  C   UNL A   1      38.447  33.322  31.406  1.00  0.00     0.029 A 
ATOM     42  N   UNL A   1      39.869  33.277  33.130  1.00  0.00    -0.354 N 
ATOM     43  C   UNL A   1      38.515  33.423  37.132  1.00  0.00     0.074 A 
ATOM     44  C   UNL A   1      37.094  33.697  37.213  1.00  0.00     0.031 C 
ATOM     45  C   UNL A   1      39.687  33.153  30.919  1.00  0.00     0.029 A 
ATOM     46  C   UNL A   1      40.653  33.233  32.004  1.00  0.00     0.049 A 
ATOM     47  H   UNL A   1      40.225  33.182  34.043  1.00  0.00     0.167 HD
ATOM     48  C   UNL A   1      39.304  33.142  38.197  1.00  0.00     0.031 A 
ATOM     49  C   UNL A   1      41.989  33.292  31.838  1.00  0.00     0.031 A 
ATOM     50  C   UNL A   1      40.719  32.894  38.133  1.00  0.00     0.049 A 
ATOM     51  C   UNL A   1      42.883  33.220  33.038  1.00  0.00     0.074 A 
ATOM     52  C   UNL A   1      41.583  32.570  39.165  1.00  0.00     0.029 A 
ATOM     53  N   UNL A   1      41.488  32.964  36.982  1.00  0.00    -0.354 N 
ATOM     54  N   UNL A   1      42.543  33.137  34.299  1.00  0.00    -0.248 NA
ATOM     55  C   UNL A   1      44.332  33.181  32.795  1.00  0.00     0.031 C 
ATOM     56  C   UNL A   1      42.883  32.505  38.649  1.00  0.00     0.029 A 
ATOM     57  C   UNL A   1      42.822  32.737  37.285  1.00  0.00     0.049 A 
ATOM     58  H   UNL A   1      41.139  33.149  36.080  1.00  0.00     0.167 HD
ATOM     59  C   UNL A   1      43.730  32.962  34.997  1.00  0.00     0.074 A 
ATOM     60  C   UNL A   1      44.800  32.982  34.020  1.00  0.00     0.031 C 
ATOM     61  C   UNL A   1      43.899  32.764  36.327  1.00  0.00     0.031 A 
BRANCH  48  62
ATOM     62  C   UNL A   1      38.633  33.116  39.541  1.00  0.00    -0.014 A 
ATOM     63  C   UNL A   1      37.986  31.955  40.003  1.00  0.00     0.010 A 
ATOM     64  C   UNL A   1      38.649  34.265  40.347  1.00  0.00     0.010 A 
ATOM     65  C   UNL A   1      37.324  31.960  41.231  1.00  0.00     0.020 A 
ATOM     66  C   UNL A   1      38.007  34.267  41.588  1.00  0.00     0.020 A 
ATOM     67  C   UNL A   1      37.330  33.121  42.011  1.00  0.00     0.054 A 
BRANCH  67  68
ATOM     68  S   UNL A   1      36.454  33.108  43.598  1.00  0.00     0.124 S 
ATOM     69  O   UNL A   1      35.722  34.372  43.546  1.00  0.00    -0.237 OA
ATOM     70  O   UNL A   1      35.635  31.903  43.505  1.00  0.00    -0.237 OA
ATOM     71  O   UNL A   1      37.529  33.052  44.586  1.00  0.00    -0.744 OA
ENDBRANCH  67  68
ENDBRANCH  48  62
BRANCH  49  72
ATOM     72  C   UNL A   1      42.556  33.450  30.471  1.00  0.00    -0.014 A 
ATOM     73  C   UNL A   1      43.069  32.350  29.766  1.00  0.00     0.010 A 
ATOM     74  C   UNL A   1      42.563  34.720  29.863  1.00  0.00     0.010 A 
ATOM     75  C   UNL A   1      43.579  32.517  28.475  1.00  0.00     0.020 A 
ATOM     76  C   UNL A   1      43.060  34.888  28.567  1.00  0.00     0.020 A 
ATOM     77  C   UNL A   1      43.564  33.783  27.881  1.00  0.00     0.054 A 
BRANCH  77  78
ATOM     78  S   UNL A   1      44.155  33.950  26.174  1.00  0.00     0.124 S 
ATOM     79  O   UNL A   1      45.477  34.537  26.363  1.00  0.00    -0.237 OA
ATOM     80  O   UNL A   1      44.130  32.566  25.705  1.00  0.00    -0.237 OA
ATOM     81  O   UNL A   1      43.161  34.823  25.553  1.00  0.00    -0.744 OA
ENDBRANCH  77  78
ENDBRANCH  49  72
BRANCH  61  82
ATOM     82  C   UNL A   1      45.297  32.500  36.814  1.00  0.00    -0.014 A 
ATOM     83  C   UNL A   1      46.137  33.547  37.230  1.00  0.00     0.010 A 
ATOM     84  C   UNL A   1      45.763  31.174  36.890  1.00  0.00     0.010 A 
ATOM     85  C   UNL A   1      47.429  33.274  37.691  1.00  0.00     0.020 A 
ATOM     86  C   UNL A   1      47.045  30.896  37.373  1.00  0.00     0.020 A 
ATOM     87  C   UNL A   1      47.873  31.951  37.760  1.00  0.00     0.054 A 
BRANCH  87  88
ATOM     88  S   UNL A   1      49.535  31.619  38.409  1.00  0.00     0.124 S 
ATOM     89  O   UNL A   1      50.384  32.017  37.290  1.00  0.00    -0.237 OA
ATOM     90  O   UNL A   1      49.598  32.482  39.586  1.00  0.00    -0.237 OA
ATOM     91  O   UNL A   1      49.514  30.186  38.697  1.00  0.00    -0.744 OA
ENDBRANCH  87  88
ENDBRANCH  61  82
ENDBRANCH  35  36
ENDBRANCH  28  30
ENDBRANCH  27  28
ENDBRANCH  26  27
ENDBRANCH  25  26
ENDBRANCH  24  25
ENDBRANCH  23  24
ENDBRANCH   1  23
TORSDOF 24
ENDMDL
MODEL 2
REMARK VINA RESULT:      -7.6      4.059      5.862
REMARK SMILES O=C(C[N@@H+](Cc1c(F)cccc1Cl)C1CC1)OCCOCCOCCOC(=O)c1ccc(-c2c3nc(c(-c4ccc(S(=O)(=O)[O-])cc4)c4ccc([nH]4)c(-c4ccc(S(=O)(=O)[O-])cc4)c4nc(c(-c5ccc(S(=O)(=O)[O-])cc5)c5ccc2[nH]5)C=C4)C=C3)cc1
REMARK SMILES IDX 21 1 20 2 19 3 18 4 17 5 2 6 1 7 3 8 4 9 5 11 6 12 7 13
REMARK SMILES IDX 12 14 8 15 9 16 11 17 13 18 10 19 14 20 15 21 16 22 22 23
REMARK SMILES IDX 23 24 24 25 25 26 26 27 27 28 28 29 29 30 30 31 88 32 31 33
REMARK SMILES IDX 87 34 32 35 33 36 34 37 81 38 35 39 86 40 80 41 82 42 36 43
REMARK SMILES IDX 85 44 79 45 78 46 37 48 67 49 48 50 66 51 49 52 52 53 65 54
REMARK SMILES IDX 83 55 50 56 51 57 64 59 84 60 53 61 38 62 39 63 47 64 40 65
REMARK SMILES IDX 46 66 41 67 42 68 43 69 44 70 45 71 68 72 69 73 77 74 70 75
REMARK SMILES IDX 76 76 71 77 72 78 73 79 74 80 75 81 54 82 55 83 63 84 56 85
REMARK SMILES IDX 62 86 57 87 58 88 59 89 60 90 61 91
REMARK H PARENT 4 10 82 47 52 58
REMARK Flexibility Score: inf
ROOT
ATOM      1  C   UNL A   1      36.908  31.666  29.242  1.00  0.00     0.188 C 
ENDROOT
BRANCH   1   2
ATOM      2  O   UNL A   1      36.558  30.398  29.787  1.00  0.00    -0.376 OA
BRANCH   2   3
ATOM      3  C   UNL A   1      37.115  29.287  29.104  1.00  0.00     0.202 C 
BRANCH   3   4
ATOM      4  C   UNL A   1      37.833  29.801  27.860  1.00  0.00     0.261 C 
BRANCH   4   5
ATOM      5  O   UNL A   1      39.238  29.462  27.805  1.00  0.00    -0.459 OA
BRANCH   5   6
ATOM      6  C   UNL A   1      40.052  29.237  28.861  1.00  0.00     0.361 C 
ATOM      7  O   UNL A   1      40.383  28.085  29.142  1.00  0.00    -0.245 OA
BRANCH   6   8
ATOM      8  C   UNL A   1      40.504  30.414  29.712  1.00  0.00     0.387 C 
BRANCH   8   9
ATOM      9  N   UNL A   1      41.646  30.064  30.569  1.00  0.00    -0.319 N 
ATOM     10  H   UNL A   1      41.922  30.844  31.165  1.00  0.00     0.349 HD
BRANCH   9  11
ATOM     11  C   UNL A   1      41.308  29.153  31.689  1.00  0.00     0.304 C 
BRANCH  11  12
ATOM     12  C   UNL A   1      41.048  29.785  33.036  1.00  0.00     0.061 A 
ATOM     13  C   UNL A   1      42.128  30.009  33.895  1.00  0.00     0.133 A 
ATOM     14  C   UNL A   1      39.780  30.144  33.515  1.00  0.00     0.052 A 
ATOM     15  F   UNL A   1      43.374  30.012  33.405  1.00  0.00    -0.206 F 
ATOM     16  C   UNL A   1      41.960  30.294  35.241  1.00  0.00     0.040 A 
ATOM     17  C   UNL A   1      39.600  30.474  34.859  1.00  0.00     0.021 A 
ATOM     18  Cl  UNL A   1      38.393  30.310  32.494  1.00  0.00    -0.084 Cl
ATOM     19  C   UNL A   1      40.682  30.482  35.735  1.00  0.00     0.005 A 
ENDBRANCH  11  12
ENDBRANCH   9  11
BRANCH   9  20
ATOM     20  C   UNL A   1      42.872  29.895  29.762  1.00  0.00     0.185 C 
ATOM     21  C   UNL A   1      44.225  30.123  30.368  1.00  0.00     0.071 C 
ATOM     22  C   UNL A   1      43.859  28.779  29.810  1.00  0.00     0.071 C 
ENDBRANCH   9  20
ENDBRANCH   8   9
ENDBRANCH   6   8
ENDBRANCH   5   6
ENDBRANCH   4   5
ENDBRANCH   3   4
ENDBRANCH   2   3
ENDBRANCH   1   2
BRANCH   1  23
ATOM     23  C   UNL A   1      35.656  32.395  28.744  1.00  0.00     0.188 C 
BRANCH  23  24
ATOM     24  O   UNL A   1      35.671  33.816  28.637  1.00  0.00    -0.376 OA
BRANCH  24  25
ATOM     25  C   UNL A   1      34.697  34.465  27.834  1.00  0.00     0.202 C 
BRANCH  25  26
ATOM     26  C   UNL A   1      33.749  35.425  28.557  1.00  0.00     0.261 C 
BRANCH  26  27
ATOM     27  O   UNL A   1      32.959  34.821  29.600  1.00  0.00    -0.460 OA
BRANCH  27  28
ATOM     28  C   UNL A   1      32.874  35.547  30.742  1.00  0.00     0.338 C 
ATOM     29  O   UNL A   1      32.089  36.447  30.978  1.00  0.00    -0.246 OA
BRANCH  28  30
ATOM     30  C   UNL A   1      33.834  35.064  31.760  1.00  0.00     0.060 A 
ATOM     31  C   UNL A   1      34.404  36.002  32.631  1.00  0.00     0.016 A 
ATOM     32  C   UNL A   1      34.307  33.751  31.739  1.00  0.00     0.016 A 
ATOM     33  C   UNL A   1      35.496  35.651  33.433  1.00  0.00     0.010 A 
ATOM     34  C   UNL A   1      35.404  33.403  32.540  1.00  0.00     0.010 A 
ATOM     35  C   UNL A   1      36.037  34.362  33.357  1.00  0.00    -0.014 A 
BRANCH  35  36
ATOM     36  C   UNL A   1      37.341  34.032  33.997  1.00  0.00     0.031 A 
ATOM     37  C   UNL A   1      37.412  33.822  35.482  1.00  0.00     0.074 A 
ATOM     38  C   UNL A   1      38.478  33.913  33.289  1.00  0.00     0.049 A 
ATOM     39  N   UNL A   1      38.466  33.625  36.231  1.00  0.00    -0.248 NA
ATOM     40  C   UNL A   1      36.134  33.789  36.207  1.00  0.00     0.031 C 
ATOM     41  C   UNL A   1      38.567  33.915  31.837  1.00  0.00     0.029 A 
ATOM     42  N   UNL A   1      39.785  33.797  33.708  1.00  0.00    -0.354 N 
ATOM     43  C   UNL A   1      37.981  33.405  37.512  1.00  0.00     0.074 A 
ATOM     44  C   UNL A   1      36.540  33.557  37.446  1.00  0.00     0.031 C 
ATOM     45  C   UNL A   1      39.865  33.897  31.490  1.00  0.00     0.029 A 
ATOM     46  C   UNL A   1      40.691  33.935  32.687  1.00  0.00     0.049 A 
ATOM     47  H   UNL A   1      40.042  33.632  34.645  1.00  0.00     0.167 HD
ATOM     48  C   UNL A   1      38.667  33.074  38.632  1.00  0.00     0.031 A 
ATOM     49  C   UNL A   1      42.027  34.115  32.691  1.00  0.00     0.031 A 
ATOM     50  C   UNL A   1      40.097  32.945  38.716  1.00  0.00     0.049 A 
ATOM     51  C   UNL A   1      42.782  33.986  33.977  1.00  0.00     0.074 A 
ATOM     52  C   UNL A   1      40.864  32.581  39.809  1.00  0.00     0.029 A 
ATOM     53  N   UNL A   1      40.981  33.199  37.679  1.00  0.00    -0.354 N 
ATOM     54  N   UNL A   1      42.311  33.741  35.174  1.00  0.00    -0.248 NA
ATOM     55  C   UNL A   1      44.247  34.086  33.909  1.00  0.00     0.031 C 
ATOM     56  C   UNL A   1      42.215  32.674  39.450  1.00  0.00     0.029 A 
ATOM     57  C   UNL A   1      42.287  33.045  38.119  1.00  0.00     0.049 A 
ATOM     58  H   UNL A   1      40.720  33.451  36.764  1.00  0.00     0.167 HD
ATOM     59  C   UNL A   1      43.423  33.585  35.990  1.00  0.00     0.074 A 
ATOM     60  C   UNL A   1      44.590  33.793  35.157  1.00  0.00     0.031 C 
ATOM     61  C   UNL A   1      43.458  33.259  37.305  1.00  0.00     0.031 A 
BRANCH  48  62
ATOM     62  C   UNL A   1      37.854  32.851  39.875  1.00  0.00    -0.014 A 
ATOM     63  C   UNL A   1      37.121  31.664  40.056  1.00  0.00     0.010 A 
ATOM     64  C   UNL A   1      37.822  33.841  40.871  1.00  0.00     0.010 A 
ATOM     65  C   UNL A   1      36.331  31.491  41.193  1.00  0.00     0.020 A 
ATOM     66  C   UNL A   1      37.051  33.662  42.021  1.00  0.00     0.020 A 
ATOM     67  C   UNL A   1      36.292  32.497  42.164  1.00  0.00     0.054 A 
BRANCH  67  68
ATOM     68  S   UNL A   1      35.251  32.257  43.627  1.00  0.00     0.124 S 
ATOM     69  O   UNL A   1      34.579  33.551  43.734  1.00  0.00    -0.237 OA
ATOM     70  O   UNL A   1      34.398  31.137  43.236  1.00  0.00    -0.237 OA
ATOM     71  O   UNL A   1      36.209  31.964  44.690  1.00  0.00    -0.744 OA
ENDBRANCH  67  68
ENDBRANCH  48  62
BRANCH  49  72
ATOM     72  C   UNL A   1      42.727  34.463  31.425  1.00  0.00    -0.014 A 
ATOM     73  C   UNL A   1      43.266  35.743  31.222  1.00  0.00     0.010 A 
ATOM     74  C   UNL A   1      42.869  33.489  30.417  1.00  0.00     0.010 A 
ATOM     75  C   UNL A   1      43.938  36.043  30.033  1.00  0.00     0.020 A 
ATOM     76  C   UNL A   1      43.552  33.782  29.233  1.00  0.00     0.020 A 
ATOM     77  C   UNL A   1      44.083  35.059  29.049  1.00  0.00     0.054 A 
BRANCH  77  78
ATOM     78  S   UNL A   1      45.032  35.455  27.555  1.00  0.00     0.124 S 
ATOM     79  O   UNL A   1      46.065  36.344  28.075  1.00  0.00    -0.237 OA
ATOM     80  O   UNL A   1      45.483  34.135  27.121  1.00  0.00    -0.237 OA
ATOM     81  O   UNL A   1      44.044  36.082  26.679  1.00  0.00    -0.744 OA
ENDBRANCH  77  78
ENDBRANCH  49  72
BRANCH  61  82
ATOM     82  C   UNL A   1      44.811  33.054  37.930  1.00  0.00    -0.014 A 
ATOM     83  C   UNL A   1      45.260  31.775  38.302  1.00  0.00     0.010 A 
ATOM     84  C   UNL A   1      45.661  34.161  38.113  1.00  0.00     0.010 A 
ATOM     85  C   UNL A   1      46.527  31.610  38.868  1.00  0.00     0.020 A 
ATOM     86  C   UNL A   1      46.938  33.996  38.657  1.00  0.00     0.020 A 
ATOM     87  C   UNL A   1      47.357  32.721  39.042  1.00  0.00     0.054 A 
BRANCH  87  88
ATOM     88  S   UNL A   1      49.017  32.474  39.733  1.00  0.00     0.124 S 
ATOM     89  O   UNL A   1      49.811  33.427  38.965  1.00  0.00    -0.237 OA
ATOM     90  O   UNL A   1      48.830  32.802  41.144  1.00  0.00    -0.237 OA
ATOM     91  O   UNL A   1      49.298  31.065  39.461  1.00  0.00    -0.744 OA
ENDBRANCH  87  88
ENDBRANCH  61  82
ENDBRANCH  35  36
ENDBRANCH  28  30
ENDBRANCH  27  28
ENDBRANCH  26  27
ENDBRANCH  25  26
ENDBRANCH  24  25
ENDBRANCH  23  24
ENDBRANCH   1  23
TORSDOF 24
ENDMDL
MODEL 3
REMARK VINA RESULT:      -7.4      9.682     16.636
REMARK SMILES O=C(C[N@@H+](Cc1c(F)cccc1Cl)C1CC1)OCCOCCOCCOC(=O)c1ccc(-c2c3nc(c(-c4ccc(S(=O)(=O)[O-])cc4)c4ccc([nH]4)c(-c4ccc(S(=O)(=O)[O-])cc4)c4nc(c(-c5ccc(S(=O)(=O)[O-])cc5)c5ccc2[nH]5)C=C4)C=C3)cc1
REMARK SMILES IDX 21 1 20 2 19 3 18 4 17 5 2 6 1 7 3 8 4 9 5 11 6 12 7 13
REMARK SMILES IDX 12 14 8 15 9 16 11 17 13 18 10 19 14 20 15 21 16 22 22 23
REMARK SMILES IDX 23 24 24 25 25 26 26 27 27 28 28 29 29 30 30 31 88 32 31 33
REMARK SMILES IDX 87 34 32 35 33 36 34 37 81 38 35 39 86 40 80 41 82 42 36 43
REMARK SMILES IDX 85 44 79 45 78 46 37 48 67 49 48 50 66 51 49 52 52 53 65 54
REMARK SMILES IDX 83 55 50 56 51 57 64 59 84 60 53 61 38 62 39 63 47 64 40 65
REMARK SMILES IDX 46 66 41 67 42 68 43 69 44 70 45 71 68 72 69 73 77 74 70 75
REMARK SMILES IDX 76 76 71 77 72 78 73 79 74 80 75 81 54 82 55 83 63 84 56 85
REMARK SMILES IDX 62 86 57 87 58 88 59 89 60 90 61 91
REMARK H PARENT 4 10 82 47 52 58
REMARK Flexibility Score: inf
ROOT
ATOM      1  C   UNL A   1      49.423  20.568  39.807  1.00  0.00     0.188 C 
ENDROOT
BRANCH   1   2
ATOM      2  O   UNL A   1      49.488  20.046  41.130  1.00  0.00    -0.376 OA
BRANCH   2   3
ATOM      3  C   UNL A   1      48.794  18.824  41.317  1.00  0.00     0.202 C 
BRANCH   3   4
ATOM      4  C   UNL A   1      47.309  19.135  41.469  1.00  0.00     0.261 C 
BRANCH   4   5
ATOM      5  O   UNL A   1      46.435  18.186  40.812  1.00  0.00    -0.459 OA
BRANCH   5   6
ATOM      6  C   UNL A   1      45.733  17.196  41.406  1.00  0.00     0.361 C 
ATOM      7  O   UNL A   1      46.325  16.228  41.884  1.00  0.00    -0.245 OA
BRANCH   6   8
ATOM      8  C   UNL A   1      44.213  17.278  41.432  1.00  0.00     0.387 C 
BRANCH   8   9
ATOM      9  N   UNL A   1      43.591  15.957  41.266  1.00  0.00    -0.319 N 
ATOM     10  H   UNL A   1      44.249  15.204  41.463  1.00  0.00     0.349 HD
BRANCH   9  11
ATOM     11  C   UNL A   1      42.643  15.591  42.345  1.00  0.00     0.304 C 
BRANCH  11  12
ATOM     12  C   UNL A   1      42.504  14.124  42.673  1.00  0.00     0.061 A 
ATOM     13  C   UNL A   1      41.544  13.369  41.990  1.00  0.00     0.133 A 
ATOM     14  C   UNL A   1      43.255  13.450  43.646  1.00  0.00     0.052 A 
ATOM     15  F   UNL A   1      41.032  13.832  40.842  1.00  0.00    -0.206 F 
ATOM     16  C   UNL A   1      41.139  12.116  42.423  1.00  0.00     0.040 A 
ATOM     17  C   UNL A   1      42.884  12.171  44.064  1.00  0.00     0.021 A 
ATOM     18  Cl  UNL A   1      44.721  14.079  44.316  1.00  0.00    -0.084 Cl
ATOM     19  C   UNL A   1      41.784  11.534  43.498  1.00  0.00     0.005 A 
ENDBRANCH  11  12
ENDBRANCH   9  11
BRANCH   9  20
ATOM     20  C   UNL A   1      43.299  15.692  39.842  1.00  0.00     0.185 C 
ATOM     21  C   UNL A   1      43.079  16.824  38.882  1.00  0.00     0.071 C 
ATOM     22  C   UNL A   1      44.207  15.857  38.670  1.00  0.00     0.071 C 
ENDBRANCH   9  20
ENDBRANCH   8   9
ENDBRANCH   6   8
ENDBRANCH   5   6
ENDBRANCH   4   5
ENDBRANCH   3   4
ENDBRANCH   2   3
ENDBRANCH   1   2
BRANCH   1  23
ATOM     23  C   UNL A   1      48.579  21.846  39.780  1.00  0.00     0.188 C 
BRANCH  23  24
ATOM     24  O   UNL A   1      48.240  22.435  38.526  1.00  0.00    -0.376 OA
BRANCH  24  25
ATOM     25  C   UNL A   1      48.526  21.733  37.327  1.00  0.00     0.202 C 
BRANCH  25  26
ATOM     26  C   UNL A   1      47.333  21.099  36.607  1.00  0.00     0.261 C 
BRANCH  26  27
ATOM     27  O   UNL A   1      46.167  21.941  36.517  1.00  0.00    -0.460 OA
BRANCH  27  28
ATOM     28  C   UNL A   1      45.507  21.874  35.334  1.00  0.00     0.338 C 
ATOM     29  O   UNL A   1      45.369  20.890  34.630  1.00  0.00    -0.246 OA
BRANCH  28  30
ATOM     30  C   UNL A   1      44.871  23.167  34.998  1.00  0.00     0.060 A 
ATOM     31  C   UNL A   1      43.928  23.192  33.963  1.00  0.00     0.016 A 
ATOM     32  C   UNL A   1      45.326  24.363  35.558  1.00  0.00     0.016 A 
ATOM     33  C   UNL A   1      43.489  24.412  33.434  1.00  0.00     0.010 A 
ATOM     34  C   UNL A   1      44.889  25.583  35.024  1.00  0.00     0.010 A 
ATOM     35  C   UNL A   1      44.004  25.617  33.927  1.00  0.00    -0.014 A 
BRANCH  35  36
ATOM     36  C   UNL A   1      43.758  26.908  33.226  1.00  0.00     0.031 A 
ATOM     37  C   UNL A   1      44.584  27.277  32.028  1.00  0.00     0.074 A 
ATOM     38  C   UNL A   1      42.810  27.773  33.628  1.00  0.00     0.049 A 
ATOM     39  N   UNL A   1      44.585  28.394  31.347  1.00  0.00    -0.248 NA
ATOM     40  C   UNL A   1      45.493  26.246  31.509  1.00  0.00     0.031 C 
ATOM     41  C   UNL A   1      41.812  27.509  34.653  1.00  0.00     0.029 A 
ATOM     42  N   UNL A   1      42.555  29.068  33.233  1.00  0.00    -0.354 N 
ATOM     43  C   UNL A   1      45.464  28.191  30.293  1.00  0.00     0.074 A 
ATOM     44  C   UNL A   1      46.024  26.864  30.465  1.00  0.00     0.031 C 
ATOM     45  C   UNL A   1      41.115  28.636  34.869  1.00  0.00     0.029 A 
ATOM     46  C   UNL A   1      41.648  29.707  34.041  1.00  0.00     0.049 A 
ATOM     47  H   UNL A   1      42.980  29.491  32.453  1.00  0.00     0.167 HD
ATOM     48  C   UNL A   1      45.753  29.017  29.260  1.00  0.00     0.031 A 
ATOM     49  C   UNL A   1      41.302  31.005  34.150  1.00  0.00     0.031 A 
ATOM     50  C   UNL A   1      45.223  30.344  29.092  1.00  0.00     0.049 A 
ATOM     51  C   UNL A   1      41.810  31.988  33.141  1.00  0.00     0.074 A 
ATOM     52  C   UNL A   1      45.444  31.232  28.053  1.00  0.00     0.029 A 
ATOM     53  N   UNL A   1      44.390  30.988  29.993  1.00  0.00    -0.354 N 
ATOM     54  N   UNL A   1      42.611  31.772  32.129  1.00  0.00    -0.248 NA
ATOM     55  C   UNL A   1      41.318  33.369  33.242  1.00  0.00     0.031 C 
ATOM     56  C   UNL A   1      44.793  32.435  28.356  1.00  0.00     0.029 A 
ATOM     57  C   UNL A   1      44.124  32.278  29.558  1.00  0.00     0.049 A 
ATOM     58  H   UNL A   1      44.037  30.589  30.820  1.00  0.00     0.167 HD
ATOM     59  C   UNL A   1      42.664  32.969  31.429  1.00  0.00     0.074 A 
ATOM     60  C   UNL A   1      41.837  33.916  32.150  1.00  0.00     0.031 C 
ATOM     61  C   UNL A   1      43.313  33.234  30.269  1.00  0.00     0.031 A 
BRANCH  48  62
ATOM     62  C   UNL A   1      46.719  28.497  28.234  1.00  0.00    -0.014 A 
ATOM     63  C   UNL A   1      48.107  28.566  28.449  1.00  0.00     0.010 A 
ATOM     64  C   UNL A   1      46.231  27.935  27.043  1.00  0.00     0.010 A 
ATOM     65  C   UNL A   1      48.994  28.125  27.465  1.00  0.00     0.020 A 
ATOM     66  C   UNL A   1      47.114  27.470  26.067  1.00  0.00     0.020 A 
ATOM     67  C   UNL A   1      48.491  27.589  26.275  1.00  0.00     0.054 A 
BRANCH  67  68
ATOM     68  S   UNL A   1      49.660  27.032  25.007  1.00  0.00     0.124 S 
ATOM     69  O   UNL A   1      50.004  28.288  24.344  1.00  0.00    -0.237 OA
ATOM     70  O   UNL A   1      50.729  26.427  25.798  1.00  0.00    -0.237 OA
ATOM     71  O   UNL A   1      48.879  26.097  24.202  1.00  0.00    -0.744 OA
ENDBRANCH  67  68
ENDBRANCH  48  62
BRANCH  49  72
ATOM     72  C   UNL A   1      40.442  31.446  35.281  1.00  0.00    -0.014 A 
ATOM     73  C   UNL A   1      40.975  32.172  36.358  1.00  0.00     0.010 A 
ATOM     74  C   UNL A   1      39.065  31.147  35.268  1.00  0.00     0.010 A 
ATOM     75  C   UNL A   1      40.145  32.594  37.402  1.00  0.00     0.020 A 
ATOM     76  C   UNL A   1      38.231  31.580  36.303  1.00  0.00     0.020 A 
ATOM     77  C   UNL A   1      38.778  32.301  37.364  1.00  0.00     0.054 A 
BRANCH  77  78
ATOM     78  S   UNL A   1      37.715  32.936  38.690  1.00  0.00     0.124 S 
ATOM     79  O   UNL A   1      38.346  34.213  39.004  1.00  0.00    -0.237 OA
ATOM     80  O   UNL A   1      36.414  33.010  38.030  1.00  0.00    -0.237 OA
ATOM     81  O   UNL A   1      37.816  31.912  39.727  1.00  0.00    -0.744 OA
ENDBRANCH  77  78
ENDBRANCH  49  72
BRANCH  61  82
ATOM     82  C   UNL A   1      43.121  34.599  29.667  1.00  0.00    -0.014 A 
ATOM     83  C   UNL A   1      43.907  35.693  30.068  1.00  0.00     0.010 A 
ATOM     84  C   UNL A   1      42.161  34.778  28.654  1.00  0.00     0.010 A 
ATOM     85  C   UNL A   1      43.719  36.949  29.483  1.00  0.00     0.020 A 
ATOM     86  C   UNL A   1      41.986  36.026  28.050  1.00  0.00     0.020 A 
ATOM     87  C   UNL A   1      42.760  37.106  28.478  1.00  0.00     0.054 A 
BRANCH  87  88
ATOM     88  S   UNL A   1      42.569  38.734  27.699  1.00  0.00     0.124 S 
ATOM     89  O   UNL A   1      43.947  39.210  27.646  1.00  0.00    -0.237 OA
ATOM     90  O   UNL A   1      41.966  38.405  26.410  1.00  0.00    -0.237 OA
ATOM     91  O   UNL A   1      41.694  39.458  28.621  1.00  0.00    -0.744 OA
ENDBRANCH  87  88
ENDBRANCH  61  82
ENDBRANCH  35  36
ENDBRANCH  28  30
ENDBRANCH  27  28
ENDBRANCH  26  27
ENDBRANCH  25  26
ENDBRANCH  24  25
ENDBRANCH  23  24
ENDBRANCH   1  23
TORSDOF 24
ENDMDL
