MODEL 1
REMARK VINA RESULT:      -9.7      0.000      0.000
REMARK SMILES O=C(OCCOCCOCCOC(=O)c1ccc(Cl)nc1NC[C@@H]1C[N@@H+]2CCC[C@@H]2CO1)c1ccc(-c2c3nc(c(-c4ccc(S(=O)(=O)[O-])cc4)c4ccc([nH]4)c(-c4ccc(S(=O)(=O)[O-])cc4)c4nc(c(-c5ccc(S(=O)(=O)[O-])cc5)c5ccc2[nH]5)C=C4)C=C3)cc1
REMARK SMILES IDX 7 1 6 2 5 3 4 4 3 5 2 6 1 7 33 8 34 9 92 10 35 11 91 12
REMARK SMILES IDX 36 13 37 14 38 15 85 16 39 17 90 18 84 19 86 20 40 21 89 22
REMARK SMILES IDX 83 23 82 24 41 26 71 27 52 28 70 29 53 30 56 31 69 32 87 33
REMARK SMILES IDX 54 34 55 35 68 37 88 38 57 39 42 40 43 41 51 42 44 43 50 44
REMARK SMILES IDX 45 45 46 46 47 47 48 48 49 49 72 50 73 51 81 52 74 53 80 54
REMARK SMILES IDX 75 55 76 56 77 57 78 58 79 59 58 60 59 61 67 62 60 63 66 64
REMARK SMILES IDX 61 65 62 66 63 67 64 68 65 69 8 70 9 71 10 72 11 73 12 74
REMARK SMILES IDX 13 75 14 76 15 77 16 78 21 79 17 80 20 81 18 82 19 83 22 84
REMARK SMILES IDX 23 86 24 87 25 88 32 89 26 90 31 91 27 92 30 93 28 95 29 96
REMARK H PARENT 86 25 56 36 22 85 26 94
REMARK Flexibility Score: inf
ROOT
ATOM      1  C   UNL A   1      39.913  21.398  26.365  1.00  0.00     0.188 C 
ENDROOT
BRANCH   1   2
ATOM      2  O   UNL A   1      41.037  22.049  25.763  1.00  0.00    -0.376 OA
BRANCH   2   3
ATOM      3  C   UNL A   1      41.862  22.751  26.694  1.00  0.00     0.202 C 
BRANCH   3   4
ATOM      4  C   UNL A   1      42.087  24.223  26.334  1.00  0.00     0.261 C 
BRANCH   4   5
ATOM      5  O   UNL A   1      40.908  25.015  26.544  1.00  0.00    -0.460 OA
BRANCH   5   6
ATOM      6  C   UNL A   1      40.792  26.365  26.497  1.00  0.00     0.338 C 
ATOM      7  O   UNL A   1      40.955  26.910  25.405  1.00  0.00    -0.246 OA
BRANCH   6   8
ATOM      8  C   UNL A   1      40.453  27.241  27.669  1.00  0.00     0.060 A 
ATOM      9  C   UNL A   1      40.786  28.587  27.806  1.00  0.00     0.016 A 
ATOM     10  C   UNL A   1      39.734  26.644  28.724  1.00  0.00     0.016 A 
ATOM     11  C   UNL A   1      40.578  29.267  29.004  1.00  0.00     0.010 A 
ATOM     12  C   UNL A   1      39.454  27.343  29.906  1.00  0.00     0.010 A 
ATOM     13  C   UNL A   1      39.943  28.641  30.076  1.00  0.00    -0.014 A 
BRANCH  13  14
ATOM     14  C   UNL A   1      39.948  29.323  31.390  1.00  0.00     0.031 A 
ATOM     15  C   UNL A   1      41.095  29.072  32.330  1.00  0.00     0.074 A 
ATOM     16  C   UNL A   1      39.040  30.278  31.660  1.00  0.00     0.049 A 
ATOM     17  N   UNL A   1      41.358  29.638  33.479  1.00  0.00    -0.248 NA
ATOM     18  C   UNL A   1      42.096  28.077  31.906  1.00  0.00     0.031 C 
ATOM     19  C   UNL A   1      37.951  30.676  30.767  1.00  0.00     0.029 A 
ATOM     20  N   UNL A   1      38.911  31.117  32.737  1.00  0.00    -0.354 N 
ATOM     21  C   UNL A   1      42.558  29.081  33.905  1.00  0.00     0.074 A 
ATOM     22  C   UNL A   1      42.952  28.104  32.915  1.00  0.00     0.031 C 
ATOM     23  C   UNL A   1      37.281  31.698  31.324  1.00  0.00     0.029 A 
ATOM     24  C   UNL A   1      37.856  31.990  32.629  1.00  0.00     0.049 A 
ATOM     25  H   UNL A   1      39.517  31.096  33.513  1.00  0.00     0.167 HD
ATOM     26  C   UNL A   1      43.278  29.370  35.013  1.00  0.00     0.031 A 
ATOM     27  C   UNL A   1      37.393  32.916  33.492  1.00  0.00     0.031 A 
ATOM     28  C   UNL A   1      42.863  30.318  36.009  1.00  0.00     0.049 A 
ATOM     29  C   UNL A   1      38.143  33.134  34.775  1.00  0.00     0.074 A 
ATOM     30  C   UNL A   1      43.468  30.627  37.214  1.00  0.00     0.029 A 
ATOM     31  N   UNL A   1      41.734  31.116  35.907  1.00  0.00    -0.354 N 
ATOM     32  N   UNL A   1      39.251  32.562  35.183  1.00  0.00    -0.248 NA
ATOM     33  C   UNL A   1      37.592  34.126  35.706  1.00  0.00     0.031 C 
ATOM     34  C   UNL A   1      42.681  31.589  37.858  1.00  0.00     0.029 A 
ATOM     35  C   UNL A   1      41.615  31.912  37.032  1.00  0.00     0.049 A 
ATOM     36  H   UNL A   1      41.109  31.117  35.147  1.00  0.00     0.167 HD
ATOM     37  C   UNL A   1      39.540  33.136  36.414  1.00  0.00     0.074 A 
ATOM     38  C   UNL A   1      38.502  34.115  36.671  1.00  0.00     0.031 C 
ATOM     39  C   UNL A   1      40.567  32.875  37.258  1.00  0.00     0.031 A 
BRANCH  26  40
ATOM     40  C   UNL A   1      44.562  28.611  35.205  1.00  0.00    -0.014 A 
ATOM     41  C   UNL A   1      44.580  27.395  35.913  1.00  0.00     0.010 A 
ATOM     42  C   UNL A   1      45.766  29.132  34.702  1.00  0.00     0.010 A 
ATOM     43  C   UNL A   1      45.789  26.735  36.153  1.00  0.00     0.020 A 
ATOM     44  C   UNL A   1      46.975  28.465  34.923  1.00  0.00     0.020 A 
ATOM     45  C   UNL A   1      46.979  27.281  35.665  1.00  0.00     0.054 A 
BRANCH  45  46
ATOM     46  S   UNL A   1      48.539  26.416  36.004  1.00  0.00     0.124 S 
ATOM     47  O   UNL A   1      48.158  25.021  35.798  1.00  0.00    -0.237 OA
ATOM     48  O   UNL A   1      49.441  26.975  35.001  1.00  0.00    -0.237 OA
ATOM     49  O   UNL A   1      48.844  26.782  37.385  1.00  0.00    -0.744 OA
ENDBRANCH  45  46
ENDBRANCH  26  40
BRANCH  27  50
ATOM     50  C   UNL A   1      36.143  33.663  33.186  1.00  0.00    -0.014 A 
ATOM     51  C   UNL A   1      34.878  33.136  33.498  1.00  0.00     0.010 A 
ATOM     52  C   UNL A   1      36.220  34.927  32.565  1.00  0.00     0.010 A 
ATOM     53  C   UNL A   1      33.716  33.846  33.177  1.00  0.00     0.020 A 
ATOM     54  C   UNL A   1      35.064  35.650  32.265  1.00  0.00     0.020 A 
ATOM     55  C   UNL A   1      33.816  35.096  32.560  1.00  0.00     0.054 A 
BRANCH  55  56
ATOM     56  S   UNL A   1      32.301  36.024  32.188  1.00  0.00     0.124 S 
ATOM     57  O   UNL A   1      31.264  35.067  32.554  1.00  0.00    -0.237 OA
ATOM     58  O   UNL A   1      32.424  37.193  33.056  1.00  0.00    -0.237 OA
ATOM     59  O   UNL A   1      32.424  36.308  30.759  1.00  0.00    -0.744 OA
ENDBRANCH  55  56
ENDBRANCH  27  50
BRANCH  39  60
ATOM     60  C   UNL A   1      40.623  33.678  38.526  1.00  0.00    -0.014 A 
ATOM     61  C   UNL A   1      41.252  34.934  38.554  1.00  0.00     0.010 A 
ATOM     62  C   UNL A   1      40.005  33.185  39.687  1.00  0.00     0.010 A 
ATOM     63  C   UNL A   1      41.287  35.674  39.737  1.00  0.00     0.020 A 
ATOM     64  C   UNL A   1      40.019  33.932  40.866  1.00  0.00     0.020 A 
ATOM     65  C   UNL A   1      40.674  35.166  40.887  1.00  0.00     0.054 A 
BRANCH  65  66
ATOM     66  S   UNL A   1      40.697  36.159  42.403  1.00  0.00     0.124 S 
ATOM     67  O   UNL A   1      41.419  35.287  43.325  1.00  0.00    -0.237 OA
ATOM     68  O   UNL A   1      41.408  37.366  41.989  1.00  0.00    -0.237 OA
ATOM     69  O   UNL A   1      39.281  36.354  42.708  1.00  0.00    -0.744 OA
ENDBRANCH  65  66
ENDBRANCH  39  60
ENDBRANCH  13  14
ENDBRANCH   6   8
ENDBRANCH   5   6
ENDBRANCH   4   5
ENDBRANCH   3   4
ENDBRANCH   2   3
ENDBRANCH   1   2
BRANCH   1  70
ATOM     70  C   UNL A   1      38.720  22.349  26.469  1.00  0.00     0.188 C 
BRANCH  70  71
ATOM     71  O   UNL A   1      37.829  22.307  25.352  1.00  0.00    -0.376 OA
BRANCH  71  72
ATOM     72  C   UNL A   1      37.219  23.543  24.978  1.00  0.00     0.202 C 
BRANCH  72  73
ATOM     73  C   UNL A   1      36.038  23.452  24.004  1.00  0.00     0.261 C 
BRANCH  73  74
ATOM     74  O   UNL A   1      34.746  23.723  24.579  1.00  0.00    -0.460 OA
BRANCH  74  75
ATOM     75  C   UNL A   1      34.301  22.796  25.468  1.00  0.00     0.341 C 
ATOM     76  O   UNL A   1      34.335  22.860  26.684  1.00  0.00    -0.246 OA
BRANCH  75  77
ATOM     77  C   UNL A   1      33.821  21.608  24.755  1.00  0.00     0.102 A 
ATOM     78  C   UNL A   1      34.405  20.377  25.082  1.00  0.00     0.023 A 
ATOM     79  C   UNL A   1      32.731  21.656  23.880  1.00  0.00     0.142 A 
ATOM     80  C   UNL A   1      33.892  19.214  24.523  1.00  0.00     0.042 A 
ATOM     81  N   UNL A   1      32.288  20.524  23.284  1.00  0.00    -0.218 NA
ATOM     82  C   UNL A   1      32.853  19.347  23.626  1.00  0.00     0.131 A 
ATOM     83  Cl  UNL A   1      32.166  17.983  22.850  1.00  0.00    -0.062 Cl
BRANCH  79  84
ATOM     84  N   UNL A   1      32.083  22.837  23.555  1.00  0.00    -0.366 N 
ATOM     85  H   UNL A   1      32.331  23.333  22.741  1.00  0.00     0.162 HD
BRANCH  84  86
ATOM     86  C   UNL A   1      31.030  23.337  24.432  1.00  0.00     0.152 C 
BRANCH  86  87
ATOM     87  C   UNL A   1      30.724  24.834  24.201  1.00  0.00     0.192 C 
ATOM     88  C   UNL A   1      32.014  25.502  23.634  1.00  0.00     0.296 C 
ATOM     89  O   UNL A   1      30.224  25.424  25.422  1.00  0.00    -0.364 OA
ATOM     90  N   UNL A   1      32.122  26.951  23.856  1.00  0.00    -0.328 N 
ATOM     91  C   UNL A   1      31.243  26.155  26.106  1.00  0.00     0.225 C 
ATOM     92  C   UNL A   1      33.492  27.434  23.622  1.00  0.00     0.262 C 
ATOM     93  C   UNL A   1      31.738  27.321  25.239  1.00  0.00     0.210 C 
ATOM     94  H   UNL A   1      31.483  27.386  23.191  1.00  0.00     0.348 HD
ATOM     95  C   UNL A   1      33.684  28.554  24.628  1.00  0.00     0.068 C 
ATOM     96  C   UNL A   1      32.944  28.033  25.843  1.00  0.00     0.073 C 
ENDBRANCH  86  87
ENDBRANCH  84  86
ENDBRANCH  79  84
ENDBRANCH  75  77
ENDBRANCH  74  75
ENDBRANCH  73  74
ENDBRANCH  72  73
ENDBRANCH  71  72
ENDBRANCH  70  71
ENDBRANCH   1  70
TORSDOF 23
ENDMDL
MODEL 2
REMARK VINA RESULT:      -9.5      2.664      3.772
REMARK SMILES O=C(OCCOCCOCCOC(=O)c1ccc(Cl)nc1NC[C@@H]1C[N@@H+]2CCC[C@@H]2CO1)c1ccc(-c2c3nc(c(-c4ccc(S(=O)(=O)[O-])cc4)c4ccc([nH]4)c(-c4ccc(S(=O)(=O)[O-])cc4)c4nc(c(-c5ccc(S(=O)(=O)[O-])cc5)c5ccc2[nH]5)C=C4)C=C3)cc1
REMARK SMILES IDX 7 1 6 2 5 3 4 4 3 5 2 6 1 7 33 8 34 9 92 10 35 11 91 12
REMARK SMILES IDX 36 13 37 14 38 15 85 16 39 17 90 18 84 19 86 20 40 21 89 22
REMARK SMILES IDX 83 23 82 24 41 26 71 27 52 28 70 29 53 30 56 31 69 32 87 33
REMARK SMILES IDX 54 34 55 35 68 37 88 38 57 39 42 40 43 41 51 42 44 43 50 44
REMARK SMILES IDX 45 45 46 46 47 47 48 48 49 49 72 50 73 51 81 52 74 53 80 54
REMARK SMILES IDX 75 55 76 56 77 57 78 58 79 59 58 60 59 61 67 62 60 63 66 64
REMARK SMILES IDX 61 65 62 66 63 67 64 68 65 69 8 70 9 71 10 72 11 73 12 74
REMARK SMILES IDX 13 75 14 76 15 77 16 78 21 79 17 80 20 81 18 82 19 83 22 84
REMARK SMILES IDX 23 86 24 87 25 88 32 89 26 90 31 91 27 92 30 93 28 95 29 96
REMARK H PARENT 86 25 56 36 22 85 26 94
REMARK Flexibility Score: inf
ROOT
ATOM      1  C   UNL A   1      39.013  21.840  26.045  1.00  0.00     0.188 C 
ENDROOT
BRANCH   1   2
ATOM      2  O   UNL A   1      39.893  20.716  25.928  1.00  0.00    -0.376 OA
BRANCH   2   3
ATOM      3  C   UNL A   1      40.999  20.755  26.831  1.00  0.00     0.202 C 
BRANCH   3   4
ATOM      4  C   UNL A   1      42.352  20.961  26.143  1.00  0.00     0.261 C 
BRANCH   4   5
ATOM      5  O   UNL A   1      42.325  22.063  25.222  1.00  0.00    -0.460 OA
BRANCH   5   6
ATOM      6  C   UNL A   1      42.999  23.237  25.308  1.00  0.00     0.338 C 
ATOM      7  O   UNL A   1      43.967  23.389  24.563  1.00  0.00    -0.246 OA
BRANCH   6   8
ATOM      8  C   UNL A   1      42.636  24.372  26.222  1.00  0.00     0.060 A 
ATOM      9  C   UNL A   1      43.234  25.631  26.238  1.00  0.00     0.016 A 
ATOM     10  C   UNL A   1      41.598  24.139  27.147  1.00  0.00     0.016 A 
ATOM     11  C   UNL A   1      42.946  26.557  27.238  1.00  0.00     0.010 A 
ATOM     12  C   UNL A   1      41.249  25.095  28.110  1.00  0.00     0.010 A 
ATOM     13  C   UNL A   1      41.977  26.284  28.203  1.00  0.00    -0.014 A 
BRANCH  13  14
ATOM     14  C   UNL A   1      41.869  27.195  29.365  1.00  0.00     0.031 A 
ATOM     15  C   UNL A   1      42.945  27.159  30.415  1.00  0.00     0.074 A 
ATOM     16  C   UNL A   1      40.924  28.153  29.388  1.00  0.00     0.049 A 
ATOM     17  N   UNL A   1      43.109  27.933  31.455  1.00  0.00    -0.248 NA
ATOM     18  C   UNL A   1      43.995  26.137  30.255  1.00  0.00     0.031 C 
ATOM     19  C   UNL A   1      39.899  28.344  28.361  1.00  0.00     0.029 A 
ATOM     20  N   UNL A   1      40.697  29.170  30.279  1.00  0.00    -0.354 N 
ATOM     21  C   UNL A   1      44.283  27.504  32.061  1.00  0.00     0.074 A 
ATOM     22  C   UNL A   1      44.771  26.377  31.300  1.00  0.00     0.031 C 
ATOM     23  C   UNL A   1      39.168  29.427  28.670  1.00  0.00     0.029 A 
ATOM     24  C   UNL A   1      39.636  29.973  29.936  1.00  0.00     0.049 A 
ATOM     25  H   UNL A   1      41.241  29.311  31.086  1.00  0.00     0.167 HD
ATOM     26  C   UNL A   1      44.910  28.016  33.146  1.00  0.00     0.031 A 
ATOM     27  C   UNL A   1      39.091  31.024  30.577  1.00  0.00     0.031 A 
ATOM     28  C   UNL A   1      44.402  29.115  33.917  1.00  0.00     0.049 A 
ATOM     29  C   UNL A   1      39.735  31.498  31.849  1.00  0.00     0.074 A 
ATOM     30  C   UNL A   1      44.906  29.659  35.084  1.00  0.00     0.029 A 
ATOM     31  N   UNL A   1      43.268  29.843  33.588  1.00  0.00    -0.354 N 
ATOM     32  N   UNL A   1      40.820  31.048  32.434  1.00  0.00    -0.248 NA
ATOM     33  C   UNL A   1      39.096  32.626  32.538  1.00  0.00     0.031 C 
ATOM     34  C   UNL A   1      44.053  30.697  35.481  1.00  0.00     0.029 A 
ATOM     35  C   UNL A   1      43.047  30.827  34.535  1.00  0.00     0.049 A 
ATOM     36  H   UNL A   1      42.703  29.684  32.798  1.00  0.00     0.167 HD
ATOM     37  C   UNL A   1      41.002  31.847  33.554  1.00  0.00     0.074 A 
ATOM     38  C   UNL A   1      39.929  32.821  33.551  1.00  0.00     0.031 C 
ATOM     39  C   UNL A   1      41.967  31.779  34.504  1.00  0.00     0.031 A 
BRANCH  26  40
ATOM     40  C   UNL A   1      46.190  27.348  33.566  1.00  0.00    -0.014 A 
ATOM     41  C   UNL A   1      47.391  27.591  32.875  1.00  0.00     0.010 A 
ATOM     42  C   UNL A   1      46.187  26.444  34.643  1.00  0.00     0.010 A 
ATOM     43  C   UNL A   1      48.558  26.907  33.224  1.00  0.00     0.020 A 
ATOM     44  C   UNL A   1      47.358  25.773  35.009  1.00  0.00     0.020 A 
ATOM     45  C   UNL A   1      48.531  25.994  34.283  1.00  0.00     0.054 A 
BRANCH  45  46
ATOM     46  S   UNL A   1      50.055  25.105  34.707  1.00  0.00     0.124 S 
ATOM     47  O   UNL A   1      50.998  26.203  34.903  1.00  0.00    -0.237 OA
ATOM     48  O   UNL A   1      49.678  24.379  35.918  1.00  0.00    -0.237 OA
ATOM     49  O   UNL A   1      50.306  24.269  33.536  1.00  0.00    -0.744 OA
ENDBRANCH  45  46
ENDBRANCH  26  40
BRANCH  27  50
ATOM     50  C   UNL A   1      37.853  31.661  30.049  1.00  0.00    -0.014 A 
ATOM     51  C   UNL A   1      36.580  31.139  30.335  1.00  0.00     0.010 A 
ATOM     52  C   UNL A   1      37.951  32.811  29.241  1.00  0.00     0.010 A 
ATOM     53  C   UNL A   1      35.432  31.739  29.806  1.00  0.00     0.020 A 
ATOM     54  C   UNL A   1      36.807  33.429  28.731  1.00  0.00     0.020 A 
ATOM     55  C   UNL A   1      35.554  32.878  29.005  1.00  0.00     0.054 A 
BRANCH  55  56
ATOM     56  S   UNL A   1      34.054  33.671  28.361  1.00  0.00     0.124 S 
ATOM     57  O   UNL A   1      33.452  34.211  29.574  1.00  0.00    -0.237 OA
ATOM     58  O   UNL A   1      34.593  34.655  27.424  1.00  0.00    -0.237 OA
ATOM     59  O   UNL A   1      33.331  32.564  27.736  1.00  0.00    -0.744 OA
ENDBRANCH  55  56
ENDBRANCH  27  50
BRANCH  39  60
ATOM     60  C   UNL A   1      41.910  32.803  35.601  1.00  0.00    -0.014 A 
ATOM     61  C   UNL A   1      42.573  34.034  35.472  1.00  0.00     0.010 A 
ATOM     62  C   UNL A   1      41.152  32.541  36.755  1.00  0.00     0.010 A 
ATOM     63  C   UNL A   1      42.503  34.980  36.496  1.00  0.00     0.020 A 
ATOM     64  C   UNL A   1      41.061  33.492  37.772  1.00  0.00     0.020 A 
ATOM     65  C   UNL A   1      41.750  34.701  37.642  1.00  0.00     0.054 A 
BRANCH  65  66
ATOM     66  S   UNL A   1      41.639  35.957  38.944  1.00  0.00     0.124 S 
ATOM     67  O   UNL A   1      41.300  35.151  40.114  1.00  0.00    -0.237 OA
ATOM     68  O   UNL A   1      42.979  36.539  38.947  1.00  0.00    -0.237 OA
ATOM     69  O   UNL A   1      40.582  36.849  38.473  1.00  0.00    -0.744 OA
ENDBRANCH  65  66
ENDBRANCH  39  60
ENDBRANCH  13  14
ENDBRANCH   6   8
ENDBRANCH   5   6
ENDBRANCH   4   5
ENDBRANCH   3   4
ENDBRANCH   2   3
ENDBRANCH   1   2
BRANCH   1  70
ATOM     70  C   UNL A   1      37.596  21.474  25.602  1.00  0.00     0.188 C 
BRANCH  70  71
ATOM     71  O   UNL A   1      37.371  21.574  24.194  1.00  0.00    -0.376 OA
BRANCH  71  72
ATOM     72  C   UNL A   1      36.565  22.668  23.754  1.00  0.00     0.202 C 
BRANCH  72  73
ATOM     73  C   UNL A   1      36.508  23.888  24.682  1.00  0.00     0.261 C 
BRANCH  73  74
ATOM     74  O   UNL A   1      35.432  23.881  25.639  1.00  0.00    -0.460 OA
BRANCH  74  75
ATOM     75  C   UNL A   1      34.451  24.794  25.414  1.00  0.00     0.341 C 
ATOM     76  O   UNL A   1      34.579  25.932  24.999  1.00  0.00    -0.246 OA
BRANCH  75  77
ATOM     77  C   UNL A   1      33.154  24.250  25.830  1.00  0.00     0.102 A 
ATOM     78  C   UNL A   1      33.157  23.238  26.799  1.00  0.00     0.023 A 
ATOM     79  C   UNL A   1      31.943  24.795  25.390  1.00  0.00     0.142 A 
ATOM     80  C   UNL A   1      31.947  22.786  27.310  1.00  0.00     0.042 A 
ATOM     81  N   UNL A   1      30.769  24.294  25.840  1.00  0.00    -0.218 NA
ATOM     82  C   UNL A   1      30.794  23.333  26.787  1.00  0.00     0.131 A 
ATOM     83  Cl  UNL A   1      29.247  22.825  27.319  1.00  0.00    -0.062 Cl
BRANCH  79  84
ATOM     84  N   UNL A   1      31.879  25.827  24.468  1.00  0.00    -0.366 N 
ATOM     85  H   UNL A   1      32.210  25.696  23.550  1.00  0.00     0.162 HD
BRANCH  84  86
ATOM     86  C   UNL A   1      31.314  27.111  24.873  1.00  0.00     0.152 C 
BRANCH  86  87
ATOM     87  C   UNL A   1      31.047  28.047  23.674  1.00  0.00     0.192 C 
ATOM     88  C   UNL A   1      30.684  29.455  24.240  1.00  0.00     0.296 C 
ATOM     89  O   UNL A   1      30.042  27.464  22.814  1.00  0.00    -0.364 OA
ATOM     90  N   UNL A   1      29.888  30.307  23.344  1.00  0.00    -0.328 N 
ATOM     91  C   UNL A   1      28.758  28.049  23.037  1.00  0.00     0.225 C 
ATOM     92  C   UNL A   1      29.293  31.443  24.066  1.00  0.00     0.262 C 
ATOM     93  C   UNL A   1      28.788  29.547  22.704  1.00  0.00     0.210 C 
ATOM     94  H   UNL A   1      30.533  30.648  22.633  1.00  0.00     0.348 HD
ATOM     95  C   UNL A   1      27.954  31.673  23.389  1.00  0.00     0.068 C 
ATOM     96  C   UNL A   1      27.495  30.261  23.086  1.00  0.00     0.073 C 
ENDBRANCH  86  87
ENDBRANCH  84  86
ENDBRANCH  79  84
ENDBRANCH  75  77
ENDBRANCH  74  75
ENDBRANCH  73  74
ENDBRANCH  72  73
ENDBRANCH  71  72
ENDBRANCH  70  71
ENDBRANCH   1  70
TORSDOF 23
ENDMDL
MODEL 3
REMARK VINA RESULT:      -9.4      2.113      8.577
REMARK SMILES O=C(OCCOCCOCCOC(=O)c1ccc(Cl)nc1NC[C@@H]1C[N@@H+]2CCC[C@@H]2CO1)c1ccc(-c2c3nc(c(-c4ccc(S(=O)(=O)[O-])cc4)c4ccc([nH]4)c(-c4ccc(S(=O)(=O)[O-])cc4)c4nc(c(-c5ccc(S(=O)(=O)[O-])cc5)c5ccc2[nH]5)C=C4)C=C3)cc1
REMARK SMILES IDX 7 1 6 2 5 3 4 4 3 5 2 6 1 7 33 8 34 9 92 10 35 11 91 12
REMARK SMILES IDX 36 13 37 14 38 15 85 16 39 17 90 18 84 19 86 20 40 21 89 22
REMARK SMILES IDX 83 23 82 24 41 26 71 27 52 28 70 29 53 30 56 31 69 32 87 33
REMARK SMILES IDX 54 34 55 35 68 37 88 38 57 39 42 40 43 41 51 42 44 43 50 44
REMARK SMILES IDX 45 45 46 46 47 47 48 48 49 49 72 50 73 51 81 52 74 53 80 54
REMARK SMILES IDX 75 55 76 56 77 57 78 58 79 59 58 60 59 61 67 62 60 63 66 64
REMARK SMILES IDX 61 65 62 66 63 67 64 68 65 69 8 70 9 71 10 72 11 73 12 74
REMARK SMILES IDX 13 75 14 76 15 77 16 78 21 79 17 80 20 81 18 82 19 83 22 84
REMARK SMILES IDX 23 86 24 87 25 88 32 89 26 90 31 91 27 92 30 93 28 95 29 96
REMARK H PARENT 86 25 56 36 22 85 26 94
REMARK Flexibility Score: inf
ROOT
ATOM      1  C   UNL A   1      37.185  21.685  24.582  1.00  0.00     0.188 C 
ENDROOT
BRANCH   1   2
ATOM      2  O   UNL A   1      37.210  22.102  25.952  1.00  0.00    -0.376 OA
BRANCH   2   3
ATOM      3  C   UNL A   1      38.063  23.220  26.198  1.00  0.00     0.202 C 
BRANCH   3   4
ATOM      4  C   UNL A   1      39.490  22.833  26.598  1.00  0.00     0.261 C 
BRANCH   4   5
ATOM      5  O   UNL A   1      40.447  23.834  26.218  1.00  0.00    -0.460 OA
BRANCH   5   6
ATOM      6  C   UNL A   1      41.417  24.393  26.983  1.00  0.00     0.338 C 
ATOM      7  O   UNL A   1      42.522  23.850  26.982  1.00  0.00    -0.246 OA
BRANCH   6   8
ATOM      8  C   UNL A   1      41.251  25.637  27.808  1.00  0.00     0.060 A 
ATOM      9  C   UNL A   1      42.129  26.720  27.839  1.00  0.00     0.016 A 
ATOM     10  C   UNL A   1      40.104  25.713  28.624  1.00  0.00     0.016 A 
ATOM     11  C   UNL A   1      41.977  27.749  28.765  1.00  0.00     0.010 A 
ATOM     12  C   UNL A   1      39.904  26.783  29.506  1.00  0.00     0.010 A 
ATOM     13  C   UNL A   1      40.884  27.772  29.630  1.00  0.00    -0.014 A 
BRANCH  13  14
ATOM     14  C   UNL A   1      40.886  28.755  30.737  1.00  0.00     0.031 A 
ATOM     15  C   UNL A   1      39.864  29.858  30.727  1.00  0.00     0.074 A 
ATOM     16  C   UNL A   1      41.669  28.558  31.814  1.00  0.00     0.049 A 
ATOM     17  N   UNL A   1      39.616  30.760  31.640  1.00  0.00    -0.248 NA
ATOM     18  C   UNL A   1      38.984  29.938  29.548  1.00  0.00     0.031 C 
ATOM     19  C   UNL A   1      42.617  27.455  31.971  1.00  0.00     0.029 A 
ATOM     20  N   UNL A   1      41.763  29.249  32.995  1.00  0.00    -0.354 N 
ATOM     21  C   UNL A   1      38.544  31.500  31.154  1.00  0.00     0.074 A 
ATOM     22  C   UNL A   1      38.215  30.971  29.851  1.00  0.00     0.031 C 
ATOM     23  C   UNL A   1      43.178  27.531  33.189  1.00  0.00     0.029 A 
ATOM     24  C   UNL A   1      42.673  28.712  33.874  1.00  0.00     0.049 A 
ATOM     25  H   UNL A   1      41.230  30.052  33.194  1.00  0.00     0.167 HD
ATOM     26  C   UNL A   1      37.881  32.518  31.750  1.00  0.00     0.031 A 
ATOM     27  C   UNL A   1      43.067  29.132  35.091  1.00  0.00     0.031 A 
ATOM     28  C   UNL A   1      38.235  33.059  33.032  1.00  0.00     0.049 A 
ATOM     29  C   UNL A   1      42.398  30.341  35.681  1.00  0.00     0.074 A 
ATOM     30  C   UNL A   1      37.691  34.146  33.692  1.00  0.00     0.029 A 
ATOM     31  N   UNL A   1      39.230  32.545  33.851  1.00  0.00    -0.354 N 
ATOM     32  N   UNL A   1      41.418  31.058  35.185  1.00  0.00    -0.248 NA
ATOM     33  C   UNL A   1      42.875  30.790  36.994  1.00  0.00     0.031 C 
ATOM     34  C   UNL A   1      38.383  34.309  34.899  1.00  0.00     0.029 A 
ATOM     35  C   UNL A   1      39.324  33.297  35.008  1.00  0.00     0.049 A 
ATOM     36  H   UNL A   1      39.785  31.761  33.641  1.00  0.00     0.167 HD
ATOM     37  C   UNL A   1      41.149  32.036  36.132  1.00  0.00     0.074 A 
ATOM     38  C   UNL A   1      42.055  31.803  37.240  1.00  0.00     0.031 C 
ATOM     39  C   UNL A   1      40.240  33.040  36.090  1.00  0.00     0.031 A 
BRANCH  26  40
ATOM     40  C   UNL A   1      36.737  33.122  30.984  1.00  0.00    -0.014 A 
ATOM     41  C   UNL A   1      36.960  33.798  29.770  1.00  0.00     0.010 A 
ATOM     42  C   UNL A   1      35.430  33.041  31.496  1.00  0.00     0.010 A 
ATOM     43  C   UNL A   1      35.902  34.423  29.105  1.00  0.00     0.020 A 
ATOM     44  C   UNL A   1      34.366  33.647  30.822  1.00  0.00     0.020 A 
ATOM     45  C   UNL A   1      34.613  34.351  29.641  1.00  0.00     0.054 A 
BRANCH  45  46
ATOM     46  S   UNL A   1      33.258  35.185  28.768  1.00  0.00     0.124 S 
ATOM     47  O   UNL A   1      33.974  36.205  28.007  1.00  0.00    -0.237 OA
ATOM     48  O   UNL A   1      32.674  34.106  27.976  1.00  0.00    -0.237 OA
ATOM     49  O   UNL A   1      32.411  35.691  29.846  1.00  0.00    -0.744 OA
ENDBRANCH  45  46
ENDBRANCH  26  40
BRANCH  27  50
ATOM     50  C   UNL A   1      44.171  28.431  35.802  1.00  0.00    -0.014 A 
ATOM     51  C   UNL A   1      43.929  27.294  36.592  1.00  0.00     0.010 A 
ATOM     52  C   UNL A   1      45.490  28.914  35.689  1.00  0.00     0.010 A 
ATOM     53  C   UNL A   1      44.979  26.667  37.271  1.00  0.00     0.020 A 
ATOM     54  C   UNL A   1      46.545  28.277  36.346  1.00  0.00     0.020 A 
ATOM     55  C   UNL A   1      46.280  27.164  37.146  1.00  0.00     0.054 A 
BRANCH  55  56
ATOM     56  S   UNL A   1      47.638  26.315  38.000  1.00  0.00     0.124 S 
ATOM     57  O   UNL A   1      48.784  27.142  37.642  1.00  0.00    -0.237 OA
ATOM     58  O   UNL A   1      47.220  26.376  39.399  1.00  0.00    -0.237 OA
ATOM     59  O   UNL A   1      47.618  24.976  37.413  1.00  0.00    -0.744 OA
ENDBRANCH  55  56
ENDBRANCH  27  50
BRANCH  39  60
ATOM     60  C   UNL A   1      40.171  33.943  37.288  1.00  0.00    -0.014 A 
ATOM     61  C   UNL A   1      40.929  35.124  37.343  1.00  0.00     0.010 A 
ATOM     62  C   UNL A   1      39.308  33.621  38.350  1.00  0.00     0.010 A 
ATOM     63  C   UNL A   1      40.847  35.958  38.460  1.00  0.00     0.020 A 
ATOM     64  C   UNL A   1      39.206  34.464  39.458  1.00  0.00     0.020 A 
ATOM     65  C   UNL A   1      39.989  35.621  39.512  1.00  0.00     0.054 A 
BRANCH  65  66
ATOM     66  S   UNL A   1      39.867  36.737  40.935  1.00  0.00     0.124 S 
ATOM     67  O   UNL A   1      40.160  38.033  40.328  1.00  0.00    -0.237 OA
ATOM     68  O   UNL A   1      38.489  36.547  41.379  1.00  0.00    -0.237 OA
ATOM     69  O   UNL A   1      40.886  36.234  41.854  1.00  0.00    -0.744 OA
ENDBRANCH  65  66
ENDBRANCH  39  60
ENDBRANCH  13  14
ENDBRANCH   6   8
ENDBRANCH   5   6
ENDBRANCH   4   5
ENDBRANCH   3   4
ENDBRANCH   2   3
ENDBRANCH   1   2
BRANCH   1  70
ATOM     70  C   UNL A   1      36.751  22.833  23.669  1.00  0.00     0.188 C 
BRANCH  70  71
ATOM     71  O   UNL A   1      35.463  22.661  23.073  1.00  0.00    -0.376 OA
BRANCH  71  72
ATOM     72  C   UNL A   1      34.454  23.595  23.457  1.00  0.00     0.202 C 
BRANCH  72  73
ATOM     73  C   UNL A   1      33.388  23.918  22.403  1.00  0.00     0.261 C 
BRANCH  73  74
ATOM     74  O   UNL A   1      33.453  25.246  21.852  1.00  0.00    -0.460 OA
BRANCH  74  75
ATOM     75  C   UNL A   1      32.448  26.080  22.228  1.00  0.00     0.341 C 
ATOM     76  O   UNL A   1      31.346  26.189  21.719  1.00  0.00    -0.246 OA
BRANCH  75  77
ATOM     77  C   UNL A   1      32.896  26.941  23.327  1.00  0.00     0.102 A 
ATOM     78  C   UNL A   1      33.638  28.082  22.995  1.00  0.00     0.023 A 
ATOM     79  C   UNL A   1      32.494  26.727  24.650  1.00  0.00     0.142 A 
ATOM     80  C   UNL A   1      33.971  28.988  23.994  1.00  0.00     0.042 A 
ATOM     81  N   UNL A   1      32.889  27.578  25.626  1.00  0.00    -0.218 NA
ATOM     82  C   UNL A   1      33.588  28.680  25.283  1.00  0.00     0.131 A 
ATOM     83  Cl  UNL A   1      33.976  29.708  26.597  1.00  0.00    -0.062 Cl
BRANCH  79  84
ATOM     84  N   UNL A   1      31.721  25.642  25.031  1.00  0.00    -0.366 N 
ATOM     85  H   UNL A   1      31.290  25.075  24.351  1.00  0.00     0.162 HD
BRANCH  84  86
ATOM     86  C   UNL A   1      31.552  25.351  26.450  1.00  0.00     0.152 C 
BRANCH  86  87
ATOM     87  C   UNL A   1      31.280  23.854  26.721  1.00  0.00     0.192 C 
ATOM     88  C   UNL A   1      32.655  23.118  26.753  1.00  0.00     0.296 C 
ATOM     89  O   UNL A   1      30.344  23.344  25.746  1.00  0.00    -0.364 OA
ATOM     90  N   UNL A   1      32.606  21.679  26.453  1.00  0.00    -0.328 N 
ATOM     91  C   UNL A   1      31.009  22.618  24.710  1.00  0.00     0.225 C 
ATOM     92  C   UNL A   1      33.943  21.143  26.152  1.00  0.00     0.262 C 
ATOM     93  C   UNL A   1      31.728  21.395  25.293  1.00  0.00     0.210 C 
ATOM     94  H   UNL A   1      32.232  21.230  27.289  1.00  0.00     0.348 HD
ATOM     95  C   UNL A   1      33.703  20.071  25.105  1.00  0.00     0.068 C 
ATOM     96  C   UNL A   1      32.598  20.678  24.264  1.00  0.00     0.073 C 
ENDBRANCH  86  87
ENDBRANCH  84  86
ENDBRANCH  79  84
ENDBRANCH  75  77
ENDBRANCH  74  75
ENDBRANCH  73  74
ENDBRANCH  72  73
ENDBRANCH  71  72
ENDBRANCH  70  71
ENDBRANCH   1  70
TORSDOF 23
ENDMDL
