MODEL 1
REMARK VINA RESULT:      -9.7      0.000      0.000
REMARK SMILES CC[C@@H](NS(=O)(=O)c1cc(C)ccc1C)C(=O)OCCOCCOCCOC(=O)c1ccc(-c2c3nc(c(-c4ccc(S(=O)(=O)[O-])cc4)c4ccc([nH]4)c(-c4ccc(S(=O)(=O)[O-])cc4)c4nc(c(-c5ccc(S(=O)(=O)[O-])cc5)c5ccc2[nH]5)C=C4)C=C3)cc1
REMARK SMILES IDX 22 1 21 2 20 3 19 4 18 5 16 6 17 7 3 8 2 9 1 10 4 11 5 13
REMARK SMILES IDX 6 14 7 15 8 16 9 17 14 18 10 19 13 20 15 21 11 22 12 23
REMARK SMILES IDX 23 24 24 25 25 26 26 27 27 28 28 29 29 30 30 31 31 32 89 33
REMARK SMILES IDX 32 34 88 35 33 36 34 37 35 38 82 39 36 40 87 41 81 42 83 43
REMARK SMILES IDX 37 44 86 45 80 46 79 47 38 49 68 50 49 51 67 52 50 53 53 54
REMARK SMILES IDX 66 55 84 56 51 57 52 58 65 60 85 61 54 62 39 63 40 64 48 65
REMARK SMILES IDX 41 66 47 67 42 68 43 69 44 70 45 71 46 72 69 73 70 74 78 75
REMARK SMILES IDX 71 76 77 77 72 78 73 79 74 80 75 81 76 82 55 83 56 84 64 85
REMARK SMILES IDX 57 86 63 87 58 88 59 89 60 90 61 91 62 92
REMARK H PARENT 4 12 83 48 53 59
REMARK Flexibility Score: inf
ROOT
ATOM      1  C   UNL A   1      32.638  27.797  23.202  1.00  0.00     0.188 C 
ENDROOT
BRANCH   1   2
ATOM      2  O   UNL A   1      32.691  26.378  23.343  1.00  0.00    -0.376 OA
BRANCH   2   3
ATOM      3  C   UNL A   1      33.294  25.670  22.268  1.00  0.00     0.202 C 
BRANCH   3   4
ATOM      4  C   UNL A   1      33.143  24.149  22.265  1.00  0.00     0.261 C 
BRANCH   4   5
ATOM      5  O   UNL A   1      34.131  23.299  22.881  1.00  0.00    -0.462 OA
BRANCH   5   6
ATOM      6  C   UNL A   1      33.777  22.732  24.070  1.00  0.00     0.324 C 
ATOM      7  O   UNL A   1      32.867  21.920  24.187  1.00  0.00    -0.250 OA
BRANCH   6   8
ATOM      8  C   UNL A   1      34.571  23.273  25.277  1.00  0.00     0.179 C 
BRANCH   8   9
ATOM      9  C   UNL A   1      33.728  23.492  26.544  1.00  0.00     0.028 C 
ATOM     10  C   UNL A   1      34.157  22.626  27.723  1.00  0.00     0.006 C 
ENDBRANCH   8   9
BRANCH   8  11
ATOM     11  N   UNL A   1      35.727  22.456  25.664  1.00  0.00    -0.197 NA
ATOM     12  H   UNL A   1      35.408  21.488  25.643  1.00  0.00     0.142 HD
BRANCH  11  13
ATOM     13  S   UNL A   1      37.176  22.480  24.834  1.00  0.00     0.241 S 
ATOM     14  O   UNL A   1      37.371  21.132  24.324  1.00  0.00    -0.207 OA
ATOM     15  O   UNL A   1      37.088  23.602  23.936  1.00  0.00    -0.207 OA
BRANCH  13  16
ATOM     16  C   UNL A   1      38.387  22.851  26.076  1.00  0.00     0.085 A 
ATOM     17  C   UNL A   1      38.368  24.121  26.667  1.00  0.00     0.025 A 
ATOM     18  C   UNL A   1      39.410  21.943  26.391  1.00  0.00    -0.031 A 
ATOM     19  C   UNL A   1      39.376  24.500  27.560  1.00  0.00    -0.050 A 
ATOM     20  C   UNL A   1      40.360  22.302  27.357  1.00  0.00     0.005 A 
ATOM     21  C   UNL A   1      39.667  20.682  25.636  1.00  0.00     0.046 C 
ATOM     22  C   UNL A   1      39.520  25.919  28.019  1.00  0.00     0.044 C 
ATOM     23  C   UNL A   1      40.346  23.569  27.932  1.00  0.00     0.004 A 
ENDBRANCH  13  16
ENDBRANCH  11  13
ENDBRANCH   8  11
ENDBRANCH   6   8
ENDBRANCH   5   6
ENDBRANCH   4   5
ENDBRANCH   3   4
ENDBRANCH   2   3
ENDBRANCH   1   2
BRANCH   1  24
ATOM     24  C   UNL A   1      31.370  28.424  23.790  1.00  0.00     0.188 C 
BRANCH  24  25
ATOM     25  O   UNL A   1      31.749  29.519  24.616  1.00  0.00    -0.376 OA
BRANCH  25  26
ATOM     26  C   UNL A   1      33.105  29.534  25.023  1.00  0.00     0.202 C 
BRANCH  26  27
ATOM     27  C   UNL A   1      33.304  29.468  26.536  1.00  0.00     0.261 C 
BRANCH  27  28
ATOM     28  O   UNL A   1      33.268  30.698  27.306  1.00  0.00    -0.460 OA
BRANCH  28  29
ATOM     29  C   UNL A   1      34.271  31.539  27.640  1.00  0.00     0.338 C 
ATOM     30  O   UNL A   1      34.225  32.736  27.374  1.00  0.00    -0.246 OA
BRANCH  29  31
ATOM     31  C   UNL A   1      35.495  30.975  28.221  1.00  0.00     0.060 A 
ATOM     32  C   UNL A   1      36.523  31.881  28.444  1.00  0.00     0.016 A 
ATOM     33  C   UNL A   1      35.684  29.614  28.473  1.00  0.00     0.016 A 
ATOM     34  C   UNL A   1      37.773  31.413  28.804  1.00  0.00     0.010 A 
ATOM     35  C   UNL A   1      36.967  29.147  28.807  1.00  0.00     0.010 A 
ATOM     36  C   UNL A   1      38.031  30.050  28.918  1.00  0.00    -0.014 A 
BRANCH  36  37
ATOM     37  C   UNL A   1      39.442  29.714  29.183  1.00  0.00     0.031 A 
ATOM     38  C   UNL A   1      39.922  29.859  30.591  1.00  0.00     0.074 A 
ATOM     39  C   UNL A   1      40.325  29.404  28.209  1.00  0.00     0.049 A 
ATOM     40  N   UNL A   1      41.088  30.273  30.988  1.00  0.00    -0.248 NA
ATOM     41  C   UNL A   1      38.985  29.558  31.685  1.00  0.00     0.031 C 
ATOM     42  C   UNL A   1      40.028  29.212  26.791  1.00  0.00     0.029 A 
ATOM     43  N   UNL A   1      41.676  29.134  28.292  1.00  0.00    -0.354 N 
ATOM     44  C   UNL A   1      41.080  30.175  32.370  1.00  0.00     0.074 A 
ATOM     45  C   UNL A   1      39.749  29.769  32.755  1.00  0.00     0.031 C 
ATOM     46  C   UNL A   1      41.102  28.660  26.191  1.00  0.00     0.029 A 
ATOM     47  C   UNL A   1      42.176  28.499  27.164  1.00  0.00     0.049 A 
ATOM     48  H   UNL A   1      42.229  29.368  29.073  1.00  0.00     0.167 HD
ATOM     49  C   UNL A   1      42.209  30.151  33.125  1.00  0.00     0.031 A 
ATOM     50  C   UNL A   1      43.328  27.795  27.034  1.00  0.00     0.031 A 
ATOM     51  C   UNL A   1      43.357  30.862  32.637  1.00  0.00     0.049 A 
ATOM     52  C   UNL A   1      44.319  28.198  28.062  1.00  0.00     0.074 A 
ATOM     53  C   UNL A   1      43.985  32.058  32.904  1.00  0.00     0.029 A 
ATOM     54  N   UNL A   1      44.025  30.294  31.592  1.00  0.00    -0.354 N 
ATOM     55  N   UNL A   1      45.027  29.287  28.005  1.00  0.00    -0.248 NA
ATOM     56  C   UNL A   1      44.460  27.429  29.295  1.00  0.00     0.031 C 
ATOM     57  C   UNL A   1      45.003  32.227  31.913  1.00  0.00     0.029 A 
ATOM     58  C   UNL A   1      45.017  31.110  31.083  1.00  0.00     0.049 A 
ATOM     59  H   UNL A   1      43.821  29.398  31.238  1.00  0.00     0.167 HD
ATOM     60  C   UNL A   1      45.455  29.517  29.296  1.00  0.00     0.074 A 
ATOM     61  C   UNL A   1      45.199  28.276  30.015  1.00  0.00     0.031 C 
ATOM     62  C   UNL A   1      45.614  30.783  29.787  1.00  0.00     0.031 A 
BRANCH  49  63
ATOM     63  C   UNL A   1      42.389  28.988  34.061  1.00  0.00    -0.014 A 
ATOM     64  C   UNL A   1      42.549  27.691  33.553  1.00  0.00     0.010 A 
ATOM     65  C   UNL A   1      42.072  29.131  35.433  1.00  0.00     0.010 A 
ATOM     66  C   UNL A   1      42.370  26.578  34.384  1.00  0.00     0.020 A 
ATOM     67  C   UNL A   1      41.923  28.033  36.271  1.00  0.00     0.020 A 
ATOM     68  C   UNL A   1      42.043  26.760  35.731  1.00  0.00     0.054 A 
BRANCH  68  69
ATOM     69  S   UNL A   1      41.706  25.319  36.770  1.00  0.00     0.124 S 
ATOM     70  O   UNL A   1      42.959  25.180  37.505  1.00  0.00    -0.237 OA
ATOM     71  O   UNL A   1      40.554  25.763  37.553  1.00  0.00    -0.237 OA
ATOM     72  O   UNL A   1      41.422  24.262  35.802  1.00  0.00    -0.744 OA
ENDBRANCH  68  69
ENDBRANCH  49  63
BRANCH  50  73
ATOM     73  C   UNL A   1      43.600  26.631  26.142  1.00  0.00    -0.014 A 
ATOM     74  C   UNL A   1      44.924  26.208  25.904  1.00  0.00     0.010 A 
ATOM     75  C   UNL A   1      42.567  25.762  25.739  1.00  0.00     0.010 A 
ATOM     76  C   UNL A   1      45.199  24.930  25.392  1.00  0.00     0.020 A 
ATOM     77  C   UNL A   1      42.831  24.504  25.194  1.00  0.00     0.020 A 
ATOM     78  C   UNL A   1      44.146  24.076  25.065  1.00  0.00     0.054 A 
BRANCH  78  79
ATOM     79  S   UNL A   1      44.488  22.346  24.636  1.00  0.00     0.124 S 
ATOM     80  O   UNL A   1      44.348  22.354  23.183  1.00  0.00    -0.237 OA
ATOM     81  O   UNL A   1      45.845  22.156  25.144  1.00  0.00    -0.237 OA
ATOM     82  O   UNL A   1      43.453  21.607  25.356  1.00  0.00    -0.744 OA
ENDBRANCH  78  79
ENDBRANCH  50  73
BRANCH  62  83
ATOM     83  C   UNL A   1      46.200  31.860  28.882  1.00  0.00    -0.014 A 
ATOM     84  C   UNL A   1      45.452  32.602  27.946  1.00  0.00     0.010 A 
ATOM     85  C   UNL A   1      47.579  32.146  28.948  1.00  0.00     0.010 A 
ATOM     86  C   UNL A   1      46.037  33.583  27.130  1.00  0.00     0.020 A 
ATOM     87  C   UNL A   1      48.171  33.150  28.161  1.00  0.00     0.020 A 
ATOM     88  C   UNL A   1      47.392  33.869  27.258  1.00  0.00     0.054 A 
BRANCH  88  89
ATOM     89  S   UNL A   1      48.108  35.170  26.220  1.00  0.00     0.124 S 
ATOM     90  O   UNL A   1      47.304  36.338  26.571  1.00  0.00    -0.237 OA
ATOM     91  O   UNL A   1      49.497  35.213  26.672  1.00  0.00    -0.237 OA
ATOM     92  O   UNL A   1      47.916  34.677  24.858  1.00  0.00    -0.744 OA
ENDBRANCH  88  89
ENDBRANCH  62  83
ENDBRANCH  36  37
ENDBRANCH  29  31
ENDBRANCH  28  29
ENDBRANCH  27  28
ENDBRANCH  26  27
ENDBRANCH  25  26
ENDBRANCH  24  25
ENDBRANCH   1  24
TORSDOF 24
ENDMDL
MODEL 2
REMARK VINA RESULT:      -8.9      1.498      2.911
REMARK SMILES CC[C@@H](NS(=O)(=O)c1cc(C)ccc1C)C(=O)OCCOCCOCCOC(=O)c1ccc(-c2c3nc(c(-c4ccc(S(=O)(=O)[O-])cc4)c4ccc([nH]4)c(-c4ccc(S(=O)(=O)[O-])cc4)c4nc(c(-c5ccc(S(=O)(=O)[O-])cc5)c5ccc2[nH]5)C=C4)C=C3)cc1
REMARK SMILES IDX 22 1 21 2 20 3 19 4 18 5 16 6 17 7 3 8 2 9 1 10 4 11 5 13
REMARK SMILES IDX 6 14 7 15 8 16 9 17 14 18 10 19 13 20 15 21 11 22 12 23
REMARK SMILES IDX 23 24 24 25 25 26 26 27 27 28 28 29 29 30 30 31 31 32 89 33
REMARK SMILES IDX 32 34 88 35 33 36 34 37 35 38 82 39 36 40 87 41 81 42 83 43
REMARK SMILES IDX 37 44 86 45 80 46 79 47 38 49 68 50 49 51 67 52 50 53 53 54
REMARK SMILES IDX 66 55 84 56 51 57 52 58 65 60 85 61 54 62 39 63 40 64 48 65
REMARK SMILES IDX 41 66 47 67 42 68 43 69 44 70 45 71 46 72 69 73 70 74 78 75
REMARK SMILES IDX 71 76 77 77 72 78 73 79 74 80 75 81 76 82 55 83 56 84 64 85
REMARK SMILES IDX 57 86 63 87 58 88 59 89 60 90 61 91 62 92
REMARK H PARENT 4 12 83 48 53 59
REMARK Flexibility Score: inf
ROOT
ATOM      1  C   UNL A   1      31.021  28.836  23.579  1.00  0.00     0.188 C 
ENDROOT
BRANCH   1   2
ATOM      2  O   UNL A   1      30.991  27.514  24.117  1.00  0.00    -0.376 OA
BRANCH   2   3
ATOM      3  C   UNL A   1      29.699  26.966  24.343  1.00  0.00     0.202 C 
BRANCH   3   4
ATOM      4  C   UNL A   1      29.620  25.690  25.181  1.00  0.00     0.261 C 
BRANCH   4   5
ATOM      5  O   UNL A   1      30.615  24.654  25.057  1.00  0.00    -0.462 OA
BRANCH   5   6
ATOM      6  C   UNL A   1      30.835  23.898  26.170  1.00  0.00     0.324 C 
ATOM      7  O   UNL A   1      30.028  23.792  27.087  1.00  0.00    -0.250 OA
BRANCH   6   8
ATOM      8  C   UNL A   1      32.235  23.251  26.216  1.00  0.00     0.179 C 
BRANCH   8   9
ATOM      9  C   UNL A   1      32.722  22.893  27.629  1.00  0.00     0.028 C 
ATOM     10  C   UNL A   1      33.710  21.732  27.661  1.00  0.00     0.006 C 
ENDBRANCH   8   9
BRANCH   8  11
ATOM     11  N   UNL A   1      32.380  22.046  25.391  1.00  0.00    -0.197 NA
ATOM     12  H   UNL A   1      31.435  21.778  25.117  1.00  0.00     0.142 HD
BRANCH  11  13
ATOM     13  S   UNL A   1      33.292  22.005  23.994  1.00  0.00     0.241 S 
ATOM     14  O   UNL A   1      34.608  21.526  24.385  1.00  0.00    -0.207 OA
ATOM     15  O   UNL A   1      32.499  21.280  23.035  1.00  0.00    -0.207 OA
BRANCH  13  16
ATOM     16  C   UNL A   1      33.383  23.700  23.478  1.00  0.00     0.085 A 
ATOM     17  C   UNL A   1      32.668  24.088  22.337  1.00  0.00     0.025 A 
ATOM     18  C   UNL A   1      34.229  24.615  24.124  1.00  0.00    -0.031 A 
ATOM     19  C   UNL A   1      32.806  25.382  21.823  1.00  0.00    -0.050 A 
ATOM     20  C   UNL A   1      34.285  25.934  23.653  1.00  0.00     0.005 A 
ATOM     21  C   UNL A   1      35.217  24.236  25.175  1.00  0.00     0.046 C 
ATOM     22  C   UNL A   1      32.252  25.753  20.481  1.00  0.00     0.044 C 
ATOM     23  C   UNL A   1      33.585  26.312  22.512  1.00  0.00     0.004 A 
ENDBRANCH  13  16
ENDBRANCH  11  13
ENDBRANCH   8  11
ENDBRANCH   6   8
ENDBRANCH   5   6
ENDBRANCH   4   5
ENDBRANCH   3   4
ENDBRANCH   2   3
ENDBRANCH   1   2
BRANCH   1  24
ATOM     24  C   UNL A   1      30.411  29.890  24.507  1.00  0.00     0.188 C 
BRANCH  24  25
ATOM     25  O   UNL A   1      31.460  30.491  25.258  1.00  0.00    -0.376 OA
BRANCH  25  26
ATOM     26  C   UNL A   1      32.674  29.765  25.299  1.00  0.00     0.202 C 
BRANCH  26  27
ATOM     27  C   UNL A   1      33.370  29.786  26.658  1.00  0.00     0.261 C 
BRANCH  27  28
ATOM     28  O   UNL A   1      33.343  31.005  27.446  1.00  0.00    -0.460 OA
BRANCH  28  29
ATOM     29  C   UNL A   1      34.357  31.815  27.821  1.00  0.00     0.338 C 
ATOM     30  O   UNL A   1      34.348  33.016  27.575  1.00  0.00    -0.246 OA
BRANCH  29  31
ATOM     31  C   UNL A   1      35.551  31.210  28.424  1.00  0.00     0.060 A 
ATOM     32  C   UNL A   1      36.637  32.061  28.580  1.00  0.00     0.016 A 
ATOM     33  C   UNL A   1      35.657  29.858  28.759  1.00  0.00     0.016 A 
ATOM     34  C   UNL A   1      37.860  31.537  28.956  1.00  0.00     0.010 A 
ATOM     35  C   UNL A   1      36.913  29.332  29.109  1.00  0.00     0.010 A 
ATOM     36  C   UNL A   1      38.032  30.170  29.153  1.00  0.00    -0.014 A 
BRANCH  36  37
ATOM     37  C   UNL A   1      39.423  29.761  29.424  1.00  0.00     0.031 A 
ATOM     38  C   UNL A   1      39.932  29.965  30.815  1.00  0.00     0.074 A 
ATOM     39  C   UNL A   1      40.271  29.334  28.464  1.00  0.00     0.049 A 
ATOM     40  N   UNL A   1      41.127  30.328  31.172  1.00  0.00    -0.248 NA
ATOM     41  C   UNL A   1      38.993  29.796  31.936  1.00  0.00     0.031 C 
ATOM     42  C   UNL A   1      39.941  29.071  27.065  1.00  0.00     0.029 A 
ATOM     43  N   UNL A   1      41.603  28.983  28.551  1.00  0.00    -0.354 N 
ATOM     44  C   UNL A   1      41.133  30.319  32.558  1.00  0.00     0.074 A 
ATOM     45  C   UNL A   1      39.784  30.026  32.982  1.00  0.00     0.031 C 
ATOM     46  C   UNL A   1      40.969  28.413  26.490  1.00  0.00     0.029 A 
ATOM     47  C   UNL A   1      42.045  28.246  27.461  1.00  0.00     0.049 A 
ATOM     48  H   UNL A   1      42.180  29.231  29.309  1.00  0.00     0.167 HD
ATOM     49  C   UNL A   1      42.269  30.271  33.301  1.00  0.00     0.031 A 
ATOM     50  C   UNL A   1      43.148  27.462  27.365  1.00  0.00     0.031 A 
ATOM     51  C   UNL A   1      43.452  30.874  32.757  1.00  0.00     0.049 A 
ATOM     52  C   UNL A   1      44.177  27.866  28.354  1.00  0.00     0.074 A 
ATOM     53  C   UNL A   1      44.159  32.041  32.939  1.00  0.00     0.029 A 
ATOM     54  N   UNL A   1      44.068  30.198  31.744  1.00  0.00    -0.354 N 
ATOM     55  N   UNL A   1      44.952  28.901  28.219  1.00  0.00    -0.248 NA
ATOM     56  C   UNL A   1      44.286  27.170  29.633  1.00  0.00     0.031 C 
ATOM     57  C   UNL A   1      45.171  32.081  31.929  1.00  0.00     0.029 A 
ATOM     58  C   UNL A   1      45.103  30.914  31.173  1.00  0.00     0.049 A 
ATOM     59  H   UNL A   1      43.802  29.296  31.451  1.00  0.00     0.167 HD
ATOM     60  C   UNL A   1      45.412  29.185  29.489  1.00  0.00     0.074 A 
ATOM     61  C   UNL A   1      45.088  28.012  30.289  1.00  0.00     0.031 C 
ATOM     62  C   UNL A   1      45.658  30.467  29.895  1.00  0.00     0.031 A 
BRANCH  49  63
ATOM     63  C   UNL A   1      42.387  29.162  34.309  1.00  0.00    -0.014 A 
ATOM     64  C   UNL A   1      43.088  27.989  33.990  1.00  0.00     0.010 A 
ATOM     65  C   UNL A   1      41.536  29.141  35.440  1.00  0.00     0.010 A 
ATOM     66  C   UNL A   1      42.919  26.832  34.759  1.00  0.00     0.020 A 
ATOM     67  C   UNL A   1      41.386  28.005  36.226  1.00  0.00     0.020 A 
ATOM     68  C   UNL A   1      42.057  26.847  35.860  1.00  0.00     0.054 A 
BRANCH  68  69
ATOM     69  S   UNL A   1      41.759  25.320  36.781  1.00  0.00     0.124 S 
ATOM     70  O   UNL A   1      40.830  25.769  37.813  1.00  0.00    -0.237 OA
ATOM     71  O   UNL A   1      41.197  24.442  35.757  1.00  0.00    -0.237 OA
ATOM     72  O   UNL A   1      43.090  24.943  37.253  1.00  0.00    -0.744 OA
ENDBRANCH  68  69
ENDBRANCH  49  63
BRANCH  50  73
ATOM     73  C   UNL A   1      43.332  26.228  26.547  1.00  0.00    -0.014 A 
ATOM     74  C   UNL A   1      44.258  26.209  25.484  1.00  0.00     0.010 A 
ATOM     75  C   UNL A   1      42.811  24.989  26.967  1.00  0.00     0.010 A 
ATOM     76  C   UNL A   1      44.723  24.999  24.945  1.00  0.00     0.020 A 
ATOM     77  C   UNL A   1      43.240  23.782  26.412  1.00  0.00     0.020 A 
ATOM     78  C   UNL A   1      44.227  23.790  25.434  1.00  0.00     0.054 A 
BRANCH  78  79
ATOM     79  S   UNL A   1      44.993  22.227  24.920  1.00  0.00     0.124 S 
ATOM     80  O   UNL A   1      44.273  21.249  25.729  1.00  0.00    -0.237 OA
ATOM     81  O   UNL A   1      44.718  22.195  23.486  1.00  0.00    -0.237 OA
ATOM     82  O   UNL A   1      46.401  22.408  25.271  1.00  0.00    -0.744 OA
ENDBRANCH  78  79
ENDBRANCH  50  73
BRANCH  62  83
ATOM     83  C   UNL A   1      46.299  31.444  28.915  1.00  0.00    -0.014 A 
ATOM     84  C   UNL A   1      47.686  31.665  28.810  1.00  0.00     0.010 A 
ATOM     85  C   UNL A   1      45.478  32.203  28.055  1.00  0.00     0.010 A 
ATOM     86  C   UNL A   1      48.231  32.577  27.893  1.00  0.00     0.020 A 
ATOM     87  C   UNL A   1      46.012  33.095  27.109  1.00  0.00     0.020 A 
ATOM     88  C   UNL A   1      47.392  33.272  27.030  1.00  0.00     0.054 A 
BRANCH  88  89
ATOM     89  S   UNL A   1      48.129  34.413  25.830  1.00  0.00     0.124 S 
ATOM     90  O   UNL A   1      47.023  34.667  24.909  1.00  0.00    -0.237 OA
ATOM     91  O   UNL A   1      48.516  35.548  26.663  1.00  0.00    -0.237 OA
ATOM     92  O   UNL A   1      49.240  33.653  25.263  1.00  0.00    -0.744 OA
ENDBRANCH  88  89
ENDBRANCH  62  83
ENDBRANCH  36  37
ENDBRANCH  29  31
ENDBRANCH  28  29
ENDBRANCH  27  28
ENDBRANCH  26  27
ENDBRANCH  25  26
ENDBRANCH  24  25
ENDBRANCH   1  24
TORSDOF 24
ENDMDL
MODEL 3
REMARK VINA RESULT:      -8.6      4.298      9.636
REMARK SMILES CC[C@@H](NS(=O)(=O)c1cc(C)ccc1C)C(=O)OCCOCCOCCOC(=O)c1ccc(-c2c3nc(c(-c4ccc(S(=O)(=O)[O-])cc4)c4ccc([nH]4)c(-c4ccc(S(=O)(=O)[O-])cc4)c4nc(c(-c5ccc(S(=O)(=O)[O-])cc5)c5ccc2[nH]5)C=C4)C=C3)cc1
REMARK SMILES IDX 22 1 21 2 20 3 19 4 18 5 16 6 17 7 3 8 2 9 1 10 4 11 5 13
REMARK SMILES IDX 6 14 7 15 8 16 9 17 14 18 10 19 13 20 15 21 11 22 12 23
REMARK SMILES IDX 23 24 24 25 25 26 26 27 27 28 28 29 29 30 30 31 31 32 89 33
REMARK SMILES IDX 32 34 88 35 33 36 34 37 35 38 82 39 36 40 87 41 81 42 83 43
REMARK SMILES IDX 37 44 86 45 80 46 79 47 38 49 68 50 49 51 67 52 50 53 53 54
REMARK SMILES IDX 66 55 84 56 51 57 52 58 65 60 85 61 54 62 39 63 40 64 48 65
REMARK SMILES IDX 41 66 47 67 42 68 43 69 44 70 45 71 46 72 69 73 70 74 78 75
REMARK SMILES IDX 71 76 77 77 72 78 73 79 74 80 75 81 76 82 55 83 56 84 64 85
REMARK SMILES IDX 57 86 63 87 58 88 59 89 60 90 61 91 62 92
REMARK H PARENT 4 12 83 48 53 59
REMARK Flexibility Score: inf
ROOT
ATOM      1  C   UNL A   1      30.202  29.013  23.521  1.00  0.00     0.188 C 
ENDROOT
BRANCH   1   2
ATOM      2  O   UNL A   1      30.893  28.016  22.770  1.00  0.00    -0.376 OA
BRANCH   2   3
ATOM      3  C   UNL A   1      30.311  26.720  22.776  1.00  0.00     0.202 C 
BRANCH   3   4
ATOM      4  C   UNL A   1      31.015  25.644  23.604  1.00  0.00     0.261 C 
BRANCH   4   5
ATOM      5  O   UNL A   1      30.264  24.703  24.396  1.00  0.00    -0.462 OA
BRANCH   5   6
ATOM      6  C   UNL A   1      30.784  24.400  25.620  1.00  0.00     0.324 C 
ATOM      7  O   UNL A   1      30.190  24.594  26.674  1.00  0.00    -0.250 OA
BRANCH   6   8
ATOM      8  C   UNL A   1      32.233  23.870  25.566  1.00  0.00     0.179 C 
BRANCH   8   9
ATOM      9  C   UNL A   1      33.250  24.725  26.339  1.00  0.00     0.028 C 
ATOM     10  C   UNL A   1      34.263  25.430  25.444  1.00  0.00     0.006 C 
ENDBRANCH   8   9
BRANCH   8  11
ATOM     11  N   UNL A   1      32.394  22.485  26.024  1.00  0.00    -0.197 NA
ATOM     12  H   UNL A   1      31.474  22.187  26.348  1.00  0.00     0.142 HD
BRANCH  11  13
ATOM     13  S   UNL A   1      32.954  21.260  25.038  1.00  0.00     0.241 S 
ATOM     14  O   UNL A   1      33.146  20.104  25.900  1.00  0.00    -0.207 OA
ATOM     15  O   UNL A   1      32.039  21.209  23.928  1.00  0.00    -0.207 OA
BRANCH  13  16
ATOM     16  C   UNL A   1      34.518  21.854  24.447  1.00  0.00     0.085 A 
ATOM     17  C   UNL A   1      35.655  21.637  25.237  1.00  0.00     0.025 A 
ATOM     18  C   UNL A   1      34.612  22.616  23.272  1.00  0.00    -0.031 A 
ATOM     19  C   UNL A   1      36.885  22.193  24.872  1.00  0.00    -0.050 A 
ATOM     20  C   UNL A   1      35.870  23.087  22.869  1.00  0.00     0.005 A 
ATOM     21  C   UNL A   1      33.433  23.117  22.508  1.00  0.00     0.046 C 
ATOM     22  C   UNL A   1      38.055  22.185  25.808  1.00  0.00     0.044 C 
ATOM     23  C   UNL A   1      36.993  22.882  23.664  1.00  0.00     0.004 A 
ENDBRANCH  13  16
ENDBRANCH  11  13
ENDBRANCH   8  11
ENDBRANCH   6   8
ENDBRANCH   5   6
ENDBRANCH   4   5
ENDBRANCH   3   4
ENDBRANCH   2   3
ENDBRANCH   1   2
BRANCH   1  24
ATOM     24  C   UNL A   1      31.059  29.662  24.612  1.00  0.00     0.188 C 
BRANCH  24  25
ATOM     25  O   UNL A   1      32.299  28.968  24.684  1.00  0.00    -0.376 OA
BRANCH  25  26
ATOM     26  C   UNL A   1      33.160  29.367  25.736  1.00  0.00     0.202 C 
BRANCH  26  27
ATOM     27  C   UNL A   1      32.588  30.468  26.627  1.00  0.00     0.261 C 
BRANCH  27  28
ATOM     28  O   UNL A   1      33.453  31.102  27.607  1.00  0.00    -0.460 OA
BRANCH  28  29
ATOM     29  C   UNL A   1      33.591  32.409  27.919  1.00  0.00     0.338 C 
ATOM     30  O   UNL A   1      32.823  33.261  27.485  1.00  0.00    -0.246 OA
BRANCH  29  31
ATOM     31  C   UNL A   1      34.767  32.824  28.693  1.00  0.00     0.060 A 
ATOM     32  C   UNL A   1      35.848  31.954  28.650  1.00  0.00     0.016 A 
ATOM     33  C   UNL A   1      34.810  33.967  29.495  1.00  0.00     0.016 A 
ATOM     34  C   UNL A   1      36.920  32.162  29.499  1.00  0.00     0.010 A 
ATOM     35  C   UNL A   1      35.890  34.150  30.377  1.00  0.00     0.010 A 
ATOM     36  C   UNL A   1      36.925  33.209  30.416  1.00  0.00    -0.014 A 
BRANCH  36  37
ATOM     37  C   UNL A   1      38.081  33.215  31.331  1.00  0.00     0.031 A 
ATOM     38  C   UNL A   1      39.399  33.627  30.759  1.00  0.00     0.074 A 
ATOM     39  C   UNL A   1      38.023  32.760  32.602  1.00  0.00     0.049 A 
ATOM     40  N   UNL A   1      40.569  33.141  31.043  1.00  0.00    -0.248 NA
ATOM     41  C   UNL A   1      39.414  34.663  29.714  1.00  0.00     0.031 C 
ATOM     42  C   UNL A   1      36.825  32.330  33.320  1.00  0.00     0.029 A 
ATOM     43  N   UNL A   1      39.022  32.642  33.547  1.00  0.00    -0.354 N 
ATOM     44  C   UNL A   1      41.482  33.882  30.310  1.00  0.00     0.074 A 
ATOM     45  C   UNL A   1      40.719  34.780  29.475  1.00  0.00     0.031 C 
ATOM     46  C   UNL A   1      37.123  32.200  34.629  1.00  0.00     0.029 A 
ATOM     47  C   UNL A   1      38.537  32.493  34.839  1.00  0.00     0.049 A 
ATOM     48  H   UNL A   1      39.982  32.661  33.326  1.00  0.00     0.167 HD
ATOM     49  C   UNL A   1      42.807  33.941  30.604  1.00  0.00     0.031 A 
ATOM     50  C   UNL A   1      39.188  32.691  36.012  1.00  0.00     0.031 A 
ATOM     51  C   UNL A   1      43.409  32.792  31.218  1.00  0.00     0.049 A 
ATOM     52  C   UNL A   1      40.655  32.563  35.836  1.00  0.00     0.074 A 
ATOM     53  C   UNL A   1      44.209  31.745  30.821  1.00  0.00     0.029 A 
ATOM     54  N   UNL A   1      43.111  32.579  32.533  1.00  0.00    -0.354 N 
ATOM     55  N   UNL A   1      41.281  31.429  35.729  1.00  0.00    -0.248 NA
ATOM     56  C   UNL A   1      41.482  33.750  35.639  1.00  0.00     0.031 C 
ATOM     57  C   UNL A   1      44.304  30.844  31.928  1.00  0.00     0.029 A 
ATOM     58  C   UNL A   1      43.600  31.376  33.005  1.00  0.00     0.049 A 
ATOM     59  H   UNL A   1      42.600  33.215  33.085  1.00  0.00     0.167 HD
ATOM     60  C   UNL A   1      42.493  31.730  35.143  1.00  0.00     0.074 A 
ATOM     61  C   UNL A   1      42.621  33.178  35.242  1.00  0.00     0.031 C 
ATOM     62  C   UNL A   1      43.114  30.864  34.287  1.00  0.00     0.031 A 
BRANCH  49  63
ATOM     63  C   UNL A   1      43.407  35.303  30.810  1.00  0.00    -0.014 A 
ATOM     64  C   UNL A   1      43.543  35.828  32.104  1.00  0.00     0.010 A 
ATOM     65  C   UNL A   1      43.534  36.193  29.716  1.00  0.00     0.010 A 
ATOM     66  C   UNL A   1      43.767  37.197  32.294  1.00  0.00     0.020 A 
ATOM     67  C   UNL A   1      43.786  37.547  29.895  1.00  0.00     0.020 A 
ATOM     68  C   UNL A   1      43.871  38.046  31.188  1.00  0.00     0.054 A 
BRANCH  68  69
ATOM     69  S   UNL A   1      44.050  39.827  31.443  1.00  0.00     0.124 S 
ATOM     70  O   UNL A   1      45.436  39.927  31.888  1.00  0.00    -0.237 OA
ATOM     71  O   UNL A   1      43.768  40.362  30.113  1.00  0.00    -0.237 OA
ATOM     72  O   UNL A   1      43.040  40.127  32.455  1.00  0.00    -0.744 OA
ENDBRANCH  68  69
ENDBRANCH  49  63
BRANCH  50  73
ATOM     73  C   UNL A   1      38.622  33.160  37.310  1.00  0.00    -0.014 A 
ATOM     74  C   UNL A   1      37.811  32.305  38.084  1.00  0.00     0.010 A 
ATOM     75  C   UNL A   1      39.090  34.335  37.929  1.00  0.00     0.010 A 
ATOM     76  C   UNL A   1      37.575  32.561  39.445  1.00  0.00     0.020 A 
ATOM     77  C   UNL A   1      38.829  34.617  39.271  1.00  0.00     0.020 A 
ATOM     78  C   UNL A   1      38.110  33.706  40.035  1.00  0.00     0.054 A 
BRANCH  78  79
ATOM     79  S   UNL A   1      38.017  33.920  41.834  1.00  0.00     0.124 S 
ATOM     80  O   UNL A   1      39.425  33.939  42.217  1.00  0.00    -0.237 OA
ATOM     81  O   UNL A   1      37.303  35.188  41.967  1.00  0.00    -0.237 OA
ATOM     82  O   UNL A   1      37.268  32.745  42.278  1.00  0.00    -0.744 OA
ENDBRANCH  78  79
ENDBRANCH  50  73
BRANCH  62  83
ATOM     83  C   UNL A   1      43.078  29.370  34.590  1.00  0.00    -0.014 A 
ATOM     84  C   UNL A   1      42.245  28.447  33.927  1.00  0.00     0.010 A 
ATOM     85  C   UNL A   1      43.907  28.847  35.603  1.00  0.00     0.010 A 
ATOM     86  C   UNL A   1      42.244  27.080  34.242  1.00  0.00     0.020 A 
ATOM     87  C   UNL A   1      43.941  27.475  35.906  1.00  0.00     0.020 A 
ATOM     88  C   UNL A   1      43.110  26.596  35.216  1.00  0.00     0.054 A 
BRANCH  88  89
ATOM     89  S   UNL A   1      43.114  24.819  35.571  1.00  0.00     0.124 S 
ATOM     90  O   UNL A   1      43.529  24.239  34.295  1.00  0.00    -0.237 OA
ATOM     91  O   UNL A   1      44.093  24.710  36.650  1.00  0.00    -0.237 OA
ATOM     92  O   UNL A   1      41.734  24.535  35.956  1.00  0.00    -0.744 OA
ENDBRANCH  88  89
ENDBRANCH  62  83
ENDBRANCH  36  37
ENDBRANCH  29  31
ENDBRANCH  28  29
ENDBRANCH  27  28
ENDBRANCH  26  27
ENDBRANCH  25  26
ENDBRANCH  24  25
ENDBRANCH   1  24
TORSDOF 24
ENDMDL
