MODEL 1
REMARK VINA RESULT:     -10.9      0.000      0.000
REMARK SMILES Cc1ccc2[nH]cc([C@@H](C(=O)OCCOCCOCCOC(=O)c3ccc(-c4c5nc(c(-c6ccc(S(=O)(=O)[O-])cc6)c6ccc([nH]6)c(-c6ccc(S(=O)(=O)[O-])cc6)c6nc(c(-c7ccc(S(=O)(=O)[O-])cc7)c7ccc4[nH]7)C=C6)C=C5)cc3)[NH+]3CCN(c4ccc(F)cc4)CC3)c2c1
REMARK SMILES IDX 17 1 16 2 15 3 14 4 13 5 12 6 10 7 11 8 9 9 8 10 1 11 2 12
REMARK SMILES IDX 3 13 98 14 4 15 97 16 5 17 6 18 7 19 84 21 85 22 96 23 86 25
REMARK SMILES IDX 95 26 87 27 88 28 89 29 94 30 90 31 93 32 91 33 92 34 18 35
REMARK SMILES IDX 19 36 20 37 21 38 22 39 23 40 24 41 25 42 83 43 26 44 82 45
REMARK SMILES IDX 27 46 28 47 29 48 76 49 30 50 81 51 75 52 77 53 31 54 80 55
REMARK SMILES IDX 74 56 73 57 32 59 62 60 43 61 61 62 44 63 47 64 60 65 78 66
REMARK SMILES IDX 45 67 46 68 59 70 79 71 48 72 33 73 34 74 42 75 35 76 41 77
REMARK SMILES IDX 36 78 37 79 38 80 39 81 40 82 63 83 64 84 72 85 65 86 71 87
REMARK SMILES IDX 66 88 67 89 68 90 69 91 70 92 49 93 50 94 58 95 51 96 57 97
REMARK SMILES IDX 52 98 53 99 54 100 55 101 56 102
REMARK H PARENT 6 20 84 24 77 58 47 69
REMARK Flexibility Score: inf
ROOT
ATOM      1  C   UNL A   1      40.380  20.974  26.411  1.00  0.00     0.188 C 
ENDROOT
BRANCH   1   2
ATOM      2  C   UNL A   1      39.251  21.994  26.300  1.00  0.00     0.188 C 
BRANCH   2   3
ATOM      3  O   UNL A   1      38.198  21.717  25.383  1.00  0.00    -0.376 OA
BRANCH   3   4
ATOM      4  C   UNL A   1      36.985  22.451  25.485  1.00  0.00     0.202 C 
BRANCH   4   5
ATOM      5  C   UNL A   1      36.651  23.372  24.308  1.00  0.00     0.261 C 
BRANCH   5   6
ATOM      6  O   UNL A   1      35.501  24.230  24.512  1.00  0.00    -0.459 OA
BRANCH   6   7
ATOM      7  C   UNL A   1      34.528  24.147  23.558  1.00  0.00     0.370 C 
ATOM      8  O   UNL A   1      34.714  23.589  22.478  1.00  0.00    -0.245 OA
BRANCH   7   9
ATOM      9  C   UNL A   1      33.230  24.931  23.891  1.00  0.00     0.328 C 
BRANCH   9  10
ATOM     10  C   UNL A   1      33.312  26.215  24.695  1.00  0.00     0.046 A 
ATOM     11  C   UNL A   1      29.903  29.283  22.401  1.00  0.00     0.044 C 
ATOM     12  C   UNL A   1      30.860  28.934  23.502  1.00  0.00    -0.050 A 
ATOM     13  C   UNL A   1      31.030  29.773  24.606  1.00  0.00     0.005 A 
ATOM     14  C   UNL A   1      31.588  27.735  23.422  1.00  0.00     0.014 A 
ATOM     15  C   UNL A   1      31.937  29.461  25.622  1.00  0.00     0.027 A 
ATOM     16  C   UNL A   1      32.503  27.385  24.437  1.00  0.00     0.009 A 
ATOM     17  C   UNL A   1      32.667  28.272  25.501  1.00  0.00     0.046 A 
ATOM     18  N   UNL A   1      33.611  27.726  26.334  1.00  0.00    -0.361 N 
ATOM     19  C   UNL A   1      34.013  26.506  25.854  1.00  0.00     0.094 A 
ATOM     20  H   UNL A   1      33.951  28.149  27.155  1.00  0.00     0.166 HD
ENDBRANCH   9  10
BRANCH   9  21
ATOM     21  N   UNL A   1      32.190  24.015  24.408  1.00  0.00    -0.316 N 
ATOM     22  C   UNL A   1      31.407  23.226  23.455  1.00  0.00     0.284 C 
ATOM     23  C   UNL A   1      32.489  23.266  25.632  1.00  0.00     0.284 C 
ATOM     24  H   UNL A   1      31.547  24.755  24.691  1.00  0.00     0.349 HD
ATOM     25  C   UNL A   1      31.822  21.755  23.269  1.00  0.00     0.178 C 
ATOM     26  C   UNL A   1      33.027  21.827  25.442  1.00  0.00     0.178 C 
ATOM     27  N   UNL A   1      32.177  21.077  24.515  1.00  0.00    -0.360 N 
BRANCH  27  28
ATOM     28  C   UNL A   1      32.445  19.716  24.364  1.00  0.00     0.037 A 
ATOM     29  C   UNL A   1      32.792  18.893  25.449  1.00  0.00     0.029 A 
ATOM     30  C   UNL A   1      32.451  19.165  23.078  1.00  0.00     0.029 A 
ATOM     31  C   UNL A   1      33.169  17.564  25.247  1.00  0.00     0.041 A 
ATOM     32  C   UNL A   1      32.823  17.834  22.871  1.00  0.00     0.041 A 
ATOM     33  C   UNL A   1      33.184  17.049  23.958  1.00  0.00     0.123 A 
ATOM     34  F   UNL A   1      33.555  15.777  23.761  1.00  0.00    -0.207 F 
ENDBRANCH  27  28
ENDBRANCH   9  21
ENDBRANCH   7   9
ENDBRANCH   6   7
ENDBRANCH   5   6
ENDBRANCH   4   5
ENDBRANCH   3   4
ENDBRANCH   2   3
ENDBRANCH   1   2
BRANCH   1  35
ATOM     35  O   UNL A   1      41.600  21.579  26.819  1.00  0.00    -0.376 OA
BRANCH  35  36
ATOM     36  C   UNL A   1      42.315  22.191  25.750  1.00  0.00     0.202 C 
BRANCH  36  37
ATOM     37  C   UNL A   1      42.713  23.599  26.198  1.00  0.00     0.261 C 
BRANCH  37  38
ATOM     38  O   UNL A   1      41.632  24.548  26.103  1.00  0.00    -0.460 OA
BRANCH  38  39
ATOM     39  C   UNL A   1      42.000  25.840  25.982  1.00  0.00     0.338 C 
ATOM     40  O   UNL A   1      42.153  26.462  24.933  1.00  0.00    -0.246 OA
BRANCH  39  41
ATOM     41  C   UNL A   1      41.963  26.474  27.309  1.00  0.00     0.060 A 
ATOM     42  C   UNL A   1      40.951  26.081  28.187  1.00  0.00     0.016 A 
ATOM     43  C   UNL A   1      42.876  27.462  27.682  1.00  0.00     0.016 A 
ATOM     44  C   UNL A   1      40.831  26.689  29.435  1.00  0.00     0.010 A 
ATOM     45  C   UNL A   1      42.740  28.084  28.930  1.00  0.00     0.010 A 
ATOM     46  C   UNL A   1      41.703  27.714  29.805  1.00  0.00    -0.014 A 
BRANCH  46  47
ATOM     47  C   UNL A   1      41.397  28.516  31.016  1.00  0.00     0.031 A 
ATOM     48  C   UNL A   1      40.229  29.460  30.968  1.00  0.00     0.074 A 
ATOM     49  C   UNL A   1      42.072  28.352  32.170  1.00  0.00     0.049 A 
ATOM     50  N   UNL A   1      39.883  30.396  31.811  1.00  0.00    -0.248 NA
ATOM     51  C   UNL A   1      39.327  29.323  29.811  1.00  0.00     0.031 C 
ATOM     52  C   UNL A   1      43.113  27.355  32.416  1.00  0.00     0.029 A 
ATOM     53  N   UNL A   1      41.968  29.029  33.360  1.00  0.00    -0.354 N 
ATOM     54  C   UNL A   1      38.751  30.991  31.265  1.00  0.00     0.074 A 
ATOM     55  C   UNL A   1      38.464  30.305  30.025  1.00  0.00     0.031 C 
ATOM     56  C   UNL A   1      43.556  27.490  33.679  1.00  0.00     0.029 A 
ATOM     57  C   UNL A   1      42.887  28.630  34.303  1.00  0.00     0.049 A 
ATOM     58  H   UNL A   1      41.301  29.734  33.525  1.00  0.00     0.167 HD
ATOM     59  C   UNL A   1      38.028  32.027  31.750  1.00  0.00     0.031 A 
ATOM     60  C   UNL A   1      43.191  29.159  35.506  1.00  0.00     0.031 A 
ATOM     61  C   UNL A   1      38.312  32.694  32.990  1.00  0.00     0.049 A 
ATOM     62  C   UNL A   1      42.459  30.394  35.970  1.00  0.00     0.074 A 
ATOM     63  C   UNL A   1      37.679  33.793  33.544  1.00  0.00     0.029 A 
ATOM     64  N   UNL A   1      39.307  32.313  33.878  1.00  0.00    -0.354 N 
ATOM     65  N   UNL A   1      41.467  31.031  35.396  1.00  0.00    -0.248 NA
ATOM     66  C   UNL A   1      42.906  30.996  37.236  1.00  0.00     0.031 C 
ATOM     67  C   UNL A   1      38.321  34.103  34.748  1.00  0.00     0.029 A 
ATOM     68  C   UNL A   1      39.316  33.163  34.969  1.00  0.00     0.049 A 
ATOM     69  H   UNL A   1      39.916  31.552  33.751  1.00  0.00     0.167 HD
ATOM     70  C   UNL A   1      41.157  32.094  36.240  1.00  0.00     0.074 A 
ATOM     71  C   UNL A   1      42.059  32.008  37.369  1.00  0.00     0.031 C 
ATOM     72  C   UNL A   1      40.213  33.056  36.091  1.00  0.00     0.031 A 
BRANCH  59  73
ATOM     73  C   UNL A   1      36.910  32.548  30.890  1.00  0.00    -0.014 A 
ATOM     74  C   UNL A   1      35.593  32.074  31.022  1.00  0.00     0.010 A 
ATOM     75  C   UNL A   1      37.191  33.540  29.932  1.00  0.00     0.010 A 
ATOM     76  C   UNL A   1      34.584  32.557  30.184  1.00  0.00     0.020 A 
ATOM     77  C   UNL A   1      36.180  34.044  29.111  1.00  0.00     0.020 A 
ATOM     78  C   UNL A   1      34.886  33.535  29.229  1.00  0.00     0.054 A 
BRANCH  78  79
ATOM     79  S   UNL A   1      33.560  34.150  28.157  1.00  0.00     0.124 S 
ATOM     80  O   UNL A   1      34.308  34.909  27.157  1.00  0.00    -0.237 OA
ATOM     81  O   UNL A   1      32.938  32.919  27.675  1.00  0.00    -0.237 OA
ATOM     82  O   UNL A   1      32.731  34.953  29.054  1.00  0.00    -0.744 OA
ENDBRANCH  78  79
ENDBRANCH  59  73
BRANCH  60  83
ATOM     83  C   UNL A   1      44.297  28.585  36.324  1.00  0.00    -0.014 A 
ATOM     84  C   UNL A   1      44.059  27.537  37.230  1.00  0.00     0.010 A 
ATOM     85  C   UNL A   1      45.598  29.111  36.219  1.00  0.00     0.010 A 
ATOM     86  C   UNL A   1      45.095  27.039  38.027  1.00  0.00     0.020 A 
ATOM     87  C   UNL A   1      46.643  28.596  36.991  1.00  0.00     0.020 A 
ATOM     88  C   UNL A   1      46.382  27.573  37.903  1.00  0.00     0.054 A 
BRANCH  88  89
ATOM     89  S   UNL A   1      47.721  26.891  38.920  1.00  0.00     0.124 S 
ATOM     90  O   UNL A   1      48.300  28.097  39.506  1.00  0.00    -0.237 OA
ATOM     91  O   UNL A   1      47.005  26.019  39.847  1.00  0.00    -0.237 OA
ATOM     92  O   UNL A   1      48.567  26.198  37.951  1.00  0.00    -0.744 OA
ENDBRANCH  88  89
ENDBRANCH  60  83
BRANCH  72  93
ATOM     93  C   UNL A   1      40.069  34.071  37.193  1.00  0.00    -0.014 A 
ATOM     94  C   UNL A   1      39.156  33.882  38.245  1.00  0.00     0.010 A 
ATOM     95  C   UNL A   1      40.922  35.191  37.216  1.00  0.00     0.010 A 
ATOM     96  C   UNL A   1      39.087  34.805  39.292  1.00  0.00     0.020 A 
ATOM     97  C   UNL A   1      40.871  36.103  38.273  1.00  0.00     0.020 A 
ATOM     98  C   UNL A   1      39.946  35.909  39.301  1.00  0.00     0.054 A 
BRANCH  98  99
ATOM     99  S   UNL A   1      39.883  37.057  40.703  1.00  0.00     0.124 S 
ATOM    100  O   UNL A   1      38.557  37.651  40.551  1.00  0.00    -0.237 OA
ATOM    101  O   UNL A   1      40.046  36.171  41.853  1.00  0.00    -0.237 OA
ATOM    102  O   UNL A   1      41.003  37.964  40.461  1.00  0.00    -0.744 OA
ENDBRANCH  98  99
ENDBRANCH  72  93
ENDBRANCH  46  47
ENDBRANCH  39  41
ENDBRANCH  38  39
ENDBRANCH  37  38
ENDBRANCH  36  37
ENDBRANCH  35  36
ENDBRANCH   1  35
TORSDOF 23
ENDMDL
MODEL 2
REMARK VINA RESULT:     -10.9      1.171      1.823
REMARK SMILES Cc1ccc2[nH]cc([C@@H](C(=O)OCCOCCOCCOC(=O)c3ccc(-c4c5nc(c(-c6ccc(S(=O)(=O)[O-])cc6)c6ccc([nH]6)c(-c6ccc(S(=O)(=O)[O-])cc6)c6nc(c(-c7ccc(S(=O)(=O)[O-])cc7)c7ccc4[nH]7)C=C6)C=C5)cc3)[NH+]3CCN(c4ccc(F)cc4)CC3)c2c1
REMARK SMILES IDX 17 1 16 2 15 3 14 4 13 5 12 6 10 7 11 8 9 9 8 10 1 11 2 12
REMARK SMILES IDX 3 13 98 14 4 15 97 16 5 17 6 18 7 19 84 21 85 22 96 23 86 25
REMARK SMILES IDX 95 26 87 27 88 28 89 29 94 30 90 31 93 32 91 33 92 34 18 35
REMARK SMILES IDX 19 36 20 37 21 38 22 39 23 40 24 41 25 42 83 43 26 44 82 45
REMARK SMILES IDX 27 46 28 47 29 48 76 49 30 50 81 51 75 52 77 53 31 54 80 55
REMARK SMILES IDX 74 56 73 57 32 59 62 60 43 61 61 62 44 63 47 64 60 65 78 66
REMARK SMILES IDX 45 67 46 68 59 70 79 71 48 72 33 73 34 74 42 75 35 76 41 77
REMARK SMILES IDX 36 78 37 79 38 80 39 81 40 82 63 83 64 84 72 85 65 86 71 87
REMARK SMILES IDX 66 88 67 89 68 90 69 91 70 92 49 93 50 94 58 95 51 96 57 97
REMARK SMILES IDX 52 98 53 99 54 100 55 101 56 102
REMARK H PARENT 6 20 84 24 77 58 47 69
REMARK Flexibility Score: inf
ROOT
ATOM      1  C   UNL A   1      40.761  21.254  26.246  1.00  0.00     0.188 C 
ENDROOT
BRANCH   1   2
ATOM      2  C   UNL A   1      39.317  21.727  26.109  1.00  0.00     0.188 C 
BRANCH   2   3
ATOM      3  O   UNL A   1      38.987  23.006  26.639  1.00  0.00    -0.376 OA
BRANCH   3   4
ATOM      4  C   UNL A   1      38.007  23.794  25.977  1.00  0.00     0.202 C 
BRANCH   4   5
ATOM      5  C   UNL A   1      36.687  23.092  25.643  1.00  0.00     0.261 C 
BRANCH   5   6
ATOM      6  O   UNL A   1      35.643  23.964  25.146  1.00  0.00    -0.459 OA
BRANCH   6   7
ATOM      7  C   UNL A   1      34.491  23.981  25.879  1.00  0.00     0.370 C 
ATOM      8  O   UNL A   1      34.409  23.447  26.984  1.00  0.00    -0.245 OA
BRANCH   7   9
ATOM      9  C   UNL A   1      33.270  24.602  25.148  1.00  0.00     0.328 C 
BRANCH   9  10
ATOM     10  C   UNL A   1      32.363  25.570  25.885  1.00  0.00     0.046 A 
ATOM     11  C   UNL A   1      35.487  29.453  27.097  1.00  0.00     0.044 C 
ATOM     12  C   UNL A   1      34.138  28.805  26.986  1.00  0.00    -0.050 A 
ATOM     13  C   UNL A   1      32.974  29.496  27.332  1.00  0.00     0.005 A 
ATOM     14  C   UNL A   1      34.049  27.486  26.513  1.00  0.00     0.014 A 
ATOM     15  C   UNL A   1      31.718  28.887  27.250  1.00  0.00     0.027 A 
ATOM     16  C   UNL A   1      32.795  26.848  26.408  1.00  0.00     0.009 A 
ATOM     17  C   UNL A   1      31.664  27.563  26.801  1.00  0.00     0.046 A 
ATOM     18  N   UNL A   1      30.586  26.732  26.627  1.00  0.00    -0.361 N 
ATOM     19  C   UNL A   1      30.994  25.535  26.095  1.00  0.00     0.094 A 
ATOM     20  H   UNL A   1      29.656  26.960  26.852  1.00  0.00     0.166 HD
ENDBRANCH   9  10
BRANCH   9  21
ATOM     21  N   UNL A   1      32.506  23.556  24.434  1.00  0.00    -0.316 N 
ATOM     22  C   UNL A   1      33.132  22.874  23.300  1.00  0.00     0.284 C 
ATOM     23  C   UNL A   1      31.679  22.650  25.237  1.00  0.00     0.284 C 
ATOM     24  H   UNL A   1      31.852  24.203  23.994  1.00  0.00     0.349 HD
ATOM     25  C   UNL A   1      33.719  21.477  23.572  1.00  0.00     0.178 C 
ATOM     26  C   UNL A   1      32.319  21.293  25.618  1.00  0.00     0.178 C 
ATOM     27  N   UNL A   1      32.886  20.641  24.435  1.00  0.00    -0.360 N 
BRANCH  27  28
ATOM     28  C   UNL A   1      33.360  19.337  24.592  1.00  0.00     0.037 A 
ATOM     29  C   UNL A   1      34.730  19.027  24.571  1.00  0.00     0.029 A 
ATOM     30  C   UNL A   1      32.437  18.289  24.689  1.00  0.00     0.029 A 
ATOM     31  C   UNL A   1      35.163  17.700  24.612  1.00  0.00     0.041 A 
ATOM     32  C   UNL A   1      32.867  16.961  24.735  1.00  0.00     0.041 A 
ATOM     33  C   UNL A   1      34.226  16.680  24.690  1.00  0.00     0.123 A 
ATOM     34  F   UNL A   1      34.640  15.406  24.719  1.00  0.00    -0.207 F 
ENDBRANCH  27  28
ENDBRANCH   9  21
ENDBRANCH   7   9
ENDBRANCH   6   7
ENDBRANCH   5   6
ENDBRANCH   4   5
ENDBRANCH   3   4
ENDBRANCH   2   3
ENDBRANCH   1   2
BRANCH   1  35
ATOM     35  O   UNL A   1      41.653  22.050  25.476  1.00  0.00    -0.376 OA
BRANCH  35  36
ATOM     36  C   UNL A   1      42.916  22.253  26.103  1.00  0.00     0.202 C 
BRANCH  36  37
ATOM     37  C   UNL A   1      43.078  23.754  26.354  1.00  0.00     0.261 C 
BRANCH  37  38
ATOM     38  O   UNL A   1      41.837  24.480  26.254  1.00  0.00    -0.460 OA
BRANCH  38  39
ATOM     39  C   UNL A   1      41.954  25.809  26.060  1.00  0.00     0.338 C 
ATOM     40  O   UNL A   1      41.884  26.402  24.985  1.00  0.00    -0.246 OA
BRANCH  39  41
ATOM     41  C   UNL A   1      41.943  26.486  27.366  1.00  0.00     0.060 A 
ATOM     42  C   UNL A   1      41.003  26.060  28.308  1.00  0.00     0.016 A 
ATOM     43  C   UNL A   1      42.807  27.542  27.661  1.00  0.00     0.016 A 
ATOM     44  C   UNL A   1      40.908  26.702  29.541  1.00  0.00     0.010 A 
ATOM     45  C   UNL A   1      42.693  28.197  28.893  1.00  0.00     0.010 A 
ATOM     46  C   UNL A   1      41.728  27.793  29.832  1.00  0.00    -0.014 A 
BRANCH  46  47
ATOM     47  C   UNL A   1      41.432  28.615  31.032  1.00  0.00     0.031 A 
ATOM     48  C   UNL A   1      40.269  29.565  30.974  1.00  0.00     0.074 A 
ATOM     49  C   UNL A   1      42.111  28.466  32.186  1.00  0.00     0.049 A 
ATOM     50  N   UNL A   1      39.932  30.516  31.804  1.00  0.00    -0.248 NA
ATOM     51  C   UNL A   1      39.362  29.415  29.823  1.00  0.00     0.031 C 
ATOM     52  C   UNL A   1      43.147  27.466  32.443  1.00  0.00     0.029 A 
ATOM     53  N   UNL A   1      42.016  29.161  33.366  1.00  0.00    -0.354 N 
ATOM     54  C   UNL A   1      38.802  31.109  31.254  1.00  0.00     0.074 A 
ATOM     55  C   UNL A   1      38.505  30.405  30.025  1.00  0.00     0.031 C 
ATOM     56  C   UNL A   1      43.596  27.618  33.702  1.00  0.00     0.029 A 
ATOM     57  C   UNL A   1      42.936  28.771  34.311  1.00  0.00     0.049 A 
ATOM     58  H   UNL A   1      41.353  29.873  33.522  1.00  0.00     0.167 HD
ATOM     59  C   UNL A   1      38.087  32.156  31.725  1.00  0.00     0.031 A 
ATOM     60  C   UNL A   1      43.248  29.318  35.504  1.00  0.00     0.031 A 
ATOM     61  C   UNL A   1      38.379  32.842  32.954  1.00  0.00     0.049 A 
ATOM     62  C   UNL A   1      42.526  30.564  35.952  1.00  0.00     0.074 A 
ATOM     63  C   UNL A   1      37.755  33.952  33.493  1.00  0.00     0.029 A 
ATOM     64  N   UNL A   1      39.376  32.469  33.843  1.00  0.00    -0.354 N 
ATOM     65  N   UNL A   1      41.534  31.197  35.372  1.00  0.00    -0.248 NA
ATOM     66  C   UNL A   1      42.981  31.183  37.207  1.00  0.00     0.031 C 
ATOM     67  C   UNL A   1      38.404  34.278  34.689  1.00  0.00     0.029 A 
ATOM     68  C   UNL A   1      39.394  33.336  34.921  1.00  0.00     0.049 A 
ATOM     69  H   UNL A   1      39.980  31.702  33.726  1.00  0.00     0.167 HD
ATOM     70  C   UNL A   1      41.235  32.275  36.200  1.00  0.00     0.074 A 
ATOM     71  C   UNL A   1      42.141  32.202  37.327  1.00  0.00     0.031 C 
ATOM     72  C   UNL A   1      40.295  33.240  36.041  1.00  0.00     0.031 A 
BRANCH  59  73
ATOM     73  C   UNL A   1      36.968  32.671  30.862  1.00  0.00    -0.014 A 
ATOM     74  C   UNL A   1      37.207  33.538  29.781  1.00  0.00     0.010 A 
ATOM     75  C   UNL A   1      35.649  32.267  31.140  1.00  0.00     0.010 A 
ATOM     76  C   UNL A   1      36.140  34.023  29.019  1.00  0.00     0.020 A 
ATOM     77  C   UNL A   1      34.584  32.729  30.365  1.00  0.00     0.020 A 
ATOM     78  C   UNL A   1      34.834  33.620  29.320  1.00  0.00     0.054 A 
BRANCH  78  79
ATOM     79  S   UNL A   1      33.467  34.258  28.315  1.00  0.00     0.124 S 
ATOM     80  O   UNL A   1      32.568  34.795  29.334  1.00  0.00    -0.237 OA
ATOM     81  O   UNL A   1      34.124  35.253  27.471  1.00  0.00    -0.237 OA
ATOM     82  O   UNL A   1      32.974  33.077  27.610  1.00  0.00    -0.744 OA
ENDBRANCH  78  79
ENDBRANCH  59  73
BRANCH  60  83
ATOM     83  C   UNL A   1      44.354  28.750  36.327  1.00  0.00    -0.014 A 
ATOM     84  C   UNL A   1      45.693  29.101  36.081  1.00  0.00     0.010 A 
ATOM     85  C   UNL A   1      44.071  27.823  37.348  1.00  0.00     0.010 A 
ATOM     86  C   UNL A   1      46.726  28.524  36.827  1.00  0.00     0.020 A 
ATOM     87  C   UNL A   1      45.097  27.268  38.116  1.00  0.00     0.020 A 
ATOM     88  C   UNL A   1      46.421  27.610  37.841  1.00  0.00     0.054 A 
BRANCH  88  89
ATOM     89  S   UNL A   1      47.772  26.898  38.822  1.00  0.00     0.124 S 
ATOM     90  O   UNL A   1      48.541  28.085  39.185  1.00  0.00    -0.237 OA
ATOM     91  O   UNL A   1      47.060  26.246  39.918  1.00  0.00    -0.237 OA
ATOM     92  O   UNL A   1      48.429  25.988  37.886  1.00  0.00    -0.744 OA
ENDBRANCH  88  89
ENDBRANCH  60  83
BRANCH  72  93
ATOM     93  C   UNL A   1      40.162  34.273  37.128  1.00  0.00    -0.014 A 
ATOM     94  C   UNL A   1      40.796  35.523  37.029  1.00  0.00     0.010 A 
ATOM     95  C   UNL A   1      39.319  34.015  38.225  1.00  0.00     0.010 A 
ATOM     96  C   UNL A   1      40.603  36.491  38.017  1.00  0.00     0.020 A 
ATOM     97  C   UNL A   1      39.106  34.989  39.204  1.00  0.00     0.020 A 
ATOM     98  C   UNL A   1      39.758  36.219  39.098  1.00  0.00     0.054 A 
BRANCH  98  99
ATOM     99  S   UNL A   1      39.472  37.515  40.335  1.00  0.00     0.124 S 
ATOM    100  O   UNL A   1      40.824  38.016  40.569  1.00  0.00    -0.237 OA
ATOM    101  O   UNL A   1      38.574  38.433  39.638  1.00  0.00    -0.237 OA
ATOM    102  O   UNL A   1      38.870  36.798  41.457  1.00  0.00    -0.744 OA
ENDBRANCH  98  99
ENDBRANCH  72  93
ENDBRANCH  46  47
ENDBRANCH  39  41
ENDBRANCH  38  39
ENDBRANCH  37  38
ENDBRANCH  36  37
ENDBRANCH  35  36
ENDBRANCH   1  35
TORSDOF 23
ENDMDL
MODEL 3
REMARK VINA RESULT:     -10.4      2.815      5.355
REMARK SMILES Cc1ccc2[nH]cc([C@@H](C(=O)OCCOCCOCCOC(=O)c3ccc(-c4c5nc(c(-c6ccc(S(=O)(=O)[O-])cc6)c6ccc([nH]6)c(-c6ccc(S(=O)(=O)[O-])cc6)c6nc(c(-c7ccc(S(=O)(=O)[O-])cc7)c7ccc4[nH]7)C=C6)C=C5)cc3)[NH+]3CCN(c4ccc(F)cc4)CC3)c2c1
REMARK SMILES IDX 17 1 16 2 15 3 14 4 13 5 12 6 10 7 11 8 9 9 8 10 1 11 2 12
REMARK SMILES IDX 3 13 98 14 4 15 97 16 5 17 6 18 7 19 84 21 85 22 96 23 86 25
REMARK SMILES IDX 95 26 87 27 88 28 89 29 94 30 90 31 93 32 91 33 92 34 18 35
REMARK SMILES IDX 19 36 20 37 21 38 22 39 23 40 24 41 25 42 83 43 26 44 82 45
REMARK SMILES IDX 27 46 28 47 29 48 76 49 30 50 81 51 75 52 77 53 31 54 80 55
REMARK SMILES IDX 74 56 73 57 32 59 62 60 43 61 61 62 44 63 47 64 60 65 78 66
REMARK SMILES IDX 45 67 46 68 59 70 79 71 48 72 33 73 34 74 42 75 35 76 41 77
REMARK SMILES IDX 36 78 37 79 38 80 39 81 40 82 63 83 64 84 72 85 65 86 71 87
REMARK SMILES IDX 66 88 67 89 68 90 69 91 70 92 49 93 50 94 58 95 51 96 57 97
REMARK SMILES IDX 52 98 53 99 54 100 55 101 56 102
REMARK H PARENT 6 20 84 24 77 58 47 69
REMARK Flexibility Score: inf
ROOT
ATOM      1  C   UNL A   1      36.957  23.009  24.261  1.00  0.00     0.188 C 
ENDROOT
BRANCH   1   2
ATOM      2  C   UNL A   1      35.542  23.546  24.064  1.00  0.00     0.188 C 
BRANCH   2   3
ATOM      3  O   UNL A   1      35.054  24.486  25.014  1.00  0.00    -0.376 OA
BRANCH   3   4
ATOM      4  C   UNL A   1      34.325  25.616  24.553  1.00  0.00     0.202 C 
BRANCH   4   5
ATOM      5  C   UNL A   1      33.808  26.573  25.631  1.00  0.00     0.261 C 
BRANCH   5   6
ATOM      6  O   UNL A   1      32.634  26.112  26.343  1.00  0.00    -0.459 OA
BRANCH   6   7
ATOM      7  C   UNL A   1      31.457  26.707  25.987  1.00  0.00     0.370 C 
ATOM      8  O   UNL A   1      31.258  27.910  26.143  1.00  0.00    -0.245 OA
BRANCH   7   9
ATOM      9  C   UNL A   1      30.356  25.723  25.508  1.00  0.00     0.328 C 
BRANCH   9  10
ATOM     10  C   UNL A   1      30.503  24.238  25.781  1.00  0.00     0.046 A 
ATOM     11  C   UNL A   1      32.921  22.486  21.612  1.00  0.00     0.044 C 
ATOM     12  C   UNL A   1      32.374  22.341  23.001  1.00  0.00    -0.050 A 
ATOM     13  C   UNL A   1      32.544  21.158  23.726  1.00  0.00     0.005 A 
ATOM     14  C   UNL A   1      31.690  23.420  23.584  1.00  0.00     0.014 A 
ATOM     15  C   UNL A   1      32.016  21.013  25.012  1.00  0.00     0.027 A 
ATOM     16  C   UNL A   1      31.157  23.310  24.885  1.00  0.00     0.009 A 
ATOM     17  C   UNL A   1      31.318  22.097  25.556  1.00  0.00     0.046 A 
ATOM     18  N   UNL A   1      30.703  22.230  26.775  1.00  0.00    -0.361 N 
ATOM     19  C   UNL A   1      30.200  23.499  26.913  1.00  0.00     0.094 A 
ATOM     20  H   UNL A   1      30.632  21.519  27.451  1.00  0.00     0.166 HD
ENDBRANCH   9  10
BRANCH   9  21
ATOM     21  N   UNL A   1      29.993  25.997  24.100  1.00  0.00    -0.316 N 
ATOM     22  C   UNL A   1      28.593  26.272  23.773  1.00  0.00     0.284 C 
ATOM     23  C   UNL A   1      30.917  26.811  23.305  1.00  0.00     0.284 C 
ATOM     24  H   UNL A   1      30.130  25.038  23.781  1.00  0.00     0.349 HD
ATOM     25  C   UNL A   1      28.205  27.749  23.578  1.00  0.00     0.178 C 
ATOM     26  C   UNL A   1      30.596  28.323  23.213  1.00  0.00     0.178 C 
ATOM     27  N   UNL A   1      29.195  28.530  22.839  1.00  0.00    -0.360 N 
BRANCH  27  28
ATOM     28  C   UNL A   1      28.797  29.839  22.564  1.00  0.00     0.037 A 
ATOM     29  C   UNL A   1      28.321  30.232  21.302  1.00  0.00     0.029 A 
ATOM     30  C   UNL A   1      28.955  30.817  23.554  1.00  0.00     0.029 A 
ATOM     31  C   UNL A   1      28.044  31.572  21.027  1.00  0.00     0.041 A 
ATOM     32  C   UNL A   1      28.674  32.158  23.285  1.00  0.00     0.041 A 
ATOM     33  C   UNL A   1      28.227  32.523  22.022  1.00  0.00     0.123 A 
ATOM     34  F   UNL A   1      27.971  33.811  21.756  1.00  0.00    -0.207 F 
ENDBRANCH  27  28
ENDBRANCH   9  21
ENDBRANCH   7   9
ENDBRANCH   6   7
ENDBRANCH   5   6
ENDBRANCH   4   5
ENDBRANCH   3   4
ENDBRANCH   2   3
ENDBRANCH   1   2
BRANCH   1  35
ATOM     35  O   UNL A   1      37.579  23.566  25.411  1.00  0.00    -0.376 OA
BRANCH  35  36
ATOM     36  C   UNL A   1      38.452  22.660  26.079  1.00  0.00     0.202 C 
BRANCH  36  37
ATOM     37  C   UNL A   1      39.571  23.478  26.725  1.00  0.00     0.261 C 
BRANCH  37  38
ATOM     38  O   UNL A   1      39.103  24.707  27.318  1.00  0.00    -0.460 OA
BRANCH  38  39
ATOM     39  C   UNL A   1      39.920  25.769  27.178  1.00  0.00     0.338 C 
ATOM     40  O   UNL A   1      40.527  26.098  26.160  1.00  0.00    -0.246 OA
BRANCH  39  41
ATOM     41  C   UNL A   1      39.797  26.627  28.367  1.00  0.00     0.060 A 
ATOM     42  C   UNL A   1      40.618  27.756  28.439  1.00  0.00     0.016 A 
ATOM     43  C   UNL A   1      38.925  26.323  29.413  1.00  0.00     0.016 A 
ATOM     44  C   UNL A   1      40.586  28.573  29.566  1.00  0.00     0.010 A 
ATOM     45  C   UNL A   1      38.912  27.136  30.553  1.00  0.00     0.010 A 
ATOM     46  C   UNL A   1      39.758  28.255  30.644  1.00  0.00    -0.014 A 
BRANCH  46  47
ATOM     47  C   UNL A   1      39.933  28.985  31.924  1.00  0.00     0.031 A 
ATOM     48  C   UNL A   1      38.953  30.072  32.264  1.00  0.00     0.074 A 
ATOM     49  C   UNL A   1      40.879  28.641  32.819  1.00  0.00     0.049 A 
ATOM     50  N   UNL A   1      39.004  30.970  33.210  1.00  0.00    -0.248 NA
ATOM     51  C   UNL A   1      37.747  30.148  31.421  1.00  0.00     0.031 C 
ATOM     52  C   UNL A   1      41.789  27.501  32.704  1.00  0.00     0.029 A 
ATOM     53  N   UNL A   1      41.222  29.223  34.014  1.00  0.00    -0.354 N 
ATOM     54  C   UNL A   1      37.864  31.748  33.050  1.00  0.00     0.074 A 
ATOM     55  C   UNL A   1      37.135  31.211  31.922  1.00  0.00     0.031 C 
ATOM     56  C   UNL A   1      42.591  27.472  33.783  1.00  0.00     0.029 A 
ATOM     57  C   UNL A   1      42.303  28.632  34.625  1.00  0.00     0.049 A 
ATOM     58  H   UNL A   1      40.741  29.991  34.399  1.00  0.00     0.167 HD
ATOM     59  C   UNL A   1      37.470  32.824  33.770  1.00  0.00     0.031 A 
ATOM     60  C   UNL A   1      43.014  29.015  35.706  1.00  0.00     0.031 A 
ATOM     61  C   UNL A   1      38.193  33.343  34.899  1.00  0.00     0.049 A 
ATOM     62  C   UNL A   1      42.636  30.291  36.418  1.00  0.00     0.074 A 
ATOM     63  C   UNL A   1      37.914  34.464  35.661  1.00  0.00     0.029 A 
ATOM     64  N   UNL A   1      39.334  32.765  35.435  1.00  0.00    -0.354 N 
ATOM     65  N   UNL A   1      41.625  31.095  36.191  1.00  0.00    -0.248 NA
ATOM     66  C   UNL A   1      43.511  30.723  37.519  1.00  0.00     0.031 C 
ATOM     67  C   UNL A   1      38.912  34.588  36.633  1.00  0.00     0.029 A 
ATOM     68  C   UNL A   1      39.780  33.513  36.510  1.00  0.00     0.049 A 
ATOM     69  H   UNL A   1      39.762  31.946  35.101  1.00  0.00     0.167 HD
ATOM     70  C   UNL A   1      41.730  32.114  37.132  1.00  0.00     0.074 A 
ATOM     71  C   UNL A   1      42.896  31.820  37.940  1.00  0.00     0.031 C 
ATOM     72  C   UNL A   1      40.935  33.198  37.311  1.00  0.00     0.031 A 
BRANCH  59  73
ATOM     73  C   UNL A   1      36.242  33.554  33.303  1.00  0.00    -0.014 A 
ATOM     74  C   UNL A   1      34.975  33.300  33.857  1.00  0.00     0.010 A 
ATOM     75  C   UNL A   1      36.366  34.520  32.287  1.00  0.00     0.010 A 
ATOM     76  C   UNL A   1      33.849  33.974  33.377  1.00  0.00     0.020 A 
ATOM     77  C   UNL A   1      35.248  35.214  31.822  1.00  0.00     0.020 A 
ATOM     78  C   UNL A   1      33.992  34.922  32.357  1.00  0.00     0.054 A 
BRANCH  78  79
ATOM     79  S   UNL A   1      32.517  35.787  31.753  1.00  0.00     0.124 S 
ATOM     80  O   UNL A   1      31.470  35.229  32.605  1.00  0.00    -0.237 OA
ATOM     81  O   UNL A   1      32.844  37.191  31.997  1.00  0.00    -0.237 OA
ATOM     82  O   UNL A   1      32.443  35.405  30.345  1.00  0.00    -0.744 OA
ENDBRANCH  78  79
ENDBRANCH  59  73
BRANCH  60  83
ATOM     83  C   UNL A   1      44.212  28.238  36.135  1.00  0.00    -0.014 A 
ATOM     84  C   UNL A   1      45.489  28.539  35.631  1.00  0.00     0.010 A 
ATOM     85  C   UNL A   1      44.071  27.163  37.033  1.00  0.00     0.010 A 
ATOM     86  C   UNL A   1      46.597  27.772  36.004  1.00  0.00     0.020 A 
ATOM     87  C   UNL A   1      45.181  26.413  37.432  1.00  0.00     0.020 A 
ATOM     88  C   UNL A   1      46.436  26.713  36.902  1.00  0.00     0.054 A 
BRANCH  88  89
ATOM     89  S   UNL A   1      47.890  25.749  37.401  1.00  0.00     0.124 S 
ATOM     90  O   UNL A   1      47.516  25.306  38.741  1.00  0.00    -0.237 OA
ATOM     91  O   UNL A   1      47.946  24.704  36.381  1.00  0.00    -0.237 OA
ATOM     92  O   UNL A   1      48.980  26.722  37.345  1.00  0.00    -0.744 OA
ENDBRANCH  88  89
ENDBRANCH  60  83
BRANCH  72  93
ATOM     93  C   UNL A   1      41.264  34.128  38.449  1.00  0.00    -0.014 A 
ATOM     94  C   UNL A   1      42.061  35.268  38.253  1.00  0.00     0.010 A 
ATOM     95  C   UNL A   1      40.695  33.896  39.715  1.00  0.00     0.010 A 
ATOM     96  C   UNL A   1      42.298  36.152  39.308  1.00  0.00     0.020 A 
ATOM     97  C   UNL A   1      40.911  34.790  40.767  1.00  0.00     0.020 A 
ATOM     98  C   UNL A   1      41.719  35.910  40.558  1.00  0.00     0.054 A 
BRANCH  98  99
ATOM     99  S   UNL A   1      41.988  37.106  41.895  1.00  0.00     0.124 S 
ATOM    100  O   UNL A   1      42.670  38.193  41.198  1.00  0.00    -0.237 OA
ATOM    101  O   UNL A   1      40.628  37.402  42.340  1.00  0.00    -0.237 OA
ATOM    102  O   UNL A   1      42.805  36.373  42.858  1.00  0.00    -0.744 OA
ENDBRANCH  98  99
ENDBRANCH  72  93
ENDBRANCH  46  47
ENDBRANCH  39  41
ENDBRANCH  38  39
ENDBRANCH  37  38
ENDBRANCH  36  37
ENDBRANCH  35  36
ENDBRANCH   1  35
TORSDOF 23
ENDMDL
