MODEL 1
REMARK VINA RESULT:     -11.3      0.000      0.000
REMARK SMILES O=C(OCCOCCOCCOC(=O)[C@@H]1CC=CC[C@H]1C(=O)N1CC[NH+](Cc2ccc3c(c2)OCO3)CC1)c1ccc(-c2c3nc(c(-c4ccc(S(=O)(=O)[O-])cc4)c4ccc([nH]4)c(-c4ccc(S(=O)(=O)[O-])cc4)c4nc(c(-c5ccc(S(=O)(=O)[O-])cc5)c5ccc2[nH]5)C=C4)C=C3)cc1
REMARK SMILES IDX 7 1 6 2 5 3 4 4 3 5 2 6 1 7 39 8 40 9 98 10 41 11 97 12
REMARK SMILES IDX 42 13 43 14 44 15 91 16 45 17 96 18 90 19 92 20 46 21 95 22
REMARK SMILES IDX 89 23 88 24 47 26 77 27 58 28 76 29 59 30 62 31 75 32 93 33
REMARK SMILES IDX 60 34 61 35 74 37 94 38 63 39 48 40 49 41 57 42 50 43 56 44
REMARK SMILES IDX 51 45 52 46 53 47 54 48 55 49 78 50 79 51 87 52 80 53 86 54
REMARK SMILES IDX 81 55 82 56 83 57 84 58 85 59 64 60 65 61 73 62 66 63 72 64
REMARK SMILES IDX 67 65 68 66 69 67 70 68 71 69 8 70 9 71 10 72 11 73 12 74
REMARK SMILES IDX 13 75 14 76 15 77 16 78 20 79 17 80 19 81 18 82 21 83 22 84
REMARK SMILES IDX 23 85 24 86 38 87 25 88 37 89 26 90 27 92 28 93 29 94 33 95
REMARK SMILES IDX 30 96 32 97 31 98 34 99 36 100 35 101
REMARK H PARENT 92 25 62 36 26 91
REMARK Flexibility Score: inf
ROOT
ATOM      1  C   UNL A   1      32.524  28.196  27.046  1.00  0.00     0.188 C 
ENDROOT
BRANCH   1   2
ATOM      2  O   UNL A   1      32.718  29.274  26.126  1.00  0.00    -0.376 OA
BRANCH   2   3
ATOM      3  C   UNL A   1      32.248  30.550  26.584  1.00  0.00     0.202 C 
BRANCH   3   4
ATOM      4  C   UNL A   1      33.245  31.371  27.418  1.00  0.00     0.261 C 
BRANCH   4   5
ATOM      5  O   UNL A   1      32.669  32.581  27.903  1.00  0.00    -0.460 OA
BRANCH   5   6
ATOM      6  C   UNL A   1      33.375  33.634  28.381  1.00  0.00     0.338 C 
ATOM      7  O   UNL A   1      32.916  34.763  28.191  1.00  0.00    -0.246 OA
BRANCH   6   8
ATOM      8  C   UNL A   1      34.654  33.492  29.155  1.00  0.00     0.060 A 
ATOM      9  C   UNL A   1      35.913  34.070  28.933  1.00  0.00     0.016 A 
ATOM     10  C   UNL A   1      34.559  32.667  30.251  1.00  0.00     0.016 A 
ATOM     11  C   UNL A   1      37.086  33.644  29.589  1.00  0.00     0.010 A 
ATOM     12  C   UNL A   1      35.703  32.389  30.997  1.00  0.00     0.010 A 
ATOM     13  C   UNL A   1      37.028  32.715  30.620  1.00  0.00    -0.014 A 
BRANCH  13  14
ATOM     14  C   UNL A   1      38.446  31.884  31.231  1.00  0.00     0.031 A 
ATOM     15  C   UNL A   1      39.493  30.231  30.305  1.00  0.00     0.074 A 
ATOM     16  C   UNL A   1      38.657  32.659  32.490  1.00  0.00     0.049 A 
ATOM     17  N   UNL A   1      40.473  29.367  30.814  1.00  0.00    -0.248 NA
ATOM     18  C   UNL A   1      39.476  29.540  28.749  1.00  0.00     0.031 C 
ATOM     19  C   UNL A   1      38.095  33.941  33.009  1.00  0.00     0.029 A 
ATOM     20  N   UNL A   1      39.493  32.388  33.597  1.00  0.00    -0.354 N 
ATOM     21  C   UNL A   1      41.137  28.597  29.927  1.00  0.00     0.074 A 
ATOM     22  C   UNL A   1      40.399  28.594  28.714  1.00  0.00     0.031 C 
ATOM     23  C   UNL A   1      38.483  34.188  34.288  1.00  0.00     0.029 A 
ATOM     24  C   UNL A   1      39.397  33.158  34.703  1.00  0.00     0.049 A 
ATOM     25  H   UNL A   1      40.139  31.647  33.563  1.00  0.00     0.167 HD
ATOM     26  C   UNL A   1      42.355  28.062  30.159  1.00  0.00     0.031 A 
ATOM     27  C   UNL A   1      40.025  32.893  35.863  1.00  0.00     0.031 A 
ATOM     28  C   UNL A   1      43.077  28.190  31.408  1.00  0.00     0.049 A 
ATOM     29  C   UNL A   1      41.133  31.821  35.879  1.00  0.00     0.074 A 
ATOM     30  C   UNL A   1      44.296  27.636  31.733  1.00  0.00     0.029 A 
ATOM     31  N   UNL A   1      42.661  28.923  32.534  1.00  0.00    -0.354 N 
ATOM     32  N   UNL A   1      41.563  31.013  34.921  1.00  0.00    -0.248 NA
ATOM     33  C   UNL A   1      41.889  31.710  37.129  1.00  0.00     0.031 C 
ATOM     34  C   UNL A   1      44.603  28.009  33.048  1.00  0.00     0.029 A 
ATOM     35  C   UNL A   1      43.614  28.861  33.546  1.00  0.00     0.049 A 
ATOM     36  H   UNL A   1      41.811  29.415  32.598  1.00  0.00     0.167 HD
ATOM     37  C   UNL A   1      42.708  30.373  35.420  1.00  0.00     0.074 A 
ATOM     38  C   UNL A   1      42.860  30.877  36.782  1.00  0.00     0.031 C 
ATOM     39  C   UNL A   1      43.599  29.493  34.866  1.00  0.00     0.031 A 
BRANCH  26  40
ATOM     40  C   UNL A   1      42.926  27.333  28.989  1.00  0.00    -0.014 A 
ATOM     41  C   UNL A   1      42.828  25.929  28.908  1.00  0.00     0.010 A 
ATOM     42  C   UNL A   1      43.733  28.030  28.078  1.00  0.00     0.010 A 
ATOM     43  C   UNL A   1      43.609  25.227  27.992  1.00  0.00     0.020 A 
ATOM     44  C   UNL A   1      44.498  27.331  27.145  1.00  0.00     0.020 A 
ATOM     45  C   UNL A   1      44.458  25.933  27.134  1.00  0.00     0.054 A 
BRANCH  45  46
ATOM     46  S   UNL A   1      45.554  24.998  26.037  1.00  0.00     0.124 S 
ATOM     47  O   UNL A   1      46.686  25.910  25.894  1.00  0.00    -0.237 OA
ATOM     48  O   UNL A   1      45.818  23.784  26.805  1.00  0.00    -0.237 OA
ATOM     49  O   UNL A   1      44.753  24.807  24.830  1.00  0.00    -0.744 OA
ENDBRANCH  45  46
ENDBRANCH  26  40
BRANCH  27  50
ATOM     50  C   UNL A   1      39.630  33.610  37.098  1.00  0.00    -0.014 A 
ATOM     51  C   UNL A   1      40.141  34.879  37.409  1.00  0.00     0.010 A 
ATOM     52  C   UNL A   1      38.778  32.969  38.017  1.00  0.00     0.010 A 
ATOM     53  C   UNL A   1      39.835  35.480  38.634  1.00  0.00     0.020 A 
ATOM     54  C   UNL A   1      38.455  33.573  39.235  1.00  0.00     0.020 A 
ATOM     55  C   UNL A   1      38.998  34.821  39.541  1.00  0.00     0.054 A 
BRANCH  55  56
ATOM     56  S   UNL A   1      38.621  35.624  41.124  1.00  0.00     0.124 S 
ATOM     57  O   UNL A   1      37.324  35.044  41.458  1.00  0.00    -0.237 OA
ATOM     58  O   UNL A   1      39.740  35.202  41.962  1.00  0.00    -0.237 OA
ATOM     59  O   UNL A   1      38.600  37.046  40.789  1.00  0.00    -0.744 OA
ENDBRANCH  55  56
ENDBRANCH  27  50
BRANCH  39  60
ATOM     60  C   UNL A   1      44.813  29.163  35.733  1.00  0.00    -0.014 A 
ATOM     61  C   UNL A   1      45.993  29.927  35.676  1.00  0.00     0.010 A 
ATOM     62  C   UNL A   1      44.727  28.115  36.674  1.00  0.00     0.010 A 
ATOM     63  C   UNL A   1      47.070  29.631  36.519  1.00  0.00     0.020 A 
ATOM     64  C   UNL A   1      45.786  27.847  37.549  1.00  0.00     0.020 A 
ATOM     65  C   UNL A   1      46.958  28.597  37.456  1.00  0.00     0.054 A 
BRANCH  65  66
ATOM     66  S   UNL A   1      48.340  28.286  38.591  1.00  0.00     0.124 S 
ATOM     67  O   UNL A   1      48.079  26.916  39.020  1.00  0.00    -0.237 OA
ATOM     68  O   UNL A   1      49.509  28.465  37.733  1.00  0.00    -0.237 OA
ATOM     69  O   UNL A   1      48.173  29.305  39.625  1.00  0.00    -0.744 OA
ENDBRANCH  65  66
ENDBRANCH  39  60
ENDBRANCH  13  14
ENDBRANCH   6   8
ENDBRANCH   5   6
ENDBRANCH   4   5
ENDBRANCH   3   4
ENDBRANCH   2   3
ENDBRANCH   1   2
BRANCH   1  70
ATOM     70  C   UNL A   1      31.337  27.300  26.684  1.00  0.00     0.188 C 
BRANCH  70  71
ATOM     71  O   UNL A   1      30.800  27.433  25.370  1.00  0.00    -0.376 OA
BRANCH  71  72
ATOM     72  C   UNL A   1      31.109  26.399  24.440  1.00  0.00     0.202 C 
BRANCH  72  73
ATOM     73  C   UNL A   1      32.540  26.322  23.866  1.00  0.00     0.261 C 
BRANCH  73  74
ATOM     74  O   UNL A   1      33.312  25.215  24.348  1.00  0.00    -0.463 OA
BRANCH  74  75
ATOM     75  C   UNL A   1      33.811  24.342  23.429  1.00  0.00     0.310 C 
ATOM     76  O   UNL A   1      34.215  24.656  22.316  1.00  0.00    -0.252 OA
BRANCH  75  77
ATOM     77  C   UNL A   1      33.882  22.925  23.997  1.00  0.00     0.115 C 
ATOM     78  C   UNL A   1      33.190  21.982  23.013  1.00  0.00     0.043 C 
ATOM     79  C   UNL A   1      33.413  22.898  25.484  1.00  0.00     0.097 C 
ATOM     80  C   UNL A   1      32.534  20.791  23.624  1.00  0.00    -0.030 C 
ATOM     81  C   UNL A   1      32.382  21.840  25.884  1.00  0.00     0.041 C 
ATOM     82  C   UNL A   1      32.170  20.730  24.907  1.00  0.00    -0.030 C 
BRANCH  79  83
ATOM     83  C   UNL A   1      34.710  22.847  26.283  1.00  0.00     0.227 C 
ATOM     84  O   UNL A   1      34.637  23.016  27.503  1.00  0.00    -0.275 OA
ATOM     85  N   UNL A   1      35.946  22.795  25.629  1.00  0.00    -0.331 N 
ATOM     86  C   UNL A   1      36.617  21.487  25.724  1.00  0.00     0.181 C 
ATOM     87  C   UNL A   1      36.780  23.972  25.896  1.00  0.00     0.181 C 
ATOM     88  C   UNL A   1      38.128  21.447  25.457  1.00  0.00     0.284 C 
ATOM     89  C   UNL A   1      38.331  23.802  25.825  1.00  0.00     0.284 C 
ATOM     90  N   UNL A   1      38.755  22.475  26.266  1.00  0.00    -0.328 N 
ATOM     91  H   UNL A   1      38.499  22.478  27.253  1.00  0.00     0.348 HD
BRANCH  90  92
ATOM     92  C   UNL A   1      39.925  22.182  27.100  1.00  0.00     0.299 C 
BRANCH  92  93
ATOM     93  C   UNL A   1      41.015  21.338  26.397  1.00  0.00     0.010 A 
ATOM     94  C   UNL A   1      40.980  19.528  26.493  1.00  0.00     0.013 A 
ATOM     95  C   UNL A   1      42.488  22.132  25.678  1.00  0.00     0.060 A 
ATOM     96  C   UNL A   1      42.452  18.531  25.879  1.00  0.00     0.051 A 
ATOM     97  C   UNL A   1      43.936  21.118  25.218  1.00  0.00     0.166 A 
ATOM     98  C   UNL A   1      43.895  19.382  25.302  1.00  0.00     0.165 A 
ATOM     99  O   UNL A   1      45.179  21.463  24.790  1.00  0.00    -0.454 OA
ATOM    100  O   UNL A   1      45.118  18.928  24.945  1.00  0.00    -0.454 OA
ATOM    101  C   UNL A   1      45.891  20.174  24.911  1.00  0.00     0.468 C 
ENDBRANCH  92  93
ENDBRANCH  90  92
ENDBRANCH  79  83
ENDBRANCH  75  77
ENDBRANCH  74  75
ENDBRANCH  73  74
ENDBRANCH  72  73
ENDBRANCH  71  72
ENDBRANCH  70  71
ENDBRANCH   1  70
TORSDOF 23
ENDMDL
MODEL 2
REMARK VINA RESULT:     -10.6      4.953      7.303
REMARK SMILES O=C(OCCOCCOCCOC(=O)[C@@H]1CC=CC[C@H]1C(=O)N1CC[NH+](Cc2ccc3c(c2)OCO3)CC1)c1ccc(-c2c3nc(c(-c4ccc(S(=O)(=O)[O-])cc4)c4ccc([nH]4)c(-c4ccc(S(=O)(=O)[O-])cc4)c4nc(c(-c5ccc(S(=O)(=O)[O-])cc5)c5ccc2[nH]5)C=C4)C=C3)cc1
REMARK SMILES IDX 7 1 6 2 5 3 4 4 3 5 2 6 1 7 39 8 40 9 98 10 41 11 97 12
REMARK SMILES IDX 42 13 43 14 44 15 91 16 45 17 96 18 90 19 92 20 46 21 95 22
REMARK SMILES IDX 89 23 88 24 47 26 77 27 58 28 76 29 59 30 62 31 75 32 93 33
REMARK SMILES IDX 60 34 61 35 74 37 94 38 63 39 48 40 49 41 57 42 50 43 56 44
REMARK SMILES IDX 51 45 52 46 53 47 54 48 55 49 78 50 79 51 87 52 80 53 86 54
REMARK SMILES IDX 81 55 82 56 83 57 84 58 85 59 64 60 65 61 73 62 66 63 72 64
REMARK SMILES IDX 67 65 68 66 69 67 70 68 71 69 8 70 9 71 10 72 11 73 12 74
REMARK SMILES IDX 13 75 14 76 15 77 16 78 20 79 17 80 19 81 18 82 21 83 22 84
REMARK SMILES IDX 23 85 24 86 38 87 25 88 37 89 26 90 27 92 28 93 29 94 33 95
REMARK SMILES IDX 30 96 32 97 31 98 34 99 36 100 35 101
REMARK H PARENT 92 25 62 36 26 91
REMARK Flexibility Score: inf
ROOT
ATOM      1  C   UNL A   1      35.666  32.912  28.002  1.00  0.00     0.188 C 
ENDROOT
BRANCH   1   2
ATOM      2  O   UNL A   1      34.912  34.097  28.279  1.00  0.00    -0.376 OA
BRANCH   2   3
ATOM      3  C   UNL A   1      33.954  33.968  29.339  1.00  0.00     0.202 C 
BRANCH   3   4
ATOM      4  C   UNL A   1      34.507  34.121  30.765  1.00  0.00     0.261 C 
BRANCH   4   5
ATOM      5  O   UNL A   1      34.468  32.894  31.489  1.00  0.00    -0.460 OA
BRANCH   5   6
ATOM      6  C   UNL A   1      35.352  32.538  32.452  1.00  0.00     0.338 C 
ATOM      7  O   UNL A   1      35.008  32.692  33.627  1.00  0.00    -0.246 OA
BRANCH   6   8
ATOM      8  C   UNL A   1      36.698  31.939  32.162  1.00  0.00     0.060 A 
ATOM      9  C   UNL A   1      37.818  31.787  32.995  1.00  0.00     0.016 A 
ATOM     10  C   UNL A   1      36.838  31.467  30.879  1.00  0.00     0.016 A 
ATOM     11  C   UNL A   1      39.097  31.441  32.515  1.00  0.00     0.010 A 
ATOM     12  C   UNL A   1      38.072  30.967  30.467  1.00  0.00     0.010 A 
ATOM     13  C   UNL A   1      39.285  31.080  31.187  1.00  0.00    -0.014 A 
BRANCH  13  14
ATOM     14  C   UNL A   1      40.871  30.987  30.444  1.00  0.00     0.031 A 
ATOM     15  C   UNL A   1      41.871  29.210  29.716  1.00  0.00     0.074 A 
ATOM     16  C   UNL A   1      41.241  32.433  30.480  1.00  0.00     0.049 A 
ATOM     17  N   UNL A   1      43.203  29.003  29.327  1.00  0.00    -0.248 NA
ATOM     18  C   UNL A   1      41.365  27.621  29.373  1.00  0.00     0.031 C 
ATOM     19  C   UNL A   1      40.468  33.681  30.753  1.00  0.00     0.029 A 
ATOM     20  N   UNL A   1      42.486  33.061  30.250  1.00  0.00    -0.354 N 
ATOM     21  C   UNL A   1      43.481  27.861  28.665  1.00  0.00     0.074 A 
ATOM     22  C   UNL A   1      42.394  26.969  28.858  1.00  0.00     0.031 C 
ATOM     23  C   UNL A   1      41.270  34.776  30.811  1.00  0.00     0.029 A 
ATOM     24  C   UNL A   1      42.617  34.382  30.499  1.00  0.00     0.049 A 
ATOM     25  H   UNL A   1      43.250  32.541  29.912  1.00  0.00     0.167 HD
ATOM     26  C   UNL A   1      44.554  27.700  27.861  1.00  0.00     0.031 A 
ATOM     27  C   UNL A   1      43.789  35.043  30.468  1.00  0.00     0.031 A 
ATOM     28  C   UNL A   1      45.576  28.705  27.656  1.00  0.00     0.049 A 
ATOM     29  C   UNL A   1      45.018  34.346  29.851  1.00  0.00     0.074 A 
ATOM     30  C   UNL A   1      46.718  28.596  26.891  1.00  0.00     0.029 A 
ATOM     31  N   UNL A   1      45.587  30.001  28.202  1.00  0.00    -0.354 N 
ATOM     32  N   UNL A   1      45.163  33.117  29.379  1.00  0.00    -0.248 NA
ATOM     33  C   UNL A   1      46.209  35.184  29.693  1.00  0.00     0.031 C 
ATOM     34  C   UNL A   1      47.422  29.802  26.993  1.00  0.00     0.029 A 
ATOM     35  C   UNL A   1      46.699  30.713  27.768  1.00  0.00     0.049 A 
ATOM     36  H   UNL A   1      44.899  30.356  28.810  1.00  0.00     0.167 HD
ATOM     37  C   UNL A   1      46.427  33.067  28.770  1.00  0.00     0.074 A 
ATOM     38  C   UNL A   1      47.001  34.392  28.984  1.00  0.00     0.031 C 
ATOM     39  C   UNL A   1      47.086  32.092  28.069  1.00  0.00     0.031 A 
BRANCH  26  40
ATOM     40  C   UNL A   1      44.590  26.382  27.161  1.00  0.00    -0.014 A 
ATOM     41  C   UNL A   1      45.333  25.311  27.699  1.00  0.00     0.010 A 
ATOM     42  C   UNL A   1      44.051  26.280  25.871  1.00  0.00     0.010 A 
ATOM     43  C   UNL A   1      45.617  24.195  26.913  1.00  0.00     0.020 A 
ATOM     44  C   UNL A   1      44.315  25.154  25.091  1.00  0.00     0.020 A 
ATOM     45  C   UNL A   1      45.127  24.138  25.605  1.00  0.00     0.054 A 
BRANCH  45  46
ATOM     46  S   UNL A   1      45.608  22.738  24.561  1.00  0.00     0.124 S 
ATOM     47  O   UNL A   1      44.375  22.476  23.822  1.00  0.00    -0.237 OA
ATOM     48  O   UNL A   1      46.707  23.289  23.773  1.00  0.00    -0.237 OA
ATOM     49  O   UNL A   1      45.989  21.705  25.521  1.00  0.00    -0.744 OA
ENDBRANCH  45  46
ENDBRANCH  26  40
BRANCH  27  50
ATOM     50  C   UNL A   1      43.885  36.405  31.042  1.00  0.00    -0.014 A 
ATOM     51  C   UNL A   1      44.060  36.614  32.418  1.00  0.00     0.010 A 
ATOM     52  C   UNL A   1      43.722  37.517  30.194  1.00  0.00     0.010 A 
ATOM     53  C   UNL A   1      44.036  37.911  32.942  1.00  0.00     0.020 A 
ATOM     54  C   UNL A   1      43.716  38.815  30.710  1.00  0.00     0.020 A 
ATOM     55  C   UNL A   1      43.859  39.003  32.085  1.00  0.00     0.054 A 
BRANCH  55  56
ATOM     56  S   UNL A   1      43.829  40.674  32.793  1.00  0.00     0.124 S 
ATOM     57  O   UNL A   1      44.872  41.347  32.025  1.00  0.00    -0.237 OA
ATOM     58  O   UNL A   1      42.461  41.103  32.518  1.00  0.00    -0.237 OA
ATOM     59  O   UNL A   1      44.137  40.452  34.204  1.00  0.00    -0.744 OA
ENDBRANCH  55  56
ENDBRANCH  27  50
BRANCH  39  60
ATOM     60  C   UNL A   1      48.410  32.525  27.440  1.00  0.00    -0.014 A 
ATOM     61  C   UNL A   1      48.454  33.403  26.342  1.00  0.00     0.010 A 
ATOM     62  C   UNL A   1      49.623  32.099  28.019  1.00  0.00     0.010 A 
ATOM     63  C   UNL A   1      49.683  33.822  25.818  1.00  0.00     0.020 A 
ATOM     64  C   UNL A   1      50.852  32.552  27.526  1.00  0.00     0.020 A 
ATOM     65  C   UNL A   1      50.875  33.399  26.418  1.00  0.00     0.054 A 
BRANCH  65  66
ATOM     66  S   UNL A   1      52.452  34.021  25.769  1.00  0.00     0.124 S 
ATOM     67  O   UNL A   1      52.108  34.338  24.386  1.00  0.00    -0.237 OA
ATOM     68  O   UNL A   1      52.725  35.170  26.628  1.00  0.00    -0.237 OA
ATOM     69  O   UNL A   1      53.365  32.893  25.940  1.00  0.00    -0.744 OA
ENDBRANCH  65  66
ENDBRANCH  39  60
ENDBRANCH  13  14
ENDBRANCH   6   8
ENDBRANCH   5   6
ENDBRANCH   4   5
ENDBRANCH   3   4
ENDBRANCH   2   3
ENDBRANCH   1   2
BRANCH   1  70
ATOM     70  C   UNL A   1      34.841  31.629  28.130  1.00  0.00     0.188 C 
BRANCH  70  71
ATOM     71  O   UNL A   1      34.060  31.243  27.001  1.00  0.00    -0.376 OA
BRANCH  71  72
ATOM     72  C   UNL A   1      32.871  30.503  27.263  1.00  0.00     0.202 C 
BRANCH  72  73
ATOM     73  C   UNL A   1      32.781  29.045  26.768  1.00  0.00     0.261 C 
BRANCH  73  74
ATOM     74  O   UNL A   1      32.030  28.876  25.559  1.00  0.00    -0.463 OA
BRANCH  74  75
ATOM     75  C   UNL A   1      32.569  28.096  24.580  1.00  0.00     0.310 C 
ATOM     76  O   UNL A   1      33.723  28.177  24.181  1.00  0.00    -0.252 OA
BRANCH  75  77
ATOM     77  C   UNL A   1      31.568  27.047  24.099  1.00  0.00     0.115 C 
ATOM     78  C   UNL A   1      30.480  27.759  23.294  1.00  0.00     0.043 C 
ATOM     79  C   UNL A   1      31.119  26.125  25.274  1.00  0.00     0.097 C 
ATOM     80  C   UNL A   1      29.130  27.127  23.346  1.00  0.00    -0.030 C 
ATOM     81  C   UNL A   1      29.617  25.895  25.462  1.00  0.00     0.041 C 
ATOM     82  C   UNL A   1      28.745  26.297  24.318  1.00  0.00    -0.030 C 
BRANCH  79  83
ATOM     83  C   UNL A   1      31.932  24.851  25.079  1.00  0.00     0.227 C 
ATOM     84  O   UNL A   1      31.380  23.902  24.514  1.00  0.00    -0.275 OA
ATOM     85  N   UNL A   1      33.186  24.708  25.684  1.00  0.00    -0.331 N 
ATOM     86  C   UNL A   1      34.314  24.777  24.740  1.00  0.00     0.181 C 
ATOM     87  C   UNL A   1      33.223  23.613  26.660  1.00  0.00     0.181 C 
ATOM     88  C   UNL A   1      35.657  24.190  25.199  1.00  0.00     0.284 C 
ATOM     89  C   UNL A   1      34.593  22.907  26.914  1.00  0.00     0.284 C 
ATOM     90  N   UNL A   1      35.412  22.853  25.707  1.00  0.00    -0.328 N 
ATOM     91  H   UNL A   1      34.869  22.242  25.098  1.00  0.00     0.348 HD
BRANCH  90  92
ATOM     92  C   UNL A   1      36.223  21.711  25.270  1.00  0.00     0.299 C 
BRANCH  92  93
ATOM     93  C   UNL A   1      35.399  20.480  24.819  1.00  0.00     0.010 A 
ATOM     94  C   UNL A   1      33.648  20.654  24.387  1.00  0.00     0.013 A 
ATOM     95  C   UNL A   1      36.088  18.799  24.955  1.00  0.00     0.060 A 
ATOM     96  C   UNL A   1      32.595  19.119  24.117  1.00  0.00     0.051 A 
ATOM     97  C   UNL A   1      34.987  17.350  24.807  1.00  0.00     0.166 A 
ATOM     98  C   UNL A   1      33.310  17.521  24.382  1.00  0.00     0.165 A 
ATOM     99  O   UNL A   1      35.214  16.022  24.989  1.00  0.00    -0.454 OA
ATOM    100  O   UNL A   1      32.758  16.286  24.397  1.00  0.00    -0.454 OA
ATOM    101  C   UNL A   1      33.834  15.494  25.003  1.00  0.00     0.468 C 
ENDBRANCH  92  93
ENDBRANCH  90  92
ENDBRANCH  79  83
ENDBRANCH  75  77
ENDBRANCH  74  75
ENDBRANCH  73  74
ENDBRANCH  72  73
ENDBRANCH  71  72
ENDBRANCH  70  71
ENDBRANCH   1  70
TORSDOF 23
ENDMDL
MODEL 3
REMARK VINA RESULT:      -9.9      4.829      7.612
REMARK SMILES O=C(OCCOCCOCCOC(=O)[C@@H]1CC=CC[C@H]1C(=O)N1CC[NH+](Cc2ccc3c(c2)OCO3)CC1)c1ccc(-c2c3nc(c(-c4ccc(S(=O)(=O)[O-])cc4)c4ccc([nH]4)c(-c4ccc(S(=O)(=O)[O-])cc4)c4nc(c(-c5ccc(S(=O)(=O)[O-])cc5)c5ccc2[nH]5)C=C4)C=C3)cc1
REMARK SMILES IDX 7 1 6 2 5 3 4 4 3 5 2 6 1 7 39 8 40 9 98 10 41 11 97 12
REMARK SMILES IDX 42 13 43 14 44 15 91 16 45 17 96 18 90 19 92 20 46 21 95 22
REMARK SMILES IDX 89 23 88 24 47 26 77 27 58 28 76 29 59 30 62 31 75 32 93 33
REMARK SMILES IDX 60 34 61 35 74 37 94 38 63 39 48 40 49 41 57 42 50 43 56 44
REMARK SMILES IDX 51 45 52 46 53 47 54 48 55 49 78 50 79 51 87 52 80 53 86 54
REMARK SMILES IDX 81 55 82 56 83 57 84 58 85 59 64 60 65 61 73 62 66 63 72 64
REMARK SMILES IDX 67 65 68 66 69 67 70 68 71 69 8 70 9 71 10 72 11 73 12 74
REMARK SMILES IDX 13 75 14 76 15 77 16 78 20 79 17 80 19 81 18 82 21 83 22 84
REMARK SMILES IDX 23 85 24 86 38 87 25 88 37 89 26 90 27 92 28 93 29 94 33 95
REMARK SMILES IDX 30 96 32 97 31 98 34 99 36 100 35 101
REMARK H PARENT 92 25 62 36 26 91
REMARK Flexibility Score: inf
ROOT
ATOM      1  C   UNL A   1      35.618  32.471  28.660  1.00  0.00     0.188 C 
ENDROOT
BRANCH   1   2
ATOM      2  O   UNL A   1      35.276  33.858  28.757  1.00  0.00    -0.376 OA
BRANCH   2   3
ATOM      3  C   UNL A   1      34.212  34.154  29.672  1.00  0.00     0.202 C 
BRANCH   3   4
ATOM      4  C   UNL A   1      34.633  34.417  31.127  1.00  0.00     0.261 C 
BRANCH   4   5
ATOM      5  O   UNL A   1      34.348  33.308  31.976  1.00  0.00    -0.460 OA
BRANCH   5   6
ATOM      6  C   UNL A   1      34.983  33.047  33.144  1.00  0.00     0.338 C 
ATOM      7  O   UNL A   1      34.376  33.286  34.190  1.00  0.00    -0.246 OA
BRANCH   6   8
ATOM      8  C   UNL A   1      36.361  32.454  33.224  1.00  0.00     0.060 A 
ATOM      9  C   UNL A   1      37.390  32.681  34.151  1.00  0.00     0.016 A 
ATOM     10  C   UNL A   1      36.640  31.546  32.230  1.00  0.00     0.016 A 
ATOM     11  C   UNL A   1      38.717  32.249  33.954  1.00  0.00     0.010 A 
ATOM     12  C   UNL A   1      37.917  30.994  32.150  1.00  0.00     0.010 A 
ATOM     13  C   UNL A   1      39.047  31.429  32.882  1.00  0.00    -0.014 A 
BRANCH  13  14
ATOM     14  C   UNL A   1      40.703  31.149  32.376  1.00  0.00     0.031 A 
ATOM     15  C   UNL A   1      42.061  29.638  33.125  1.00  0.00     0.074 A 
ATOM     16  C   UNL A   1      40.822  32.215  31.338  1.00  0.00     0.049 A 
ATOM     17  N   UNL A   1      43.444  29.486  32.956  1.00  0.00    -0.248 NA
ATOM     18  C   UNL A   1      41.867  28.230  34.062  1.00  0.00     0.031 C 
ATOM     19  C   UNL A   1      39.827  33.091  30.651  1.00  0.00     0.029 A 
ATOM     20  N   UNL A   1      41.965  32.718  30.674  1.00  0.00    -0.354 N 
ATOM     21  C   UNL A   1      43.983  28.303  33.318  1.00  0.00     0.074 A 
ATOM     22  C   UNL A   1      43.042  27.629  34.141  1.00  0.00     0.031 C 
ATOM     23  C   UNL A   1      40.425  34.024  29.864  1.00  0.00     0.029 A 
ATOM     24  C   UNL A   1      41.846  33.805  29.882  1.00  0.00     0.049 A 
ATOM     25  H   UNL A   1      42.839  32.279  30.789  1.00  0.00     0.167 HD
ATOM     26  C   UNL A   1      45.154  27.832  32.839  1.00  0.00     0.031 A 
ATOM     27  C   UNL A   1      42.889  34.456  29.335  1.00  0.00     0.031 A 
ATOM     28  C   UNL A   1      46.014  28.559  31.929  1.00  0.00     0.049 A 
ATOM     29  C   UNL A   1      44.280  33.792  29.368  1.00  0.00     0.074 A 
ATOM     30  C   UNL A   1      47.240  28.165  31.437  1.00  0.00     0.029 A 
ATOM     31  N   UNL A   1      45.747  29.819  31.364  1.00  0.00    -0.354 N 
ATOM     32  N   UNL A   1      44.680  32.661  29.929  1.00  0.00    -0.248 NA
ATOM     33  C   UNL A   1      45.327  34.476  28.604  1.00  0.00     0.031 C 
ATOM     34  C   UNL A   1      47.718  29.184  30.604  1.00  0.00     0.029 A 
ATOM     35  C   UNL A   1      46.770  30.205  30.505  1.00  0.00     0.049 A 
ATOM     36  H   UNL A   1      44.943  30.356  31.551  1.00  0.00     0.167 HD
ATOM     37  C   UNL A   1      45.998  32.443  29.497  1.00  0.00     0.074 A 
ATOM     38  C   UNL A   1      46.316  33.595  28.660  1.00  0.00     0.031 C 
ATOM     39  C   UNL A   1      46.886  31.419  29.696  1.00  0.00     0.031 A 
BRANCH  26  40
ATOM     40  C   UNL A   1      45.490  26.457  33.313  1.00  0.00    -0.014 A 
ATOM     41  C   UNL A   1      45.192  25.336  32.512  1.00  0.00     0.010 A 
ATOM     42  C   UNL A   1      45.914  26.276  34.637  1.00  0.00     0.010 A 
ATOM     43  C   UNL A   1      45.220  24.056  33.064  1.00  0.00     0.020 A 
ATOM     44  C   UNL A   1      45.966  24.994  35.185  1.00  0.00     0.020 A 
ATOM     45  C   UNL A   1      45.582  23.899  34.405  1.00  0.00     0.054 A 
BRANCH  45  46
ATOM     46  S   UNL A   1      45.496  22.244  35.137  1.00  0.00     0.124 S 
ATOM     47  O   UNL A   1      44.053  22.041  35.250  1.00  0.00    -0.237 OA
ATOM     48  O   UNL A   1      46.170  21.416  34.141  1.00  0.00    -0.237 OA
ATOM     49  O   UNL A   1      46.204  22.390  36.407  1.00  0.00    -0.744 OA
ENDBRANCH  45  46
ENDBRANCH  26  40
BRANCH  27  50
ATOM     50  C   UNL A   1      42.691  35.798  28.737  1.00  0.00    -0.014 A 
ATOM     51  C   UNL A   1      42.316  35.958  27.395  1.00  0.00     0.010 A 
ATOM     52  C   UNL A   1      42.958  36.939  29.517  1.00  0.00     0.010 A 
ATOM     53  C   UNL A   1      42.246  37.237  26.832  1.00  0.00     0.020 A 
ATOM     54  C   UNL A   1      42.871  38.219  28.964  1.00  0.00     0.020 A 
ATOM     55  C   UNL A   1      42.528  38.359  27.619  1.00  0.00     0.054 A 
BRANCH  55  56
ATOM     56  S   UNL A   1      42.431  40.005  26.861  1.00  0.00     0.124 S 
ATOM     57  O   UNL A   1      42.689  40.880  28.001  1.00  0.00    -0.237 OA
ATOM     58  O   UNL A   1      43.487  39.946  25.854  1.00  0.00    -0.237 OA
ATOM     59  O   UNL A   1      41.071  40.056  26.330  1.00  0.00    -0.744 OA
ENDBRANCH  55  56
ENDBRANCH  27  50
BRANCH  39  60
ATOM     60  C   UNL A   1      48.184  31.520  28.897  1.00  0.00    -0.014 A 
ATOM     61  C   UNL A   1      49.341  32.110  29.438  1.00  0.00     0.010 A 
ATOM     62  C   UNL A   1      48.255  30.939  27.614  1.00  0.00     0.010 A 
ATOM     63  C   UNL A   1      50.531  32.143  28.701  1.00  0.00     0.020 A 
ATOM     64  C   UNL A   1      49.455  30.930  26.894  1.00  0.00     0.020 A 
ATOM     65  C   UNL A   1      50.583  31.546  27.436  1.00  0.00     0.054 A 
BRANCH  65  66
ATOM     66  S   UNL A   1      52.159  31.533  26.536  1.00  0.00     0.124 S 
ATOM     67  O   UNL A   1      53.059  32.173  27.490  1.00  0.00    -0.237 OA
ATOM     68  O   UNL A   1      52.391  30.108  26.312  1.00  0.00    -0.237 OA
ATOM     69  O   UNL A   1      51.875  32.308  25.330  1.00  0.00    -0.744 OA
ENDBRANCH  65  66
ENDBRANCH  39  60
ENDBRANCH  13  14
ENDBRANCH   6   8
ENDBRANCH   5   6
ENDBRANCH   4   5
ENDBRANCH   3   4
ENDBRANCH   2   3
ENDBRANCH   1   2
BRANCH   1  70
ATOM     70  C   UNL A   1      34.403  31.565  28.439  1.00  0.00     0.188 C 
BRANCH  70  71
ATOM     71  O   UNL A   1      33.797  31.596  27.149  1.00  0.00    -0.376 OA
BRANCH  71  72
ATOM     72  C   UNL A   1      32.650  30.772  26.958  1.00  0.00     0.202 C 
BRANCH  72  73
ATOM     73  C   UNL A   1      32.815  29.433  26.210  1.00  0.00     0.261 C 
BRANCH  73  74
ATOM     74  O   UNL A   1      32.044  29.328  25.007  1.00  0.00    -0.463 OA
BRANCH  74  75
ATOM     75  C   UNL A   1      32.523  28.527  24.014  1.00  0.00     0.310 C 
ATOM     76  O   UNL A   1      33.557  28.732  23.390  1.00  0.00    -0.252 OA
BRANCH  75  77
ATOM     77  C   UNL A   1      31.644  27.290  23.832  1.00  0.00     0.115 C 
ATOM     78  C   UNL A   1      30.361  27.716  23.118  1.00  0.00     0.043 C 
ATOM     79  C   UNL A   1      31.505  26.505  25.172  1.00  0.00     0.097 C 
ATOM     80  C   UNL A   1      29.147  26.922  23.457  1.00  0.00    -0.030 C 
ATOM     81  C   UNL A   1      30.096  26.103  25.616  1.00  0.00     0.041 C 
ATOM     82  C   UNL A   1      29.028  26.204  24.576  1.00  0.00    -0.030 C 
BRANCH  79  83
ATOM     83  C   UNL A   1      32.475  25.339  25.023  1.00  0.00     0.227 C 
ATOM     84  O   UNL A   1      33.682  25.599  24.994  1.00  0.00    -0.275 OA
ATOM     85  N   UNL A   1      32.002  24.052  24.743  1.00  0.00    -0.331 N 
ATOM     86  C   UNL A   1      32.103  23.120  25.880  1.00  0.00     0.181 C 
ATOM     87  C   UNL A   1      32.467  23.545  23.447  1.00  0.00     0.181 C 
ATOM     88  C   UNL A   1      32.052  21.617  25.568  1.00  0.00     0.284 C 
ATOM     89  C   UNL A   1      32.606  22.000  23.273  1.00  0.00     0.284 C 
ATOM     90  N   UNL A   1      33.011  21.345  24.514  1.00  0.00    -0.328 N 
ATOM     91  H   UNL A   1      33.948  21.715  24.664  1.00  0.00     0.348 HD
BRANCH  90  92
ATOM     92  C   UNL A   1      33.982  20.252  24.631  1.00  0.00     0.299 C 
BRANCH  92  93
ATOM     93  C   UNL A   1      35.449  20.716  24.796  1.00  0.00     0.010 A 
ATOM     94  C   UNL A   1      36.794  19.504  24.864  1.00  0.00     0.013 A 
ATOM     95  C   UNL A   1      35.838  22.454  25.180  1.00  0.00     0.060 A 
ATOM     96  C   UNL A   1      38.527  20.056  25.344  1.00  0.00     0.051 A 
ATOM     97  C   UNL A   1      37.509  22.905  25.764  1.00  0.00     0.166 A 
ATOM     98  C   UNL A   1      38.799  21.741  25.817  1.00  0.00     0.165 A 
ATOM     99  O   UNL A   1      38.016  24.077  26.228  1.00  0.00    -0.454 OA
ATOM    100  O   UNL A   1      39.886  22.361  26.330  1.00  0.00    -0.454 OA
ATOM    101  C   UNL A   1      39.308  23.629  26.788  1.00  0.00     0.468 C 
ENDBRANCH  92  93
ENDBRANCH  90  92
ENDBRANCH  79  83
ENDBRANCH  75  77
ENDBRANCH  74  75
ENDBRANCH  73  74
ENDBRANCH  72  73
ENDBRANCH  71  72
ENDBRANCH  70  71
ENDBRANCH   1  70
TORSDOF 23
ENDMDL
