MODEL 1
REMARK VINA RESULT:     -10.5      0.000      0.000
REMARK SMILES O=C(OCCOCCOCCOC(=O)c1ccc2c(c1)[C@@H](C1CCOCC1)C(=O)N2)c1ccc(-c2c3nc(c(-c4ccc(S(=O)(=O)[O-])cc4)c4ccc([nH]4)c(-c4ccc(S(=O)(=O)[O-])cc4)c4nc(c(-c5ccc(S(=O)(=O)[O-])cc5)c5ccc2[nH]5)C=C4)C=C3)cc1
REMARK SMILES IDX 7 1 6 2 5 3 4 4 3 5 2 6 1 7 31 8 32 9 90 10 33 11 89 12
REMARK SMILES IDX 34 13 35 14 36 15 83 16 37 17 88 18 82 19 84 20 38 21 87 22
REMARK SMILES IDX 81 23 80 24 39 26 69 27 50 28 68 29 51 30 54 31 67 32 85 33
REMARK SMILES IDX 52 34 53 35 66 37 86 38 55 39 40 40 41 41 49 42 42 43 48 44
REMARK SMILES IDX 43 45 44 46 45 47 46 48 47 49 70 50 71 51 79 52 72 53 78 54
REMARK SMILES IDX 73 55 74 56 75 57 76 58 77 59 56 60 57 61 65 62 58 63 64 64
REMARK SMILES IDX 59 65 60 66 61 67 62 68 63 69 8 70 9 71 10 72 11 73 12 74
REMARK SMILES IDX 13 75 14 76 15 77 16 78 20 79 17 80 19 81 18 82 21 83 30 84
REMARK SMILES IDX 28 85 29 87 22 88 23 89 27 90 24 91 26 92 25 93
REMARK H PARENT 84 25 54 36 30 86
REMARK Flexibility Score: inf
ROOT
ATOM      1  C   UNL A   1      42.383  21.240  26.052  1.00  0.00     0.188 C 
ENDROOT
BRANCH   1   2
ATOM      2  O   UNL A   1      42.512  22.623  25.752  1.00  0.00    -0.376 OA
BRANCH   2   3
ATOM      3  C   UNL A   1      43.530  23.061  24.860  1.00  0.00     0.202 C 
BRANCH   3   4
ATOM      4  C   UNL A   1      44.103  24.476  24.995  1.00  0.00     0.261 C 
BRANCH   4   5
ATOM      5  O   UNL A   1      43.575  25.277  26.063  1.00  0.00    -0.460 OA
BRANCH   5   6
ATOM      6  C   UNL A   1      42.428  25.993  26.047  1.00  0.00     0.338 C 
ATOM      7  O   UNL A   1      41.757  26.096  25.026  1.00  0.00    -0.246 OA
BRANCH   6   8
ATOM      8  C   UNL A   1      41.942  26.625  27.280  1.00  0.00     0.060 A 
ATOM      9  C   UNL A   1      41.053  26.013  28.166  1.00  0.00     0.016 A 
ATOM     10  C   UNL A   1      42.542  27.818  27.636  1.00  0.00     0.016 A 
ATOM     11  C   UNL A   1      40.643  26.648  29.335  1.00  0.00     0.010 A 
ATOM     12  C   UNL A   1      42.247  28.365  28.878  1.00  0.00     0.010 A 
ATOM     13  C   UNL A   1      41.291  27.802  29.754  1.00  0.00    -0.014 A 
BRANCH  13  14
ATOM     14  C   UNL A   1      41.066  28.434  31.091  1.00  0.00     0.031 A 
ATOM     15  C   UNL A   1      39.923  29.403  31.210  1.00  0.00     0.074 A 
ATOM     16  C   UNL A   1      41.928  28.302  32.124  1.00  0.00     0.049 A 
ATOM     17  N   UNL A   1      39.786  30.425  32.005  1.00  0.00    -0.248 NA
ATOM     18  C   UNL A   1      38.859  29.271  30.198  1.00  0.00     0.031 C 
ATOM     19  C   UNL A   1      43.076  27.397  32.190  1.00  0.00     0.029 A 
ATOM     20  N   UNL A   1      41.992  28.978  33.324  1.00  0.00    -0.354 N 
ATOM     21  C   UNL A   1      38.696  31.123  31.505  1.00  0.00     0.074 A 
ATOM     22  C   UNL A   1      38.293  30.463  30.283  1.00  0.00     0.031 C 
ATOM     23  C   UNL A   1      43.712  27.561  33.359  1.00  0.00     0.029 A 
ATOM     24  C   UNL A   1      43.089  28.645  34.089  1.00  0.00     0.049 A 
ATOM     25  H   UNL A   1      41.317  29.636  33.607  1.00  0.00     0.167 HD
ATOM     26  C   UNL A   1      38.053  32.186  32.040  1.00  0.00     0.031 A 
ATOM     27  C   UNL A   1      43.578  29.170  35.229  1.00  0.00     0.031 A 
ATOM     28  C   UNL A   1      38.392  32.728  33.324  1.00  0.00     0.049 A 
ATOM     29  C   UNL A   1      42.831  30.307  35.854  1.00  0.00     0.074 A 
ATOM     30  C   UNL A   1      37.743  33.709  34.045  1.00  0.00     0.029 A 
ATOM     31  N   UNL A   1      39.458  32.289  34.100  1.00  0.00    -0.354 N 
ATOM     32  N   UNL A   1      41.794  30.955  35.382  1.00  0.00    -0.248 NA
ATOM     33  C   UNL A   1      43.289  30.763  37.171  1.00  0.00     0.031 C 
ATOM     34  C   UNL A   1      38.430  33.881  35.252  1.00  0.00     0.029 A 
ATOM     35  C   UNL A   1      39.475  32.968  35.302  1.00  0.00     0.049 A 
ATOM     36  H   UNL A   1      40.105  31.597  33.832  1.00  0.00     0.167 HD
ATOM     37  C   UNL A   1      41.437  31.861  36.368  1.00  0.00     0.074 A 
ATOM     38  C   UNL A   1      42.380  31.685  37.457  1.00  0.00     0.031 C 
ATOM     39  C   UNL A   1      40.408  32.742  36.378  1.00  0.00     0.031 A 
BRANCH  26  40
ATOM     40  C   UNL A   1      36.926  32.781  31.235  1.00  0.00    -0.014 A 
ATOM     41  C   UNL A   1      35.592  32.368  31.423  1.00  0.00     0.010 A 
ATOM     42  C   UNL A   1      37.211  33.712  30.220  1.00  0.00     0.010 A 
ATOM     43  C   UNL A   1      34.592  32.774  30.539  1.00  0.00     0.020 A 
ATOM     44  C   UNL A   1      36.200  34.163  29.365  1.00  0.00     0.020 A 
ATOM     45  C   UNL A   1      34.905  33.658  29.506  1.00  0.00     0.054 A 
BRANCH  45  46
ATOM     46  S   UNL A   1      33.596  34.130  28.345  1.00  0.00     0.124 S 
ATOM     47  O   UNL A   1      34.286  35.092  27.490  1.00  0.00    -0.237 OA
ATOM     48  O   UNL A   1      33.258  32.859  27.709  1.00  0.00    -0.237 OA
ATOM     49  O   UNL A   1      32.557  34.690  29.204  1.00  0.00    -0.744 OA
ENDBRANCH  45  46
ENDBRANCH  26  40
BRANCH  27  50
ATOM     50  C   UNL A   1      44.808  28.600  35.852  1.00  0.00    -0.014 A 
ATOM     51  C   UNL A   1      45.998  29.349  35.882  1.00  0.00     0.010 A 
ATOM     52  C   UNL A   1      44.784  27.336  36.471  1.00  0.00     0.010 A 
ATOM     53  C   UNL A   1      47.139  28.848  36.516  1.00  0.00     0.020 A 
ATOM     54  C   UNL A   1      45.918  26.840  37.128  1.00  0.00     0.020 A 
ATOM     55  C   UNL A   1      47.090  27.600  37.143  1.00  0.00     0.054 A 
BRANCH  55  56
ATOM     56  S   UNL A   1      48.563  27.014  38.032  1.00  0.00     0.124 S 
ATOM     57  O   UNL A   1      48.721  25.664  37.504  1.00  0.00    -0.237 OA
ATOM     58  O   UNL A   1      49.578  27.981  37.619  1.00  0.00    -0.237 OA
ATOM     59  O   UNL A   1      48.167  27.101  39.435  1.00  0.00    -0.744 OA
ENDBRANCH  55  56
ENDBRANCH  27  50
BRANCH  39  60
ATOM     60  C   UNL A   1      40.179  33.521  37.639  1.00  0.00    -0.014 A 
ATOM     61  C   UNL A   1      40.702  34.812  37.808  1.00  0.00     0.010 A 
ATOM     62  C   UNL A   1      39.311  32.986  38.609  1.00  0.00     0.010 A 
ATOM     63  C   UNL A   1      40.348  35.564  38.928  1.00  0.00     0.020 A 
ATOM     64  C   UNL A   1      38.933  33.745  39.714  1.00  0.00     0.020 A 
ATOM     65  C   UNL A   1      39.454  35.032  39.865  1.00  0.00     0.054 A 
BRANCH  65  66
ATOM     66  S   UNL A   1      38.914  36.077  41.244  1.00  0.00     0.124 S 
ATOM     67  O   UNL A   1      37.647  35.455  41.618  1.00  0.00    -0.237 OA
ATOM     68  O   UNL A   1      40.002  35.921  42.206  1.00  0.00    -0.237 OA
ATOM     69  O   UNL A   1      38.803  37.406  40.648  1.00  0.00    -0.744 OA
ENDBRANCH  65  66
ENDBRANCH  39  60
ENDBRANCH  13  14
ENDBRANCH   6   8
ENDBRANCH   5   6
ENDBRANCH   4   5
ENDBRANCH   3   4
ENDBRANCH   2   3
ENDBRANCH   1   2
BRANCH   1  70
ATOM     70  C   UNL A   1      40.923  20.814  26.232  1.00  0.00     0.188 C 
BRANCH  70  71
ATOM     71  O   UNL A   1      40.123  21.628  27.081  1.00  0.00    -0.376 OA
BRANCH  71  72
ATOM     72  C   UNL A   1      39.240  22.540  26.439  1.00  0.00     0.202 C 
BRANCH  72  73
ATOM     73  C   UNL A   1      38.081  21.984  25.587  1.00  0.00     0.261 C 
BRANCH  73  74
ATOM     74  O   UNL A   1      36.824  22.699  25.594  1.00  0.00    -0.460 OA
BRANCH  74  75
ATOM     75  C   UNL A   1      36.131  22.623  24.428  1.00  0.00     0.338 C 
ATOM     76  O   UNL A   1      36.608  22.683  23.304  1.00  0.00    -0.246 OA
BRANCH  75  77
ATOM     77  C   UNL A   1      34.663  22.617  24.630  1.00  0.00     0.060 A 
ATOM     78  C   UNL A   1      34.051  21.374  24.369  1.00  0.00     0.018 A 
ATOM     79  C   UNL A   1      33.961  23.658  25.290  1.00  0.00     0.022 A 
ATOM     80  C   UNL A   1      32.755  21.121  24.803  1.00  0.00     0.027 A 
ATOM     81  C   UNL A   1      32.649  23.403  25.708  1.00  0.00    -0.011 A 
ATOM     82  C   UNL A   1      32.103  22.133  25.478  1.00  0.00     0.045 A 
ATOM     83  C   UNL A   1      31.687  24.179  26.612  1.00  0.00     0.114 C 
ATOM     84  N   UNL A   1      30.884  22.001  26.110  1.00  0.00    -0.325 N 
ATOM     85  C   UNL A   1      30.573  23.120  26.850  1.00  0.00     0.232 C 
ATOM     86  H   UNL A   1      30.307  21.206  26.040  1.00  0.00     0.169 HD
ATOM     87  O   UNL A   1      29.596  23.216  27.586  1.00  0.00    -0.274 OA
BRANCH  83  88
ATOM     88  C   UNL A   1      31.094  25.533  26.132  1.00  0.00     0.010 C 
ATOM     89  C   UNL A   1      30.547  25.438  24.684  1.00  0.00     0.033 C 
ATOM     90  C   UNL A   1      32.086  26.704  26.212  1.00  0.00     0.033 C 
ATOM     91  C   UNL A   1      30.099  26.786  24.129  1.00  0.00     0.160 C 
ATOM     92  C   UNL A   1      31.535  27.966  25.554  1.00  0.00     0.160 C 
ATOM     93  O   UNL A   1      31.168  27.725  24.201  1.00  0.00    -0.381 OA
ENDBRANCH  83  88
ENDBRANCH  75  77
ENDBRANCH  74  75
ENDBRANCH  73  74
ENDBRANCH  72  73
ENDBRANCH  71  72
ENDBRANCH  70  71
ENDBRANCH   1  70
TORSDOF 21
ENDMDL
MODEL 2
REMARK VINA RESULT:     -10.3      1.762      8.083
REMARK SMILES O=C(OCCOCCOCCOC(=O)c1ccc2c(c1)[C@@H](C1CCOCC1)C(=O)N2)c1ccc(-c2c3nc(c(-c4ccc(S(=O)(=O)[O-])cc4)c4ccc([nH]4)c(-c4ccc(S(=O)(=O)[O-])cc4)c4nc(c(-c5ccc(S(=O)(=O)[O-])cc5)c5ccc2[nH]5)C=C4)C=C3)cc1
REMARK SMILES IDX 7 1 6 2 5 3 4 4 3 5 2 6 1 7 31 8 32 9 90 10 33 11 89 12
REMARK SMILES IDX 34 13 35 14 36 15 83 16 37 17 88 18 82 19 84 20 38 21 87 22
REMARK SMILES IDX 81 23 80 24 39 26 69 27 50 28 68 29 51 30 54 31 67 32 85 33
REMARK SMILES IDX 52 34 53 35 66 37 86 38 55 39 40 40 41 41 49 42 42 43 48 44
REMARK SMILES IDX 43 45 44 46 45 47 46 48 47 49 70 50 71 51 79 52 72 53 78 54
REMARK SMILES IDX 73 55 74 56 75 57 76 58 77 59 56 60 57 61 65 62 58 63 64 64
REMARK SMILES IDX 59 65 60 66 61 67 62 68 63 69 8 70 9 71 10 72 11 73 12 74
REMARK SMILES IDX 13 75 14 76 15 77 16 78 20 79 17 80 19 81 18 82 21 83 30 84
REMARK SMILES IDX 28 85 29 87 22 88 23 89 27 90 24 91 26 92 25 93
REMARK H PARENT 84 25 54 36 30 86
REMARK Flexibility Score: inf
ROOT
ATOM      1  C   UNL A   1      41.985  20.997  25.929  1.00  0.00     0.188 C 
ENDROOT
BRANCH   1   2
ATOM      2  O   UNL A   1      42.706  21.903  26.753  1.00  0.00    -0.376 OA
BRANCH   2   3
ATOM      3  C   UNL A   1      42.461  23.301  26.649  1.00  0.00     0.202 C 
BRANCH   3   4
ATOM      4  C   UNL A   1      41.456  23.969  27.593  1.00  0.00     0.261 C 
BRANCH   4   5
ATOM      5  O   UNL A   1      40.460  24.801  26.978  1.00  0.00    -0.460 OA
BRANCH   5   6
ATOM      6  C   UNL A   1      40.548  26.129  26.743  1.00  0.00     0.338 C 
ATOM      7  O   UNL A   1      40.751  26.563  25.614  1.00  0.00    -0.246 OA
BRANCH   6   8
ATOM      8  C   UNL A   1      40.351  27.082  27.842  1.00  0.00     0.060 A 
ATOM      9  C   UNL A   1      39.744  26.751  29.055  1.00  0.00     0.016 A 
ATOM     10  C   UNL A   1      40.956  28.316  27.701  1.00  0.00     0.016 A 
ATOM     11  C   UNL A   1      39.605  27.688  30.076  1.00  0.00     0.010 A 
ATOM     12  C   UNL A   1      40.951  29.187  28.783  1.00  0.00     0.010 A 
ATOM     13  C   UNL A   1      40.274  28.901  29.991  1.00  0.00    -0.014 A 
BRANCH  13  14
ATOM     14  C   UNL A   1      40.355  29.878  31.121  1.00  0.00     0.031 A 
ATOM     15  C   UNL A   1      41.475  29.700  32.106  1.00  0.00     0.074 A 
ATOM     16  C   UNL A   1      39.388  30.788  31.379  1.00  0.00     0.049 A 
ATOM     17  N   UNL A   1      41.524  30.018  33.369  1.00  0.00    -0.248 NA
ATOM     18  C   UNL A   1      42.641  28.936  31.625  1.00  0.00     0.031 C 
ATOM     19  C   UNL A   1      38.242  31.107  30.528  1.00  0.00     0.029 A 
ATOM     20  N   UNL A   1      39.195  31.595  32.480  1.00  0.00    -0.354 N 
ATOM     21  C   UNL A   1      42.659  29.382  33.853  1.00  0.00     0.074 A 
ATOM     22  C   UNL A   1      43.191  28.581  32.773  1.00  0.00     0.031 C 
ATOM     23  C   UNL A   1      37.486  32.041  31.121  1.00  0.00     0.029 A 
ATOM     24  C   UNL A   1      38.025  32.320  32.436  1.00  0.00     0.049 A 
ATOM     25  H   UNL A   1      39.834  31.647  33.227  1.00  0.00     0.167 HD
ATOM     26  C   UNL A   1      43.238  29.495  35.070  1.00  0.00     0.031 A 
ATOM     27  C   UNL A   1      37.416  33.094  33.355  1.00  0.00     0.031 A 
ATOM     28  C   UNL A   1      42.763  30.408  36.070  1.00  0.00     0.049 A 
ATOM     29  C   UNL A   1      38.089  33.270  34.681  1.00  0.00     0.074 A 
ATOM     30  C   UNL A   1      43.329  30.724  37.288  1.00  0.00     0.029 A 
ATOM     31  N   UNL A   1      41.623  31.190  35.935  1.00  0.00    -0.354 N 
ATOM     32  N   UNL A   1      39.168  32.675  35.128  1.00  0.00    -0.248 NA
ATOM     33  C   UNL A   1      37.492  34.235  35.610  1.00  0.00     0.031 C 
ATOM     34  C   UNL A   1      42.517  31.684  37.902  1.00  0.00     0.029 A 
ATOM     35  C   UNL A   1      41.476  32.002  37.041  1.00  0.00     0.049 A 
ATOM     36  H   UNL A   1      41.009  31.167  35.165  1.00  0.00     0.167 HD
ATOM     37  C   UNL A   1      39.416  33.235  36.372  1.00  0.00     0.074 A 
ATOM     38  C   UNL A   1      38.363  34.205  36.610  1.00  0.00     0.031 C 
ATOM     39  C   UNL A   1      40.435  32.983  37.228  1.00  0.00     0.031 A 
BRANCH  26  40
ATOM     40  C   UNL A   1      44.442  28.629  35.339  1.00  0.00    -0.014 A 
ATOM     41  C   UNL A   1      45.744  29.065  35.023  1.00  0.00     0.010 A 
ATOM     42  C   UNL A   1      44.266  27.329  35.844  1.00  0.00     0.010 A 
ATOM     43  C   UNL A   1      46.823  28.182  35.086  1.00  0.00     0.020 A 
ATOM     44  C   UNL A   1      45.354  26.458  35.960  1.00  0.00     0.020 A 
ATOM     45  C   UNL A   1      46.618  26.879  35.541  1.00  0.00     0.054 A 
BRANCH  45  46
ATOM     46  S   UNL A   1      48.029  25.741  35.567  1.00  0.00     0.124 S 
ATOM     47  O   UNL A   1      48.619  25.965  34.250  1.00  0.00    -0.237 OA
ATOM     48  O   UNL A   1      48.815  26.233  36.696  1.00  0.00    -0.237 OA
ATOM     49  O   UNL A   1      47.414  24.431  35.762  1.00  0.00    -0.744 OA
ENDBRANCH  45  46
ENDBRANCH  26  40
BRANCH  27  50
ATOM     50  C   UNL A   1      36.129  33.776  33.031  1.00  0.00    -0.014 A 
ATOM     51  C   UNL A   1      34.908  33.213  33.443  1.00  0.00     0.010 A 
ATOM     52  C   UNL A   1      36.116  35.015  32.364  1.00  0.00     0.010 A 
ATOM     53  C   UNL A   1      33.700  33.873  33.196  1.00  0.00     0.020 A 
ATOM     54  C   UNL A   1      34.910  35.691  32.135  1.00  0.00     0.020 A 
ATOM     55  C   UNL A   1      33.709  35.113  32.551  1.00  0.00     0.054 A 
BRANCH  55  56
ATOM     56  S   UNL A   1      32.132  35.986  32.321  1.00  0.00     0.124 S 
ATOM     57  O   UNL A   1      32.192  36.360  30.913  1.00  0.00    -0.237 OA
ATOM     58  O   UNL A   1      31.155  34.954  32.663  1.00  0.00    -0.237 OA
ATOM     59  O   UNL A   1      32.216  37.091  33.272  1.00  0.00    -0.744 OA
ENDBRANCH  55  56
ENDBRANCH  27  50
BRANCH  39  60
ATOM     60  C   UNL A   1      40.527  33.831  38.461  1.00  0.00    -0.014 A 
ATOM     61  C   UNL A   1      41.212  35.056  38.459  1.00  0.00     0.010 A 
ATOM     62  C   UNL A   1      39.796  33.442  39.598  1.00  0.00     0.010 A 
ATOM     63  C   UNL A   1      41.155  35.887  39.578  1.00  0.00     0.020 A 
ATOM     64  C   UNL A   1      39.713  34.282  40.707  1.00  0.00     0.020 A 
ATOM     65  C   UNL A   1      40.393  35.502  40.687  1.00  0.00     0.054 A 
BRANCH  65  66
ATOM     66  S   UNL A   1      40.233  36.655  42.076  1.00  0.00     0.124 S 
ATOM     67  O   UNL A   1      41.480  36.431  42.802  1.00  0.00    -0.237 OA
ATOM     68  O   UNL A   1      40.117  37.947  41.404  1.00  0.00    -0.237 OA
ATOM     69  O   UNL A   1      39.023  36.206  42.761  1.00  0.00    -0.744 OA
ENDBRANCH  65  66
ENDBRANCH  39  60
ENDBRANCH  13  14
ENDBRANCH   6   8
ENDBRANCH   5   6
ENDBRANCH   4   5
ENDBRANCH   3   4
ENDBRANCH   2   3
ENDBRANCH   1   2
BRANCH   1  70
ATOM     70  C   UNL A   1      40.814  20.341  26.666  1.00  0.00     0.188 C 
BRANCH  70  71
ATOM     71  O   UNL A   1      39.665  21.149  26.883  1.00  0.00    -0.376 OA
BRANCH  71  72
ATOM     72  C   UNL A   1      39.018  21.660  25.724  1.00  0.00     0.202 C 
BRANCH  72  73
ATOM     73  C   UNL A   1      37.633  22.323  25.873  1.00  0.00     0.261 C 
BRANCH  73  74
ATOM     74  O   UNL A   1      37.325  23.457  25.029  1.00  0.00    -0.460 OA
BRANCH  74  75
ATOM     75  C   UNL A   1      36.564  23.156  23.945  1.00  0.00     0.338 C 
ATOM     76  O   UNL A   1      36.943  22.571  22.941  1.00  0.00    -0.246 OA
BRANCH  75  77
ATOM     77  C   UNL A   1      35.211  23.758  24.007  1.00  0.00     0.060 A 
ATOM     78  C   UNL A   1      34.225  23.028  23.311  1.00  0.00     0.018 A 
ATOM     79  C   UNL A   1      34.859  24.801  24.900  1.00  0.00     0.022 A 
ATOM     80  C   UNL A   1      32.875  23.281  23.528  1.00  0.00     0.027 A 
ATOM     81  C   UNL A   1      33.499  25.065  25.099  1.00  0.00    -0.011 A 
ATOM     82  C   UNL A   1      32.554  24.274  24.431  1.00  0.00     0.045 A 
ATOM     83  C   UNL A   1      32.756  25.937  26.116  1.00  0.00     0.114 C 
ATOM     84  N   UNL A   1      31.278  24.549  24.880  1.00  0.00    -0.325 N 
ATOM     85  C   UNL A   1      31.289  25.466  25.907  1.00  0.00     0.232 C 
ATOM     86  H   UNL A   1      30.462  24.141  24.511  1.00  0.00     0.169 HD
ATOM     87  O   UNL A   1      30.298  25.801  26.548  1.00  0.00    -0.274 OA
BRANCH  83  88
ATOM     88  C   UNL A   1      32.875  27.485  26.043  1.00  0.00     0.010 C 
ATOM     89  C   UNL A   1      32.310  28.163  27.318  1.00  0.00     0.033 C 
ATOM     90  C   UNL A   1      32.194  28.099  24.810  1.00  0.00     0.033 C 
ATOM     91  C   UNL A   1      32.270  29.684  27.214  1.00  0.00     0.160 C 
ATOM     92  C   UNL A   1      32.161  29.623  24.875  1.00  0.00     0.160 C 
ATOM     93  O   UNL A   1      31.526  30.077  26.064  1.00  0.00    -0.381 OA
ENDBRANCH  83  88
ENDBRANCH  75  77
ENDBRANCH  74  75
ENDBRANCH  73  74
ENDBRANCH  72  73
ENDBRANCH  71  72
ENDBRANCH  70  71
ENDBRANCH   1  70
TORSDOF 21
ENDMDL
MODEL 3
REMARK VINA RESULT:     -10.1      5.768     10.770
REMARK SMILES O=C(OCCOCCOCCOC(=O)c1ccc2c(c1)[C@@H](C1CCOCC1)C(=O)N2)c1ccc(-c2c3nc(c(-c4ccc(S(=O)(=O)[O-])cc4)c4ccc([nH]4)c(-c4ccc(S(=O)(=O)[O-])cc4)c4nc(c(-c5ccc(S(=O)(=O)[O-])cc5)c5ccc2[nH]5)C=C4)C=C3)cc1
REMARK SMILES IDX 7 1 6 2 5 3 4 4 3 5 2 6 1 7 31 8 32 9 90 10 33 11 89 12
REMARK SMILES IDX 34 13 35 14 36 15 83 16 37 17 88 18 82 19 84 20 38 21 87 22
REMARK SMILES IDX 81 23 80 24 39 26 69 27 50 28 68 29 51 30 54 31 67 32 85 33
REMARK SMILES IDX 52 34 53 35 66 37 86 38 55 39 40 40 41 41 49 42 42 43 48 44
REMARK SMILES IDX 43 45 44 46 45 47 46 48 47 49 70 50 71 51 79 52 72 53 78 54
REMARK SMILES IDX 73 55 74 56 75 57 76 58 77 59 56 60 57 61 65 62 58 63 64 64
REMARK SMILES IDX 59 65 60 66 61 67 62 68 63 69 8 70 9 71 10 72 11 73 12 74
REMARK SMILES IDX 13 75 14 76 15 77 16 78 20 79 17 80 19 81 18 82 21 83 30 84
REMARK SMILES IDX 28 85 29 87 22 88 23 89 27 90 24 91 26 92 25 93
REMARK H PARENT 84 25 54 36 30 86
REMARK Flexibility Score: inf
ROOT
ATOM      1  C   UNL A   1      31.003  29.978  24.268  1.00  0.00     0.188 C 
ENDROOT
BRANCH   1   2
ATOM      2  O   UNL A   1      31.948  29.165  24.950  1.00  0.00    -0.376 OA
BRANCH   2   3
ATOM      3  C   UNL A   1      32.539  29.630  26.158  1.00  0.00     0.202 C 
BRANCH   3   4
ATOM      4  C   UNL A   1      33.052  28.621  27.191  1.00  0.00     0.261 C 
BRANCH   4   5
ATOM      5  O   UNL A   1      33.838  29.154  28.267  1.00  0.00    -0.460 OA
BRANCH   5   6
ATOM      6  C   UNL A   1      34.713  30.183  28.198  1.00  0.00     0.338 C 
ATOM      7  O   UNL A   1      34.337  31.321  27.937  1.00  0.00    -0.246 OA
BRANCH   6   8
ATOM      8  C   UNL A   1      36.134  29.956  28.486  1.00  0.00     0.060 A 
ATOM      9  C   UNL A   1      36.607  29.430  29.690  1.00  0.00     0.016 A 
ATOM     10  C   UNL A   1      37.009  30.126  27.430  1.00  0.00     0.016 A 
ATOM     11  C   UNL A   1      37.965  29.211  29.901  1.00  0.00     0.010 A 
ATOM     12  C   UNL A   1      38.337  29.754  27.599  1.00  0.00     0.010 A 
ATOM     13  C   UNL A   1      38.849  29.294  28.834  1.00  0.00    -0.014 A 
BRANCH  13  14
ATOM     14  C   UNL A   1      40.283  28.875  28.917  1.00  0.00     0.031 A 
ATOM     15  C   UNL A   1      41.302  29.954  29.153  1.00  0.00     0.074 A 
ATOM     16  C   UNL A   1      40.703  27.623  28.627  1.00  0.00     0.049 A 
ATOM     17  N   UNL A   1      42.552  30.004  28.789  1.00  0.00    -0.248 NA
ATOM     18  C   UNL A   1      40.796  31.197  29.764  1.00  0.00     0.031 C 
ATOM     19  C   UNL A   1      39.857  26.453  28.391  1.00  0.00     0.029 A 
ATOM     20  N   UNL A   1      41.977  27.132  28.438  1.00  0.00    -0.354 N 
ATOM     21  C   UNL A   1      42.936  31.319  29.010  1.00  0.00     0.074 A 
ATOM     22  C   UNL A   1      41.756  32.042  29.429  1.00  0.00     0.031 C 
ATOM     23  C   UNL A   1      40.625  25.391  28.108  1.00  0.00     0.029 A 
ATOM     24  C   UNL A   1      42.009  25.813  28.042  1.00  0.00     0.049 A 
ATOM     25  H   UNL A   1      42.788  27.674  28.574  1.00  0.00     0.167 HD
ATOM     26  C   UNL A   1      44.170  31.867  28.924  1.00  0.00     0.031 A 
ATOM     27  C   UNL A   1      43.021  25.027  27.627  1.00  0.00     0.031 A 
ATOM     28  C   UNL A   1      45.342  31.090  28.643  1.00  0.00     0.049 A 
ATOM     29  C   UNL A   1      44.397  25.615  27.591  1.00  0.00     0.074 A 
ATOM     30  C   UNL A   1      46.664  31.486  28.659  1.00  0.00     0.029 A 
ATOM     31  N   UNL A   1      45.326  29.734  28.340  1.00  0.00    -0.354 N 
ATOM     32  N   UNL A   1      44.755  26.856  27.812  1.00  0.00    -0.248 NA
ATOM     33  C   UNL A   1      45.505  24.704  27.286  1.00  0.00     0.031 C 
ATOM     34  C   UNL A   1      47.449  30.371  28.343  1.00  0.00     0.029 A 
ATOM     35  C   UNL A   1      46.617  29.271  28.183  1.00  0.00     0.049 A 
ATOM     36  H   UNL A   1      44.514  29.184  28.248  1.00  0.00     0.167 HD
ATOM     37  C   UNL A   1      46.139  26.868  27.730  1.00  0.00     0.074 A 
ATOM     38  C   UNL A   1      46.550  25.511  27.423  1.00  0.00     0.031 C 
ATOM     39  C   UNL A   1      46.991  27.905  27.913  1.00  0.00     0.031 A 
BRANCH  26  40
ATOM     40  C   UNL A   1      44.279  33.351  29.164  1.00  0.00    -0.014 A 
ATOM     41  C   UNL A   1      44.492  33.871  30.456  1.00  0.00     0.010 A 
ATOM     42  C   UNL A   1      44.088  34.245  28.095  1.00  0.00     0.010 A 
ATOM     43  C   UNL A   1      44.388  35.242  30.695  1.00  0.00     0.020 A 
ATOM     44  C   UNL A   1      44.037  35.624  28.323  1.00  0.00     0.020 A 
ATOM     45  C   UNL A   1      44.146  36.109  29.628  1.00  0.00     0.054 A 
BRANCH  45  46
ATOM     46  S   UNL A   1      43.969  37.879  29.976  1.00  0.00     0.124 S 
ATOM     47  O   UNL A   1      45.243  38.407  29.496  1.00  0.00    -0.237 OA
ATOM     48  O   UNL A   1      42.800  38.246  29.181  1.00  0.00    -0.237 OA
ATOM     49  O   UNL A   1      43.777  37.930  31.423  1.00  0.00    -0.744 OA
ENDBRANCH  45  46
ENDBRANCH  26  40
BRANCH  27  50
ATOM     50  C   UNL A   1      42.764  23.606  27.252  1.00  0.00    -0.014 A 
ATOM     51  C   UNL A   1      42.573  23.254  25.904  1.00  0.00     0.010 A 
ATOM     52  C   UNL A   1      42.768  22.589  28.226  1.00  0.00     0.010 A 
ATOM     53  C   UNL A   1      42.391  21.917  25.536  1.00  0.00     0.020 A 
ATOM     54  C   UNL A   1      42.609  21.247  27.859  1.00  0.00     0.020 A 
ATOM     55  C   UNL A   1      42.418  20.920  26.515  1.00  0.00     0.054 A 
BRANCH  55  56
ATOM     56  S   UNL A   1      42.264  19.186  25.996  1.00  0.00     0.124 S 
ATOM     57  O   UNL A   1      43.205  19.115  24.884  1.00  0.00    -0.237 OA
ATOM     58  O   UNL A   1      42.654  18.465  27.206  1.00  0.00    -0.237 OA
ATOM     59  O   UNL A   1      40.853  19.065  25.636  1.00  0.00    -0.744 OA
ENDBRANCH  55  56
ENDBRANCH  27  50
BRANCH  39  60
ATOM     60  C   UNL A   1      48.460  27.604  27.886  1.00  0.00    -0.014 A 
ATOM     61  C   UNL A   1      49.081  26.888  28.921  1.00  0.00     0.010 A 
ATOM     62  C   UNL A   1      49.191  27.940  26.732  1.00  0.00     0.010 A 
ATOM     63  C   UNL A   1      50.415  26.500  28.795  1.00  0.00     0.020 A 
ATOM     64  C   UNL A   1      50.515  27.529  26.590  1.00  0.00     0.020 A 
ATOM     65  C   UNL A   1      51.118  26.809  27.624  1.00  0.00     0.054 A 
BRANCH  65  66
ATOM     66  S   UNL A   1      52.808  26.185  27.433  1.00  0.00     0.124 S 
ATOM     67  O   UNL A   1      53.427  27.228  26.620  1.00  0.00    -0.237 OA
ATOM     68  O   UNL A   1      53.274  26.102  28.815  1.00  0.00    -0.237 OA
ATOM     69  O   UNL A   1      52.629  24.899  26.764  1.00  0.00    -0.744 OA
ENDBRANCH  65  66
ENDBRANCH  39  60
ENDBRANCH  13  14
ENDBRANCH   6   8
ENDBRANCH   5   6
ENDBRANCH   4   5
ENDBRANCH   3   4
ENDBRANCH   2   3
ENDBRANCH   1   2
BRANCH   1  70
ATOM     70  C   UNL A   1      29.955  29.152  23.517  1.00  0.00     0.188 C 
BRANCH  70  71
ATOM     71  O   UNL A   1      30.308  28.710  22.213  1.00  0.00    -0.376 OA
BRANCH  71  72
ATOM     72  C   UNL A   1      31.261  27.656  22.135  1.00  0.00     0.202 C 
BRANCH  72  73
ATOM     73  C   UNL A   1      31.063  26.402  23.012  1.00  0.00     0.261 C 
BRANCH  73  74
ATOM     74  O   UNL A   1      31.825  26.296  24.235  1.00  0.00    -0.460 OA
BRANCH  74  75
ATOM     75  C   UNL A   1      31.163  25.694  25.256  1.00  0.00     0.338 C 
ATOM     76  O   UNL A   1      30.287  26.200  25.943  1.00  0.00    -0.246 OA
BRANCH  75  77
ATOM     77  C   UNL A   1      31.716  24.361  25.595  1.00  0.00     0.060 A 
ATOM     78  C   UNL A   1      30.742  23.413  25.972  1.00  0.00     0.018 A 
ATOM     79  C   UNL A   1      33.048  23.970  25.305  1.00  0.00     0.022 A 
ATOM     80  C   UNL A   1      31.056  22.059  26.016  1.00  0.00     0.027 A 
ATOM     81  C   UNL A   1      33.362  22.608  25.369  1.00  0.00    -0.011 A 
ATOM     82  C   UNL A   1      32.347  21.697  25.691  1.00  0.00     0.045 A 
ATOM     83  C   UNL A   1      34.594  21.812  24.927  1.00  0.00     0.114 C 
ATOM     84  N   UNL A   1      32.785  20.398  25.532  1.00  0.00    -0.325 N 
ATOM     85  C   UNL A   1      34.068  20.353  25.032  1.00  0.00     0.232 C 
ATOM     86  H   UNL A   1      32.248  19.602  25.749  1.00  0.00     0.169 HD
ATOM     87  O   UNL A   1      34.649  19.324  24.704  1.00  0.00    -0.274 OA
BRANCH  83  88
ATOM     88  C   UNL A   1      35.942  21.989  25.679  1.00  0.00     0.010 C 
ATOM     89  C   UNL A   1      36.288  23.485  25.892  1.00  0.00     0.033 C 
ATOM     90  C   UNL A   1      37.129  21.297  24.990  1.00  0.00     0.033 C 
ATOM     91  C   UNL A   1      37.676  23.695  26.489  1.00  0.00     0.160 C 
ATOM     92  C   UNL A   1      38.459  21.655  25.647  1.00  0.00     0.160 C 
ATOM     93  O   UNL A   1      38.660  23.063  25.676  1.00  0.00    -0.381 OA
ENDBRANCH  83  88
ENDBRANCH  75  77
ENDBRANCH  74  75
ENDBRANCH  73  74
ENDBRANCH  72  73
ENDBRANCH  71  72
ENDBRANCH  70  71
ENDBRANCH   1  70
TORSDOF 21
ENDMDL
