MODEL 1
REMARK VINA RESULT:     -11.5      0.000      0.000
REMARK SMILES O=C(OCCOCCOCCOC(=O)c1ccc([C@@H]2CC(O)=Nc3c2ncn3-c2cccc(Cl)c2)cc1)c1ccc(-c2c3nc(c(-c4ccc(S(=O)(=O)[O-])cc4)c4ccc([nH]4)c(-c4ccc(S(=O)(=O)[O-])cc4)c4nc(c(-c5ccc(S(=O)(=O)[O-])cc5)c5ccc2[nH]5)C=C4)C=C3)cc1
REMARK SMILES IDX 7 1 6 2 5 3 4 4 3 5 2 6 1 7 38 8 39 9 97 10 40 11 96 12
REMARK SMILES IDX 41 13 42 14 43 15 90 16 44 17 95 18 89 19 91 20 45 21 94 22
REMARK SMILES IDX 88 23 87 24 46 26 76 27 57 28 75 29 58 30 61 31 74 32 92 33
REMARK SMILES IDX 59 34 60 35 73 37 93 38 62 39 47 40 48 41 56 42 49 43 55 44
REMARK SMILES IDX 50 45 51 46 52 47 53 48 54 49 77 50 78 51 86 52 79 53 85 54
REMARK SMILES IDX 80 55 81 56 82 57 83 58 84 59 63 60 64 61 72 62 65 63 71 64
REMARK SMILES IDX 66 65 67 66 68 67 69 68 70 69 8 70 9 71 10 72 11 73 12 74
REMARK SMILES IDX 13 75 14 76 15 77 16 78 37 79 17 80 36 81 18 82 19 83 20 84
REMARK SMILES IDX 25 85 21 86 24 87 26 88 23 89 28 90 27 91 22 92 29 94 30 95
REMARK SMILES IDX 35 96 31 97 33 98 32 99 34 100
REMARK H PARENT 91 25 61 36 22 93
REMARK Flexibility Score: inf
ROOT
ATOM      1  C   UNL A   1      43.038  22.872  28.325  1.00  0.00     0.188 C 
ENDROOT
BRANCH   1   2
ATOM      2  O   UNL A   1      43.001  22.076  27.159  1.00  0.00    -0.376 OA
BRANCH   2   3
ATOM      3  C   UNL A   1      43.829  22.395  26.058  1.00  0.00     0.202 C 
BRANCH   3   4
ATOM      4  C   UNL A   1      43.271  23.176  24.861  1.00  0.00     0.261 C 
BRANCH   4   5
ATOM      5  O   UNL A   1      44.085  24.238  24.354  1.00  0.00    -0.460 OA
BRANCH   5   6
ATOM      6  C   UNL A   1      44.554  25.361  24.930  1.00  0.00     0.338 C 
ATOM      7  O   UNL A   1      45.762  25.586  24.864  1.00  0.00    -0.246 OA
BRANCH   6   8
ATOM      8  C   UNL A   1      43.737  26.265  25.787  1.00  0.00     0.060 A 
ATOM      9  C   UNL A   1      42.692  27.085  25.363  1.00  0.00     0.016 A 
ATOM     10  C   UNL A   1      44.131  26.313  27.141  1.00  0.00     0.016 A 
ATOM     11  C   UNL A   1      42.184  28.055  26.219  1.00  0.00     0.010 A 
ATOM     12  C   UNL A   1      43.612  27.263  28.004  1.00  0.00     0.010 A 
ATOM     13  C   UNL A   1      42.708  28.191  27.508  1.00  0.00    -0.014 A 
BRANCH  13  14
ATOM     14  C   UNL A   1      42.311  29.355  28.284  1.00  0.00     0.031 A 
ATOM     15  C   UNL A   1      43.307  30.456  28.351  1.00  0.00     0.074 A 
ATOM     16  C   UNL A   1      41.102  29.437  28.877  1.00  0.00     0.049 A 
ATOM     17  N   UNL A   1      43.957  30.876  29.385  1.00  0.00    -0.248 NA
ATOM     18  C   UNL A   1      43.713  31.086  27.088  1.00  0.00     0.031 C 
ATOM     19  C   UNL A   1      39.941  28.558  28.698  1.00  0.00     0.029 A 
ATOM     20  N   UNL A   1      40.623  30.405  29.703  1.00  0.00    -0.354 N 
ATOM     21  C   UNL A   1      44.718  31.957  28.948  1.00  0.00     0.074 A 
ATOM     22  C   UNL A   1      44.636  31.951  27.508  1.00  0.00     0.031 C 
ATOM     23  C   UNL A   1      38.839  29.169  29.189  1.00  0.00     0.029 A 
ATOM     24  C   UNL A   1      39.242  30.396  29.851  1.00  0.00     0.049 A 
ATOM     25  H   UNL A   1      41.204  31.058  30.157  1.00  0.00     0.167 HD
ATOM     26  C   UNL A   1      45.195  32.901  29.806  1.00  0.00     0.031 A 
ATOM     27  C   UNL A   1      38.480  31.365  30.419  1.00  0.00     0.031 A 
ATOM     28  C   UNL A   1      45.162  32.456  31.172  1.00  0.00     0.049 A 
ATOM     29  C   UNL A   1      39.371  32.160  31.299  1.00  0.00     0.074 A 
ATOM     30  C   UNL A   1      45.766  31.435  31.877  1.00  0.00     0.029 A 
ATOM     31  N   UNL A   1      44.116  32.890  31.953  1.00  0.00    -0.354 N 
ATOM     32  N   UNL A   1      39.935  31.679  32.372  1.00  0.00    -0.248 NA
ATOM     33  C   UNL A   1      40.002  33.348  30.744  1.00  0.00     0.031 C 
ATOM     34  C   UNL A   1      44.775  30.990  32.798  1.00  0.00     0.029 A 
ATOM     35  C   UNL A   1      43.649  31.803  32.646  1.00  0.00     0.049 A 
ATOM     36  H   UNL A   1      43.768  33.809  32.004  1.00  0.00     0.167 HD
ATOM     37  C   UNL A   1      41.209  32.228  32.384  1.00  0.00     0.074 A 
ATOM     38  C   UNL A   1      41.160  33.317  31.409  1.00  0.00     0.031 C 
ATOM     39  C   UNL A   1      42.257  31.585  32.978  1.00  0.00     0.031 A 
BRANCH  26  40
ATOM     40  C   UNL A   1      45.332  34.361  29.449  1.00  0.00    -0.014 A 
ATOM     41  C   UNL A   1      44.289  35.249  29.786  1.00  0.00     0.010 A 
ATOM     42  C   UNL A   1      46.304  34.831  28.541  1.00  0.00     0.010 A 
ATOM     43  C   UNL A   1      44.180  36.507  29.179  1.00  0.00     0.020 A 
ATOM     44  C   UNL A   1      46.227  36.099  27.963  1.00  0.00     0.020 A 
ATOM     45  C   UNL A   1      45.143  36.914  28.255  1.00  0.00     0.054 A 
BRANCH  45  46
ATOM     46  S   UNL A   1      44.921  38.480  27.376  1.00  0.00     0.124 S 
ATOM     47  O   UNL A   1      46.076  38.489  26.484  1.00  0.00    -0.237 OA
ATOM     48  O   UNL A   1      43.623  38.292  26.734  1.00  0.00    -0.237 OA
ATOM     49  O   UNL A   1      44.945  39.477  28.445  1.00  0.00    -0.744 OA
ENDBRANCH  45  46
ENDBRANCH  26  40
BRANCH  27  50
ATOM     50  C   UNL A   1      37.161  31.853  29.940  1.00  0.00    -0.014 A 
ATOM     51  C   UNL A   1      36.082  32.042  30.822  1.00  0.00     0.010 A 
ATOM     52  C   UNL A   1      37.046  32.397  28.642  1.00  0.00     0.010 A 
ATOM     53  C   UNL A   1      34.957  32.794  30.439  1.00  0.00     0.020 A 
ATOM     54  C   UNL A   1      35.927  33.141  28.251  1.00  0.00     0.020 A 
ATOM     55  C   UNL A   1      34.895  33.356  29.160  1.00  0.00     0.054 A 
BRANCH  55  56
ATOM     56  S   UNL A   1      33.522  34.468  28.729  1.00  0.00     0.124 S 
ATOM     57  O   UNL A   1      32.888  34.695  30.024  1.00  0.00    -0.237 OA
ATOM     58  O   UNL A   1      34.214  35.618  28.154  1.00  0.00    -0.237 OA
ATOM     59  O   UNL A   1      32.731  33.687  27.779  1.00  0.00    -0.744 OA
ENDBRANCH  55  56
ENDBRANCH  27  50
BRANCH  39  60
ATOM     60  C   UNL A   1      41.972  30.391  33.861  1.00  0.00    -0.014 A 
ATOM     61  C   UNL A   1      41.739  29.094  33.364  1.00  0.00     0.010 A 
ATOM     62  C   UNL A   1      42.148  30.559  35.246  1.00  0.00     0.010 A 
ATOM     63  C   UNL A   1      41.684  27.994  34.235  1.00  0.00     0.020 A 
ATOM     64  C   UNL A   1      42.110  29.466  36.115  1.00  0.00     0.020 A 
ATOM     65  C   UNL A   1      41.877  28.188  35.607  1.00  0.00     0.054 A 
BRANCH  65  66
ATOM     66  S   UNL A   1      41.901  26.754  36.721  1.00  0.00     0.124 S 
ATOM     67  O   UNL A   1      43.072  27.015  37.552  1.00  0.00    -0.237 OA
ATOM     68  O   UNL A   1      40.610  26.851  37.402  1.00  0.00    -0.237 OA
ATOM     69  O   UNL A   1      42.027  25.612  35.816  1.00  0.00    -0.744 OA
ENDBRANCH  65  66
ENDBRANCH  39  60
ENDBRANCH  13  14
ENDBRANCH   6   8
ENDBRANCH   5   6
ENDBRANCH   4   5
ENDBRANCH   3   4
ENDBRANCH   2   3
ENDBRANCH   1   2
BRANCH   1  70
ATOM     70  C   UNL A   1      41.756  23.709  28.551  1.00  0.00     0.188 C 
BRANCH  70  71
ATOM     71  O   UNL A   1      41.298  24.662  27.596  1.00  0.00    -0.376 OA
BRANCH  71  72
ATOM     72  C   UNL A   1      40.045  24.488  26.961  1.00  0.00     0.202 C 
BRANCH  72  73
ATOM     73  C   UNL A   1      39.491  23.065  26.805  1.00  0.00     0.261 C 
BRANCH  73  74
ATOM     74  O   UNL A   1      38.178  22.955  26.231  1.00  0.00    -0.460 OA
BRANCH  74  75
ATOM     75  C   UNL A   1      37.956  21.851  25.478  1.00  0.00     0.338 C 
ATOM     76  O   UNL A   1      38.614  20.828  25.446  1.00  0.00    -0.246 OA
BRANCH  75  77
ATOM     77  C   UNL A   1      36.714  22.013  24.697  1.00  0.00     0.060 A 
ATOM     78  C   UNL A   1      36.671  22.976  23.684  1.00  0.00     0.016 A 
ATOM     79  C   UNL A   1      35.564  21.305  25.043  1.00  0.00     0.016 A 
ATOM     80  C   UNL A   1      35.475  23.238  23.019  1.00  0.00     0.005 A 
ATOM     81  C   UNL A   1      34.355  21.601  24.403  1.00  0.00     0.005 A 
ATOM     82  C   UNL A   1      34.292  22.584  23.394  1.00  0.00    -0.038 A 
BRANCH  82  83
ATOM     83  C   UNL A   1      32.983  23.057  22.783  1.00  0.00     0.081 C 
ATOM     84  C   UNL A   1      33.178  23.488  21.313  1.00  0.00     0.111 C 
ATOM     85  C   UNL A   1      32.458  24.161  23.617  1.00  0.00     0.093 A 
ATOM     86  C   UNL A   1      32.799  24.925  21.001  1.00  0.00     0.188 C 
ATOM     87  C   UNL A   1      32.113  25.375  23.068  1.00  0.00     0.164 A 
ATOM     88  N   UNL A   1      32.256  24.133  24.968  1.00  0.00    -0.238 NA
ATOM     89  N   UNL A   1      32.277  25.805  21.793  1.00  0.00    -0.198 NA
ATOM     90  N   UNL A   1      31.665  26.136  24.132  1.00  0.00    -0.283 N 
ATOM     91  C   UNL A   1      31.813  25.341  25.253  1.00  0.00     0.206 A 
BRANCH  86  92
ATOM     92  O   UNL A   1      33.052  25.283  19.724  1.00  0.00    -0.496 OA
ATOM     93  H   UNL A   1      32.464  25.857  19.274  1.00  0.00     0.294 HD
ENDBRANCH  86  92
BRANCH  90  94
ATOM     94  C   UNL A   1      31.157  27.456  24.103  1.00  0.00     0.050 A 
ATOM     95  C   UNL A   1      31.747  28.449  24.893  1.00  0.00     0.027 A 
ATOM     96  C   UNL A   1      30.050  27.757  23.298  1.00  0.00     0.047 A 
ATOM     97  C   UNL A   1      31.244  29.750  24.856  1.00  0.00     0.004 A 
ATOM     98  C   UNL A   1      29.529  29.047  23.307  1.00  0.00     0.043 A 
ATOM     99  C   UNL A   1      30.127  30.048  24.073  1.00  0.00     0.020 A 
ATOM    100  Cl  UNL A   1      28.127  29.411  22.377  1.00  0.00    -0.084 Cl
ENDBRANCH  90  94
ENDBRANCH  82  83
ENDBRANCH  75  77
ENDBRANCH  74  75
ENDBRANCH  73  74
ENDBRANCH  72  73
ENDBRANCH  71  72
ENDBRANCH  70  71
ENDBRANCH   1  70
TORSDOF 23
ENDMDL
MODEL 2
REMARK VINA RESULT:     -11.4      2.488      3.370
REMARK SMILES O=C(OCCOCCOCCOC(=O)c1ccc([C@@H]2CC(O)=Nc3c2ncn3-c2cccc(Cl)c2)cc1)c1ccc(-c2c3nc(c(-c4ccc(S(=O)(=O)[O-])cc4)c4ccc([nH]4)c(-c4ccc(S(=O)(=O)[O-])cc4)c4nc(c(-c5ccc(S(=O)(=O)[O-])cc5)c5ccc2[nH]5)C=C4)C=C3)cc1
REMARK SMILES IDX 7 1 6 2 5 3 4 4 3 5 2 6 1 7 38 8 39 9 97 10 40 11 96 12
REMARK SMILES IDX 41 13 42 14 43 15 90 16 44 17 95 18 89 19 91 20 45 21 94 22
REMARK SMILES IDX 88 23 87 24 46 26 76 27 57 28 75 29 58 30 61 31 74 32 92 33
REMARK SMILES IDX 59 34 60 35 73 37 93 38 62 39 47 40 48 41 56 42 49 43 55 44
REMARK SMILES IDX 50 45 51 46 52 47 53 48 54 49 77 50 78 51 86 52 79 53 85 54
REMARK SMILES IDX 80 55 81 56 82 57 83 58 84 59 63 60 64 61 72 62 65 63 71 64
REMARK SMILES IDX 66 65 67 66 68 67 69 68 70 69 8 70 9 71 10 72 11 73 12 74
REMARK SMILES IDX 13 75 14 76 15 77 16 78 37 79 17 80 36 81 18 82 19 83 20 84
REMARK SMILES IDX 25 85 21 86 24 87 26 88 23 89 28 90 27 91 22 92 29 94 30 95
REMARK SMILES IDX 35 96 31 97 33 98 32 99 34 100
REMARK H PARENT 91 25 61 36 22 93
REMARK Flexibility Score: inf
ROOT
ATOM      1  C   UNL A   1      42.824  18.683  26.390  1.00  0.00     0.188 C 
ENDROOT
BRANCH   1   2
ATOM      2  O   UNL A   1      43.411  18.872  25.120  1.00  0.00    -0.376 OA
BRANCH   2   3
ATOM      3  C   UNL A   1      44.760  18.509  24.903  1.00  0.00     0.202 C 
BRANCH   3   4
ATOM      4  C   UNL A   1      45.900  19.386  25.438  1.00  0.00     0.261 C 
BRANCH   4   5
ATOM      5  O   UNL A   1      46.109  20.637  24.778  1.00  0.00    -0.460 OA
BRANCH   5   6
ATOM      6  C   UNL A   1      45.270  21.649  24.487  1.00  0.00     0.338 C 
ATOM      7  O   UNL A   1      44.529  21.526  23.511  1.00  0.00    -0.246 OA
BRANCH   6   8
ATOM      8  C   UNL A   1      45.292  22.975  25.164  1.00  0.00     0.060 A 
ATOM      9  C   UNL A   1      46.027  23.311  26.301  1.00  0.00     0.016 A 
ATOM     10  C   UNL A   1      44.425  23.939  24.607  1.00  0.00     0.016 A 
ATOM     11  C   UNL A   1      45.763  24.503  26.966  1.00  0.00     0.010 A 
ATOM     12  C   UNL A   1      44.177  25.138  25.254  1.00  0.00     0.010 A 
ATOM     13  C   UNL A   1      44.780  25.368  26.482  1.00  0.00    -0.014 A 
BRANCH  13  14
ATOM     14  C   UNL A   1      44.380  26.484  27.326  1.00  0.00     0.031 A 
ATOM     15  C   UNL A   1      45.321  27.633  27.364  1.00  0.00     0.074 A 
ATOM     16  C   UNL A   1      43.214  26.482  28.004  1.00  0.00     0.049 A 
ATOM     17  N   UNL A   1      46.021  28.053  28.365  1.00  0.00    -0.248 NA
ATOM     18  C   UNL A   1      45.603  28.325  26.100  1.00  0.00     0.031 C 
ATOM     19  C   UNL A   1      42.089  25.549  27.873  1.00  0.00     0.029 A 
ATOM     20  N   UNL A   1      42.746  27.396  28.896  1.00  0.00    -0.354 N 
ATOM     21  C   UNL A   1      46.693  29.187  27.916  1.00  0.00     0.074 A 
ATOM     22  C   UNL A   1      46.509  29.225  26.486  1.00  0.00     0.031 C 
ATOM     23  C   UNL A   1      40.995  26.083  28.462  1.00  0.00     0.029 A 
ATOM     24  C   UNL A   1      41.381  27.308  29.139  1.00  0.00     0.049 A 
ATOM     25  H   UNL A   1      43.324  28.063  29.332  1.00  0.00     0.167 HD
ATOM     26  C   UNL A   1      47.181  30.127  28.773  1.00  0.00     0.031 A 
ATOM     27  C   UNL A   1      40.613  28.215  29.793  1.00  0.00     0.031 A 
ATOM     28  C   UNL A   1      47.267  29.636  30.121  1.00  0.00     0.049 A 
ATOM     29  C   UNL A   1      41.523  29.028  30.637  1.00  0.00     0.074 A 
ATOM     30  C   UNL A   1      47.971  28.626  30.745  1.00  0.00     0.029 A 
ATOM     31  N   UNL A   1      46.259  29.988  30.987  1.00  0.00    -0.354 N 
ATOM     32  N   UNL A   1      42.185  28.543  31.651  1.00  0.00    -0.248 NA
ATOM     33  C   UNL A   1      42.051  30.265  30.083  1.00  0.00     0.031 C 
ATOM     34  C   UNL A   1      47.072  28.099  31.716  1.00  0.00     0.029 A 
ATOM     35  C   UNL A   1      45.898  28.856  31.671  1.00  0.00     0.049 A 
ATOM     36  H   UNL A   1      45.869  30.885  31.097  1.00  0.00     0.167 HD
ATOM     37  C   UNL A   1      43.427  29.159  31.595  1.00  0.00     0.074 A 
ATOM     38  C   UNL A   1      43.254  30.275  30.665  1.00  0.00     0.031 C 
ATOM     39  C   UNL A   1      44.546  28.553  32.091  1.00  0.00     0.031 A 
BRANCH  26  40
ATOM     40  C   UNL A   1      47.217  31.603  28.460  1.00  0.00    -0.014 A 
ATOM     41  C   UNL A   1      46.028  32.355  28.565  1.00  0.00     0.010 A 
ATOM     42  C   UNL A   1      48.300  32.209  27.790  1.00  0.00     0.010 A 
ATOM     43  C   UNL A   1      45.905  33.610  27.954  1.00  0.00     0.020 A 
ATOM     44  C   UNL A   1      48.201  33.477  27.215  1.00  0.00     0.020 A 
ATOM     45  C   UNL A   1      46.990  34.152  27.266  1.00  0.00     0.054 A 
BRANCH  45  46
ATOM     46  S   UNL A   1      46.780  35.708  26.366  1.00  0.00     0.124 S 
ATOM     47  O   UNL A   1      48.133  35.957  25.878  1.00  0.00    -0.237 OA
ATOM     48  O   UNL A   1      45.794  35.346  25.351  1.00  0.00    -0.237 OA
ATOM     49  O   UNL A   1      46.302  36.633  27.392  1.00  0.00    -0.744 OA
ENDBRANCH  45  46
ENDBRANCH  26  40
BRANCH  27  50
ATOM     50  C   UNL A   1      39.241  28.648  29.424  1.00  0.00    -0.014 A 
ATOM     51  C   UNL A   1      38.221  28.759  30.387  1.00  0.00     0.010 A 
ATOM     52  C   UNL A   1      39.004  29.219  28.155  1.00  0.00     0.010 A 
ATOM     53  C   UNL A   1      37.035  29.462  30.108  1.00  0.00     0.020 A 
ATOM     54  C   UNL A   1      37.824  29.916  27.867  1.00  0.00     0.020 A 
ATOM     55  C   UNL A   1      36.853  30.054  28.854  1.00  0.00     0.054 A 
BRANCH  55  56
ATOM     56  S   UNL A   1      35.399  31.105  28.556  1.00  0.00     0.124 S 
ATOM     57  O   UNL A   1      35.922  32.101  27.626  1.00  0.00    -0.237 OA
ATOM     58  O   UNL A   1      34.435  30.163  27.996  1.00  0.00    -0.237 OA
ATOM     59  O   UNL A   1      35.063  31.614  29.885  1.00  0.00    -0.744 OA
ENDBRANCH  55  56
ENDBRANCH  27  50
BRANCH  39  60
ATOM     60  C   UNL A   1      44.386  27.318  32.947  1.00  0.00    -0.014 A 
ATOM     61  C   UNL A   1      44.424  26.005  32.435  1.00  0.00     0.010 A 
ATOM     62  C   UNL A   1      44.399  27.495  34.342  1.00  0.00     0.010 A 
ATOM     63  C   UNL A   1      44.474  24.901  33.301  1.00  0.00     0.020 A 
ATOM     64  C   UNL A   1      44.465  26.400  35.208  1.00  0.00     0.020 A 
ATOM     65  C   UNL A   1      44.501  25.108  34.684  1.00  0.00     0.054 A 
BRANCH  65  66
ATOM     66  S   UNL A   1      44.662  23.685  35.801  1.00  0.00     0.124 S 
ATOM     67  O   UNL A   1      44.346  24.264  37.103  1.00  0.00    -0.237 OA
ATOM     68  O   UNL A   1      43.674  22.745  35.273  1.00  0.00    -0.237 OA
ATOM     69  O   UNL A   1      46.053  23.264  35.632  1.00  0.00    -0.744 OA
ENDBRANCH  65  66
ENDBRANCH  39  60
ENDBRANCH  13  14
ENDBRANCH   6   8
ENDBRANCH   5   6
ENDBRANCH   4   5
ENDBRANCH   3   4
ENDBRANCH   2   3
ENDBRANCH   1   2
BRANCH   1  70
ATOM     70  C   UNL A   1      42.049  19.918  26.910  1.00  0.00     0.188 C 
BRANCH  70  71
ATOM     71  O   UNL A   1      42.468  21.249  26.623  1.00  0.00    -0.376 OA
BRANCH  71  72
ATOM     72  C   UNL A   1      41.533  22.206  26.161  1.00  0.00     0.202 C 
BRANCH  72  73
ATOM     73  C   UNL A   1      40.178  22.315  26.875  1.00  0.00     0.261 C 
BRANCH  73  74
ATOM     74  O   UNL A   1      39.024  22.449  26.027  1.00  0.00    -0.460 OA
BRANCH  74  75
ATOM     75  C   UNL A   1      38.494  21.289  25.570  1.00  0.00     0.338 C 
ATOM     76  O   UNL A   1      38.943  20.165  25.696  1.00  0.00    -0.246 OA
BRANCH  75  77
ATOM     77  C   UNL A   1      37.197  21.550  24.915  1.00  0.00     0.060 A 
ATOM     78  C   UNL A   1      37.028  22.737  24.196  1.00  0.00     0.016 A 
ATOM     79  C   UNL A   1      36.119  20.688  25.112  1.00  0.00     0.016 A 
ATOM     80  C   UNL A   1      35.778  23.069  23.677  1.00  0.00     0.005 A 
ATOM     81  C   UNL A   1      34.856  21.044  24.626  1.00  0.00     0.005 A 
ATOM     82  C   UNL A   1      34.666  22.248  23.917  1.00  0.00    -0.038 A 
BRANCH  82  83
ATOM     83  C   UNL A   1      33.294  22.760  23.510  1.00  0.00     0.081 C 
ATOM     84  C   UNL A   1      33.246  23.091  22.003  1.00  0.00     0.111 C 
ATOM     85  C   UNL A   1      32.976  23.940  24.345  1.00  0.00     0.093 A 
ATOM     86  C   UNL A   1      32.886  24.526  21.664  1.00  0.00     0.188 C 
ATOM     87  C   UNL A   1      32.596  25.137  23.782  1.00  0.00     0.164 A 
ATOM     88  N   UNL A   1      33.014  24.003  25.709  1.00  0.00    -0.238 NA
ATOM     89  N   UNL A   1      32.553  25.480  22.472  1.00  0.00    -0.198 NA
ATOM     90  N   UNL A   1      32.379  25.984  24.853  1.00  0.00    -0.283 N 
ATOM     91  C   UNL A   1      32.686  25.249  25.983  1.00  0.00     0.206 A 
BRANCH  86  92
ATOM     92  O   UNL A   1      32.925  24.793  20.340  1.00  0.00    -0.496 OA
ATOM     93  H   UNL A   1      32.139  25.020  19.886  1.00  0.00     0.294 HD
ENDBRANCH  86  92
BRANCH  90  94
ATOM     94  C   UNL A   1      31.936  27.327  24.822  1.00  0.00     0.050 A 
ATOM     95  C   UNL A   1      32.325  28.214  25.833  1.00  0.00     0.027 A 
ATOM     96  C   UNL A   1      31.093  27.757  23.789  1.00  0.00     0.047 A 
ATOM     97  C   UNL A   1      31.888  29.539  25.794  1.00  0.00     0.004 A 
ATOM     98  C   UNL A   1      30.627  29.068  23.789  1.00  0.00     0.043 A 
ATOM     99  C   UNL A   1      31.028  29.964  24.779  1.00  0.00     0.020 A 
ATOM    100  Cl  UNL A   1      29.533  29.587  22.564  1.00  0.00    -0.084 Cl
ENDBRANCH  90  94
ENDBRANCH  82  83
ENDBRANCH  75  77
ENDBRANCH  74  75
ENDBRANCH  73  74
ENDBRANCH  72  73
ENDBRANCH  71  72
ENDBRANCH  70  71
ENDBRANCH   1  70
TORSDOF 23
ENDMDL
MODEL 3
REMARK VINA RESULT:     -11.0      3.307      9.984
REMARK SMILES O=C(OCCOCCOCCOC(=O)c1ccc([C@@H]2CC(O)=Nc3c2ncn3-c2cccc(Cl)c2)cc1)c1ccc(-c2c3nc(c(-c4ccc(S(=O)(=O)[O-])cc4)c4ccc([nH]4)c(-c4ccc(S(=O)(=O)[O-])cc4)c4nc(c(-c5ccc(S(=O)(=O)[O-])cc5)c5ccc2[nH]5)C=C4)C=C3)cc1
REMARK SMILES IDX 7 1 6 2 5 3 4 4 3 5 2 6 1 7 38 8 39 9 97 10 40 11 96 12
REMARK SMILES IDX 41 13 42 14 43 15 90 16 44 17 95 18 89 19 91 20 45 21 94 22
REMARK SMILES IDX 88 23 87 24 46 26 76 27 57 28 75 29 58 30 61 31 74 32 92 33
REMARK SMILES IDX 59 34 60 35 73 37 93 38 62 39 47 40 48 41 56 42 49 43 55 44
REMARK SMILES IDX 50 45 51 46 52 47 53 48 54 49 77 50 78 51 86 52 79 53 85 54
REMARK SMILES IDX 80 55 81 56 82 57 83 58 84 59 63 60 64 61 72 62 65 63 71 64
REMARK SMILES IDX 66 65 67 66 68 67 69 68 70 69 8 70 9 71 10 72 11 73 12 74
REMARK SMILES IDX 13 75 14 76 15 77 16 78 37 79 17 80 36 81 18 82 19 83 20 84
REMARK SMILES IDX 25 85 21 86 24 87 26 88 23 89 28 90 27 91 22 92 29 94 30 95
REMARK SMILES IDX 35 96 31 97 33 98 32 99 34 100
REMARK H PARENT 91 25 61 36 22 93
REMARK Flexibility Score: inf
ROOT
ATOM      1  C   UNL A   1      33.632  31.249  27.631  1.00  0.00     0.188 C 
ENDROOT
BRANCH   1   2
ATOM      2  O   UNL A   1      34.575  32.233  27.261  1.00  0.00    -0.376 OA
BRANCH   2   3
ATOM      3  C   UNL A   1      35.472  32.750  28.224  1.00  0.00     0.202 C 
BRANCH   3   4
ATOM      4  C   UNL A   1      35.062  33.923  29.125  1.00  0.00     0.261 C 
BRANCH   4   5
ATOM      5  O   UNL A   1      35.262  33.749  30.531  1.00  0.00    -0.460 OA
BRANCH   5   6
ATOM      6  C   UNL A   1      35.332  32.644  31.296  1.00  0.00     0.338 C 
ATOM      7  O   UNL A   1      34.321  32.294  31.905  1.00  0.00    -0.246 OA
BRANCH   6   8
ATOM      8  C   UNL A   1      36.594  31.910  31.591  1.00  0.00     0.060 A 
ATOM      9  C   UNL A   1      37.853  32.477  31.794  1.00  0.00     0.016 A 
ATOM     10  C   UNL A   1      36.475  30.505  31.596  1.00  0.00     0.016 A 
ATOM     11  C   UNL A   1      38.981  31.665  31.813  1.00  0.00     0.010 A 
ATOM     12  C   UNL A   1      37.594  29.691  31.638  1.00  0.00     0.010 A 
ATOM     13  C   UNL A   1      38.848  30.284  31.651  1.00  0.00    -0.014 A 
BRANCH  13  14
ATOM     14  C   UNL A   1      40.060  29.503  31.451  1.00  0.00     0.031 A 
ATOM     15  C   UNL A   1      41.004  29.473  32.597  1.00  0.00     0.074 A 
ATOM     16  C   UNL A   1      40.289  28.827  30.307  1.00  0.00     0.049 A 
ATOM     17  N   UNL A   1      42.193  29.976  32.659  1.00  0.00    -0.248 NA
ATOM     18  C   UNL A   1      40.519  28.916  33.866  1.00  0.00     0.031 C 
ATOM     19  C   UNL A   1      39.357  28.562  29.205  1.00  0.00     0.029 A 
ATOM     20  N   UNL A   1      41.400  28.137  29.934  1.00  0.00    -0.354 N 
ATOM     21  C   UNL A   1      42.690  29.634  33.914  1.00  0.00     0.074 A 
ATOM     22  C   UNL A   1      41.573  29.108  34.661  1.00  0.00     0.031 C 
ATOM     23  C   UNL A   1      39.855  27.577  28.425  1.00  0.00     0.029 A 
ATOM     24  C   UNL A   1      41.197  27.258  28.878  1.00  0.00     0.049 A 
ATOM     25  H   UNL A   1      42.273  28.249  30.375  1.00  0.00     0.167 HD
ATOM     26  C   UNL A   1      44.024  29.616  34.185  1.00  0.00     0.031 A 
ATOM     27  C   UNL A   1      42.048  26.291  28.451  1.00  0.00     0.031 A 
ATOM     28  C   UNL A   1      44.785  30.337  33.200  1.00  0.00     0.049 A 
ATOM     29  C   UNL A   1      43.402  26.658  28.934  1.00  0.00     0.074 A 
ATOM     30  C   UNL A   1      44.834  31.650  32.780  1.00  0.00     0.029 A 
ATOM     31  N   UNL A   1      45.408  29.600  32.220  1.00  0.00    -0.354 N 
ATOM     32  N   UNL A   1      44.051  27.710  28.518  1.00  0.00    -0.248 NA
ATOM     33  C   UNL A   1      43.845  26.119  30.211  1.00  0.00     0.031 C 
ATOM     34  C   UNL A   1      45.041  31.577  31.373  1.00  0.00     0.029 A 
ATOM     35  C   UNL A   1      45.168  30.229  31.026  1.00  0.00     0.049 A 
ATOM     36  H   UNL A   1      45.930  28.776  32.352  1.00  0.00     0.167 HD
ATOM     37  C   UNL A   1      44.681  28.213  29.647  1.00  0.00     0.074 A 
ATOM     38  C   UNL A   1      44.592  27.142  30.638  1.00  0.00     0.031 C 
ATOM     39  C   UNL A   1      44.976  29.541  29.766  1.00  0.00     0.031 A 
BRANCH  26  40
ATOM     40  C   UNL A   1      44.673  28.629  35.123  1.00  0.00    -0.014 A 
ATOM     41  C   UNL A   1      44.651  27.256  34.795  1.00  0.00     0.010 A 
ATOM     42  C   UNL A   1      45.037  28.965  36.443  1.00  0.00     0.010 A 
ATOM     43  C   UNL A   1      44.897  26.274  35.763  1.00  0.00     0.020 A 
ATOM     44  C   UNL A   1      45.326  27.994  37.404  1.00  0.00     0.020 A 
ATOM     45  C   UNL A   1      45.214  26.653  37.068  1.00  0.00     0.054 A 
BRANCH  45  46
ATOM     46  S   UNL A   1      45.395  25.379  38.341  1.00  0.00     0.124 S 
ATOM     47  O   UNL A   1      44.537  25.895  39.403  1.00  0.00    -0.237 OA
ATOM     48  O   UNL A   1      44.910  24.186  37.654  1.00  0.00    -0.237 OA
ATOM     49  O   UNL A   1      46.827  25.389  38.631  1.00  0.00    -0.744 OA
ENDBRANCH  45  46
ENDBRANCH  26  40
BRANCH  27  50
ATOM     50  C   UNL A   1      41.686  24.920  28.009  1.00  0.00    -0.014 A 
ATOM     51  C   UNL A   1      41.392  24.635  26.663  1.00  0.00     0.010 A 
ATOM     52  C   UNL A   1      41.897  23.826  28.876  1.00  0.00     0.010 A 
ATOM     53  C   UNL A   1      41.366  23.310  26.192  1.00  0.00     0.020 A 
ATOM     54  C   UNL A   1      41.867  22.504  28.416  1.00  0.00     0.020 A 
ATOM     55  C   UNL A   1      41.623  22.252  27.070  1.00  0.00     0.054 A 
BRANCH  55  56
ATOM     56  S   UNL A   1      41.760  20.558  26.424  1.00  0.00     0.124 S 
ATOM     57  O   UNL A   1      40.409  20.303  25.933  1.00  0.00    -0.237 OA
ATOM     58  O   UNL A   1      42.791  20.690  25.399  1.00  0.00    -0.237 OA
ATOM     59  O   UNL A   1      42.152  19.773  27.595  1.00  0.00    -0.744 OA
ENDBRANCH  55  56
ENDBRANCH  27  50
BRANCH  39  60
ATOM     60  C   UNL A   1      44.856  30.426  28.547  1.00  0.00    -0.014 A 
ATOM     61  C   UNL A   1      43.625  30.890  28.039  1.00  0.00     0.010 A 
ATOM     62  C   UNL A   1      46.044  30.965  28.023  1.00  0.00     0.010 A 
ATOM     63  C   UNL A   1      43.591  31.868  27.033  1.00  0.00     0.020 A 
ATOM     64  C   UNL A   1      46.015  31.951  27.034  1.00  0.00     0.020 A 
ATOM     65  C   UNL A   1      44.788  32.398  26.542  1.00  0.00     0.054 A 
BRANCH  65  66
ATOM     66  S   UNL A   1      44.741  33.731  25.309  1.00  0.00     0.124 S 
ATOM     67  O   UNL A   1      44.230  33.050  24.123  1.00  0.00    -0.237 OA
ATOM     68  O   UNL A   1      43.833  34.703  25.918  1.00  0.00    -0.237 OA
ATOM     69  O   UNL A   1      46.132  34.172  25.219  1.00  0.00    -0.744 OA
ENDBRANCH  65  66
ENDBRANCH  39  60
ENDBRANCH  13  14
ENDBRANCH   6   8
ENDBRANCH   5   6
ENDBRANCH   4   5
ENDBRANCH   3   4
ENDBRANCH   2   3
ENDBRANCH   1   2
BRANCH   1  70
ATOM     70  C   UNL A   1      33.900  29.859  27.004  1.00  0.00     0.188 C 
BRANCH  70  71
ATOM     71  O   UNL A   1      33.376  29.491  25.732  1.00  0.00    -0.376 OA
BRANCH  71  72
ATOM     72  C   UNL A   1      32.074  29.897  25.353  1.00  0.00     0.202 C 
BRANCH  72  73
ATOM     73  C   UNL A   1      31.484  29.349  24.045  1.00  0.00     0.261 C 
BRANCH  73  74
ATOM     74  O   UNL A   1      32.381  28.591  23.215  1.00  0.00    -0.460 OA
BRANCH  74  75
ATOM     75  C   UNL A   1      32.024  27.303  22.989  1.00  0.00     0.338 C 
ATOM     76  O   UNL A   1      31.246  26.883  22.155  1.00  0.00    -0.246 OA
BRANCH  75  77
ATOM     77  C   UNL A   1      32.780  26.405  23.885  1.00  0.00     0.060 A 
ATOM     78  C   UNL A   1      33.745  25.555  23.336  1.00  0.00     0.016 A 
ATOM     79  C   UNL A   1      32.453  26.318  25.238  1.00  0.00     0.016 A 
ATOM     80  C   UNL A   1      34.381  24.609  24.138  1.00  0.00     0.005 A 
ATOM     81  C   UNL A   1      33.063  25.339  26.030  1.00  0.00     0.005 A 
ATOM     82  C   UNL A   1      34.023  24.461  25.486  1.00  0.00    -0.038 A 
BRANCH  82  83
ATOM     83  C   UNL A   1      34.593  23.281  26.255  1.00  0.00     0.081 C 
ATOM     84  C   UNL A   1      36.089  23.076  25.933  1.00  0.00     0.111 C 
ATOM     85  C   UNL A   1      33.789  22.083  25.927  1.00  0.00     0.093 A 
ATOM     86  C   UNL A   1      36.451  21.718  25.358  1.00  0.00     0.188 C 
ATOM     87  C   UNL A   1      34.377  20.922  25.479  1.00  0.00     0.164 A 
ATOM     88  N   UNL A   1      32.430  21.969  26.013  1.00  0.00    -0.238 NA
ATOM     89  N   UNL A   1      35.677  20.698  25.169  1.00  0.00    -0.198 NA
ATOM     90  N   UNL A   1      33.330  20.040  25.288  1.00  0.00    -0.283 N 
ATOM     91  C   UNL A   1      32.182  20.746  25.591  1.00  0.00     0.206 A 
BRANCH  86  92
ATOM     92  O   UNL A   1      37.754  21.604  25.023  1.00  0.00    -0.496 OA
ATOM     93  H   UNL A   1      38.016  21.689  24.129  1.00  0.00     0.294 HD
ENDBRANCH  86  92
BRANCH  90  94
ATOM     94  C   UNL A   1      33.398  18.690  24.868  1.00  0.00     0.050 A 
ATOM     95  C   UNL A   1      33.984  18.370  23.638  1.00  0.00     0.027 A 
ATOM     96  C   UNL A   1      32.858  17.683  25.679  1.00  0.00     0.047 A 
ATOM     97  C   UNL A   1      34.051  17.036  23.232  1.00  0.00     0.004 A 
ATOM     98  C   UNL A   1      32.890  16.363  25.240  1.00  0.00     0.043 A 
ATOM     99  C   UNL A   1      33.492  16.033  24.027  1.00  0.00     0.020 A 
ATOM    100  Cl  UNL A   1      32.166  15.126  26.195  1.00  0.00    -0.084 Cl
ENDBRANCH  90  94
ENDBRANCH  82  83
ENDBRANCH  75  77
ENDBRANCH  74  75
ENDBRANCH  73  74
ENDBRANCH  72  73
ENDBRANCH  71  72
ENDBRANCH  70  71
ENDBRANCH   1  70
TORSDOF 23
ENDMDL
