MODEL 1
REMARK VINA RESULT:      -9.6      0.000      0.000
REMARK SMILES O=C(OCCOCCOCCOC(=O)[C@H]1CC[C@H]2CCCC[C@@H]2[N@H+]1[C@@H]1CCCSC1)c1ccc(-c2c3nc(c(-c4ccc(S(=O)(=O)[O-])cc4)c4ccc([nH]4)c(-c4ccc(S(=O)(=O)[O-])cc4)c4nc(c(-c5ccc(S(=O)(=O)[O-])cc5)c5ccc2[nH]5)C=C4)C=C3)cc1
REMARK SMILES IDX 7 1 6 2 5 3 4 4 3 5 2 6 1 7 31 8 32 9 90 10 33 11 89 12
REMARK SMILES IDX 34 13 35 14 36 15 83 16 37 17 88 18 82 19 84 20 38 21 87 22
REMARK SMILES IDX 81 23 80 24 39 26 69 27 50 28 68 29 51 30 54 31 67 32 85 33
REMARK SMILES IDX 52 34 53 35 66 37 86 38 55 39 40 40 41 41 49 42 42 43 48 44
REMARK SMILES IDX 43 45 44 46 45 47 46 48 47 49 70 50 71 51 79 52 72 53 78 54
REMARK SMILES IDX 73 55 74 56 75 57 76 58 77 59 56 60 57 61 65 62 58 63 64 64
REMARK SMILES IDX 59 65 60 66 61 67 62 68 63 69 8 70 9 71 10 72 11 73 12 74
REMARK SMILES IDX 13 75 14 76 15 77 16 78 24 79 17 80 23 81 18 83 22 84 19 85
REMARK SMILES IDX 21 86 20 87 25 88 26 89 30 90 27 91 29 92 28 93
REMARK H PARENT 84 25 54 36 24 82
REMARK Flexibility Score: inf
ROOT
ATOM      1  C   UNL A   1      41.995  21.141  26.643  1.00  0.00     0.188 C 
ENDROOT
BRANCH   1   2
ATOM      2  O   UNL A   1      42.912  22.172  27.026  1.00  0.00    -0.376 OA
BRANCH   2   3
ATOM      3  C   UNL A   1      43.732  22.628  25.942  1.00  0.00     0.202 C 
BRANCH   3   4
ATOM      4  C   UNL A   1      43.130  23.755  25.078  1.00  0.00     0.261 C 
BRANCH   4   5
ATOM      5  O   UNL A   1      43.128  25.047  25.713  1.00  0.00    -0.460 OA
BRANCH   5   6
ATOM      6  C   UNL A   1      42.077  25.831  26.063  1.00  0.00     0.338 C 
ATOM      7  O   UNL A   1      41.141  25.936  25.267  1.00  0.00    -0.246 OA
BRANCH   6   8
ATOM      8  C   UNL A   1      41.981  26.575  27.357  1.00  0.00     0.060 A 
ATOM      9  C   UNL A   1      41.080  26.284  28.378  1.00  0.00     0.016 A 
ATOM     10  C   UNL A   1      42.889  27.629  27.573  1.00  0.00     0.016 A 
ATOM     11  C   UNL A   1      40.971  27.082  29.506  1.00  0.00     0.010 A 
ATOM     12  C   UNL A   1      42.836  28.396  28.744  1.00  0.00     0.010 A 
ATOM     13  C   UNL A   1      41.839  28.150  29.695  1.00  0.00    -0.014 A 
BRANCH  13  14
ATOM     14  C   UNL A   1      41.579  29.049  30.839  1.00  0.00     0.031 A 
ATOM     15  C   UNL A   1      40.456  30.019  30.734  1.00  0.00     0.074 A 
ATOM     16  C   UNL A   1      42.223  28.885  32.008  1.00  0.00     0.049 A 
ATOM     17  N   UNL A   1      40.003  30.825  31.651  1.00  0.00    -0.248 NA
ATOM     18  C   UNL A   1      39.705  30.043  29.468  1.00  0.00     0.031 C 
ATOM     19  C   UNL A   1      43.184  27.826  32.254  1.00  0.00     0.029 A 
ATOM     20  N   UNL A   1      42.184  29.558  33.200  1.00  0.00    -0.354 N 
ATOM     21  C   UNL A   1      38.891  31.426  31.090  1.00  0.00     0.074 A 
ATOM     22  C   UNL A   1      38.768  30.940  29.735  1.00  0.00     0.031 C 
ATOM     23  C   UNL A   1      43.737  27.984  33.462  1.00  0.00     0.029 A 
ATOM     24  C   UNL A   1      43.107  29.103  34.115  1.00  0.00     0.049 A 
ATOM     25  H   UNL A   1      41.557  30.294  33.385  1.00  0.00     0.167 HD
ATOM     26  C   UNL A   1      38.036  32.286  31.681  1.00  0.00     0.031 A 
ATOM     27  C   UNL A   1      43.417  29.502  35.360  1.00  0.00     0.031 A 
ATOM     28  C   UNL A   1      38.214  32.783  33.017  1.00  0.00     0.049 A 
ATOM     29  C   UNL A   1      42.550  30.565  35.938  1.00  0.00     0.074 A 
ATOM     30  C   UNL A   1      37.476  33.741  33.685  1.00  0.00     0.029 A 
ATOM     31  N   UNL A   1      39.213  32.364  33.888  1.00  0.00    -0.354 N 
ATOM     32  N   UNL A   1      41.527  31.160  35.372  1.00  0.00    -0.248 NA
ATOM     33  C   UNL A   1      42.829  30.981  37.313  1.00  0.00     0.031 C 
ATOM     34  C   UNL A   1      38.065  33.942  34.938  1.00  0.00     0.029 A 
ATOM     35  C   UNL A   1      39.129  33.063  35.079  1.00  0.00     0.049 A 
ATOM     36  H   UNL A   1      39.883  31.671  33.688  1.00  0.00     0.167 HD
ATOM     37  C   UNL A   1      41.022  32.018  36.328  1.00  0.00     0.074 A 
ATOM     38  C   UNL A   1      41.835  31.836  37.519  1.00  0.00     0.031 C 
ATOM     39  C   UNL A   1      39.983  32.880  36.227  1.00  0.00     0.031 A 
BRANCH  26  40
ATOM     40  C   UNL A   1      36.892  32.767  30.840  1.00  0.00    -0.014 A 
ATOM     41  C   UNL A   1      35.623  32.163  30.925  1.00  0.00     0.010 A 
ATOM     42  C   UNL A   1      37.102  33.804  29.917  1.00  0.00     0.010 A 
ATOM     43  C   UNL A   1      34.591  32.570  30.075  1.00  0.00     0.020 A 
ATOM     44  C   UNL A   1      36.066  34.230  29.083  1.00  0.00     0.020 A 
ATOM     45  C   UNL A   1      34.822  33.601  29.159  1.00  0.00     0.054 A 
BRANCH  45  46
ATOM     46  S   UNL A   1      33.458  34.121  28.084  1.00  0.00     0.124 S 
ATOM     47  O   UNL A   1      34.156  34.913  27.074  1.00  0.00    -0.237 OA
ATOM     48  O   UNL A   1      32.912  32.853  27.624  1.00  0.00    -0.237 OA
ATOM     49  O   UNL A   1      32.587  34.887  28.980  1.00  0.00    -0.744 OA
ENDBRANCH  45  46
ENDBRANCH  26  40
BRANCH  27  50
ATOM     50  C   UNL A   1      44.556  28.888  36.104  1.00  0.00    -0.014 A 
ATOM     51  C   UNL A   1      45.867  29.383  35.999  1.00  0.00     0.010 A 
ATOM     52  C   UNL A   1      44.315  27.793  36.960  1.00  0.00     0.010 A 
ATOM     53  C   UNL A   1      46.918  28.771  36.696  1.00  0.00     0.020 A 
ATOM     54  C   UNL A   1      45.356  27.197  37.678  1.00  0.00     0.020 A 
ATOM     55  C   UNL A   1      46.656  27.675  37.523  1.00  0.00     0.054 A 
BRANCH  55  56
ATOM     56  S   UNL A   1      48.031  26.878  38.402  1.00  0.00     0.124 S 
ATOM     57  O   UNL A   1      47.405  25.656  38.895  1.00  0.00    -0.237 OA
ATOM     58  O   UNL A   1      49.022  26.702  37.345  1.00  0.00    -0.237 OA
ATOM     59  O   UNL A   1      48.389  27.858  39.426  1.00  0.00    -0.744 OA
ENDBRANCH  55  56
ENDBRANCH  27  50
BRANCH  39  60
ATOM     60  C   UNL A   1      39.696  33.689  37.452  1.00  0.00    -0.014 A 
ATOM     61  C   UNL A   1      40.367  34.902  37.684  1.00  0.00     0.010 A 
ATOM     62  C   UNL A   1      38.748  33.225  38.379  1.00  0.00     0.010 A 
ATOM     63  C   UNL A   1      40.129  35.617  38.855  1.00  0.00     0.020 A 
ATOM     64  C   UNL A   1      38.482  33.956  39.533  1.00  0.00     0.020 A 
ATOM     65  C   UNL A   1      39.188  35.137  39.772  1.00  0.00     0.054 A 
BRANCH  65  66
ATOM     66  S   UNL A   1      38.878  36.099  41.273  1.00  0.00     0.124 S 
ATOM     67  O   UNL A   1      40.166  36.015  41.957  1.00  0.00    -0.237 OA
ATOM     68  O   UNL A   1      38.531  37.414  40.743  1.00  0.00    -0.237 OA
ATOM     69  O   UNL A   1      37.780  35.383  41.920  1.00  0.00    -0.744 OA
ENDBRANCH  65  66
ENDBRANCH  39  60
ENDBRANCH  13  14
ENDBRANCH   6   8
ENDBRANCH   5   6
ENDBRANCH   4   5
ENDBRANCH   3   4
ENDBRANCH   2   3
ENDBRANCH   1   2
BRANCH   1  70
ATOM     70  C   UNL A   1      40.540  21.588  26.528  1.00  0.00     0.188 C 
BRANCH  70  71
ATOM     71  O   UNL A   1      40.228  22.914  26.937  1.00  0.00    -0.376 OA
BRANCH  71  72
ATOM     72  C   UNL A   1      38.926  23.407  26.648  1.00  0.00     0.202 C 
BRANCH  72  73
ATOM     73  C   UNL A   1      38.001  22.571  25.756  1.00  0.00     0.261 C 
BRANCH  73  74
ATOM     74  O   UNL A   1      36.629  22.986  25.704  1.00  0.00    -0.459 OA
BRANCH  74  75
ATOM     75  C   UNL A   1      36.085  22.997  24.450  1.00  0.00     0.365 C 
ATOM     76  O   UNL A   1      36.664  22.592  23.444  1.00  0.00    -0.245 OA
BRANCH  75  77
ATOM     77  C   UNL A   1      34.714  23.687  24.405  1.00  0.00     0.295 C 
ATOM     78  C   UNL A   1      34.389  24.477  23.120  1.00  0.00     0.078 C 
ATOM     79  N   UNL A   1      33.653  22.767  24.878  1.00  0.00    -0.317 N 
ATOM     80  C   UNL A   1      32.923  24.924  23.054  1.00  0.00     0.016 C 
ATOM     81  C   UNL A   1      32.336  23.423  25.000  1.00  0.00     0.188 C 
ATOM     82  H   UNL A   1      33.918  22.545  25.838  1.00  0.00     0.349 HD
ATOM     83  C   UNL A   1      32.245  24.856  24.409  1.00  0.00     0.048 C 
ATOM     84  C   UNL A   1      31.939  23.558  26.480  1.00  0.00     0.065 C 
ATOM     85  C   UNL A   1      30.761  25.246  24.354  1.00  0.00     0.010 C 
ATOM     86  C   UNL A   1      30.501  24.076  26.616  1.00  0.00     0.006 C 
ATOM     87  C   UNL A   1      30.193  25.318  25.771  1.00  0.00     0.001 C 
BRANCH  79  88
ATOM     88  C   UNL A   1      33.658  21.384  24.296  1.00  0.00     0.195 C 
ATOM     89  C   UNL A   1      32.418  21.092  23.434  1.00  0.00     0.067 C 
ATOM     90  C   UNL A   1      33.904  20.287  25.362  1.00  0.00     0.134 C 
ATOM     91  C   UNL A   1      32.275  19.693  22.839  1.00  0.00     0.017 C 
ATOM     92  S   UNL A   1      34.043  18.630  24.610  1.00  0.00    -0.156 SA
ATOM     93  C   UNL A   1      32.400  18.572  23.855  1.00  0.00     0.070 C 
ENDBRANCH  79  88
ENDBRANCH  75  77
ENDBRANCH  74  75
ENDBRANCH  73  74
ENDBRANCH  72  73
ENDBRANCH  71  72
ENDBRANCH  70  71
ENDBRANCH   1  70
TORSDOF 21
ENDMDL
MODEL 2
REMARK VINA RESULT:      -8.6      6.442      9.104
REMARK SMILES O=C(OCCOCCOCCOC(=O)[C@H]1CC[C@H]2CCCC[C@@H]2[N@H+]1[C@@H]1CCCSC1)c1ccc(-c2c3nc(c(-c4ccc(S(=O)(=O)[O-])cc4)c4ccc([nH]4)c(-c4ccc(S(=O)(=O)[O-])cc4)c4nc(c(-c5ccc(S(=O)(=O)[O-])cc5)c5ccc2[nH]5)C=C4)C=C3)cc1
REMARK SMILES IDX 7 1 6 2 5 3 4 4 3 5 2 6 1 7 31 8 32 9 90 10 33 11 89 12
REMARK SMILES IDX 34 13 35 14 36 15 83 16 37 17 88 18 82 19 84 20 38 21 87 22
REMARK SMILES IDX 81 23 80 24 39 26 69 27 50 28 68 29 51 30 54 31 67 32 85 33
REMARK SMILES IDX 52 34 53 35 66 37 86 38 55 39 40 40 41 41 49 42 42 43 48 44
REMARK SMILES IDX 43 45 44 46 45 47 46 48 47 49 70 50 71 51 79 52 72 53 78 54
REMARK SMILES IDX 73 55 74 56 75 57 76 58 77 59 56 60 57 61 65 62 58 63 64 64
REMARK SMILES IDX 59 65 60 66 61 67 62 68 63 69 8 70 9 71 10 72 11 73 12 74
REMARK SMILES IDX 13 75 14 76 15 77 16 78 24 79 17 80 23 81 18 83 22 84 19 85
REMARK SMILES IDX 21 86 20 87 25 88 26 89 30 90 27 91 29 92 28 93
REMARK H PARENT 84 25 54 36 24 82
REMARK Flexibility Score: inf
ROOT
ATOM      1  C   UNL A   1      41.020  24.031  27.858  1.00  0.00     0.188 C 
ENDROOT
BRANCH   1   2
ATOM      2  O   UNL A   1      42.156  23.233  27.509  1.00  0.00    -0.376 OA
BRANCH   2   3
ATOM      3  C   UNL A   1      43.145  23.955  26.763  1.00  0.00     0.202 C 
BRANCH   3   4
ATOM      4  C   UNL A   1      43.977  23.118  25.770  1.00  0.00     0.261 C 
BRANCH   4   5
ATOM      5  O   UNL A   1      45.125  23.805  25.239  1.00  0.00    -0.460 OA
BRANCH   5   6
ATOM      6  C   UNL A   1      46.179  24.353  25.896  1.00  0.00     0.338 C 
ATOM      7  O   UNL A   1      47.177  23.652  26.078  1.00  0.00    -0.246 OA
BRANCH   6   8
ATOM      8  C   UNL A   1      46.207  25.758  26.410  1.00  0.00     0.060 A 
ATOM      9  C   UNL A   1      46.603  26.129  27.692  1.00  0.00     0.016 A 
ATOM     10  C   UNL A   1      45.835  26.785  25.522  1.00  0.00     0.016 A 
ATOM     11  C   UNL A   1      46.501  27.436  28.138  1.00  0.00     0.010 A 
ATOM     12  C   UNL A   1      45.799  28.121  25.942  1.00  0.00     0.010 A 
ATOM     13  C   UNL A   1      46.089  28.442  27.272  1.00  0.00    -0.014 A 
BRANCH  13  14
ATOM     14  C   UNL A   1      45.859  29.785  27.845  1.00  0.00     0.031 A 
ATOM     15  C   UNL A   1      46.896  30.831  27.636  1.00  0.00     0.074 A 
ATOM     16  C   UNL A   1      44.674  30.110  28.392  1.00  0.00     0.049 A 
ATOM     17  N   UNL A   1      46.847  32.089  27.969  1.00  0.00    -0.248 NA
ATOM     18  C   UNL A   1      48.110  30.436  26.902  1.00  0.00     0.031 C 
ATOM     19  C   UNL A   1      43.540  29.205  28.446  1.00  0.00     0.029 A 
ATOM     20  N   UNL A   1      44.198  31.247  28.987  1.00  0.00    -0.354 N 
ATOM     21  C   UNL A   1      48.003  32.647  27.456  1.00  0.00     0.074 A 
ATOM     22  C   UNL A   1      48.764  31.584  26.839  1.00  0.00     0.031 C 
ATOM     23  C   UNL A   1      42.544  29.764  29.143  1.00  0.00     0.029 A 
ATOM     24  C   UNL A   1      42.933  31.102  29.511  1.00  0.00     0.049 A 
ATOM     25  H   UNL A   1      44.710  32.087  29.035  1.00  0.00     0.167 HD
ATOM     26  C   UNL A   1      48.370  33.945  27.478  1.00  0.00     0.031 A 
ATOM     27  C   UNL A   1      42.135  31.942  30.193  1.00  0.00     0.031 A 
ATOM     28  C   UNL A   1      47.609  34.968  28.141  1.00  0.00     0.049 A 
ATOM     29  C   UNL A   1      42.632  33.338  30.337  1.00  0.00     0.074 A 
ATOM     30  C   UNL A   1      47.933  36.298  28.326  1.00  0.00     0.029 A 
ATOM     31  N   UNL A   1      46.369  34.768  28.738  1.00  0.00    -0.354 N 
ATOM     32  N   UNL A   1      43.756  33.839  29.885  1.00  0.00    -0.248 NA
ATOM     33  C   UNL A   1      41.760  34.289  31.027  1.00  0.00     0.031 C 
ATOM     34  C   UNL A   1      46.915  36.887  29.085  1.00  0.00     0.029 A 
ATOM     35  C   UNL A   1      45.925  35.944  29.316  1.00  0.00     0.049 A 
ATOM     36  H   UNL A   1      45.878  33.914  28.747  1.00  0.00     0.167 HD
ATOM     37  C   UNL A   1      43.728  35.177  30.221  1.00  0.00     0.074 A 
ATOM     38  C   UNL A   1      42.456  35.410  30.885  1.00  0.00     0.031 C 
ATOM     39  C   UNL A   1      44.670  36.125  30.003  1.00  0.00     0.031 A 
BRANCH  26  40
ATOM     40  C   UNL A   1      49.674  34.278  26.819  1.00  0.00    -0.014 A 
ATOM     41  C   UNL A   1      49.734  34.617  25.454  1.00  0.00     0.010 A 
ATOM     42  C   UNL A   1      50.863  34.202  27.564  1.00  0.00     0.010 A 
ATOM     43  C   UNL A   1      50.967  34.844  24.838  1.00  0.00     0.020 A 
ATOM     44  C   UNL A   1      52.095  34.452  26.957  1.00  0.00     0.020 A 
ATOM     45  C   UNL A   1      52.139  34.759  25.595  1.00  0.00     0.054 A 
BRANCH  45  46
ATOM     46  S   UNL A   1      53.723  35.078  24.774  1.00  0.00     0.124 S 
ATOM     47  O   UNL A   1      54.616  34.154  25.469  1.00  0.00    -0.237 OA
ATOM     48  O   UNL A   1      53.434  34.751  23.384  1.00  0.00    -0.237 OA
ATOM     49  O   UNL A   1      53.968  36.498  25.041  1.00  0.00    -0.744 OA
ENDBRANCH  45  46
ENDBRANCH  26  40
BRANCH  27  50
ATOM     50  C   UNL A   1      40.827  31.483  30.745  1.00  0.00    -0.014 A 
ATOM     51  C   UNL A   1      40.720  30.908  32.023  1.00  0.00     0.010 A 
ATOM     52  C   UNL A   1      39.654  31.649  29.980  1.00  0.00     0.010 A 
ATOM     53  C   UNL A   1      39.479  30.469  32.506  1.00  0.00     0.020 A 
ATOM     54  C   UNL A   1      38.411  31.238  30.468  1.00  0.00     0.020 A 
ATOM     55  C   UNL A   1      38.334  30.628  31.719  1.00  0.00     0.054 A 
BRANCH  55  56
ATOM     56  S   UNL A   1      36.737  30.034  32.348  1.00  0.00     0.124 S 
ATOM     57  O   UNL A   1      36.069  29.613  31.121  1.00  0.00    -0.237 OA
ATOM     58  O   UNL A   1      37.133  28.962  33.255  1.00  0.00    -0.237 OA
ATOM     59  O   UNL A   1      36.171  31.215  32.998  1.00  0.00    -0.744 OA
ENDBRANCH  55  56
ENDBRANCH  27  50
BRANCH  39  60
ATOM     60  C   UNL A   1      44.337  37.492  30.509  1.00  0.00    -0.014 A 
ATOM     61  C   UNL A   1      44.588  37.843  31.847  1.00  0.00     0.010 A 
ATOM     62  C   UNL A   1      43.763  38.430  29.635  1.00  0.00     0.010 A 
ATOM     63  C   UNL A   1      44.223  39.101  32.317  1.00  0.00     0.020 A 
ATOM     64  C   UNL A   1      43.431  39.702  30.094  1.00  0.00     0.020 A 
ATOM     65  C   UNL A   1      43.645  40.022  31.437  1.00  0.00     0.054 A 
BRANCH  65  66
ATOM     66  S   UNL A   1      43.204  41.660  32.067  1.00  0.00     0.124 S 
ATOM     67  O   UNL A   1      42.554  42.264  30.908  1.00  0.00    -0.237 OA
ATOM     68  O   UNL A   1      42.326  41.344  33.190  1.00  0.00    -0.237 OA
ATOM     69  O   UNL A   1      44.493  42.244  32.435  1.00  0.00    -0.744 OA
ENDBRANCH  65  66
ENDBRANCH  39  60
ENDBRANCH  13  14
ENDBRANCH   6   8
ENDBRANCH   5   6
ENDBRANCH   4   5
ENDBRANCH   3   4
ENDBRANCH   2   3
ENDBRANCH   1   2
BRANCH   1  70
ATOM     70  C   UNL A   1      40.202  24.534  26.671  1.00  0.00     0.188 C 
BRANCH  70  71
ATOM     71  O   UNL A   1      38.868  24.056  26.545  1.00  0.00    -0.376 OA
BRANCH  71  72
ATOM     72  C   UNL A   1      38.685  22.718  26.100  1.00  0.00     0.202 C 
BRANCH  72  73
ATOM     73  C   UNL A   1      37.383  22.350  25.379  1.00  0.00     0.261 C 
BRANCH  73  74
ATOM     74  O   UNL A   1      36.454  23.422  25.165  1.00  0.00    -0.459 OA
BRANCH  74  75
ATOM     75  C   UNL A   1      35.865  23.427  23.932  1.00  0.00     0.365 C 
ATOM     76  O   UNL A   1      36.433  23.092  22.895  1.00  0.00    -0.245 OA
BRANCH  75  77
ATOM     77  C   UNL A   1      34.447  24.015  23.955  1.00  0.00     0.295 C 
ATOM     78  C   UNL A   1      33.957  24.667  22.645  1.00  0.00     0.078 C 
ATOM     79  N   UNL A   1      33.501  23.070  24.594  1.00  0.00    -0.317 N 
ATOM     80  C   UNL A   1      32.461  25.007  22.676  1.00  0.00     0.016 C 
ATOM     81  C   UNL A   1      32.153  23.643  24.780  1.00  0.00     0.188 C 
ATOM     82  H   UNL A   1      33.862  22.951  25.540  1.00  0.00     0.349 HD
ATOM     83  C   UNL A   1      31.906  25.011  24.087  1.00  0.00     0.048 C 
ATOM     84  C   UNL A   1      31.873  23.878  26.274  1.00  0.00     0.065 C 
ATOM     85  C   UNL A   1      30.398  25.293  24.134  1.00  0.00     0.010 C 
ATOM     86  C   UNL A   1      30.417  24.308  26.497  1.00  0.00     0.006 C 
ATOM     87  C   UNL A   1      29.947  25.448  25.586  1.00  0.00     0.001 C 
BRANCH  79  88
ATOM     88  C   UNL A   1      33.561  21.646  24.126  1.00  0.00     0.195 C 
ATOM     89  C   UNL A   1      32.318  21.225  23.325  1.00  0.00     0.067 C 
ATOM     90  C   UNL A   1      33.887  20.654  25.271  1.00  0.00     0.134 C 
ATOM     91  C   UNL A   1      32.230  19.776  22.851  1.00  0.00     0.017 C 
ATOM     92  S   UNL A   1      34.090  18.948  24.652  1.00  0.00    -0.156 SA
ATOM     93  C   UNL A   1      32.435  18.750  23.950  1.00  0.00     0.070 C 
ENDBRANCH  79  88
ENDBRANCH  75  77
ENDBRANCH  74  75
ENDBRANCH  73  74
ENDBRANCH  72  73
ENDBRANCH  71  72
ENDBRANCH  70  71
ENDBRANCH   1  70
TORSDOF 21
ENDMDL
MODEL 3
REMARK VINA RESULT:      -8.5      2.168      8.537
REMARK SMILES O=C(OCCOCCOCCOC(=O)[C@H]1CC[C@H]2CCCC[C@@H]2[N@H+]1[C@@H]1CCCSC1)c1ccc(-c2c3nc(c(-c4ccc(S(=O)(=O)[O-])cc4)c4ccc([nH]4)c(-c4ccc(S(=O)(=O)[O-])cc4)c4nc(c(-c5ccc(S(=O)(=O)[O-])cc5)c5ccc2[nH]5)C=C4)C=C3)cc1
REMARK SMILES IDX 7 1 6 2 5 3 4 4 3 5 2 6 1 7 31 8 32 9 90 10 33 11 89 12
REMARK SMILES IDX 34 13 35 14 36 15 83 16 37 17 88 18 82 19 84 20 38 21 87 22
REMARK SMILES IDX 81 23 80 24 39 26 69 27 50 28 68 29 51 30 54 31 67 32 85 33
REMARK SMILES IDX 52 34 53 35 66 37 86 38 55 39 40 40 41 41 49 42 42 43 48 44
REMARK SMILES IDX 43 45 44 46 45 47 46 48 47 49 70 50 71 51 79 52 72 53 78 54
REMARK SMILES IDX 73 55 74 56 75 57 76 58 77 59 56 60 57 61 65 62 58 63 64 64
REMARK SMILES IDX 59 65 60 66 61 67 62 68 63 69 8 70 9 71 10 72 11 73 12 74
REMARK SMILES IDX 13 75 14 76 15 77 16 78 24 79 17 80 23 81 18 83 22 84 19 85
REMARK SMILES IDX 21 86 20 87 25 88 26 89 30 90 27 91 29 92 28 93
REMARK H PARENT 84 25 54 36 24 82
REMARK Flexibility Score: inf
ROOT
ATOM      1  C   UNL A   1      41.981  18.984  25.896  1.00  0.00     0.188 C 
ENDROOT
BRANCH   1   2
ATOM      2  O   UNL A   1      43.397  18.962  26.105  1.00  0.00    -0.376 OA
BRANCH   2   3
ATOM      3  C   UNL A   1      44.147  19.189  24.904  1.00  0.00     0.202 C 
BRANCH   3   4
ATOM      4  C   UNL A   1      44.699  20.617  24.720  1.00  0.00     0.261 C 
BRANCH   4   5
ATOM      5  O   UNL A   1      44.465  21.487  25.843  1.00  0.00    -0.460 OA
BRANCH   5   6
ATOM      6  C   UNL A   1      43.802  22.671  25.891  1.00  0.00     0.338 C 
ATOM      7  O   UNL A   1      43.156  23.015  24.898  1.00  0.00    -0.246 OA
BRANCH   6   8
ATOM      8  C   UNL A   1      43.802  23.584  27.076  1.00  0.00     0.060 A 
ATOM      9  C   UNL A   1      43.423  23.216  28.364  1.00  0.00     0.016 A 
ATOM     10  C   UNL A   1      44.247  24.905  26.882  1.00  0.00     0.016 A 
ATOM     11  C   UNL A   1      43.343  24.140  29.394  1.00  0.00     0.010 A 
ATOM     12  C   UNL A   1      44.240  25.829  27.935  1.00  0.00     0.010 A 
ATOM     13  C   UNL A   1      43.740  25.455  29.187  1.00  0.00    -0.014 A 
BRANCH  13  14
ATOM     14  C   UNL A   1      43.492  26.423  30.276  1.00  0.00     0.031 A 
ATOM     15  C   UNL A   1      44.461  26.484  31.403  1.00  0.00     0.074 A 
ATOM     16  C   UNL A   1      42.516  27.343  30.175  1.00  0.00     0.049 A 
ATOM     17  N   UNL A   1      44.481  27.320  32.402  1.00  0.00    -0.248 NA
ATOM     18  C   UNL A   1      45.587  25.535  31.374  1.00  0.00     0.031 C 
ATOM     19  C   UNL A   1      41.661  27.481  29.010  1.00  0.00     0.029 A 
ATOM     20  N   UNL A   1      42.072  28.331  31.011  1.00  0.00    -0.354 N 
ATOM     21  C   UNL A   1      45.637  27.025  33.101  1.00  0.00     0.074 A 
ATOM     22  C   UNL A   1      46.265  25.898  32.450  1.00  0.00     0.031 C 
ATOM     23  C   UNL A   1      40.719  28.402  29.243  1.00  0.00     0.029 A 
ATOM     24  C   UNL A   1      40.955  28.985  30.540  1.00  0.00     0.049 A 
ATOM     25  H   UNL A   1      42.508  28.554  31.865  1.00  0.00     0.167 HD
ATOM     26  C   UNL A   1      46.135  27.672  34.175  1.00  0.00     0.031 A 
ATOM     27  C   UNL A   1      40.198  29.969  31.056  1.00  0.00     0.031 A 
ATOM     28  C   UNL A   1      45.459  28.761  34.823  1.00  0.00     0.049 A 
ATOM     29  C   UNL A   1      40.688  30.567  32.328  1.00  0.00     0.074 A 
ATOM     30  C   UNL A   1      45.810  29.424  35.984  1.00  0.00     0.029 A 
ATOM     31  N   UNL A   1      44.282  29.344  34.367  1.00  0.00    -0.354 N 
ATOM     32  N   UNL A   1      41.764  30.242  33.004  1.00  0.00    -0.248 NA
ATOM     33  C   UNL A   1      39.915  31.677  32.885  1.00  0.00     0.031 C 
ATOM     34  C   UNL A   1      44.814  30.368  36.259  1.00  0.00     0.029 A 
ATOM     35  C   UNL A   1      43.877  30.341  35.236  1.00  0.00     0.049 A 
ATOM     36  H   UNL A   1      43.806  29.085  33.544  1.00  0.00     0.167 HD
ATOM     37  C   UNL A   1      41.812  31.119  34.069  1.00  0.00     0.074 A 
ATOM     38  C   UNL A   1      40.672  32.010  33.922  1.00  0.00     0.031 C 
ATOM     39  C   UNL A   1      42.714  31.179  35.076  1.00  0.00     0.031 A 
BRANCH  26  40
ATOM     40  C   UNL A   1      47.430  27.151  34.722  1.00  0.00    -0.014 A 
ATOM     41  C   UNL A   1      47.454  26.102  35.660  1.00  0.00     0.010 A 
ATOM     42  C   UNL A   1      48.636  27.753  34.329  1.00  0.00     0.010 A 
ATOM     43  C   UNL A   1      48.664  25.685  36.220  1.00  0.00     0.020 A 
ATOM     44  C   UNL A   1      49.850  27.322  34.868  1.00  0.00     0.020 A 
ATOM     45  C   UNL A   1      49.854  26.300  35.819  1.00  0.00     0.054 A 
BRANCH  45  46
ATOM     46  S   UNL A   1      51.411  25.724  36.547  1.00  0.00     0.124 S 
ATOM     47  O   UNL A   1      50.954  24.654  37.430  1.00  0.00    -0.237 OA
ATOM     48  O   UNL A   1      52.171  25.298  35.380  1.00  0.00    -0.237 OA
ATOM     49  O   UNL A   1      51.932  26.912  37.229  1.00  0.00    -0.744 OA
ENDBRANCH  45  46
ENDBRANCH  26  40
BRANCH  27  50
ATOM     50  C   UNL A   1      38.957  30.428  30.366  1.00  0.00    -0.014 A 
ATOM     51  C   UNL A   1      38.963  31.503  29.461  1.00  0.00     0.010 A 
ATOM     52  C   UNL A   1      37.741  29.753  30.604  1.00  0.00     0.010 A 
ATOM     53  C   UNL A   1      37.776  31.922  28.844  1.00  0.00     0.020 A 
ATOM     54  C   UNL A   1      36.560  30.151  29.970  1.00  0.00     0.020 A 
ATOM     55  C   UNL A   1      36.581  31.249  29.112  1.00  0.00     0.054 A 
BRANCH  55  56
ATOM     56  S   UNL A   1      35.047  31.818  28.323  1.00  0.00     0.124 S 
ATOM     57  O   UNL A   1      34.660  30.648  27.541  1.00  0.00    -0.237 OA
ATOM     58  O   UNL A   1      34.197  32.125  29.469  1.00  0.00    -0.237 OA
ATOM     59  O   UNL A   1      35.478  32.978  27.546  1.00  0.00    -0.744 OA
ENDBRANCH  55  56
ENDBRANCH  27  50
BRANCH  39  60
ATOM     60  C   UNL A   1      42.474  32.248  36.094  1.00  0.00    -0.014 A 
ATOM     61  C   UNL A   1      41.766  31.969  37.276  1.00  0.00     0.010 A 
ATOM     62  C   UNL A   1      42.959  33.546  35.858  1.00  0.00     0.010 A 
ATOM     63  C   UNL A   1      41.503  32.987  38.188  1.00  0.00     0.020 A 
ATOM     64  C   UNL A   1      42.729  34.558  36.787  1.00  0.00     0.020 A 
ATOM     65  C   UNL A   1      41.986  34.275  37.935  1.00  0.00     0.054 A 
BRANCH  65  66
ATOM     66  S   UNL A   1      41.653  35.575  39.150  1.00  0.00     0.124 S 
ATOM     67  O   UNL A   1      42.905  35.614  39.900  1.00  0.00    -0.237 OA
ATOM     68  O   UNL A   1      41.384  36.737  38.309  1.00  0.00    -0.237 OA
ATOM     69  O   UNL A   1      40.499  35.067  39.889  1.00  0.00    -0.744 OA
ENDBRANCH  65  66
ENDBRANCH  39  60
ENDBRANCH  13  14
ENDBRANCH   6   8
ENDBRANCH   5   6
ENDBRANCH   4   5
ENDBRANCH   3   4
ENDBRANCH   2   3
ENDBRANCH   1   2
BRANCH   1  70
ATOM     70  C   UNL A   1      41.213  19.938  26.808  1.00  0.00     0.188 C 
BRANCH  70  71
ATOM     71  O   UNL A   1      40.096  20.619  26.251  1.00  0.00    -0.376 OA
BRANCH  71  72
ATOM     72  C   UNL A   1      39.994  22.019  26.477  1.00  0.00     0.202 C 
BRANCH  72  73
ATOM     73  C   UNL A   1      38.686  22.733  26.117  1.00  0.00     0.261 C 
BRANCH  73  74
ATOM     74  O   UNL A   1      37.513  21.911  26.055  1.00  0.00    -0.459 OA
BRANCH  74  75
ATOM     75  C   UNL A   1      36.854  21.949  24.858  1.00  0.00     0.365 C 
ATOM     76  O   UNL A   1      37.215  21.342  23.852  1.00  0.00    -0.245 OA
BRANCH  75  77
ATOM     77  C   UNL A   1      35.675  22.934  24.861  1.00  0.00     0.295 C 
ATOM     78  C   UNL A   1      35.596  23.907  23.667  1.00  0.00     0.078 C 
ATOM     79  N   UNL A   1      34.415  22.235  25.205  1.00  0.00    -0.317 N 
ATOM     80  C   UNL A   1      34.272  24.682  23.621  1.00  0.00     0.016 C 
ATOM     81  C   UNL A   1      33.274  23.158  25.371  1.00  0.00     0.188 C 
ATOM     82  H   UNL A   1      34.578  21.860  26.139  1.00  0.00     0.349 HD
ATOM     83  C   UNL A   1      33.534  24.628  24.944  1.00  0.00     0.048 C 
ATOM     84  C   UNL A   1      32.849  23.224  26.848  1.00  0.00     0.065 C 
ATOM     85  C   UNL A   1      32.180  25.350  24.901  1.00  0.00     0.010 C 
ATOM     86  C   UNL A   1      31.559  24.039  27.011  1.00  0.00     0.006 C 
ATOM     87  C   UNL A   1      31.577  25.400  26.305  1.00  0.00     0.001 C 
BRANCH  79  88
ATOM     88  C   UNL A   1      34.136  20.957  24.471  1.00  0.00     0.195 C 
ATOM     89  C   UNL A   1      32.769  20.955  23.768  1.00  0.00     0.067 C 
ATOM     90  C   UNL A   1      34.345  19.702  25.356  1.00  0.00     0.134 C 
ATOM     91  C   UNL A   1      32.341  19.681  23.041  1.00  0.00     0.017 C 
ATOM     92  S   UNL A   1      34.136  18.159  24.403  1.00  0.00    -0.156 SA
ATOM     93  C   UNL A   1      32.422  18.426  23.890  1.00  0.00     0.070 C 
ENDBRANCH  79  88
ENDBRANCH  75  77
ENDBRANCH  74  75
ENDBRANCH  73  74
ENDBRANCH  72  73
ENDBRANCH  71  72
ENDBRANCH  70  71
ENDBRANCH   1  70
TORSDOF 21
ENDMDL
