MODEL 1
REMARK VINA RESULT:      -8.7      0.000      0.000
REMARK SMILES CC[NH2+][C@@]1(C(=O)OCCOCCOCCOC(=O)c2ccc(-c3c4nc(c(-c5ccc(S(=O)(=O)[O-])cc5)c5ccc([nH]5)c(-c5ccc(S(=O)(=O)[O-])cc5)c5nc(c(-c6ccc(S(=O)(=O)[O-])cc6)c6ccc3[nH]6)C=C5)C=C4)cc2)CCC[C@H]1CCN1C(=O)CCC1=O
REMARK SMILES IDX 11 1 10 2 9 3 8 4 7 5 5 6 6 7 4 8 79 9 82 10 80 11 81 12
REMARK SMILES IDX 3 13 2 16 1 17 83 18 84 19 85 20 86 21 90 22 87 23 88 24
REMARK SMILES IDX 89 25 91 26 12 27 13 28 14 29 15 30 16 31 17 32 18 33 19 34
REMARK SMILES IDX 20 35 78 36 21 37 77 38 22 39 23 40 24 41 71 42 25 43 76 44
REMARK SMILES IDX 70 45 72 46 26 47 75 48 69 49 68 50 27 52 57 53 38 54 56 55
REMARK SMILES IDX 39 56 42 57 55 58 73 59 40 60 41 61 54 63 74 64 43 65 28 66
REMARK SMILES IDX 29 67 37 68 30 69 36 70 31 71 32 72 33 73 34 74 35 75 58 76
REMARK SMILES IDX 59 77 67 78 60 79 66 80 61 81 62 82 63 83 64 84 65 85 44 86
REMARK SMILES IDX 45 87 53 88 46 89 52 90 47 91 48 92 49 93 50 94 51 95
REMARK H PARENT 3 14 3 15 72 51 42 62
REMARK Flexibility Score: inf
ROOT
ATOM      1  C   UNL A   1      33.691  32.044  27.931  1.00  0.00     0.188 C 
ENDROOT
BRANCH   1   2
ATOM      2  O   UNL A   1      33.647  30.943  27.035  1.00  0.00    -0.376 OA
BRANCH   2   3
ATOM      3  C   UNL A   1      34.488  29.824  27.314  1.00  0.00     0.202 C 
BRANCH   3   4
ATOM      4  C   UNL A   1      34.445  28.618  26.359  1.00  0.00     0.261 C 
BRANCH   4   5
ATOM      5  O   UNL A   1      33.541  27.560  26.760  1.00  0.00    -0.459 OA
BRANCH   5   6
ATOM      6  C   UNL A   1      32.415  27.455  26.003  1.00  0.00     0.368 C 
ATOM      7  O   UNL A   1      31.443  28.196  26.152  1.00  0.00    -0.245 OA
BRANCH   6   8
ATOM      8  C   UNL A   1      32.447  26.323  24.888  1.00  0.00     0.197 C 
ATOM      9  C   UNL A   1      31.242  25.428  25.266  1.00  0.00     0.081 C 
ATOM     10  C   UNL A   1      33.614  25.267  24.913  1.00  0.00     0.064 C 
ATOM     11  C   UNL A   1      31.775  24.604  26.433  1.00  0.00     0.008 C 
ATOM     12  C   UNL A   1      33.247  24.359  26.117  1.00  0.00     0.011 C 
BRANCH   8  13
ATOM     13  N   UNL A   1      32.360  27.071  23.629  1.00  0.00    -0.332 N 
ATOM     14  H   UNL A   1      32.366  28.062  23.871  1.00  0.00     0.347 HD
ATOM     15  H   UNL A   1      33.152  26.725  23.087  1.00  0.00     0.347 HD
BRANCH  13  16
ATOM     16  C   UNL A   1      31.226  26.857  22.753  1.00  0.00     0.257 C 
ATOM     17  C   UNL A   1      30.332  28.091  22.732  1.00  0.00     0.071 C 
ENDBRANCH  13  16
ENDBRANCH   8  13
BRANCH  10  18
ATOM     18  C   UNL A   1      33.778  24.353  23.654  1.00  0.00     0.033 C 
BRANCH  18  19
ATOM     19  C   UNL A   1      33.855  22.823  23.805  1.00  0.00     0.129 C 
BRANCH  19  20
ATOM     20  N   UNL A   1      35.110  22.156  24.130  1.00  0.00    -0.283 N 
ATOM     21  C   UNL A   1      36.351  22.434  23.638  1.00  0.00     0.229 C 
ATOM     22  C   UNL A   1      35.181  21.350  25.239  1.00  0.00     0.229 C 
ATOM     23  O   UNL A   1      36.631  23.188  22.719  1.00  0.00    -0.274 OA
ATOM     24  C   UNL A   1      37.385  21.693  24.441  1.00  0.00     0.110 C 
ATOM     25  C   UNL A   1      36.599  20.939  25.488  1.00  0.00     0.110 C 
ATOM     26  O   UNL A   1      34.237  21.008  25.939  1.00  0.00    -0.274 OA
ENDBRANCH  19  20
ENDBRANCH  18  19
ENDBRANCH  10  18
ENDBRANCH   6   8
ENDBRANCH   5   6
ENDBRANCH   4   5
ENDBRANCH   3   4
ENDBRANCH   2   3
ENDBRANCH   1   2
BRANCH   1  27
ATOM     27  C   UNL A   1      34.785  32.035  29.007  1.00  0.00     0.188 C 
BRANCH  27  28
ATOM     28  O   UNL A   1      35.491  33.245  29.152  1.00  0.00    -0.376 OA
BRANCH  28  29
ATOM     29  C   UNL A   1      36.021  33.540  30.437  1.00  0.00     0.202 C 
BRANCH  29  30
ATOM     30  C   UNL A   1      35.951  32.522  31.598  1.00  0.00     0.261 C 
BRANCH  30  31
ATOM     31  O   UNL A   1      36.806  31.367  31.520  1.00  0.00    -0.460 OA
BRANCH  31  32
ATOM     32  C   UNL A   1      37.990  31.432  32.170  1.00  0.00     0.338 C 
ATOM     33  O   UNL A   1      38.190  31.856  33.294  1.00  0.00    -0.246 OA
BRANCH  32  34
ATOM     34  C   UNL A   1      39.022  30.744  31.366  1.00  0.00     0.060 A 
ATOM     35  C   UNL A   1      40.164  30.229  31.997  1.00  0.00     0.016 A 
ATOM     36  C   UNL A   1      38.935  30.742  29.976  1.00  0.00     0.016 A 
ATOM     37  C   UNL A   1      41.240  29.758  31.255  1.00  0.00     0.010 A 
ATOM     38  C   UNL A   1      40.014  30.261  29.230  1.00  0.00     0.010 A 
ATOM     39  C   UNL A   1      41.183  29.800  29.866  1.00  0.00    -0.014 A 
BRANCH  39  40
ATOM     40  C   UNL A   1      42.395  29.513  29.072  1.00  0.00     0.031 A 
ATOM     41  C   UNL A   1      42.583  28.126  28.533  1.00  0.00     0.074 A 
ATOM     42  C   UNL A   1      43.300  30.474  28.818  1.00  0.00     0.049 A 
ATOM     43  N   UNL A   1      43.665  27.554  28.082  1.00  0.00    -0.248 NA
ATOM     44  C   UNL A   1      41.386  27.267  28.508  1.00  0.00     0.031 C 
ATOM     45  C   UNL A   1      43.154  31.892  29.150  1.00  0.00     0.029 A 
ATOM     46  N   UNL A   1      44.538  30.389  28.236  1.00  0.00    -0.354 N 
ATOM     47  C   UNL A   1      43.297  26.250  27.773  1.00  0.00     0.074 A 
ATOM     48  C   UNL A   1      41.887  26.119  28.073  1.00  0.00     0.031 C 
ATOM     49  C   UNL A   1      44.274  32.540  28.790  1.00  0.00     0.029 A 
ATOM     50  C   UNL A   1      45.240  31.569  28.288  1.00  0.00     0.049 A 
ATOM     51  H   UNL A   1      44.887  29.567  27.822  1.00  0.00     0.167 HD
ATOM     52  C   UNL A   1      44.081  25.253  27.304  1.00  0.00     0.031 A 
ATOM     53  C   UNL A   1      46.539  31.816  28.034  1.00  0.00     0.031 A 
ATOM     54  C   UNL A   1      45.478  25.419  27.007  1.00  0.00     0.049 A 
ATOM     55  C   UNL A   1      47.425  30.672  27.624  1.00  0.00     0.074 A 
ATOM     56  C   UNL A   1      46.386  24.475  26.564  1.00  0.00     0.029 A 
ATOM     57  N   UNL A   1      46.166  26.620  27.113  1.00  0.00    -0.354 N 
ATOM     58  N   UNL A   1      47.108  29.411  27.435  1.00  0.00    -0.248 NA
ATOM     59  C   UNL A   1      48.846  30.975  27.407  1.00  0.00     0.031 C 
ATOM     60  C   UNL A   1      47.634  25.095  26.449  1.00  0.00     0.029 A 
ATOM     61  C   UNL A   1      47.490  26.439  26.759  1.00  0.00     0.049 A 
ATOM     62  H   UNL A   1      45.769  27.475  27.400  1.00  0.00     0.167 HD
ATOM     63  C   UNL A   1      48.284  28.778  27.048  1.00  0.00     0.074 A 
ATOM     64  C   UNL A   1      49.317  29.795  27.026  1.00  0.00     0.031 C 
ATOM     65  C   UNL A   1      48.491  27.476  26.732  1.00  0.00     0.031 A 
BRANCH  52  66
ATOM     66  C   UNL A   1      43.466  23.887  27.160  1.00  0.00    -0.014 A 
ATOM     67  C   UNL A   1      43.259  23.047  28.267  1.00  0.00     0.010 A 
ATOM     68  C   UNL A   1      43.065  23.450  25.883  1.00  0.00     0.010 A 
ATOM     69  C   UNL A   1      42.691  21.780  28.095  1.00  0.00     0.020 A 
ATOM     70  C   UNL A   1      42.473  22.196  25.711  1.00  0.00     0.020 A 
ATOM     71  C   UNL A   1      42.304  21.362  26.816  1.00  0.00     0.054 A 
BRANCH  71  72
ATOM     72  S   UNL A   1      41.553  19.722  26.624  1.00  0.00     0.124 S 
ATOM     73  O   UNL A   1      40.129  20.028  26.742  1.00  0.00    -0.237 OA
ATOM     74  O   UNL A   1      42.000  19.317  25.294  1.00  0.00    -0.237 OA
ATOM     75  O   UNL A   1      42.115  18.950  27.730  1.00  0.00    -0.744 OA
ENDBRANCH  71  72
ENDBRANCH  52  66
BRANCH  53  76
ATOM     76  C   UNL A   1      47.088  33.184  28.242  1.00  0.00    -0.014 A 
ATOM     77  C   UNL A   1      47.605  33.567  29.491  1.00  0.00     0.010 A 
ATOM     78  C   UNL A   1      47.114  34.108  27.180  1.00  0.00     0.010 A 
ATOM     79  C   UNL A   1      48.129  34.850  29.676  1.00  0.00     0.020 A 
ATOM     80  C   UNL A   1      47.664  35.381  27.353  1.00  0.00     0.020 A 
ATOM     81  C   UNL A   1      48.158  35.748  28.605  1.00  0.00     0.054 A 
BRANCH  81  82
ATOM     82  S   UNL A   1      48.891  37.389  28.855  1.00  0.00     0.124 S 
ATOM     83  O   UNL A   1      48.718  38.001  27.542  1.00  0.00    -0.237 OA
ATOM     84  O   UNL A   1      48.066  37.943  29.926  1.00  0.00    -0.237 OA
ATOM     85  O   UNL A   1      50.270  37.093  29.232  1.00  0.00    -0.744 OA
ENDBRANCH  81  82
ENDBRANCH  53  76
BRANCH  65  86
ATOM     86  C   UNL A   1      49.868  27.087  26.271  1.00  0.00    -0.014 A 
ATOM     87  C   UNL A   1      50.264  27.240  24.931  1.00  0.00     0.010 A 
ATOM     88  C   UNL A   1      50.803  26.633  27.219  1.00  0.00     0.010 A 
ATOM     89  C   UNL A   1      51.571  26.926  24.545  1.00  0.00     0.020 A 
ATOM     90  C   UNL A   1      52.116  26.343  26.842  1.00  0.00     0.020 A 
ATOM     91  C   UNL A   1      52.488  26.482  25.504  1.00  0.00     0.054 A 
BRANCH  91  92
ATOM     92  S   UNL A   1      54.193  26.142  24.990  1.00  0.00     0.124 S 
ATOM     93  O   UNL A   1      54.938  26.399  26.219  1.00  0.00    -0.237 OA
ATOM     94  O   UNL A   1      54.129  24.742  24.574  1.00  0.00    -0.237 OA
ATOM     95  O   UNL A   1      54.427  27.096  23.909  1.00  0.00    -0.744 OA
ENDBRANCH  91  92
ENDBRANCH  65  86
ENDBRANCH  39  40
ENDBRANCH  32  34
ENDBRANCH  31  32
ENDBRANCH  30  31
ENDBRANCH  29  30
ENDBRANCH  28  29
ENDBRANCH  27  28
ENDBRANCH   1  27
TORSDOF 25
ENDMDL
MODEL 2
REMARK VINA RESULT:      -8.7      6.108     10.753
REMARK SMILES CC[NH2+][C@@]1(C(=O)OCCOCCOCCOC(=O)c2ccc(-c3c4nc(c(-c5ccc(S(=O)(=O)[O-])cc5)c5ccc([nH]5)c(-c5ccc(S(=O)(=O)[O-])cc5)c5nc(c(-c6ccc(S(=O)(=O)[O-])cc6)c6ccc3[nH]6)C=C5)C=C4)cc2)CCC[C@H]1CCN1C(=O)CCC1=O
REMARK SMILES IDX 11 1 10 2 9 3 8 4 7 5 5 6 6 7 4 8 79 9 82 10 80 11 81 12
REMARK SMILES IDX 3 13 2 16 1 17 83 18 84 19 85 20 86 21 90 22 87 23 88 24
REMARK SMILES IDX 89 25 91 26 12 27 13 28 14 29 15 30 16 31 17 32 18 33 19 34
REMARK SMILES IDX 20 35 78 36 21 37 77 38 22 39 23 40 24 41 71 42 25 43 76 44
REMARK SMILES IDX 70 45 72 46 26 47 75 48 69 49 68 50 27 52 57 53 38 54 56 55
REMARK SMILES IDX 39 56 42 57 55 58 73 59 40 60 41 61 54 63 74 64 43 65 28 66
REMARK SMILES IDX 29 67 37 68 30 69 36 70 31 71 32 72 33 73 34 74 35 75 58 76
REMARK SMILES IDX 59 77 67 78 60 79 66 80 61 81 62 82 63 83 64 84 65 85 44 86
REMARK SMILES IDX 45 87 53 88 46 89 52 90 47 91 48 92 49 93 50 94 51 95
REMARK H PARENT 3 14 3 15 72 51 42 62
REMARK Flexibility Score: inf
ROOT
ATOM      1  C   UNL A   1      34.618  31.578  27.835  1.00  0.00     0.188 C 
ENDROOT
BRANCH   1   2
ATOM      2  O   UNL A   1      33.300  31.177  27.492  1.00  0.00    -0.376 OA
BRANCH   2   3
ATOM      3  C   UNL A   1      33.148  30.002  26.695  1.00  0.00     0.202 C 
BRANCH   3   4
ATOM      4  C   UNL A   1      32.200  28.896  27.192  1.00  0.00     0.261 C 
BRANCH   4   5
ATOM      5  O   UNL A   1      31.391  28.283  26.158  1.00  0.00    -0.459 OA
BRANCH   5   6
ATOM      6  C   UNL A   1      31.576  26.943  26.008  1.00  0.00     0.368 C 
ATOM      7  O   UNL A   1      31.472  26.150  26.944  1.00  0.00    -0.245 OA
BRANCH   6   8
ATOM      8  C   UNL A   1      31.909  26.464  24.530  1.00  0.00     0.197 C 
ATOM      9  C   UNL A   1      30.809  27.149  23.685  1.00  0.00     0.081 C 
ATOM     10  C   UNL A   1      31.671  24.955  24.151  1.00  0.00     0.064 C 
ATOM     11  C   UNL A   1      29.586  26.272  23.932  1.00  0.00     0.008 C 
ATOM     12  C   UNL A   1      30.126  24.851  24.057  1.00  0.00     0.011 C 
BRANCH   8  13
ATOM     13  N   UNL A   1      33.292  26.910  24.323  1.00  0.00    -0.332 N 
ATOM     14  H   UNL A   1      33.497  27.592  25.053  1.00  0.00     0.347 HD
ATOM     15  H   UNL A   1      33.830  26.043  24.338  1.00  0.00     0.347 HD
BRANCH  13  16
ATOM     16  C   UNL A   1      33.659  27.520  23.061  1.00  0.00     0.257 C 
ATOM     17  C   UNL A   1      34.151  28.945  23.284  1.00  0.00     0.071 C 
ENDBRANCH  13  16
ENDBRANCH   8  13
BRANCH  10  18
ATOM     18  C   UNL A   1      32.270  24.456  22.794  1.00  0.00     0.033 C 
BRANCH  18  19
ATOM     19  C   UNL A   1      33.581  23.650  22.769  1.00  0.00     0.129 C 
BRANCH  19  20
ATOM     20  N   UNL A   1      34.120  23.041  23.981  1.00  0.00    -0.283 N 
ATOM     21  C   UNL A   1      34.855  23.644  24.957  1.00  0.00     0.229 C 
ATOM     22  C   UNL A   1      33.645  21.821  24.392  1.00  0.00     0.229 C 
ATOM     23  O   UNL A   1      35.338  24.766  24.935  1.00  0.00    -0.274 OA
ATOM     24  C   UNL A   1      34.964  22.724  26.141  1.00  0.00     0.110 C 
ATOM     25  C   UNL A   1      34.186  21.490  25.749  1.00  0.00     0.110 C 
ATOM     26  O   UNL A   1      32.888  21.095  23.762  1.00  0.00    -0.274 OA
ENDBRANCH  19  20
ENDBRANCH  18  19
ENDBRANCH  10  18
ENDBRANCH   6   8
ENDBRANCH   5   6
ENDBRANCH   4   5
ENDBRANCH   3   4
ENDBRANCH   2   3
ENDBRANCH   1   2
BRANCH   1  27
ATOM     27  C   UNL A   1      34.799  32.370  29.137  1.00  0.00     0.188 C 
BRANCH  27  28
ATOM     28  O   UNL A   1      33.773  33.291  29.424  1.00  0.00    -0.376 OA
BRANCH  28  29
ATOM     29  C   UNL A   1      33.858  34.573  28.818  1.00  0.00     0.202 C 
BRANCH  29  30
ATOM     30  C   UNL A   1      33.159  35.809  29.429  1.00  0.00     0.261 C 
BRANCH  30  31
ATOM     31  O   UNL A   1      33.564  36.213  30.750  1.00  0.00    -0.460 OA
BRANCH  31  32
ATOM     32  C   UNL A   1      33.001  35.564  31.793  1.00  0.00     0.338 C 
ATOM     33  O   UNL A   1      31.814  35.369  31.985  1.00  0.00    -0.246 OA
BRANCH  32  34
ATOM     34  C   UNL A   1      34.067  34.957  32.619  1.00  0.00     0.060 A 
ATOM     35  C   UNL A   1      35.325  35.573  32.689  1.00  0.00     0.016 A 
ATOM     36  C   UNL A   1      33.871  33.707  33.200  1.00  0.00     0.016 A 
ATOM     37  C   UNL A   1      36.402  34.933  33.287  1.00  0.00     0.010 A 
ATOM     38  C   UNL A   1      34.953  33.066  33.810  1.00  0.00     0.010 A 
ATOM     39  C   UNL A   1      36.229  33.661  33.825  1.00  0.00    -0.014 A 
BRANCH  39  40
ATOM     40  C   UNL A   1      37.405  32.883  34.263  1.00  0.00     0.031 A 
ATOM     41  C   UNL A   1      37.877  33.037  35.678  1.00  0.00     0.074 A 
ATOM     42  C   UNL A   1      38.028  32.037  33.423  1.00  0.00     0.049 A 
ATOM     43  N   UNL A   1      39.024  32.713  36.206  1.00  0.00    -0.248 NA
ATOM     44  C   UNL A   1      36.925  33.650  36.621  1.00  0.00     0.031 C 
ATOM     45  C   UNL A   1      37.572  31.682  32.078  1.00  0.00     0.029 A 
ATOM     46  N   UNL A   1      39.198  31.340  33.578  1.00  0.00    -0.354 N 
ATOM     47  C   UNL A   1      38.958  33.132  37.530  1.00  0.00     0.074 A 
ATOM     48  C   UNL A   1      37.651  33.722  37.728  1.00  0.00     0.031 C 
ATOM     49  C   UNL A   1      38.469  30.852  31.521  1.00  0.00     0.029 A 
ATOM     50  C   UNL A   1      39.596  30.694  32.433  1.00  0.00     0.049 A 
ATOM     51  H   UNL A   1      39.700  31.305  34.425  1.00  0.00     0.167 HD
ATOM     52  C   UNL A   1      39.918  33.050  38.478  1.00  0.00     0.031 A 
ATOM     53  C   UNL A   1      40.772  30.111  32.132  1.00  0.00     0.031 A 
ATOM     54  C   UNL A   1      41.205  32.449  38.251  1.00  0.00     0.049 A 
ATOM     55  C   UNL A   1      41.871  30.129  33.159  1.00  0.00     0.074 A 
ATOM     56  C   UNL A   1      42.274  32.341  39.121  1.00  0.00     0.029 A 
ATOM     57  N   UNL A   1      41.589  31.843  37.063  1.00  0.00    -0.354 N 
ATOM     58  N   UNL A   1      41.853  30.622  34.375  1.00  0.00    -0.248 NA
ATOM     59  C   UNL A   1      43.155  29.528  32.770  1.00  0.00     0.031 C 
ATOM     60  C   UNL A   1      43.322  31.711  38.442  1.00  0.00     0.029 A 
ATOM     61  C   UNL A   1      42.883  31.371  37.171  1.00  0.00     0.049 A 
ATOM     62  H   UNL A   1      41.022  31.762  36.261  1.00  0.00     0.167 HD
ATOM     63  C   UNL A   1      43.111  30.363  34.909  1.00  0.00     0.074 A 
ATOM     64  C   UNL A   1      43.863  29.668  33.883  1.00  0.00     0.031 C 
ATOM     65  C   UNL A   1      43.600  30.667  36.137  1.00  0.00     0.031 A 
BRANCH  52  66
ATOM     66  C   UNL A   1      39.641  33.688  39.813  1.00  0.00    -0.014 A 
ATOM     67  C   UNL A   1      39.778  35.072  40.016  1.00  0.00     0.010 A 
ATOM     68  C   UNL A   1      39.208  32.879  40.880  1.00  0.00     0.010 A 
ATOM     69  C   UNL A   1      39.519  35.630  41.272  1.00  0.00     0.020 A 
ATOM     70  C   UNL A   1      38.923  33.436  42.130  1.00  0.00     0.020 A 
ATOM     71  C   UNL A   1      39.096  34.807  42.322  1.00  0.00     0.054 A 
BRANCH  71  72
ATOM     72  S   UNL A   1      38.748  35.559  43.935  1.00  0.00     0.124 S 
ATOM     73  O   UNL A   1      39.420  36.852  43.816  1.00  0.00    -0.237 OA
ATOM     74  O   UNL A   1      37.288  35.611  43.958  1.00  0.00    -0.237 OA
ATOM     75  O   UNL A   1      39.351  34.631  44.889  1.00  0.00    -0.744 OA
ENDBRANCH  71  72
ENDBRANCH  52  66
BRANCH  53  76
ATOM     76  C   UNL A   1      40.990  29.540  30.774  1.00  0.00    -0.014 A 
ATOM     77  C   UNL A   1      41.792  30.209  29.835  1.00  0.00     0.010 A 
ATOM     78  C   UNL A   1      40.409  28.307  30.421  1.00  0.00     0.010 A 
ATOM     79  C   UNL A   1      42.000  29.661  28.566  1.00  0.00     0.020 A 
ATOM     80  C   UNL A   1      40.640  27.741  29.165  1.00  0.00     0.020 A 
ATOM     81  C   UNL A   1      41.426  28.429  28.239  1.00  0.00     0.054 A 
BRANCH  81  82
ATOM     82  S   UNL A   1      41.754  27.713  26.605  1.00  0.00     0.124 S 
ATOM     83  O   UNL A   1      40.878  26.546  26.604  1.00  0.00    -0.237 OA
ATOM     84  O   UNL A   1      41.370  28.795  25.702  1.00  0.00    -0.237 OA
ATOM     85  O   UNL A   1      43.185  27.422  26.641  1.00  0.00    -0.744 OA
ENDBRANCH  81  82
ENDBRANCH  53  76
BRANCH  65  86
ATOM     86  C   UNL A   1      44.987  30.191  36.466  1.00  0.00    -0.014 A 
ATOM     87  C   UNL A   1      46.113  31.001  36.242  1.00  0.00     0.010 A 
ATOM     88  C   UNL A   1      45.150  28.938  37.085  1.00  0.00     0.010 A 
ATOM     89  C   UNL A   1      47.385  30.555  36.614  1.00  0.00     0.020 A 
ATOM     90  C   UNL A   1      46.415  28.500  37.482  1.00  0.00     0.020 A 
ATOM     91  C   UNL A   1      47.526  29.308  37.234  1.00  0.00     0.054 A 
BRANCH  91  92
ATOM     92  S   UNL A   1      49.177  28.779  37.765  1.00  0.00     0.124 S 
ATOM     93  O   UNL A   1      49.412  29.635  38.925  1.00  0.00    -0.237 OA
ATOM     94  O   UNL A   1      48.980  27.362  38.059  1.00  0.00    -0.237 OA
ATOM     95  O   UNL A   1      50.021  29.057  36.605  1.00  0.00    -0.744 OA
ENDBRANCH  91  92
ENDBRANCH  65  86
ENDBRANCH  39  40
ENDBRANCH  32  34
ENDBRANCH  31  32
ENDBRANCH  30  31
ENDBRANCH  29  30
ENDBRANCH  28  29
ENDBRANCH  27  28
ENDBRANCH   1  27
TORSDOF 25
ENDMDL
MODEL 3
REMARK VINA RESULT:      -8.2      5.669      8.656
REMARK SMILES CC[NH2+][C@@]1(C(=O)OCCOCCOCCOC(=O)c2ccc(-c3c4nc(c(-c5ccc(S(=O)(=O)[O-])cc5)c5ccc([nH]5)c(-c5ccc(S(=O)(=O)[O-])cc5)c5nc(c(-c6ccc(S(=O)(=O)[O-])cc6)c6ccc3[nH]6)C=C5)C=C4)cc2)CCC[C@H]1CCN1C(=O)CCC1=O
REMARK SMILES IDX 11 1 10 2 9 3 8 4 7 5 5 6 6 7 4 8 79 9 82 10 80 11 81 12
REMARK SMILES IDX 3 13 2 16 1 17 83 18 84 19 85 20 86 21 90 22 87 23 88 24
REMARK SMILES IDX 89 25 91 26 12 27 13 28 14 29 15 30 16 31 17 32 18 33 19 34
REMARK SMILES IDX 20 35 78 36 21 37 77 38 22 39 23 40 24 41 71 42 25 43 76 44
REMARK SMILES IDX 70 45 72 46 26 47 75 48 69 49 68 50 27 52 57 53 38 54 56 55
REMARK SMILES IDX 39 56 42 57 55 58 73 59 40 60 41 61 54 63 74 64 43 65 28 66
REMARK SMILES IDX 29 67 37 68 30 69 36 70 31 71 32 72 33 73 34 74 35 75 58 76
REMARK SMILES IDX 59 77 67 78 60 79 66 80 61 81 62 82 63 83 64 84 65 85 44 86
REMARK SMILES IDX 45 87 53 88 46 89 52 90 47 91 48 92 49 93 50 94 51 95
REMARK H PARENT 3 14 3 15 72 51 42 62
REMARK Flexibility Score: inf
ROOT
ATOM      1  C   UNL A   1      33.256  29.001  25.239  1.00  0.00     0.188 C 
ENDROOT
BRANCH   1   2
ATOM      2  O   UNL A   1      33.879  28.022  26.057  1.00  0.00    -0.376 OA
BRANCH   2   3
ATOM      3  C   UNL A   1      33.585  26.650  25.794  1.00  0.00     0.202 C 
BRANCH   3   4
ATOM      4  C   UNL A   1      33.156  26.252  24.371  1.00  0.00     0.261 C 
BRANCH   4   5
ATOM      5  O   UNL A   1      32.282  25.098  24.302  1.00  0.00    -0.459 OA
BRANCH   5   6
ATOM      6  C   UNL A   1      32.440  24.202  25.315  1.00  0.00     0.368 C 
ATOM      7  O   UNL A   1      31.813  24.279  26.373  1.00  0.00    -0.245 OA
BRANCH   6   8
ATOM      8  C   UNL A   1      33.472  23.028  25.032  1.00  0.00     0.197 C 
ATOM      9  C   UNL A   1      33.560  23.009  23.486  1.00  0.00     0.081 C 
ATOM     10  C   UNL A   1      33.030  21.545  25.317  1.00  0.00     0.064 C 
ATOM     11  C   UNL A   1      32.283  22.285  23.076  1.00  0.00     0.008 C 
ATOM     12  C   UNL A   1      32.045  21.237  24.158  1.00  0.00     0.011 C 
BRANCH   8  13
ATOM     13  N   UNL A   1      34.674  23.435  25.768  1.00  0.00    -0.332 N 
ATOM     14  H   UNL A   1      34.420  24.251  26.325  1.00  0.00     0.347 HD
ATOM     15  H   UNL A   1      34.939  22.593  26.280  1.00  0.00     0.347 HD
BRANCH  13  16
ATOM     16  C   UNL A   1      35.874  23.781  25.034  1.00  0.00     0.257 C 
ATOM     17  C   UNL A   1      37.060  22.973  25.546  1.00  0.00     0.071 C 
ENDBRANCH  13  16
ENDBRANCH   8  13
BRANCH  10  18
ATOM     18  C   UNL A   1      34.148  20.450  25.300  1.00  0.00     0.033 C 
BRANCH  18  19
ATOM     19  C   UNL A   1      34.046  19.245  24.349  1.00  0.00     0.129 C 
BRANCH  19  20
ATOM     20  N   UNL A   1      33.981  17.880  24.860  1.00  0.00    -0.283 N 
ATOM     21  C   UNL A   1      32.873  17.100  25.008  1.00  0.00     0.229 C 
ATOM     22  C   UNL A   1      35.132  17.138  24.955  1.00  0.00     0.229 C 
ATOM     23  O   UNL A   1      31.706  17.441  24.890  1.00  0.00    -0.274 OA
ATOM     24  C   UNL A   1      33.293  15.687  25.305  1.00  0.00     0.110 C 
ATOM     25  C   UNL A   1      34.803  15.720  25.306  1.00  0.00     0.110 C 
ATOM     26  O   UNL A   1      36.270  17.552  24.778  1.00  0.00    -0.274 OA
ENDBRANCH  19  20
ENDBRANCH  18  19
ENDBRANCH  10  18
ENDBRANCH   6   8
ENDBRANCH   5   6
ENDBRANCH   4   5
ENDBRANCH   3   4
ENDBRANCH   2   3
ENDBRANCH   1   2
BRANCH   1  27
ATOM     27  C   UNL A   1      31.871  29.504  25.670  1.00  0.00     0.188 C 
BRANCH  27  28
ATOM     28  O   UNL A   1      31.866  30.348  26.798  1.00  0.00    -0.376 OA
BRANCH  28  29
ATOM     29  C   UNL A   1      31.745  31.745  26.566  1.00  0.00     0.202 C 
BRANCH  29  30
ATOM     30  C   UNL A   1      32.352  32.784  27.537  1.00  0.00     0.261 C 
BRANCH  30  31
ATOM     31  O   UNL A   1      33.704  32.569  27.978  1.00  0.00    -0.460 OA
BRANCH  31  32
ATOM     32  C   UNL A   1      34.541  33.630  27.943  1.00  0.00     0.338 C 
ATOM     33  O   UNL A   1      34.431  34.631  27.257  1.00  0.00    -0.246 OA
BRANCH  32  34
ATOM     34  C   UNL A   1      35.559  33.481  29.005  1.00  0.00     0.060 A 
ATOM     35  C   UNL A   1      36.757  34.204  28.924  1.00  0.00     0.016 A 
ATOM     36  C   UNL A   1      35.394  32.518  29.996  1.00  0.00     0.016 A 
ATOM     37  C   UNL A   1      37.811  33.942  29.789  1.00  0.00     0.010 A 
ATOM     38  C   UNL A   1      36.451  32.259  30.874  1.00  0.00     0.010 A 
ATOM     39  C   UNL A   1      37.674  32.945  30.750  1.00  0.00    -0.014 A 
BRANCH  39  40
ATOM     40  C   UNL A   1      38.852  32.506  31.525  1.00  0.00     0.031 A 
ATOM     41  C   UNL A   1      39.696  31.395  30.974  1.00  0.00     0.074 A 
ATOM     42  C   UNL A   1      39.178  33.100  32.686  1.00  0.00     0.049 A 
ATOM     43  N   UNL A   1      40.573  30.645  31.580  1.00  0.00    -0.248 NA
ATOM     44  C   UNL A   1      39.515  31.085  29.544  1.00  0.00     0.031 C 
ATOM     45  C   UNL A   1      38.533  34.289  33.246  1.00  0.00     0.029 A 
ATOM     46  N   UNL A   1      40.127  32.762  33.615  1.00  0.00    -0.354 N 
ATOM     47  C   UNL A   1      41.011  29.735  30.625  1.00  0.00     0.074 A 
ATOM     48  C   UNL A   1      40.312  30.037  29.394  1.00  0.00     0.031 C 
ATOM     49  C   UNL A   1      39.089  34.565  34.437  1.00  0.00     0.029 A 
ATOM     50  C   UNL A   1      40.059  33.523  34.757  1.00  0.00     0.049 A 
ATOM     51  H   UNL A   1      40.790  32.047  33.478  1.00  0.00     0.167 HD
ATOM     52  C   UNL A   1      41.898  28.727  30.780  1.00  0.00     0.031 A 
ATOM     53  C   UNL A   1      40.656  33.349  35.952  1.00  0.00     0.031 A 
ATOM     54  C   UNL A   1      42.583  28.460  32.017  1.00  0.00     0.049 A 
ATOM     55  C   UNL A   1      41.552  32.156  36.144  1.00  0.00     0.074 A 
ATOM     56  C   UNL A   1      43.474  27.444  32.309  1.00  0.00     0.029 A 
ATOM     57  N   UNL A   1      42.456  29.228  33.166  1.00  0.00    -0.354 N 
ATOM     58  N   UNL A   1      41.884  31.227  35.277  1.00  0.00    -0.248 NA
ATOM     59  C   UNL A   1      42.141  31.975  37.478  1.00  0.00     0.031 C 
ATOM     60  C   UNL A   1      43.849  27.571  33.650  1.00  0.00     0.029 A 
ATOM     61  C   UNL A   1      43.241  28.702  34.174  1.00  0.00     0.049 A 
ATOM     62  H   UNL A   1      41.889  30.029  33.250  1.00  0.00     0.167 HD
ATOM     63  C   UNL A   1      42.746  30.369  35.951  1.00  0.00     0.074 A 
ATOM     64  C   UNL A   1      42.885  30.892  37.297  1.00  0.00     0.031 C 
ATOM     65  C   UNL A   1      43.372  29.254  35.500  1.00  0.00     0.031 A 
BRANCH  52  66
ATOM     66  C   UNL A   1      42.117  27.800  29.615  1.00  0.00    -0.014 A 
ATOM     67  C   UNL A   1      43.244  27.909  28.783  1.00  0.00     0.010 A 
ATOM     68  C   UNL A   1      41.178  26.781  29.367  1.00  0.00     0.010 A 
ATOM     69  C   UNL A   1      43.412  27.035  27.704  1.00  0.00     0.020 A 
ATOM     70  C   UNL A   1      41.356  25.889  28.306  1.00  0.00     0.020 A 
ATOM     71  C   UNL A   1      42.464  26.032  27.471  1.00  0.00     0.054 A 
BRANCH  71  72
ATOM     72  S   UNL A   1      42.716  24.900  26.076  1.00  0.00     0.124 S 
ATOM     73  O   UNL A   1      42.206  25.685  24.955  1.00  0.00    -0.237 OA
ATOM     74  O   UNL A   1      44.161  24.688  26.090  1.00  0.00    -0.237 OA
ATOM     75  O   UNL A   1      41.914  23.730  26.430  1.00  0.00    -0.744 OA
ENDBRANCH  71  72
ENDBRANCH  52  66
BRANCH  53  76
ATOM     76  C   UNL A   1      40.357  34.282  37.073  1.00  0.00    -0.014 A 
ATOM     77  C   UNL A   1      41.147  35.424  37.287  1.00  0.00     0.010 A 
ATOM     78  C   UNL A   1      39.263  34.039  37.924  1.00  0.00     0.010 A 
ATOM     79  C   UNL A   1      40.853  36.299  38.336  1.00  0.00     0.020 A 
ATOM     80  C   UNL A   1      38.948  34.928  38.955  1.00  0.00     0.020 A 
ATOM     81  C   UNL A   1      39.753  36.048  39.162  1.00  0.00     0.054 A 
BRANCH  81  82
ATOM     82  S   UNL A   1      39.360  37.227  40.483  1.00  0.00     0.124 S 
ATOM     83  O   UNL A   1      38.613  36.395  41.420  1.00  0.00    -0.237 OA
ATOM     84  O   UNL A   1      40.684  37.654  40.931  1.00  0.00    -0.237 OA
ATOM     85  O   UNL A   1      38.581  38.257  39.801  1.00  0.00    -0.744 OA
ENDBRANCH  81  82
ENDBRANCH  53  76
BRANCH  65  86
ATOM     86  C   UNL A   1      44.315  28.561  36.442  1.00  0.00    -0.014 A 
ATOM     87  C   UNL A   1      45.637  29.004  36.615  1.00  0.00     0.010 A 
ATOM     88  C   UNL A   1      43.837  27.493  37.223  1.00  0.00     0.010 A 
ATOM     89  C   UNL A   1      46.473  28.375  37.543  1.00  0.00     0.020 A 
ATOM     90  C   UNL A   1      44.660  26.880  38.170  1.00  0.00     0.020 A 
ATOM     91  C   UNL A   1      45.977  27.320  38.316  1.00  0.00     0.054 A 
BRANCH  91  92
ATOM     92  S   UNL A   1      47.060  26.562  39.558  1.00  0.00     0.124 S 
ATOM     93  O   UNL A   1      48.368  27.097  39.187  1.00  0.00    -0.237 OA
ATOM     94  O   UNL A   1      46.509  27.065  40.814  1.00  0.00    -0.237 OA
ATOM     95  O   UNL A   1      46.889  25.128  39.339  1.00  0.00    -0.744 OA
ENDBRANCH  91  92
ENDBRANCH  65  86
ENDBRANCH  39  40
ENDBRANCH  32  34
ENDBRANCH  31  32
ENDBRANCH  30  31
ENDBRANCH  29  30
ENDBRANCH  28  29
ENDBRANCH  27  28
ENDBRANCH   1  27
TORSDOF 25
ENDMDL
