MODEL 1
REMARK VINA RESULT:      -9.9      0.000      0.000
REMARK SMILES O=C(OCCOCCOCCOC(=O)[C@H]1CCCCN1C(=O)c1nc(C2CC2)n[nH]1)c1ccc(-c2c3nc(c(-c4ccc(S(=O)(=O)[O-])cc4)c4ccc([nH]4)c(-c4ccc(S(=O)(=O)[O-])cc4)c4nc(c(-c5ccc(S(=O)(=O)[O-])cc5)c5ccc2[nH]5)C=C4)C=C3)cc1
REMARK SMILES IDX 7 1 6 2 5 3 4 4 3 5 2 6 1 7 31 8 32 9 90 10 33 11 89 12
REMARK SMILES IDX 34 13 35 14 36 15 83 16 37 17 88 18 82 19 84 20 38 21 87 22
REMARK SMILES IDX 81 23 80 24 39 26 69 27 50 28 68 29 51 30 54 31 67 32 85 33
REMARK SMILES IDX 52 34 53 35 66 37 86 38 55 39 40 40 41 41 49 42 42 43 48 44
REMARK SMILES IDX 43 45 44 46 45 47 46 48 47 49 70 50 71 51 79 52 72 53 78 54
REMARK SMILES IDX 73 55 74 56 75 57 76 58 77 59 56 60 57 61 65 62 58 63 64 64
REMARK SMILES IDX 59 65 60 66 61 67 62 68 63 69 8 70 9 71 10 72 11 73 12 74
REMARK SMILES IDX 13 75 14 76 15 77 16 78 20 79 17 80 19 81 18 82 21 83 22 84
REMARK SMILES IDX 23 85 24 86 30 87 25 88 29 89 26 91 27 92 28 93
REMARK H PARENT 84 25 54 36 30 90
REMARK Flexibility Score: inf
ROOT
ATOM      1  C   UNL A   1      36.498  23.280  25.831  1.00  0.00     0.188 C 
ENDROOT
BRANCH   1   2
ATOM      2  O   UNL A   1      37.915  23.414  25.831  1.00  0.00    -0.376 OA
BRANCH   2   3
ATOM      3  C   UNL A   1      38.474  24.324  26.771  1.00  0.00     0.202 C 
BRANCH   3   4
ATOM      4  C   UNL A   1      40.006  24.351  26.846  1.00  0.00     0.261 C 
BRANCH   4   5
ATOM      5  O   UNL A   1      40.597  25.223  25.894  1.00  0.00    -0.460 OA
BRANCH   5   6
ATOM      6  C   UNL A   1      41.005  26.489  26.139  1.00  0.00     0.338 C 
ATOM      7  O   UNL A   1      41.859  26.941  25.369  1.00  0.00    -0.246 OA
BRANCH   6   8
ATOM      8  C   UNL A   1      40.513  27.366  27.276  1.00  0.00     0.060 A 
ATOM      9  C   UNL A   1      39.777  28.565  27.311  1.00  0.00     0.016 A 
ATOM     10  C   UNL A   1      40.848  26.874  28.515  1.00  0.00     0.016 A 
ATOM     11  C   UNL A   1      39.540  29.306  28.519  1.00  0.00     0.010 A 
ATOM     12  C   UNL A   1      40.628  27.640  29.664  1.00  0.00     0.010 A 
ATOM     13  C   UNL A   1      40.051  28.885  29.734  1.00  0.00    -0.014 A 
BRANCH  13  14
ATOM     14  C   UNL A   1      39.928  29.537  31.079  1.00  0.00     0.031 A 
ATOM     15  C   UNL A   1      40.788  29.193  32.273  1.00  0.00     0.074 A 
ATOM     16  C   UNL A   1      38.921  30.371  31.382  1.00  0.00     0.049 A 
ATOM     17  N   UNL A   1      41.886  29.782  32.669  1.00  0.00    -0.248 NA
ATOM     18  C   UNL A   1      40.352  28.142  33.200  1.00  0.00     0.031 C 
ATOM     19  C   UNL A   1      37.841  30.786  30.495  1.00  0.00     0.029 A 
ATOM     20  N   UNL A   1      38.670  31.028  32.560  1.00  0.00    -0.354 N 
ATOM     21  C   UNL A   1      42.403  28.980  33.684  1.00  0.00     0.074 A 
ATOM     22  C   UNL A   1      41.420  27.961  33.969  1.00  0.00     0.031 C 
ATOM     23  C   UNL A   1      37.065  31.674  31.145  1.00  0.00     0.029 A 
ATOM     24  C   UNL A   1      37.608  31.890  32.483  1.00  0.00     0.049 A 
ATOM     25  H   UNL A   1      39.200  30.893  33.379  1.00  0.00     0.167 HD
ATOM     26  C   UNL A   1      43.275  29.300  34.668  1.00  0.00     0.031 A 
ATOM     27  C   UNL A   1      37.183  32.787  33.391  1.00  0.00     0.031 A 
ATOM     28  C   UNL A   1      42.915  30.288  35.655  1.00  0.00     0.049 A 
ATOM     29  C   UNL A   1      38.006  32.995  34.642  1.00  0.00     0.074 A 
ATOM     30  C   UNL A   1      43.498  30.552  36.879  1.00  0.00     0.029 A 
ATOM     31  N   UNL A   1      41.793  31.107  35.557  1.00  0.00    -0.354 N 
ATOM     32  N   UNL A   1      39.112  32.390  35.019  1.00  0.00    -0.248 NA
ATOM     33  C   UNL A   1      37.552  34.049  35.556  1.00  0.00     0.031 C 
ATOM     34  C   UNL A   1      42.668  31.449  37.566  1.00  0.00     0.029 A 
ATOM     35  C   UNL A   1      41.635  31.830  36.723  1.00  0.00     0.049 A 
ATOM     36  H   UNL A   1      41.201  31.162  34.773  1.00  0.00     0.167 HD
ATOM     37  C   UNL A   1      39.520  33.040  36.184  1.00  0.00     0.074 A 
ATOM     38  C   UNL A   1      38.533  34.069  36.447  1.00  0.00     0.031 C 
ATOM     39  C   UNL A   1      40.621  32.833  36.952  1.00  0.00     0.031 A 
BRANCH  26  40
ATOM     40  C   UNL A   1      44.244  28.186  34.988  1.00  0.00    -0.014 A 
ATOM     41  C   UNL A   1      43.927  27.317  36.047  1.00  0.00     0.010 A 
ATOM     42  C   UNL A   1      45.444  27.973  34.281  1.00  0.00     0.010 A 
ATOM     43  C   UNL A   1      44.783  26.269  36.397  1.00  0.00     0.020 A 
ATOM     44  C   UNL A   1      46.306  26.920  34.625  1.00  0.00     0.020 A 
ATOM     45  C   UNL A   1      45.970  26.078  35.688  1.00  0.00     0.054 A 
BRANCH  45  46
ATOM     46  S   UNL A   1      47.058  24.709  36.176  1.00  0.00     0.124 S 
ATOM     47  O   UNL A   1      47.136  24.885  37.627  1.00  0.00    -0.237 OA
ATOM     48  O   UNL A   1      46.303  23.534  35.732  1.00  0.00    -0.237 OA
ATOM     49  O   UNL A   1      48.292  24.963  35.452  1.00  0.00    -0.744 OA
ENDBRANCH  45  46
ENDBRANCH  26  40
BRANCH  27  50
ATOM     50  C   UNL A   1      35.991  33.620  33.098  1.00  0.00    -0.014 A 
ATOM     51  C   UNL A   1      36.131  34.925  32.595  1.00  0.00     0.010 A 
ATOM     52  C   UNL A   1      34.701  33.104  33.315  1.00  0.00     0.010 A 
ATOM     53  C   UNL A   1      35.004  35.712  32.347  1.00  0.00     0.020 A 
ATOM     54  C   UNL A   1      33.570  33.880  33.046  1.00  0.00     0.020 A 
ATOM     55  C   UNL A   1      33.730  35.185  32.577  1.00  0.00     0.054 A 
BRANCH  55  56
ATOM     56  S   UNL A   1      32.286  36.226  32.231  1.00  0.00     0.124 S 
ATOM     57  O   UNL A   1      32.258  36.234  30.774  1.00  0.00    -0.237 OA
ATOM     58  O   UNL A   1      31.208  35.493  32.885  1.00  0.00    -0.237 OA
ATOM     59  O   UNL A   1      32.630  37.506  32.856  1.00  0.00    -0.744 OA
ENDBRANCH  55  56
ENDBRANCH  27  50
BRANCH  39  60
ATOM     60  C   UNL A   1      40.855  33.769  38.111  1.00  0.00    -0.014 A 
ATOM     61  C   UNL A   1      40.791  33.345  39.450  1.00  0.00     0.010 A 
ATOM     62  C   UNL A   1      41.233  35.096  37.830  1.00  0.00     0.010 A 
ATOM     63  C   UNL A   1      41.067  34.243  40.486  1.00  0.00     0.020 A 
ATOM     64  C   UNL A   1      41.543  35.985  38.860  1.00  0.00     0.020 A 
ATOM     65  C   UNL A   1      41.444  35.556  40.183  1.00  0.00     0.054 A 
BRANCH  65  66
ATOM     66  S   UNL A   1      41.856  36.689  41.538  1.00  0.00     0.124 S 
ATOM     67  O   UNL A   1      42.778  37.616  40.885  1.00  0.00    -0.237 OA
ATOM     68  O   UNL A   1      40.553  37.248  41.894  1.00  0.00    -0.237 OA
ATOM     69  O   UNL A   1      42.453  35.822  42.546  1.00  0.00    -0.744 OA
ENDBRANCH  65  66
ENDBRANCH  39  60
ENDBRANCH  13  14
ENDBRANCH   6   8
ENDBRANCH   5   6
ENDBRANCH   4   5
ENDBRANCH   3   4
ENDBRANCH   2   3
ENDBRANCH   1   2
BRANCH   1  70
ATOM     70  C   UNL A   1      35.605  24.352  25.187  1.00  0.00     0.188 C 
BRANCH  70  71
ATOM     71  O   UNL A   1      35.124  24.212  23.868  1.00  0.00    -0.376 OA
BRANCH  71  72
ATOM     72  C   UNL A   1      34.220  23.160  23.604  1.00  0.00     0.202 C 
BRANCH  72  73
ATOM     73  C   UNL A   1      33.220  23.271  22.431  1.00  0.00     0.261 C 
BRANCH  73  74
ATOM     74  O   UNL A   1      32.216  24.334  22.444  1.00  0.00    -0.462 OA
BRANCH  74  75
ATOM     75  C   UNL A   1      32.620  25.493  21.854  1.00  0.00     0.328 C 
ATOM     76  O   UNL A   1      33.264  25.483  20.802  1.00  0.00    -0.250 OA
BRANCH  75  77
ATOM     77  C   UNL A   1      32.341  26.864  22.605  1.00  0.00     0.195 C 
ATOM     78  C   UNL A   1      30.790  27.014  22.592  1.00  0.00     0.037 C 
ATOM     79  N   UNL A   1      32.817  27.359  23.965  1.00  0.00    -0.322 N 
ATOM     80  C   UNL A   1      30.155  26.299  23.787  1.00  0.00     0.005 C 
ATOM     81  C   UNL A   1      32.233  26.673  25.101  1.00  0.00     0.121 C 
ATOM     82  C   UNL A   1      30.722  26.854  25.089  1.00  0.00     0.022 C 
BRANCH  79  83
ATOM     83  C   UNL A   1      33.276  28.706  24.114  1.00  0.00     0.291 C 
ATOM     84  O   UNL A   1      33.674  29.301  23.105  1.00  0.00    -0.265 OA
BRANCH  83  85
ATOM     85  C   UNL A   1      33.282  29.441  25.413  1.00  0.00     0.214 A 
ATOM     86  N   UNL A   1      34.171  29.495  26.411  1.00  0.00    -0.207 NA
ATOM     87  N   UNL A   1      32.306  30.359  25.718  1.00  0.00    -0.255 N 
ATOM     88  C   UNL A   1      33.749  30.543  27.234  1.00  0.00     0.154 A 
ATOM     89  N   UNL A   1      32.512  30.952  26.916  1.00  0.00    -0.158 NA
ATOM     90  H   UNL A   1      31.542  30.561  25.130  1.00  0.00     0.192 HD
BRANCH  88  91
ATOM     91  C   UNL A   1      34.617  31.389  28.278  1.00  0.00     0.060 C 
ATOM     92  C   UNL A   1      35.480  32.585  27.904  1.00  0.00     0.012 C 
ATOM     93  C   UNL A   1      34.295  32.821  28.759  1.00  0.00     0.012 C 
ENDBRANCH  88  91
ENDBRANCH  83  85
ENDBRANCH  79  83
ENDBRANCH  75  77
ENDBRANCH  74  75
ENDBRANCH  73  74
ENDBRANCH  72  73
ENDBRANCH  71  72
ENDBRANCH  70  71
ENDBRANCH   1  70
TORSDOF 23
ENDMDL
MODEL 2
REMARK VINA RESULT:      -9.8      2.434      9.054
REMARK SMILES O=C(OCCOCCOCCOC(=O)[C@H]1CCCCN1C(=O)c1nc(C2CC2)n[nH]1)c1ccc(-c2c3nc(c(-c4ccc(S(=O)(=O)[O-])cc4)c4ccc([nH]4)c(-c4ccc(S(=O)(=O)[O-])cc4)c4nc(c(-c5ccc(S(=O)(=O)[O-])cc5)c5ccc2[nH]5)C=C4)C=C3)cc1
REMARK SMILES IDX 7 1 6 2 5 3 4 4 3 5 2 6 1 7 31 8 32 9 90 10 33 11 89 12
REMARK SMILES IDX 34 13 35 14 36 15 83 16 37 17 88 18 82 19 84 20 38 21 87 22
REMARK SMILES IDX 81 23 80 24 39 26 69 27 50 28 68 29 51 30 54 31 67 32 85 33
REMARK SMILES IDX 52 34 53 35 66 37 86 38 55 39 40 40 41 41 49 42 42 43 48 44
REMARK SMILES IDX 43 45 44 46 45 47 46 48 47 49 70 50 71 51 79 52 72 53 78 54
REMARK SMILES IDX 73 55 74 56 75 57 76 58 77 59 56 60 57 61 65 62 58 63 64 64
REMARK SMILES IDX 59 65 60 66 61 67 62 68 63 69 8 70 9 71 10 72 11 73 12 74
REMARK SMILES IDX 13 75 14 76 15 77 16 78 20 79 17 80 19 81 18 82 21 83 22 84
REMARK SMILES IDX 23 85 24 86 30 87 25 88 29 89 26 91 27 92 28 93
REMARK H PARENT 84 25 54 36 30 90
REMARK Flexibility Score: inf
ROOT
ATOM      1  C   UNL A   1      34.364  32.918  28.340  1.00  0.00     0.188 C 
ENDROOT
BRANCH   1   2
ATOM      2  O   UNL A   1      33.334  33.902  28.334  1.00  0.00    -0.376 OA
BRANCH   2   3
ATOM      3  C   UNL A   1      33.746  35.262  28.394  1.00  0.00     0.202 C 
BRANCH   3   4
ATOM      4  C   UNL A   1      32.793  36.217  29.124  1.00  0.00     0.261 C 
BRANCH   4   5
ATOM      5  O   UNL A   1      33.155  36.443  30.477  1.00  0.00    -0.460 OA
BRANCH   5   6
ATOM      6  C   UNL A   1      33.075  35.531  31.473  1.00  0.00     0.338 C 
ATOM      7  O   UNL A   1      32.043  35.558  32.150  1.00  0.00    -0.246 OA
BRANCH   6   8
ATOM      8  C   UNL A   1      34.145  34.511  31.818  1.00  0.00     0.060 A 
ATOM      9  C   UNL A   1      34.110  33.274  32.488  1.00  0.00     0.016 A 
ATOM     10  C   UNL A   1      35.394  34.872  31.368  1.00  0.00     0.016 A 
ATOM     11  C   UNL A   1      35.292  32.531  32.827  1.00  0.00     0.010 A 
ATOM     12  C   UNL A   1      36.522  34.139  31.747  1.00  0.00     0.010 A 
ATOM     13  C   UNL A   1      36.554  33.009  32.529  1.00  0.00    -0.014 A 
BRANCH  13  14
ATOM     14  C   UNL A   1      37.887  32.389  32.827  1.00  0.00     0.031 A 
ATOM     15  C   UNL A   1      38.803  32.835  33.943  1.00  0.00     0.074 A 
ATOM     16  C   UNL A   1      38.455  31.485  32.013  1.00  0.00     0.049 A 
ATOM     17  N   UNL A   1      38.892  32.349  35.153  1.00  0.00    -0.248 NA
ATOM     18  C   UNL A   1      39.807  33.874  33.682  1.00  0.00     0.031 C 
ATOM     19  C   UNL A   1      37.893  30.958  30.775  1.00  0.00     0.029 A 
ATOM     20  N   UNL A   1      39.661  30.844  32.145  1.00  0.00    -0.354 N 
ATOM     21  C   UNL A   1      39.725  33.219  35.852  1.00  0.00     0.074 A 
ATOM     22  C   UNL A   1      40.258  34.163  34.897  1.00  0.00     0.031 C 
ATOM     23  C   UNL A   1      38.734  30.029  30.280  1.00  0.00     0.029 A 
ATOM     24  C   UNL A   1      39.878  29.897  31.178  1.00  0.00     0.049 A 
ATOM     25  H   UNL A   1      40.306  31.045  32.861  1.00  0.00     0.167 HD
ATOM     26  C   UNL A   1      40.440  33.000  36.980  1.00  0.00     0.031 A 
ATOM     27  C   UNL A   1      40.871  28.995  31.091  1.00  0.00     0.031 A 
ATOM     28  C   UNL A   1      41.493  32.014  36.983  1.00  0.00     0.049 A 
ATOM     29  C   UNL A   1      41.856  28.891  32.233  1.00  0.00     0.074 A 
ATOM     30  C   UNL A   1      42.517  31.833  37.893  1.00  0.00     0.029 A 
ATOM     31  N   UNL A   1      41.706  31.105  35.951  1.00  0.00    -0.354 N 
ATOM     32  N   UNL A   1      41.918  29.594  33.343  1.00  0.00    -0.248 NA
ATOM     33  C   UNL A   1      42.864  27.830  32.133  1.00  0.00     0.031 C 
ATOM     34  C   UNL A   1      43.408  30.892  37.358  1.00  0.00     0.029 A 
ATOM     35  C   UNL A   1      42.876  30.405  36.173  1.00  0.00     0.049 A 
ATOM     36  H   UNL A   1      41.111  30.979  35.177  1.00  0.00     0.167 HD
ATOM     37  C   UNL A   1      42.934  29.013  34.103  1.00  0.00     0.074 A 
ATOM     38  C   UNL A   1      43.459  27.915  33.314  1.00  0.00     0.031 C 
ATOM     39  C   UNL A   1      43.375  29.330  35.347  1.00  0.00     0.031 A 
BRANCH  26  40
ATOM     40  C   UNL A   1      40.481  34.197  37.899  1.00  0.00    -0.014 A 
ATOM     41  C   UNL A   1      39.474  34.318  38.875  1.00  0.00     0.010 A 
ATOM     42  C   UNL A   1      41.473  35.195  37.832  1.00  0.00     0.010 A 
ATOM     43  C   UNL A   1      39.452  35.404  39.754  1.00  0.00     0.020 A 
ATOM     44  C   UNL A   1      41.458  36.286  38.715  1.00  0.00     0.020 A 
ATOM     45  C   UNL A   1      40.442  36.385  39.667  1.00  0.00     0.054 A 
BRANCH  45  46
ATOM     46  S   UNL A   1      40.376  37.783  40.823  1.00  0.00     0.124 S 
ATOM     47  O   UNL A   1      41.149  38.803  40.112  1.00  0.00    -0.237 OA
ATOM     48  O   UNL A   1      38.938  38.046  40.916  1.00  0.00    -0.237 OA
ATOM     49  O   UNL A   1      40.993  37.269  42.035  1.00  0.00    -0.744 OA
ENDBRANCH  45  46
ENDBRANCH  26  40
BRANCH  27  50
ATOM     50  C   UNL A   1      40.916  28.060  29.939  1.00  0.00    -0.014 A 
ATOM     51  C   UNL A   1      39.896  27.112  29.743  1.00  0.00     0.010 A 
ATOM     52  C   UNL A   1      41.980  28.120  29.023  1.00  0.00     0.010 A 
ATOM     53  C   UNL A   1      39.959  26.218  28.672  1.00  0.00     0.020 A 
ATOM     54  C   UNL A   1      42.035  27.243  27.937  1.00  0.00     0.020 A 
ATOM     55  C   UNL A   1      41.030  26.288  27.777  1.00  0.00     0.054 A 
BRANCH  55  56
ATOM     56  S   UNL A   1      41.075  25.123  26.387  1.00  0.00     0.124 S 
ATOM     57  O   UNL A   1      41.983  24.095  26.880  1.00  0.00    -0.237 OA
ATOM     58  O   UNL A   1      39.675  24.731  26.263  1.00  0.00    -0.237 OA
ATOM     59  O   UNL A   1      41.590  25.933  25.279  1.00  0.00    -0.744 OA
ENDBRANCH  55  56
ENDBRANCH  27  50
BRANCH  39  60
ATOM     60  C   UNL A   1      44.434  28.450  35.963  1.00  0.00    -0.014 A 
ATOM     61  C   UNL A   1      44.120  27.318  36.735  1.00  0.00     0.010 A 
ATOM     62  C   UNL A   1      45.784  28.733  35.681  1.00  0.00     0.010 A 
ATOM     63  C   UNL A   1      45.141  26.507  37.241  1.00  0.00     0.020 A 
ATOM     64  C   UNL A   1      46.803  27.907  36.155  1.00  0.00     0.020 A 
ATOM     65  C   UNL A   1      46.475  26.806  36.946  1.00  0.00     0.054 A 
BRANCH  65  66
ATOM     66  S   UNL A   1      47.782  25.709  37.561  1.00  0.00     0.124 S 
ATOM     67  O   UNL A   1      48.261  26.438  38.733  1.00  0.00    -0.237 OA
ATOM     68  O   UNL A   1      47.052  24.473  37.846  1.00  0.00    -0.237 OA
ATOM     69  O   UNL A   1      48.720  25.629  36.448  1.00  0.00    -0.744 OA
ENDBRANCH  65  66
ENDBRANCH  39  60
ENDBRANCH  13  14
ENDBRANCH   6   8
ENDBRANCH   5   6
ENDBRANCH   4   5
ENDBRANCH   3   4
ENDBRANCH   2   3
ENDBRANCH   1   2
BRANCH   1  70
ATOM     70  C   UNL A   1      34.030  31.428  28.173  1.00  0.00     0.188 C 
BRANCH  70  71
ATOM     71  O   UNL A   1      34.017  30.815  26.902  1.00  0.00    -0.376 OA
BRANCH  71  72
ATOM     72  C   UNL A   1      32.825  30.180  26.489  1.00  0.00     0.202 C 
BRANCH  72  73
ATOM     73  C   UNL A   1      32.887  28.906  25.616  1.00  0.00     0.261 C 
BRANCH  73  74
ATOM     74  O   UNL A   1      33.203  27.623  26.243  1.00  0.00    -0.462 OA
BRANCH  74  75
ATOM     75  C   UNL A   1      33.347  26.592  25.365  1.00  0.00     0.328 C 
ATOM     76  O   UNL A   1      34.213  25.728  25.532  1.00  0.00    -0.250 OA
BRANCH  75  77
ATOM     77  C   UNL A   1      32.449  26.579  24.057  1.00  0.00     0.195 C 
ATOM     78  C   UNL A   1      32.885  25.295  23.288  1.00  0.00     0.037 C 
ATOM     79  N   UNL A   1      30.938  26.692  23.896  1.00  0.00    -0.322 N 
ATOM     80  C   UNL A   1      32.101  24.070  23.767  1.00  0.00     0.005 C 
ATOM     81  C   UNL A   1      30.188  25.543  24.364  1.00  0.00     0.121 C 
ATOM     82  C   UNL A   1      30.605  24.305  23.584  1.00  0.00     0.022 C 
BRANCH  79  83
ATOM     83  C   UNL A   1      30.390  27.521  22.865  1.00  0.00     0.291 C 
ATOM     84  O   UNL A   1      30.743  27.310  21.699  1.00  0.00    -0.265 OA
BRANCH  83  85
ATOM     85  C   UNL A   1      29.399  28.609  23.116  1.00  0.00     0.214 A 
ATOM     86  N   UNL A   1      29.542  29.919  23.341  1.00  0.00    -0.207 NA
ATOM     87  N   UNL A   1      28.048  28.382  23.008  1.00  0.00    -0.255 N 
ATOM     88  C   UNL A   1      28.256  30.460  23.245  1.00  0.00     0.154 A 
ATOM     89  N   UNL A   1      27.319  29.501  23.225  1.00  0.00    -0.158 NA
ATOM     90  H   UNL A   1      27.655  27.504  22.799  1.00  0.00     0.192 HD
BRANCH  88  91
ATOM     91  C   UNL A   1      27.844  31.976  22.943  1.00  0.00     0.060 C 
ATOM     92  C   UNL A   1      28.804  33.154  23.006  1.00  0.00     0.012 C 
ATOM     93  C   UNL A   1      28.246  32.781  21.687  1.00  0.00     0.012 C 
ENDBRANCH  88  91
ENDBRANCH  83  85
ENDBRANCH  79  83
ENDBRANCH  75  77
ENDBRANCH  74  75
ENDBRANCH  73  74
ENDBRANCH  72  73
ENDBRANCH  71  72
ENDBRANCH  70  71
ENDBRANCH   1  70
TORSDOF 23
ENDMDL
MODEL 3
REMARK VINA RESULT:      -9.8      5.358      6.927
REMARK SMILES O=C(OCCOCCOCCOC(=O)[C@H]1CCCCN1C(=O)c1nc(C2CC2)n[nH]1)c1ccc(-c2c3nc(c(-c4ccc(S(=O)(=O)[O-])cc4)c4ccc([nH]4)c(-c4ccc(S(=O)(=O)[O-])cc4)c4nc(c(-c5ccc(S(=O)(=O)[O-])cc5)c5ccc2[nH]5)C=C4)C=C3)cc1
REMARK SMILES IDX 7 1 6 2 5 3 4 4 3 5 2 6 1 7 31 8 32 9 90 10 33 11 89 12
REMARK SMILES IDX 34 13 35 14 36 15 83 16 37 17 88 18 82 19 84 20 38 21 87 22
REMARK SMILES IDX 81 23 80 24 39 26 69 27 50 28 68 29 51 30 54 31 67 32 85 33
REMARK SMILES IDX 52 34 53 35 66 37 86 38 55 39 40 40 41 41 49 42 42 43 48 44
REMARK SMILES IDX 43 45 44 46 45 47 46 48 47 49 70 50 71 51 79 52 72 53 78 54
REMARK SMILES IDX 73 55 74 56 75 57 76 58 77 59 56 60 57 61 65 62 58 63 64 64
REMARK SMILES IDX 59 65 60 66 61 67 62 68 63 69 8 70 9 71 10 72 11 73 12 74
REMARK SMILES IDX 13 75 14 76 15 77 16 78 20 79 17 80 19 81 18 82 21 83 22 84
REMARK SMILES IDX 23 85 24 86 30 87 25 88 29 89 26 91 27 92 28 93
REMARK H PARENT 84 25 54 36 30 90
REMARK Flexibility Score: inf
ROOT
ATOM      1  C   UNL A   1      35.015  21.971  25.828  1.00  0.00     0.188 C 
ENDROOT
BRANCH   1   2
ATOM      2  O   UNL A   1      35.816  22.995  25.246  1.00  0.00    -0.376 OA
BRANCH   2   3
ATOM      3  C   UNL A   1      37.130  22.630  24.842  1.00  0.00     0.202 C 
BRANCH   3   4
ATOM      4  C   UNL A   1      37.818  21.557  25.695  1.00  0.00     0.261 C 
BRANCH   4   5
ATOM      5  O   UNL A   1      39.218  21.752  25.818  1.00  0.00    -0.460 OA
BRANCH   5   6
ATOM      6  C   UNL A   1      39.851  22.219  26.918  1.00  0.00     0.338 C 
ATOM      7  O   UNL A   1      40.403  21.372  27.626  1.00  0.00    -0.246 OA
BRANCH   6   8
ATOM      8  C   UNL A   1      39.916  23.675  27.343  1.00  0.00     0.060 A 
ATOM      9  C   UNL A   1      38.987  24.731  27.289  1.00  0.00     0.016 A 
ATOM     10  C   UNL A   1      41.124  24.016  27.903  1.00  0.00     0.016 A 
ATOM     11  C   UNL A   1      39.319  26.087  27.629  1.00  0.00     0.010 A 
ATOM     12  C   UNL A   1      41.419  25.352  28.191  1.00  0.00     0.010 A 
ATOM     13  C   UNL A   1      40.600  26.440  28.013  1.00  0.00    -0.014 A 
BRANCH  13  14
ATOM     14  C   UNL A   1      41.130  27.796  28.375  1.00  0.00     0.031 A 
ATOM     15  C   UNL A   1      42.543  28.259  28.101  1.00  0.00     0.074 A 
ATOM     16  C   UNL A   1      40.434  28.660  29.131  1.00  0.00     0.049 A 
ATOM     17  N   UNL A   1      42.981  28.938  27.074  1.00  0.00    -0.248 NA
ATOM     18  C   UNL A   1      43.585  28.035  29.110  1.00  0.00     0.031 C 
ATOM     19  C   UNL A   1      39.100  28.451  29.682  1.00  0.00     0.029 A 
ATOM     20  N   UNL A   1      40.786  29.917  29.550  1.00  0.00    -0.354 N 
ATOM     21  C   UNL A   1      44.369  28.941  27.183  1.00  0.00     0.074 A 
ATOM     22  C   UNL A   1      44.700  28.352  28.461  1.00  0.00     0.031 C 
ATOM     23  C   UNL A   1      38.720  29.569  30.329  1.00  0.00     0.029 A 
ATOM     24  C   UNL A   1      39.783  30.565  30.222  1.00  0.00     0.049 A 
ATOM     25  H   UNL A   1      41.673  30.314  29.386  1.00  0.00     0.167 HD
ATOM     26  C   UNL A   1      45.271  29.786  26.633  1.00  0.00     0.031 A 
ATOM     27  C   UNL A   1      39.735  31.843  30.636  1.00  0.00     0.031 A 
ATOM     28  C   UNL A   1      45.256  31.184  26.989  1.00  0.00     0.049 A 
ATOM     29  C   UNL A   1      40.864  32.771  30.252  1.00  0.00     0.074 A 
ATOM     30  C   UNL A   1      46.229  32.145  26.794  1.00  0.00     0.029 A 
ATOM     31  N   UNL A   1      44.236  31.786  27.720  1.00  0.00    -0.354 N 
ATOM     32  N   UNL A   1      41.956  32.511  29.565  1.00  0.00    -0.248 NA
ATOM     33  C   UNL A   1      40.721  34.176  30.648  1.00  0.00     0.031 C 
ATOM     34  C   UNL A   1      45.847  33.294  27.499  1.00  0.00     0.029 A 
ATOM     35  C   UNL A   1      44.584  33.085  28.034  1.00  0.00     0.049 A 
ATOM     36  H   UNL A   1      43.391  31.350  27.975  1.00  0.00     0.167 HD
ATOM     37  C   UNL A   1      42.596  33.738  29.392  1.00  0.00     0.074 A 
ATOM     38  C   UNL A   1      41.772  34.728  30.059  1.00  0.00     0.031 C 
ATOM     39  C   UNL A   1      43.739  34.033  28.721  1.00  0.00     0.031 A 
BRANCH  26  40
ATOM     40  C   UNL A   1      46.543  29.098  26.201  1.00  0.00    -0.014 A 
ATOM     41  C   UNL A   1      47.703  29.307  26.969  1.00  0.00     0.010 A 
ATOM     42  C   UNL A   1      46.629  28.259  25.072  1.00  0.00     0.010 A 
ATOM     43  C   UNL A   1      48.915  28.703  26.621  1.00  0.00     0.020 A 
ATOM     44  C   UNL A   1      47.842  27.647  24.719  1.00  0.00     0.020 A 
ATOM     45  C   UNL A   1      48.979  27.880  25.495  1.00  0.00     0.054 A 
BRANCH  45  46
ATOM     46  S   UNL A   1      50.571  27.118  25.072  1.00  0.00     0.124 S 
ATOM     47  O   UNL A   1      51.323  28.257  24.541  1.00  0.00    -0.237 OA
ATOM     48  O   UNL A   1      51.035  26.618  26.369  1.00  0.00    -0.237 OA
ATOM     49  O   UNL A   1      50.226  26.094  24.100  1.00  0.00    -0.744 OA
ENDBRANCH  45  46
ENDBRANCH  26  40
BRANCH  27  50
ATOM     50  C   UNL A   1      38.538  32.336  31.362  1.00  0.00    -0.014 A 
ATOM     51  C   UNL A   1      37.530  33.047  30.687  1.00  0.00     0.010 A 
ATOM     52  C   UNL A   1      38.395  32.086  32.738  1.00  0.00     0.010 A 
ATOM     53  C   UNL A   1      36.420  33.531  31.383  1.00  0.00     0.020 A 
ATOM     54  C   UNL A   1      37.274  32.547  33.432  1.00  0.00     0.020 A 
ATOM     55  C   UNL A   1      36.300  33.279  32.752  1.00  0.00     0.054 A 
BRANCH  55  56
ATOM     56  S   UNL A   1      34.838  33.906  33.624  1.00  0.00     0.124 S 
ATOM     57  O   UNL A   1      34.820  35.307  33.220  1.00  0.00    -0.237 OA
ATOM     58  O   UNL A   1      33.770  33.073  33.082  1.00  0.00    -0.237 OA
ATOM     59  O   UNL A   1      35.153  33.667  35.035  1.00  0.00    -0.744 OA
ENDBRANCH  55  56
ENDBRANCH  27  50
BRANCH  39  60
ATOM     60  C   UNL A   1      44.139  35.485  28.617  1.00  0.00    -0.014 A 
ATOM     61  C   UNL A   1      44.951  36.115  29.576  1.00  0.00     0.010 A 
ATOM     62  C   UNL A   1      43.747  36.203  27.471  1.00  0.00     0.010 A 
ATOM     63  C   UNL A   1      45.334  37.449  29.405  1.00  0.00     0.020 A 
ATOM     64  C   UNL A   1      44.156  37.523  27.281  1.00  0.00     0.020 A 
ATOM     65  C   UNL A   1      44.935  38.143  28.257  1.00  0.00     0.054 A 
BRANCH  65  66
ATOM     66  S   UNL A   1      45.491  39.854  28.024  1.00  0.00     0.124 S 
ATOM     67  O   UNL A   1      44.650  40.577  28.975  1.00  0.00    -0.237 OA
ATOM     68  O   UNL A   1      46.910  39.778  28.372  1.00  0.00    -0.237 OA
ATOM     69  O   UNL A   1      45.214  40.120  26.618  1.00  0.00    -0.744 OA
ENDBRANCH  65  66
ENDBRANCH  39  60
ENDBRANCH  13  14
ENDBRANCH   6   8
ENDBRANCH   5   6
ENDBRANCH   4   5
ENDBRANCH   3   4
ENDBRANCH   2   3
ENDBRANCH   1   2
BRANCH   1  70
ATOM     70  C   UNL A   1      33.537  22.223  26.163  1.00  0.00     0.188 C 
BRANCH  70  71
ATOM     71  O   UNL A   1      32.516  21.962  25.224  1.00  0.00    -0.376 OA
BRANCH  71  72
ATOM     72  C   UNL A   1      32.897  21.464  23.959  1.00  0.00     0.202 C 
BRANCH  72  73
ATOM     73  C   UNL A   1      32.944  22.407  22.735  1.00  0.00     0.261 C 
BRANCH  73  74
ATOM     74  O   UNL A   1      32.118  23.614  22.729  1.00  0.00    -0.462 OA
BRANCH  74  75
ATOM     75  C   UNL A   1      32.787  24.752  23.065  1.00  0.00     0.328 C 
ATOM     76  O   UNL A   1      34.018  24.811  23.002  1.00  0.00    -0.250 OA
BRANCH  75  77
ATOM     77  C   UNL A   1      31.958  25.973  23.648  1.00  0.00     0.195 C 
ATOM     78  C   UNL A   1      30.503  25.435  23.787  1.00  0.00     0.037 C 
ATOM     79  N   UNL A   1      32.218  26.851  24.867  1.00  0.00    -0.322 N 
ATOM     80  C   UNL A   1      30.298  24.732  25.131  1.00  0.00     0.005 C 
ATOM     81  C   UNL A   1      32.044  26.186  26.143  1.00  0.00     0.121 C 
ATOM     82  C   UNL A   1      30.611  25.692  26.274  1.00  0.00     0.022 C 
BRANCH  79  83
ATOM     83  C   UNL A   1      32.037  28.268  24.778  1.00  0.00     0.291 C 
ATOM     84  O   UNL A   1      31.139  28.695  24.042  1.00  0.00    -0.265 OA
BRANCH  83  85
ATOM     85  C   UNL A   1      32.854  29.257  25.541  1.00  0.00     0.214 A 
ATOM     86  N   UNL A   1      32.559  30.452  26.065  1.00  0.00    -0.207 NA
ATOM     87  N   UNL A   1      34.132  28.962  25.950  1.00  0.00    -0.255 N 
ATOM     88  C   UNL A   1      33.646  30.784  26.878  1.00  0.00     0.154 A 
ATOM     89  N   UNL A   1      34.688  29.965  26.668  1.00  0.00    -0.158 NA
ATOM     90  H   UNL A   1      34.591  28.116  25.744  1.00  0.00     0.192 HD
BRANCH  88  91
ATOM     91  C   UNL A   1      33.684  31.812  28.103  1.00  0.00     0.060 C 
ATOM     92  C   UNL A   1      34.798  32.821  28.342  1.00  0.00     0.012 C 
ATOM     93  C   UNL A   1      33.453  33.336  28.001  1.00  0.00     0.012 C 
ENDBRANCH  88  91
ENDBRANCH  83  85
ENDBRANCH  79  83
ENDBRANCH  75  77
ENDBRANCH  74  75
ENDBRANCH  73  74
ENDBRANCH  72  73
ENDBRANCH  71  72
ENDBRANCH  70  71
ENDBRANCH   1  70
TORSDOF 23
ENDMDL
