MODEL 1
REMARK VINA RESULT:      -8.3      0.000      0.000
REMARK SMILES CCCCCCNC(=O)Oc1cccc(-c2ccc([C@@H](C)C(=O)OCCOCCOCCOC(=O)c3ccc(-c4c5nc(c(-c6ccc(S(=O)(=O)[O-])cc6)c6ccc([nH]6)c(-c6ccc(S(=O)(=O)[O-])cc6)c6nc(c(-c7ccc(S(=O)(=O)[O-])cc7)c7ccc4[nH]7)C=C6)C=C5)cc3)cc2O)c1
REMARK SMILES IDX 25 1 24 2 22 3 23 4 20 5 21 6 19 7 16 8 17 9 97 10 18 11
REMARK SMILES IDX 96 12 15 13 11 14 12 15 99 16 13 17 14 18 10 19 8 20 7 21
REMARK SMILES IDX 9 23 6 24 5 25 4 26 3 27 2 28 1 29 98 30 26 32 27 33 28 34
REMARK SMILES IDX 29 35 30 36 31 37 32 38 33 39 34 40 35 41 36 42 37 43 95 44
REMARK SMILES IDX 38 45 94 46 39 47 40 48 41 49 88 50 42 51 93 52 87 53 89 54
REMARK SMILES IDX 43 55 92 56 86 57 85 58 44 60 74 61 55 62 73 63 56 64 59 65
REMARK SMILES IDX 72 66 90 67 57 68 58 69 71 71 91 72 60 73 45 74 46 75 54 76
REMARK SMILES IDX 47 77 53 78 48 79 49 80 50 81 51 82 52 83 75 84 76 85 84 86
REMARK SMILES IDX 77 87 83 88 78 89 79 90 80 91 81 92 82 93 61 94 62 95 70 96
REMARK SMILES IDX 63 97 69 98 64 99 65 100 66 101 67 102 68 103
REMARK H PARENT 7 22 98 31 89 59 59 70
REMARK Flexibility Score: inf
ROOT
ATOM      1  C   UNL A   1      32.887  30.007  25.792  1.00  0.00     0.261 C 
ENDROOT
BRANCH   1   2
ATOM      2  O   UNL A   1      31.731  29.214  25.442  1.00  0.00    -0.463 OA
BRANCH   2   3
ATOM      3  C   UNL A   1      31.871  28.385  24.377  1.00  0.00     0.313 C 
ATOM      4  O   UNL A   1      30.917  27.972  23.720  1.00  0.00    -0.252 OA
BRANCH   3   5
ATOM      5  C   UNL A   1      33.302  27.980  24.011  1.00  0.00     0.126 C 
ATOM      6  C   UNL A   1      33.628  28.559  22.633  1.00  0.00     0.025 C 
BRANCH   5   7
ATOM      7  C   UNL A   1      33.771  26.528  24.092  1.00  0.00    -0.030 A 
ATOM      8  C   UNL A   1      34.736  23.831  24.392  1.00  0.00     0.024 A 
ATOM      9  C   UNL A   1      34.523  24.415  23.125  1.00  0.00     0.013 A 
ATOM     10  C   UNL A   1      34.438  24.633  25.504  1.00  0.00     0.123 A 
ATOM     11  C   UNL A   1      34.064  25.739  22.974  1.00  0.00     0.005 A 
ATOM     12  C   UNL A   1      33.970  25.948  25.360  1.00  0.00     0.051 A 
BRANCH   8  13
ATOM     13  C   UNL A   1      35.334  22.477  24.498  1.00  0.00    -0.011 A 
ATOM     14  C   UNL A   1      35.197  20.078  24.892  1.00  0.00     0.133 A 
ATOM     15  C   UNL A   1      36.586  19.965  24.875  1.00  0.00     0.047 A 
ATOM     16  C   UNL A   1      34.564  21.313  24.695  1.00  0.00     0.056 A 
ATOM     17  C   UNL A   1      37.358  21.096  24.646  1.00  0.00     0.004 A 
ATOM     18  C   UNL A   1      36.738  22.338  24.469  1.00  0.00     0.009 A 
BRANCH  14  19
ATOM     19  O   UNL A   1      34.487  18.930  25.289  1.00  0.00    -0.410 OA
BRANCH  19  20
ATOM     20  C   UNL A   1      34.297  17.902  24.382  1.00  0.00     0.412 C 
ATOM     21  N   UNL A   1      33.261  18.120  23.519  1.00  0.00    -0.321 N 
ATOM     22  H   UNL A   1      33.133  17.449  22.810  1.00  0.00     0.167 HD
ATOM     23  O   UNL A   1      34.955  16.859  24.338  1.00  0.00    -0.224 OA
BRANCH  21  24
ATOM     24  C   UNL A   1      32.327  19.234  23.532  1.00  0.00     0.119 C 
BRANCH  24  25
ATOM     25  C   UNL A   1      32.257  19.966  22.192  1.00  0.00     0.021 C 
BRANCH  25  26
ATOM     26  C   UNL A   1      31.374  21.221  22.180  1.00  0.00     0.002 C 
BRANCH  26  27
ATOM     27  C   UNL A   1      31.801  22.346  23.131  1.00  0.00    -0.000 C 
BRANCH  27  28
ATOM     28  C   UNL A   1      30.827  23.521  23.246  1.00  0.00    -0.003 C 
ATOM     29  C   UNL A   1      30.839  24.186  24.614  1.00  0.00     0.004 C 
ENDBRANCH  27  28
ENDBRANCH  26  27
ENDBRANCH  25  26
ENDBRANCH  24  25
ENDBRANCH  21  24
ENDBRANCH  19  20
ENDBRANCH  14  19
ENDBRANCH   8  13
BRANCH  10  30
ATOM     30  O   UNL A   1      34.611  24.219  26.799  1.00  0.00    -0.507 OA
ATOM     31  H   UNL A   1      35.465  24.231  27.185  1.00  0.00     0.293 HD
ENDBRANCH  10  30
ENDBRANCH   5   7
ENDBRANCH   3   5
ENDBRANCH   2   3
ENDBRANCH   1   2
BRANCH   1  32
ATOM     32  C   UNL A   1      33.219  30.055  27.290  1.00  0.00     0.202 C 
BRANCH  32  33
ATOM     33  O   UNL A   1      34.544  30.400  27.669  1.00  0.00    -0.376 OA
BRANCH  33  34
ATOM     34  C   UNL A   1      34.803  31.695  28.201  1.00  0.00     0.188 C 
BRANCH  34  35
ATOM     35  C   UNL A   1      33.941  32.885  27.753  1.00  0.00     0.188 C 
BRANCH  35  36
ATOM     36  O   UNL A   1      33.305  33.583  28.806  1.00  0.00    -0.376 OA
BRANCH  36  37
ATOM     37  C   UNL A   1      33.548  34.977  28.851  1.00  0.00     0.202 C 
BRANCH  37  38
ATOM     38  C   UNL A   1      33.083  35.624  30.162  1.00  0.00     0.261 C 
BRANCH  38  39
ATOM     39  O   UNL A   1      33.280  34.823  31.344  1.00  0.00    -0.460 OA
BRANCH  39  40
ATOM     40  C   UNL A   1      33.600  35.488  32.476  1.00  0.00     0.338 C 
ATOM     41  O   UNL A   1      32.902  36.304  33.066  1.00  0.00    -0.246 OA
BRANCH  40  42
ATOM     42  C   UNL A   1      34.850  34.921  33.026  1.00  0.00     0.060 A 
ATOM     43  C   UNL A   1      36.062  35.213  32.385  1.00  0.00     0.016 A 
ATOM     44  C   UNL A   1      34.829  34.087  34.146  1.00  0.00     0.016 A 
ATOM     45  C   UNL A   1      37.248  34.624  32.828  1.00  0.00     0.010 A 
ATOM     46  C   UNL A   1      36.017  33.483  34.577  1.00  0.00     0.010 A 
ATOM     47  C   UNL A   1      37.225  33.713  33.892  1.00  0.00    -0.014 A 
BRANCH  47  48
ATOM     48  C   UNL A   1      38.407  32.846  34.140  1.00  0.00     0.031 A 
ATOM     49  C   UNL A   1      39.246  33.117  35.365  1.00  0.00     0.074 A 
ATOM     50  C   UNL A   1      38.717  31.817  33.328  1.00  0.00     0.049 A 
ATOM     51  N   UNL A   1      40.319  32.501  35.788  1.00  0.00    -0.248 NA
ATOM     52  C   UNL A   1      38.817  34.233  36.226  1.00  0.00     0.031 C 
ATOM     53  C   UNL A   1      37.975  31.426  32.131  1.00  0.00     0.029 A 
ATOM     54  N   UNL A   1      39.751  30.913  33.391  1.00  0.00    -0.354 N 
ATOM     55  C   UNL A   1      40.701  33.162  36.950  1.00  0.00     0.074 A 
ATOM     56  C   UNL A   1      39.760  34.241  37.155  1.00  0.00     0.031 C 
ATOM     57  C   UNL A   1      38.585  30.366  31.566  1.00  0.00     0.029 A 
ATOM     58  C   UNL A   1      39.773  30.020  32.344  1.00  0.00     0.049 A 
ATOM     59  H   UNL A   1      40.414  30.905  34.118  1.00  0.00     0.167 HD
ATOM     60  C   UNL A   1      41.739  32.894  37.777  1.00  0.00     0.031 A 
ATOM     61  C   UNL A   1      40.661  29.052  32.038  1.00  0.00     0.031 A 
ATOM     62  C   UNL A   1      42.670  31.815  37.583  1.00  0.00     0.049 A 
ATOM     63  C   UNL A   1      41.837  28.807  32.954  1.00  0.00     0.074 A 
ATOM     64  C   UNL A   1      43.724  31.439  38.397  1.00  0.00     0.029 A 
ATOM     65  N   UNL A   1      42.667  30.950  36.503  1.00  0.00    -0.354 N 
ATOM     66  N   UNL A   1      42.146  29.403  34.082  1.00  0.00    -0.248 NA
ATOM     67  C   UNL A   1      42.781  27.748  32.560  1.00  0.00     0.031 C 
ATOM     68  C   UNL A   1      44.402  30.388  37.774  1.00  0.00     0.029 A 
ATOM     69  C   UNL A   1      43.726  30.063  36.609  1.00  0.00     0.049 A 
ATOM     70  H   UNL A   1      42.012  30.962  35.769  1.00  0.00     0.167 HD
ATOM     71  C   UNL A   1      43.299  28.770  34.543  1.00  0.00     0.074 A 
ATOM     72  C   UNL A   1      43.619  27.733  33.586  1.00  0.00     0.031 C 
ATOM     73  C   UNL A   1      44.030  29.027  35.655  1.00  0.00     0.031 A 
BRANCH  60  74
ATOM     74  C   UNL A   1      41.949  33.795  38.965  1.00  0.00    -0.014 A 
ATOM     75  C   UNL A   1      41.291  33.561  40.185  1.00  0.00     0.010 A 
ATOM     76  C   UNL A   1      42.893  34.835  38.881  1.00  0.00     0.010 A 
ATOM     77  C   UNL A   1      41.567  34.359  41.299  1.00  0.00     0.020 A 
ATOM     78  C   UNL A   1      43.190  35.618  39.999  1.00  0.00     0.020 A 
ATOM     79  C   UNL A   1      42.521  35.378  41.200  1.00  0.00     0.054 A 
BRANCH  79  80
ATOM     80  S   UNL A   1      42.910  36.347  42.683  1.00  0.00     0.124 S 
ATOM     81  O   UNL A   1      43.598  35.362  43.516  1.00  0.00    -0.237 OA
ATOM     82  O   UNL A   1      43.751  37.416  42.153  1.00  0.00    -0.237 OA
ATOM     83  O   UNL A   1      41.602  36.772  43.176  1.00  0.00    -0.744 OA
ENDBRANCH  79  80
ENDBRANCH  60  74
BRANCH  61  84
ATOM     84  C   UNL A   1      40.512  28.253  30.786  1.00  0.00    -0.014 A 
ATOM     85  C   UNL A   1      39.412  27.398  30.595  1.00  0.00     0.010 A 
ATOM     86  C   UNL A   1      41.514  28.300  29.799  1.00  0.00     0.010 A 
ATOM     87  C   UNL A   1      39.340  26.573  29.468  1.00  0.00     0.020 A 
ATOM     88  C   UNL A   1      41.429  27.503  28.654  1.00  0.00     0.020 A 
ATOM     89  C   UNL A   1      40.354  26.627  28.507  1.00  0.00     0.054 A 
BRANCH  89  90
ATOM     90  S   UNL A   1      40.243  25.548  27.052  1.00  0.00     0.124 S 
ATOM     91  O   UNL A   1      38.844  25.133  27.087  1.00  0.00    -0.237 OA
ATOM     92  O   UNL A   1      40.610  26.449  25.961  1.00  0.00    -0.237 OA
ATOM     93  O   UNL A   1      41.216  24.494  27.333  1.00  0.00    -0.744 OA
ENDBRANCH  89  90
ENDBRANCH  61  84
BRANCH  73  94
ATOM     94  C   UNL A   1      45.224  28.150  35.930  1.00  0.00    -0.014 A 
ATOM     95  C   UNL A   1      46.494  28.455  35.408  1.00  0.00     0.010 A 
ATOM     96  C   UNL A   1      45.084  27.030  36.772  1.00  0.00     0.010 A 
ATOM     97  C   UNL A   1      47.591  27.635  35.689  1.00  0.00     0.020 A 
ATOM     98  C   UNL A   1      46.185  26.227  37.082  1.00  0.00     0.020 A 
ATOM     99  C   UNL A   1      47.429  26.525  36.523  1.00  0.00     0.054 A 
BRANCH  99 100
ATOM    100  S   UNL A   1      48.875  25.496  36.900  1.00  0.00     0.124 S 
ATOM    101  O   UNL A   1      48.664  25.179  38.309  1.00  0.00    -0.237 OA
ATOM    102  O   UNL A   1      48.723  24.377  35.974  1.00  0.00    -0.237 OA
ATOM    103  O   UNL A   1      50.009  26.375  36.623  1.00  0.00    -0.744 OA
ENDBRANCH  99 100
ENDBRANCH  73  94
ENDBRANCH  47  48
ENDBRANCH  40  42
ENDBRANCH  39  40
ENDBRANCH  38  39
ENDBRANCH  37  38
ENDBRANCH  36  37
ENDBRANCH  35  36
ENDBRANCH  34  35
ENDBRANCH  33  34
ENDBRANCH  32  33
ENDBRANCH   1  32
TORSDOF 30
ENDMDL
MODEL 2
REMARK VINA RESULT:      -8.0      6.588     10.608
REMARK SMILES CCCCCCNC(=O)Oc1cccc(-c2ccc([C@@H](C)C(=O)OCCOCCOCCOC(=O)c3ccc(-c4c5nc(c(-c6ccc(S(=O)(=O)[O-])cc6)c6ccc([nH]6)c(-c6ccc(S(=O)(=O)[O-])cc6)c6nc(c(-c7ccc(S(=O)(=O)[O-])cc7)c7ccc4[nH]7)C=C6)C=C5)cc3)cc2O)c1
REMARK SMILES IDX 25 1 24 2 22 3 23 4 20 5 21 6 19 7 16 8 17 9 97 10 18 11
REMARK SMILES IDX 96 12 15 13 11 14 12 15 99 16 13 17 14 18 10 19 8 20 7 21
REMARK SMILES IDX 9 23 6 24 5 25 4 26 3 27 2 28 1 29 98 30 26 32 27 33 28 34
REMARK SMILES IDX 29 35 30 36 31 37 32 38 33 39 34 40 35 41 36 42 37 43 95 44
REMARK SMILES IDX 38 45 94 46 39 47 40 48 41 49 88 50 42 51 93 52 87 53 89 54
REMARK SMILES IDX 43 55 92 56 86 57 85 58 44 60 74 61 55 62 73 63 56 64 59 65
REMARK SMILES IDX 72 66 90 67 57 68 58 69 71 71 91 72 60 73 45 74 46 75 54 76
REMARK SMILES IDX 47 77 53 78 48 79 49 80 50 81 51 82 52 83 75 84 76 85 84 86
REMARK SMILES IDX 77 87 83 88 78 89 79 90 80 91 81 92 82 93 61 94 62 95 70 96
REMARK SMILES IDX 63 97 69 98 64 99 65 100 66 101 67 102 68 103
REMARK H PARENT 7 22 98 31 89 59 59 70
REMARK Flexibility Score: inf
ROOT
ATOM      1  C   UNL A   1      47.436  29.745  26.356  1.00  0.00     0.261 C 
ENDROOT
BRANCH   1   2
ATOM      2  O   UNL A   1      48.131  29.001  27.382  1.00  0.00    -0.463 OA
BRANCH   2   3
ATOM      3  C   UNL A   1      48.016  27.651  27.326  1.00  0.00     0.313 C 
ATOM      4  O   UNL A   1      48.983  26.894  27.390  1.00  0.00    -0.252 OA
BRANCH   3   5
ATOM      5  C   UNL A   1      46.597  27.092  27.186  1.00  0.00     0.126 C 
ATOM      6  C   UNL A   1      45.832  27.392  28.475  1.00  0.00     0.025 C 
BRANCH   5   7
ATOM      7  C   UNL A   1      46.342  25.649  26.751  1.00  0.00    -0.030 A 
ATOM      8  C   UNL A   1      45.836  22.988  25.772  1.00  0.00     0.024 A 
ATOM      9  C   UNL A   1      45.515  23.376  27.090  1.00  0.00     0.013 A 
ATOM     10  C   UNL A   1      46.431  23.969  24.962  1.00  0.00     0.123 A 
ATOM     11  C   UNL A   1      45.749  24.681  27.569  1.00  0.00     0.005 A 
ATOM     12  C   UNL A   1      46.675  25.266  25.437  1.00  0.00     0.051 A 
BRANCH   8  13
ATOM     13  C   UNL A   1      45.460  21.640  25.278  1.00  0.00    -0.011 A 
ATOM     14  C   UNL A   1      43.875  19.819  24.960  1.00  0.00     0.133 A 
ATOM     15  C   UNL A   1      44.883  18.985  24.479  1.00  0.00     0.047 A 
ATOM     16  C   UNL A   1      44.144  21.139  25.348  1.00  0.00     0.056 A 
ATOM     17  C   UNL A   1      46.178  19.476  24.370  1.00  0.00     0.004 A 
ATOM     18  C   UNL A   1      46.462  20.785  24.774  1.00  0.00     0.009 A 
BRANCH  14  19
ATOM     19  O   UNL A   1      42.628  19.211  25.197  1.00  0.00    -0.410 OA
BRANCH  19  20
ATOM     20  C   UNL A   1      42.401  18.578  26.406  1.00  0.00     0.412 C 
ATOM     21  N   UNL A   1      41.506  19.232  27.204  1.00  0.00    -0.321 N 
ATOM     22  H   UNL A   1      41.258  18.783  28.045  1.00  0.00     0.167 HD
ATOM     23  O   UNL A   1      42.952  17.541  26.784  1.00  0.00    -0.224 OA
BRANCH  21  24
ATOM     24  C   UNL A   1      40.878  20.518  26.949  1.00  0.00     0.119 C 
BRANCH  24  25
ATOM     25  C   UNL A   1      41.528  21.662  27.726  1.00  0.00     0.021 C 
BRANCH  25  26
ATOM     26  C   UNL A   1      41.300  23.062  27.140  1.00  0.00     0.002 C 
BRANCH  26  27
ATOM     27  C   UNL A   1      41.068  24.183  28.161  1.00  0.00    -0.000 C 
BRANCH  27  28
ATOM     28  C   UNL A   1      39.779  24.987  27.979  1.00  0.00    -0.003 C 
ATOM     29  C   UNL A   1      38.922  24.505  26.818  1.00  0.00     0.004 C 
ENDBRANCH  27  28
ENDBRANCH  26  27
ENDBRANCH  25  26
ENDBRANCH  24  25
ENDBRANCH  21  24
ENDBRANCH  19  20
ENDBRANCH  14  19
ENDBRANCH   8  13
BRANCH  10  30
ATOM     30  O   UNL A   1      46.781  23.755  23.655  1.00  0.00    -0.507 OA
ATOM     31  H   UNL A   1      46.565  24.390  23.001  1.00  0.00     0.293 HD
ENDBRANCH  10  30
ENDBRANCH   5   7
ENDBRANCH   3   5
ENDBRANCH   2   3
ENDBRANCH   1   2
BRANCH   1  32
ATOM     32  C   UNL A   1      46.608  30.936  26.857  1.00  0.00     0.202 C 
BRANCH  32  33
ATOM     33  O   UNL A   1      45.607  31.462  25.998  1.00  0.00    -0.376 OA
BRANCH  33  34
ATOM     34  C   UNL A   1      44.235  31.323  26.355  1.00  0.00     0.188 C 
BRANCH  34  35
ATOM     35  C   UNL A   1      43.864  30.920  27.790  1.00  0.00     0.188 C 
BRANCH  35  36
ATOM     36  O   UNL A   1      43.217  29.667  27.903  1.00  0.00    -0.376 OA
BRANCH  36  37
ATOM     37  C   UNL A   1      42.426  29.283  26.793  1.00  0.00     0.202 C 
BRANCH  37  38
ATOM     38  C   UNL A   1      41.164  28.511  27.195  1.00  0.00     0.261 C 
BRANCH  38  39
ATOM     39  O   UNL A   1      40.009  29.327  27.474  1.00  0.00    -0.460 OA
BRANCH  39  40
ATOM     40  C   UNL A   1      39.382  29.103  28.650  1.00  0.00     0.338 C 
ATOM     41  O   UNL A   1      38.688  28.134  28.933  1.00  0.00    -0.246 OA
BRANCH  40  42
ATOM     42  C   UNL A   1      39.836  30.108  29.633  1.00  0.00     0.060 A 
ATOM     43  C   UNL A   1      39.105  31.298  29.768  1.00  0.00     0.016 A 
ATOM     44  C   UNL A   1      40.984  29.898  30.400  1.00  0.00     0.016 A 
ATOM     45  C   UNL A   1      39.556  32.303  30.625  1.00  0.00     0.010 A 
ATOM     46  C   UNL A   1      41.444  30.915  31.245  1.00  0.00     0.010 A 
ATOM     47  C   UNL A   1      40.757  32.141  31.328  1.00  0.00    -0.014 A 
BRANCH  47  48
ATOM     48  C   UNL A   1      41.398  33.321  31.965  1.00  0.00     0.031 A 
ATOM     49  C   UNL A   1      41.200  33.527  33.447  1.00  0.00     0.074 A 
ATOM     50  C   UNL A   1      42.170  34.175  31.266  1.00  0.00     0.049 A 
ATOM     51  N   UNL A   1      41.655  34.478  34.221  1.00  0.00    -0.248 NA
ATOM     52  C   UNL A   1      40.377  32.527  34.149  1.00  0.00     0.031 C 
ATOM     53  C   UNL A   1      42.470  34.076  29.839  1.00  0.00     0.029 A 
ATOM     54  N   UNL A   1      42.842  35.304  31.671  1.00  0.00    -0.354 N 
ATOM     55  C   UNL A   1      41.162  34.201  35.491  1.00  0.00     0.074 A 
ATOM     56  C   UNL A   1      40.355  33.006  35.383  1.00  0.00     0.031 C 
ATOM     57  C   UNL A   1      43.258  35.109  29.485  1.00  0.00     0.029 A 
ATOM     58  C   UNL A   1      43.498  35.956  30.652  1.00  0.00     0.049 A 
ATOM     59  H   UNL A   1      42.854  35.616  32.604  1.00  0.00     0.167 HD
ATOM     60  C   UNL A   1      41.367  34.876  36.647  1.00  0.00     0.031 A 
ATOM     61  C   UNL A   1      44.191  37.113  30.657  1.00  0.00     0.031 A 
ATOM     62  C   UNL A   1      42.179  36.057  36.760  1.00  0.00     0.049 A 
ATOM     63  C   UNL A   1      44.362  37.871  31.953  1.00  0.00     0.074 A 
ATOM     64  C   UNL A   1      42.481  36.780  37.902  1.00  0.00     0.029 A 
ATOM     65  N   UNL A   1      42.806  36.693  35.704  1.00  0.00    -0.354 N 
ATOM     66  N   UNL A   1      43.940  37.559  33.156  1.00  0.00    -0.248 NA
ATOM     67  C   UNL A   1      45.114  39.135  31.892  1.00  0.00     0.031 C 
ATOM     68  C   UNL A   1      43.236  37.893  37.524  1.00  0.00     0.029 A 
ATOM     69  C   UNL A   1      43.465  37.823  36.159  1.00  0.00     0.049 A 
ATOM     70  H   UNL A   1      42.789  36.389  34.768  1.00  0.00     0.167 HD
ATOM     71  C   UNL A   1      44.402  38.571  33.995  1.00  0.00     0.074 A 
ATOM     72  C   UNL A   1      45.154  39.491  33.169  1.00  0.00     0.031 C 
ATOM     73  C   UNL A   1      44.219  38.727  35.329  1.00  0.00     0.031 A 
BRANCH  60  74
ATOM     74  C   UNL A   1      40.683  34.373  37.890  1.00  0.00    -0.014 A 
ATOM     75  C   UNL A   1      39.416  34.850  38.271  1.00  0.00     0.010 A 
ATOM     76  C   UNL A   1      41.279  33.339  38.634  1.00  0.00     0.010 A 
ATOM     77  C   UNL A   1      38.763  34.307  39.381  1.00  0.00     0.020 A 
ATOM     78  C   UNL A   1      40.618  32.776  39.728  1.00  0.00     0.020 A 
ATOM     79  C   UNL A   1      39.366  33.268  40.098  1.00  0.00     0.054 A 
BRANCH  79  80
ATOM     80  S   UNL A   1      38.459  32.535  41.487  1.00  0.00     0.124 S 
ATOM     81  O   UNL A   1      39.111  33.160  42.637  1.00  0.00    -0.237 OA
ATOM     82  O   UNL A   1      37.087  32.964  41.235  1.00  0.00    -0.237 OA
ATOM     83  O   UNL A   1      38.698  31.101  41.341  1.00  0.00    -0.744 OA
ENDBRANCH  79  80
ENDBRANCH  60  74
BRANCH  61  84
ATOM     84  C   UNL A   1      44.752  37.667  29.390  1.00  0.00    -0.014 A 
ATOM     85  C   UNL A   1      46.020  37.278  28.924  1.00  0.00     0.010 A 
ATOM     86  C   UNL A   1      44.035  38.644  28.673  1.00  0.00     0.010 A 
ATOM     87  C   UNL A   1      46.580  37.887  27.795  1.00  0.00     0.020 A 
ATOM     88  C   UNL A   1      44.577  39.230  27.525  1.00  0.00     0.020 A 
ATOM     89  C   UNL A   1      45.856  38.864  27.106  1.00  0.00     0.054 A 
BRANCH  89  90
ATOM     90  S   UNL A   1      46.600  39.641  25.645  1.00  0.00     0.124 S 
ATOM     91  O   UNL A   1      47.136  38.489  24.927  1.00  0.00    -0.237 OA
ATOM     92  O   UNL A   1      45.456  40.301  25.021  1.00  0.00    -0.237 OA
ATOM     93  O   UNL A   1      47.599  40.546  26.210  1.00  0.00    -0.744 OA
ENDBRANCH  89  90
ENDBRANCH  61  84
BRANCH  73  94
ATOM     94  C   UNL A   1      44.872  39.911  35.995  1.00  0.00    -0.014 A 
ATOM     95  C   UNL A   1      44.291  41.191  35.949  1.00  0.00     0.010 A 
ATOM     96  C   UNL A   1      46.060  39.727  36.726  1.00  0.00     0.010 A 
ATOM     97  C   UNL A   1      44.908  42.272  36.587  1.00  0.00     0.020 A 
ATOM     98  C   UNL A   1      46.662  40.798  37.394  1.00  0.00     0.020 A 
ATOM     99  C   UNL A   1      46.090  42.068  37.305  1.00  0.00     0.054 A 
BRANCH  99 100
ATOM    100  S   UNL A   1      46.853  43.479  38.152  1.00  0.00     0.124 S 
ATOM    101  O   UNL A   1      47.732  42.818  39.113  1.00  0.00    -0.237 OA
ATOM    102  O   UNL A   1      47.527  44.182  37.064  1.00  0.00    -0.237 OA
ATOM    103  O   UNL A   1      45.717  44.190  38.735  1.00  0.00    -0.744 OA
ENDBRANCH  99 100
ENDBRANCH  73  94
ENDBRANCH  47  48
ENDBRANCH  40  42
ENDBRANCH  39  40
ENDBRANCH  38  39
ENDBRANCH  37  38
ENDBRANCH  36  37
ENDBRANCH  35  36
ENDBRANCH  34  35
ENDBRANCH  33  34
ENDBRANCH  32  33
ENDBRANCH   1  32
TORSDOF 30
ENDMDL
MODEL 3
REMARK VINA RESULT:      -7.3      6.467     13.956
REMARK SMILES CCCCCCNC(=O)Oc1cccc(-c2ccc([C@@H](C)C(=O)OCCOCCOCCOC(=O)c3ccc(-c4c5nc(c(-c6ccc(S(=O)(=O)[O-])cc6)c6ccc([nH]6)c(-c6ccc(S(=O)(=O)[O-])cc6)c6nc(c(-c7ccc(S(=O)(=O)[O-])cc7)c7ccc4[nH]7)C=C6)C=C5)cc3)cc2O)c1
REMARK SMILES IDX 25 1 24 2 22 3 23 4 20 5 21 6 19 7 16 8 17 9 97 10 18 11
REMARK SMILES IDX 96 12 15 13 11 14 12 15 99 16 13 17 14 18 10 19 8 20 7 21
REMARK SMILES IDX 9 23 6 24 5 25 4 26 3 27 2 28 1 29 98 30 26 32 27 33 28 34
REMARK SMILES IDX 29 35 30 36 31 37 32 38 33 39 34 40 35 41 36 42 37 43 95 44
REMARK SMILES IDX 38 45 94 46 39 47 40 48 41 49 88 50 42 51 93 52 87 53 89 54
REMARK SMILES IDX 43 55 92 56 86 57 85 58 44 60 74 61 55 62 73 63 56 64 59 65
REMARK SMILES IDX 72 66 90 67 57 68 58 69 71 71 91 72 60 73 45 74 46 75 54 76
REMARK SMILES IDX 47 77 53 78 48 79 49 80 50 81 51 82 52 83 75 84 76 85 84 86
REMARK SMILES IDX 77 87 83 88 78 89 79 90 80 91 81 92 82 93 61 94 62 95 70 96
REMARK SMILES IDX 63 97 69 98 64 99 65 100 66 101 67 102 68 103
REMARK H PARENT 7 22 98 31 89 59 59 70
REMARK Flexibility Score: inf
ROOT
ATOM      1  C   UNL A   1      40.530  27.675  27.448  1.00  0.00     0.261 C 
ENDROOT
BRANCH   1   2
ATOM      2  O   UNL A   1      41.503  27.843  28.504  1.00  0.00    -0.463 OA
BRANCH   2   3
ATOM      3  C   UNL A   1      41.615  29.091  29.024  1.00  0.00     0.313 C 
ATOM      4  O   UNL A   1      42.387  29.936  28.574  1.00  0.00    -0.252 OA
BRANCH   3   5
ATOM      5  C   UNL A   1      40.715  29.416  30.220  1.00  0.00     0.126 C 
ATOM      6  C   UNL A   1      40.265  28.100  30.856  1.00  0.00     0.025 C 
BRANCH   5   7
ATOM      7  C   UNL A   1      39.526  30.368  30.093  1.00  0.00    -0.030 A 
ATOM      8  C   UNL A   1      37.206  32.041  29.762  1.00  0.00     0.024 A 
ATOM      9  C   UNL A   1      38.505  32.576  29.880  1.00  0.00     0.013 A 
ATOM     10  C   UNL A   1      37.100  30.643  29.829  1.00  0.00     0.123 A 
ATOM     11  C   UNL A   1      39.646  31.761  30.029  1.00  0.00     0.005 A 
ATOM     12  C   UNL A   1      38.230  29.827  29.988  1.00  0.00     0.051 A 
BRANCH   8  13
ATOM     13  C   UNL A   1      36.053  32.934  29.486  1.00  0.00    -0.011 A 
ATOM     14  C   UNL A   1      34.138  34.268  30.181  1.00  0.00     0.133 A 
ATOM     15  C   UNL A   1      33.760  34.473  28.855  1.00  0.00     0.047 A 
ATOM     16  C   UNL A   1      35.276  33.519  30.507  1.00  0.00     0.056 A 
ATOM     17  C   UNL A   1      34.535  33.933  27.836  1.00  0.00     0.004 A 
ATOM     18  C   UNL A   1      35.662  33.166  28.151  1.00  0.00     0.009 A 
BRANCH  14  19
ATOM     19  O   UNL A   1      33.223  34.702  31.158  1.00  0.00    -0.410 OA
BRANCH  19  20
ATOM     20  C   UNL A   1      32.830  36.028  31.179  1.00  0.00     0.412 C 
ATOM     21  N   UNL A   1      33.658  36.831  31.911  1.00  0.00    -0.321 N 
ATOM     22  H   UNL A   1      33.459  37.796  31.896  1.00  0.00     0.167 HD
ATOM     23  O   UNL A   1      31.822  36.482  30.631  1.00  0.00    -0.224 OA
BRANCH  21  24
ATOM     24  C   UNL A   1      34.802  36.419  32.708  1.00  0.00     0.119 C 
BRANCH  24  25
ATOM     25  C   UNL A   1      34.430  35.434  33.816  1.00  0.00     0.021 C 
BRANCH  25  26
ATOM     26  C   UNL A   1      35.433  34.295  34.040  1.00  0.00     0.002 C 
BRANCH  26  27
ATOM     27  C   UNL A   1      35.893  34.086  35.488  1.00  0.00    -0.000 C 
BRANCH  27  28
ATOM     28  C   UNL A   1      37.154  33.238  35.667  1.00  0.00    -0.003 C 
ATOM     29  C   UNL A   1      38.076  33.748  36.766  1.00  0.00     0.004 C 
ENDBRANCH  27  28
ENDBRANCH  26  27
ENDBRANCH  25  26
ENDBRANCH  24  25
ENDBRANCH  21  24
ENDBRANCH  19  20
ENDBRANCH  14  19
ENDBRANCH   8  13
BRANCH  10  30
ATOM     30  O   UNL A   1      35.912  29.971  29.710  1.00  0.00    -0.507 OA
ATOM     31  H   UNL A   1      35.102  30.441  29.737  1.00  0.00     0.293 HD
ENDBRANCH  10  30
ENDBRANCH   5   7
ENDBRANCH   3   5
ENDBRANCH   2   3
ENDBRANCH   1   2
BRANCH   1  32
ATOM     32  C   UNL A   1      41.093  27.165  26.114  1.00  0.00     0.202 C 
BRANCH  32  33
ATOM     33  O   UNL A   1      40.934  25.789  25.805  1.00  0.00    -0.376 OA
BRANCH  33  34
ATOM     34  C   UNL A   1      40.114  24.975  26.639  1.00  0.00     0.188 C 
BRANCH  34  35
ATOM     35  C   UNL A   1      40.772  24.037  27.662  1.00  0.00     0.188 C 
BRANCH  35  36
ATOM     36  O   UNL A   1      40.262  22.718  27.667  1.00  0.00    -0.376 OA
BRANCH  36  37
ATOM     37  C   UNL A   1      40.557  21.942  26.520  1.00  0.00     0.202 C 
BRANCH  37  38
ATOM     38  C   UNL A   1      42.045  21.961  26.151  1.00  0.00     0.261 C 
BRANCH  38  39
ATOM     39  O   UNL A   1      42.355  22.573  24.883  1.00  0.00    -0.460 OA
BRANCH  39  40
ATOM     40  C   UNL A   1      43.665  22.681  24.570  1.00  0.00     0.338 C 
ATOM     41  O   UNL A   1      44.182  22.416  23.491  1.00  0.00    -0.246 OA
BRANCH  40  42
ATOM     42  C   UNL A   1      44.363  23.379  25.669  1.00  0.00     0.060 A 
ATOM     43  C   UNL A   1      44.169  24.759  25.823  1.00  0.00     0.016 A 
ATOM     44  C   UNL A   1      45.224  22.690  26.527  1.00  0.00     0.016 A 
ATOM     45  C   UNL A   1      44.880  25.462  26.797  1.00  0.00     0.010 A 
ATOM     46  C   UNL A   1      45.950  23.400  27.491  1.00  0.00     0.010 A 
ATOM     47  C   UNL A   1      45.815  24.797  27.600  1.00  0.00    -0.014 A 
BRANCH  47  48
ATOM     48  C   UNL A   1      46.798  25.588  28.389  1.00  0.00     0.031 A 
ATOM     49  C   UNL A   1      48.022  26.114  27.680  1.00  0.00     0.074 A 
ATOM     50  C   UNL A   1      46.602  25.870  29.691  1.00  0.00     0.049 A 
ATOM     51  N   UNL A   1      49.014  26.822  28.154  1.00  0.00    -0.248 NA
ATOM     52  C   UNL A   1      48.143  25.797  26.246  1.00  0.00     0.031 C 
ATOM     53  C   UNL A   1      45.450  25.452  30.487  1.00  0.00     0.029 A 
ATOM     54  N   UNL A   1      47.380  26.580  30.575  1.00  0.00    -0.354 N 
ATOM     55  C   UNL A   1      49.881  27.021  27.085  1.00  0.00     0.074 A 
ATOM     56  C   UNL A   1      49.312  26.340  25.943  1.00  0.00     0.031 C 
ATOM     57  C   UNL A   1      45.603  25.904  31.747  1.00  0.00     0.029 A 
ATOM     58  C   UNL A   1      46.873  26.619  31.853  1.00  0.00     0.049 A 
ATOM     59  H   UNL A   1      48.223  27.018  30.317  1.00  0.00     0.167 HD
ATOM     60  C   UNL A   1      51.045  27.712  27.053  1.00  0.00     0.031 A 
ATOM     61  C   UNL A   1      47.385  27.153  32.982  1.00  0.00     0.031 A 
ATOM     62  C   UNL A   1      51.609  28.399  28.183  1.00  0.00     0.049 A 
ATOM     63  C   UNL A   1      48.711  27.876  32.926  1.00  0.00     0.074 A 
ATOM     64  C   UNL A   1      52.761  29.165  28.230  1.00  0.00     0.029 A 
ATOM     65  N   UNL A   1      51.074  28.398  29.460  1.00  0.00    -0.354 N 
ATOM     66  N   UNL A   1      49.485  28.106  31.892  1.00  0.00    -0.248 NA
ATOM     67  C   UNL A   1      49.226  28.422  34.192  1.00  0.00     0.031 C 
ATOM     68  C   UNL A   1      52.959  29.572  29.552  1.00  0.00     0.029 A 
ATOM     69  C   UNL A   1      51.893  29.119  30.313  1.00  0.00     0.049 A 
ATOM     70  H   UNL A   1      50.237  27.952  29.723  1.00  0.00     0.167 HD
ATOM     71  C   UNL A   1      50.559  28.849  32.379  1.00  0.00     0.074 A 
ATOM     72  C   UNL A   1      50.324  29.048  33.793  1.00  0.00     0.031 C 
ATOM     73  C   UNL A   1      51.644  29.320  31.718  1.00  0.00     0.031 A 
BRANCH  60  74
ATOM     74  C   UNL A   1      51.813  27.745  25.759  1.00  0.00    -0.014 A 
ATOM     75  C   UNL A   1      51.674  28.811  24.853  1.00  0.00     0.010 A 
ATOM     76  C   UNL A   1      52.759  26.738  25.493  1.00  0.00     0.010 A 
ATOM     77  C   UNL A   1      52.461  28.864  23.699  1.00  0.00     0.020 A 
ATOM     78  C   UNL A   1      53.566  26.800  24.355  1.00  0.00     0.020 A 
ATOM     79  C   UNL A   1      53.407  27.861  23.462  1.00  0.00     0.054 A 
BRANCH  79  80
ATOM     80  S   UNL A   1      54.464  27.997  21.994  1.00  0.00     0.124 S 
ATOM     81  O   UNL A   1      55.569  28.814  22.492  1.00  0.00    -0.237 OA
ATOM     82  O   UNL A   1      54.794  26.604  21.709  1.00  0.00    -0.237 OA
ATOM     83  O   UNL A   1      53.607  28.648  21.006  1.00  0.00    -0.744 OA
ENDBRANCH  79  80
ENDBRANCH  60  74
BRANCH  61  84
ATOM     84  C   UNL A   1      46.674  26.997  34.285  1.00  0.00    -0.014 A 
ATOM     85  C   UNL A   1      46.915  25.889  35.117  1.00  0.00     0.010 A 
ATOM     86  C   UNL A   1      45.698  27.935  34.669  1.00  0.00     0.010 A 
ATOM     87  C   UNL A   1      46.163  25.697  36.281  1.00  0.00     0.020 A 
ATOM     88  C   UNL A   1      44.968  27.766  35.849  1.00  0.00     0.020 A 
ATOM     89  C   UNL A   1      45.189  26.636  36.637  1.00  0.00     0.054 A 
BRANCH  89  90
ATOM     90  S   UNL A   1      44.224  26.369  38.150  1.00  0.00     0.124 S 
ATOM     91  O   UNL A   1      44.543  24.983  38.473  1.00  0.00    -0.237 OA
ATOM     92  O   UNL A   1      44.773  27.375  39.056  1.00  0.00    -0.237 OA
ATOM     93  O   UNL A   1      42.847  26.611  37.724  1.00  0.00    -0.744 OA
ENDBRANCH  89  90
ENDBRANCH  61  84
BRANCH  73  94
ATOM     94  C   UNL A   1      52.644  30.134  32.497  1.00  0.00    -0.014 A 
ATOM     95  C   UNL A   1      53.760  29.535  33.110  1.00  0.00     0.010 A 
ATOM     96  C   UNL A   1      52.494  31.532  32.571  1.00  0.00     0.010 A 
ATOM     97  C   UNL A   1      54.683  30.313  33.815  1.00  0.00     0.020 A 
ATOM     98  C   UNL A   1      53.433  32.317  33.247  1.00  0.00     0.020 A 
ATOM     99  C   UNL A   1      54.513  31.699  33.880  1.00  0.00     0.054 A 
BRANCH  99 100
ATOM    100  S   UNL A   1      55.743  32.691  34.772  1.00  0.00     0.124 S 
ATOM    101  O   UNL A   1      56.806  32.821  33.780  1.00  0.00    -0.237 OA
ATOM    102  O   UNL A   1      55.010  33.917  35.073  1.00  0.00    -0.237 OA
ATOM    103  O   UNL A   1      56.074  31.869  35.935  1.00  0.00    -0.744 OA
ENDBRANCH  99 100
ENDBRANCH  73  94
ENDBRANCH  47  48
ENDBRANCH  40  42
ENDBRANCH  39  40
ENDBRANCH  38  39
ENDBRANCH  37  38
ENDBRANCH  36  37
ENDBRANCH  35  36
ENDBRANCH  34  35
ENDBRANCH  33  34
ENDBRANCH  32  33
ENDBRANCH   1  32
TORSDOF 30
ENDMDL
