MODEL 1
REMARK VINA RESULT:     -10.0      0.000      0.000
REMARK SMILES Cc1c(Cl)cccc1NC(=O)C[C@](C)(C(=O)OCCOCCOCCOC(=O)c1ccc(-c2c3nc(c(-c4ccc(S(=O)(=O)[O-])cc4)c4ccc([nH]4)c(-c4ccc(S(=O)(=O)[O-])cc4)c4nc(c(-c5ccc(S(=O)(=O)[O-])cc5)c5ccc2[nH]5)C=C4)C=C3)cc1)c1ccccc1
REMARK SMILES IDX 21 1 20 2 19 3 18 4 17 5 15 6 16 7 13 8 14 9 12 10 10 11
REMARK SMILES IDX 9 12 11 14 8 15 1 16 2 17 3 18 4 19 5 20 7 21 6 22 89 23
REMARK SMILES IDX 90 24 94 25 91 26 93 27 92 28 22 29 23 30 24 31 25 32 26 33
REMARK SMILES IDX 27 34 28 35 29 36 30 37 88 38 31 39 87 40 32 41 33 42 34 43
REMARK SMILES IDX 81 44 35 45 86 46 80 47 82 48 36 49 85 50 79 51 78 52 37 54
REMARK SMILES IDX 67 55 48 56 66 57 49 58 52 59 65 60 83 61 50 62 51 63 64 65
REMARK SMILES IDX 84 66 53 67 38 68 39 69 47 70 40 71 46 72 41 73 42 74 43 75
REMARK SMILES IDX 44 76 45 77 68 78 69 79 77 80 70 81 76 82 71 83 72 84 73 85
REMARK SMILES IDX 74 86 75 87 54 88 55 89 63 90 56 91 62 92 57 93 58 94 59 95
REMARK SMILES IDX 60 96 61 97
REMARK H PARENT 9 13 82 53 52 64
REMARK Flexibility Score: inf
ROOT
ATOM      1  C   UNL A   1      38.352  23.275  26.149  1.00  0.00     0.188 C 
ENDROOT
BRANCH   1   2
ATOM      2  O   UNL A   1      37.668  23.184  24.907  1.00  0.00    -0.376 OA
BRANCH   2   3
ATOM      3  C   UNL A   1      36.266  22.930  24.936  1.00  0.00     0.202 C 
BRANCH   3   4
ATOM      4  C   UNL A   1      35.336  24.078  25.344  1.00  0.00     0.261 C 
BRANCH   4   5
ATOM      5  O   UNL A   1      34.182  24.235  24.490  1.00  0.00    -0.463 OA
BRANCH   5   6
ATOM      6  C   UNL A   1      33.014  24.480  25.138  1.00  0.00     0.316 C 
ATOM      7  O   UNL A   1      32.922  25.316  26.034  1.00  0.00    -0.251 OA
BRANCH   6   8
ATOM      8  C   UNL A   1      31.798  23.622  24.673  1.00  0.00     0.099 C 
ATOM      9  C   UNL A   1      30.541  23.661  25.587  1.00  0.00     0.029 C 
BRANCH   8  10
ATOM     10  C   UNL A   1      31.372  24.171  23.269  1.00  0.00     0.123 C 
BRANCH  10  11
ATOM     11  C   UNL A   1      32.389  24.932  22.413  1.00  0.00     0.225 C 
ATOM     12  N   UNL A   1      32.573  26.283  22.418  1.00  0.00    -0.326 N 
ATOM     13  H   UNL A   1      33.401  26.551  21.957  1.00  0.00     0.169 HD
ATOM     14  O   UNL A   1      33.126  24.291  21.651  1.00  0.00    -0.275 OA
BRANCH  12  15
ATOM     15  C   UNL A   1      31.858  27.384  22.925  1.00  0.00     0.045 A 
ATOM     16  C   UNL A   1      33.859  28.035  24.409  1.00  0.00     0.048 C 
ATOM     17  C   UNL A   1      32.443  28.217  23.914  1.00  0.00    -0.009 A 
ATOM     18  C   UNL A   1      31.664  29.261  24.464  1.00  0.00     0.046 A 
ATOM     19  Cl  UNL A   1      32.269  30.301  25.711  1.00  0.00    -0.084 Cl
ATOM     20  C   UNL A   1      30.360  29.496  24.030  1.00  0.00     0.021 A 
ATOM     21  C   UNL A   1      30.587  27.698  22.439  1.00  0.00     0.026 A 
ATOM     22  C   UNL A   1      29.832  28.731  23.001  1.00  0.00     0.004 A 
ENDBRANCH  12  15
ENDBRANCH  10  11
ENDBRANCH   8  10
BRANCH   8  23
ATOM     23  C   UNL A   1      32.182  22.103  24.616  1.00  0.00    -0.030 A 
ATOM     24  C   UNL A   1      32.629  21.429  25.774  1.00  0.00     0.005 A 
ATOM     25  C   UNL A   1      32.201  21.373  23.411  1.00  0.00     0.005 A 
ATOM     26  C   UNL A   1      33.110  20.113  25.717  1.00  0.00     0.000 A 
ATOM     27  C   UNL A   1      32.657  20.051  23.362  1.00  0.00     0.000 A 
ATOM     28  C   UNL A   1      33.127  19.426  24.509  1.00  0.00     0.000 A 
ENDBRANCH   8  23
ENDBRANCH   6   8
ENDBRANCH   5   6
ENDBRANCH   4   5
ENDBRANCH   3   4
ENDBRANCH   2   3
ENDBRANCH   1   2
BRANCH   1  29
ATOM     29  C   UNL A   1      39.381  22.183  26.478  1.00  0.00     0.188 C 
BRANCH  29  30
ATOM     30  O   UNL A   1      40.550  22.595  27.138  1.00  0.00    -0.376 OA
BRANCH  30  31
ATOM     31  C   UNL A   1      41.698  22.955  26.394  1.00  0.00     0.202 C 
BRANCH  31  32
ATOM     32  C   UNL A   1      42.818  23.892  26.889  1.00  0.00     0.261 C 
BRANCH  32  33
ATOM     33  O   UNL A   1      43.074  25.092  26.159  1.00  0.00    -0.460 OA
BRANCH  33  34
ATOM     34  C   UNL A   1      42.032  25.950  25.986  1.00  0.00     0.338 C 
ATOM     35  O   UNL A   1      41.271  25.995  25.049  1.00  0.00    -0.246 OA
BRANCH  34  36
ATOM     36  C   UNL A   1      41.838  26.632  27.292  1.00  0.00     0.060 A 
ATOM     37  C   UNL A   1      40.773  26.232  28.115  1.00  0.00     0.016 A 
ATOM     38  C   UNL A   1      42.767  27.570  27.747  1.00  0.00     0.016 A 
ATOM     39  C   UNL A   1      40.641  26.765  29.399  1.00  0.00     0.010 A 
ATOM     40  C   UNL A   1      42.612  28.130  29.016  1.00  0.00     0.010 A 
ATOM     41  C   UNL A   1      41.542  27.743  29.841  1.00  0.00    -0.014 A 
BRANCH  41  42
ATOM     42  C   UNL A   1      41.270  28.523  31.069  1.00  0.00     0.031 A 
ATOM     43  C   UNL A   1      40.156  29.527  31.027  1.00  0.00     0.074 A 
ATOM     44  C   UNL A   1      42.015  28.382  32.180  1.00  0.00     0.049 A 
ATOM     45  N   UNL A   1      39.806  30.419  31.915  1.00  0.00    -0.248 NA
ATOM     46  C   UNL A   1      39.330  29.530  29.807  1.00  0.00     0.031 C 
ATOM     47  C   UNL A   1      43.087  27.407  32.364  1.00  0.00     0.029 A 
ATOM     48  N   UNL A   1      41.984  29.078  33.363  1.00  0.00    -0.354 N 
ATOM     49  C   UNL A   1      38.731  31.100  31.358  1.00  0.00     0.074 A 
ATOM     50  C   UNL A   1      38.496  30.528  30.049  1.00  0.00     0.031 C 
ATOM     51  C   UNL A   1      43.610  27.563  33.595  1.00  0.00     0.029 A 
ATOM     52  C   UNL A   1      42.948  28.683  34.262  1.00  0.00     0.049 A 
ATOM     53  H   UNL A   1      41.333  29.792  33.551  1.00  0.00     0.167 HD
ATOM     54  C   UNL A   1      38.009  32.117  31.883  1.00  0.00     0.031 A 
ATOM     55  C   UNL A   1      43.274  29.193  35.468  1.00  0.00     0.031 A 
ATOM     56  C   UNL A   1      38.277  32.715  33.161  1.00  0.00     0.049 A 
ATOM     57  C   UNL A   1      42.534  30.404  35.981  1.00  0.00     0.074 A 
ATOM     58  C   UNL A   1      37.617  33.763  33.776  1.00  0.00     0.029 A 
ATOM     59  N   UNL A   1      39.300  32.328  34.013  1.00  0.00    -0.354 N 
ATOM     60  N   UNL A   1      41.516  31.038  35.448  1.00  0.00    -0.248 NA
ATOM     61  C   UNL A   1      43.001  30.979  37.252  1.00  0.00     0.031 C 
ATOM     62  C   UNL A   1      38.278  34.048  34.976  1.00  0.00     0.029 A 
ATOM     63  C   UNL A   1      39.311  33.137  35.135  1.00  0.00     0.049 A 
ATOM     64  H   UNL A   1      39.926  31.587  33.845  1.00  0.00     0.167 HD
ATOM     65  C   UNL A   1      41.211  32.075  36.326  1.00  0.00     0.074 A 
ATOM     66  C   UNL A   1      42.141  31.974  37.432  1.00  0.00     0.031 C 
ATOM     67  C   UNL A   1      40.248  33.025  36.227  1.00  0.00     0.031 A 
BRANCH  54  68
ATOM     68  C   UNL A   1      36.903  32.675  31.031  1.00  0.00    -0.014 A 
ATOM     69  C   UNL A   1      37.181  33.519  29.939  1.00  0.00     0.010 A 
ATOM     70  C   UNL A   1      35.565  32.369  31.338  1.00  0.00     0.010 A 
ATOM     71  C   UNL A   1      36.138  34.092  29.207  1.00  0.00     0.020 A 
ATOM     72  C   UNL A   1      34.520  32.917  30.590  1.00  0.00     0.020 A 
ATOM     73  C   UNL A   1      34.814  33.795  29.544  1.00  0.00     0.054 A 
BRANCH  73  74
ATOM     74  S   UNL A   1      33.480  34.568  28.589  1.00  0.00     0.124 S 
ATOM     75  O   UNL A   1      33.056  33.470  27.724  1.00  0.00    -0.237 OA
ATOM     76  O   UNL A   1      32.527  34.955  29.625  1.00  0.00    -0.237 OA
ATOM     77  O   UNL A   1      34.140  35.678  27.907  1.00  0.00    -0.744 OA
ENDBRANCH  73  74
ENDBRANCH  54  68
BRANCH  55  78
ATOM     78  C   UNL A   1      44.371  28.582  36.269  1.00  0.00    -0.014 A 
ATOM     79  C   UNL A   1      45.699  29.015  36.099  1.00  0.00     0.010 A 
ATOM     80  C   UNL A   1      44.102  27.560  37.198  1.00  0.00     0.010 A 
ATOM     81  C   UNL A   1      46.735  28.433  36.836  1.00  0.00     0.020 A 
ATOM     82  C   UNL A   1      45.132  26.995  37.956  1.00  0.00     0.020 A 
ATOM     83  C   UNL A   1      46.444  27.429  37.764  1.00  0.00     0.054 A 
BRANCH  83  84
ATOM     84  S   UNL A   1      47.799  26.727  38.747  1.00  0.00     0.124 S 
ATOM     85  O   UNL A   1      48.279  25.656  37.882  1.00  0.00    -0.237 OA
ATOM     86  O   UNL A   1      48.699  27.868  38.902  1.00  0.00    -0.237 OA
ATOM     87  O   UNL A   1      47.138  26.292  39.977  1.00  0.00    -0.744 OA
ENDBRANCH  83  84
ENDBRANCH  55  78
BRANCH  67  88
ATOM     88  C   UNL A   1      40.128  34.025  37.346  1.00  0.00    -0.014 A 
ATOM     89  C   UNL A   1      40.649  35.324  37.219  1.00  0.00     0.010 A 
ATOM     90  C   UNL A   1      39.399  33.689  38.502  1.00  0.00     0.010 A 
ATOM     91  C   UNL A   1      40.452  36.266  38.233  1.00  0.00     0.020 A 
ATOM     92  C   UNL A   1      39.178  34.635  39.506  1.00  0.00     0.020 A 
ATOM     93  C   UNL A   1      39.712  35.918  39.368  1.00  0.00     0.054 A 
BRANCH  93  94
ATOM     94  S   UNL A   1      39.402  37.183  40.630  1.00  0.00     0.124 S 
ATOM     95  O   UNL A   1      38.649  38.184  39.880  1.00  0.00    -0.237 OA
ATOM     96  O   UNL A   1      38.642  36.450  41.639  1.00  0.00    -0.237 OA
ATOM     97  O   UNL A   1      40.742  37.595  41.046  1.00  0.00    -0.744 OA
ENDBRANCH  93  94
ENDBRANCH  67  88
ENDBRANCH  41  42
ENDBRANCH  34  36
ENDBRANCH  33  34
ENDBRANCH  32  33
ENDBRANCH  31  32
ENDBRANCH  30  31
ENDBRANCH  29  30
ENDBRANCH   1  29
TORSDOF 24
ENDMDL
MODEL 2
REMARK VINA RESULT:      -9.8      2.067      8.440
REMARK SMILES Cc1c(Cl)cccc1NC(=O)C[C@](C)(C(=O)OCCOCCOCCOC(=O)c1ccc(-c2c3nc(c(-c4ccc(S(=O)(=O)[O-])cc4)c4ccc([nH]4)c(-c4ccc(S(=O)(=O)[O-])cc4)c4nc(c(-c5ccc(S(=O)(=O)[O-])cc5)c5ccc2[nH]5)C=C4)C=C3)cc1)c1ccccc1
REMARK SMILES IDX 21 1 20 2 19 3 18 4 17 5 15 6 16 7 13 8 14 9 12 10 10 11
REMARK SMILES IDX 9 12 11 14 8 15 1 16 2 17 3 18 4 19 5 20 7 21 6 22 89 23
REMARK SMILES IDX 90 24 94 25 91 26 93 27 92 28 22 29 23 30 24 31 25 32 26 33
REMARK SMILES IDX 27 34 28 35 29 36 30 37 88 38 31 39 87 40 32 41 33 42 34 43
REMARK SMILES IDX 81 44 35 45 86 46 80 47 82 48 36 49 85 50 79 51 78 52 37 54
REMARK SMILES IDX 67 55 48 56 66 57 49 58 52 59 65 60 83 61 50 62 51 63 64 65
REMARK SMILES IDX 84 66 53 67 38 68 39 69 47 70 40 71 46 72 41 73 42 74 43 75
REMARK SMILES IDX 44 76 45 77 68 78 69 79 77 80 70 81 76 82 71 83 72 84 73 85
REMARK SMILES IDX 74 86 75 87 54 88 55 89 63 90 56 91 62 92 57 93 58 94 59 95
REMARK SMILES IDX 60 96 61 97
REMARK H PARENT 9 13 82 53 52 64
REMARK Flexibility Score: inf
ROOT
ATOM      1  C   UNL A   1      36.344  21.787  24.365  1.00  0.00     0.188 C 
ENDROOT
BRANCH   1   2
ATOM      2  O   UNL A   1      35.147  22.000  25.100  1.00  0.00    -0.376 OA
BRANCH   2   3
ATOM      3  C   UNL A   1      35.089  23.131  25.965  1.00  0.00     0.202 C 
BRANCH   3   4
ATOM      4  C   UNL A   1      35.337  24.515  25.355  1.00  0.00     0.261 C 
BRANCH   4   5
ATOM      5  O   UNL A   1      34.133  25.268  25.089  1.00  0.00    -0.463 OA
BRANCH   5   6
ATOM      6  C   UNL A   1      33.862  25.476  23.774  1.00  0.00     0.316 C 
ATOM      7  O   UNL A   1      34.229  24.699  22.896  1.00  0.00    -0.251 OA
BRANCH   6   8
ATOM      8  C   UNL A   1      33.060  26.775  23.456  1.00  0.00     0.099 C 
ATOM      9  C   UNL A   1      33.674  27.712  22.378  1.00  0.00     0.029 C 
BRANCH   8  10
ATOM     10  C   UNL A   1      31.656  26.319  22.933  1.00  0.00     0.123 C 
BRANCH  10  11
ATOM     11  C   UNL A   1      30.597  25.838  23.930  1.00  0.00     0.225 C 
ATOM     12  N   UNL A   1      30.515  24.581  24.451  1.00  0.00    -0.326 N 
ATOM     13  H   UNL A   1      29.897  24.531  25.217  1.00  0.00     0.169 HD
ATOM     14  O   UNL A   1      29.737  26.640  24.318  1.00  0.00    -0.275 OA
BRANCH  12  15
ATOM     15  C   UNL A   1      31.103  23.338  24.152  1.00  0.00     0.045 A 
ATOM     16  C   UNL A   1      31.156  22.730  26.653  1.00  0.00     0.048 C 
ATOM     17  C   UNL A   1      31.456  22.448  25.199  1.00  0.00    -0.009 A 
ATOM     18  C   UNL A   1      32.125  21.247  24.867  1.00  0.00     0.046 A 
ATOM     19  Cl  UNL A   1      32.642  20.118  26.076  1.00  0.00    -0.084 Cl
ATOM     20  C   UNL A   1      32.407  20.918  23.542  1.00  0.00     0.021 A 
ATOM     21  C   UNL A   1      31.309  22.943  22.828  1.00  0.00     0.026 A 
ATOM     22  C   UNL A   1      31.976  21.754  22.522  1.00  0.00     0.004 A 
ENDBRANCH  12  15
ENDBRANCH  10  11
ENDBRANCH   8  10
BRANCH   8  23
ATOM     23  C   UNL A   1      32.945  27.682  24.729  1.00  0.00    -0.030 A 
ATOM     24  C   UNL A   1      32.281  28.927  24.670  1.00  0.00     0.005 A 
ATOM     25  C   UNL A   1      33.576  27.358  25.946  1.00  0.00     0.005 A 
ATOM     26  C   UNL A   1      32.288  29.814  25.755  1.00  0.00     0.000 A 
ATOM     27  C   UNL A   1      33.559  28.235  27.037  1.00  0.00     0.000 A 
ATOM     28  C   UNL A   1      32.931  29.469  26.938  1.00  0.00     0.000 A 
ENDBRANCH   8  23
ENDBRANCH   6   8
ENDBRANCH   5   6
ENDBRANCH   4   5
ENDBRANCH   3   4
ENDBRANCH   2   3
ENDBRANCH   1   2
BRANCH   1  29
ATOM     29  C   UNL A   1      37.326  20.729  24.891  1.00  0.00     0.188 C 
BRANCH  29  30
ATOM     30  O   UNL A   1      38.520  21.202  25.460  1.00  0.00    -0.376 OA
BRANCH  30  31
ATOM     31  C   UNL A   1      38.548  22.458  26.111  1.00  0.00     0.202 C 
BRANCH  31  32
ATOM     32  C   UNL A   1      39.746  23.020  26.901  1.00  0.00     0.261 C 
BRANCH  32  33
ATOM     33  O   UNL A   1      39.560  24.216  27.660  1.00  0.00    -0.460 OA
BRANCH  33  34
ATOM     34  C   UNL A   1      39.981  25.381  27.098  1.00  0.00     0.338 C 
ATOM     35  O   UNL A   1      40.108  25.622  25.921  1.00  0.00    -0.246 OA
BRANCH  34  36
ATOM     36  C   UNL A   1      39.987  26.388  28.192  1.00  0.00     0.060 A 
ATOM     37  C   UNL A   1      40.750  27.556  28.035  1.00  0.00     0.016 A 
ATOM     38  C   UNL A   1      39.155  26.233  29.303  1.00  0.00     0.016 A 
ATOM     39  C   UNL A   1      40.676  28.575  28.988  1.00  0.00     0.010 A 
ATOM     40  C   UNL A   1      39.111  27.235  30.272  1.00  0.00     0.010 A 
ATOM     41  C   UNL A   1      39.880  28.402  30.128  1.00  0.00    -0.014 A 
BRANCH  41  42
ATOM     42  C   UNL A   1      39.995  29.328  31.278  1.00  0.00     0.031 A 
ATOM     43  C   UNL A   1      41.152  29.137  32.216  1.00  0.00     0.074 A 
ATOM     44  C   UNL A   1      39.079  30.283  31.515  1.00  0.00     0.049 A 
ATOM     45  N   UNL A   1      41.402  29.722  33.356  1.00  0.00    -0.248 NA
ATOM     46  C   UNL A   1      42.158  28.139  31.812  1.00  0.00     0.031 C 
ATOM     47  C   UNL A   1      37.943  30.603  30.654  1.00  0.00     0.029 A 
ATOM     48  N   UNL A   1      38.959  31.155  32.570  1.00  0.00    -0.354 N 
ATOM     49  C   UNL A   1      42.584  29.154  33.815  1.00  0.00     0.074 A 
ATOM     50  C   UNL A   1      42.993  28.169  32.838  1.00  0.00     0.031 C 
ATOM     51  C   UNL A   1      37.243  31.607  31.213  1.00  0.00     0.029 A 
ATOM     52  C   UNL A   1      37.848  31.962  32.496  1.00  0.00     0.049 A 
ATOM     53  H   UNL A   1      39.608  31.199  33.309  1.00  0.00     0.167 HD
ATOM     54  C   UNL A   1      43.265  29.422  34.954  1.00  0.00     0.031 A 
ATOM     55  C   UNL A   1      37.363  32.858  33.380  1.00  0.00     0.031 A 
ATOM     56  C   UNL A   1      42.830  30.365  35.946  1.00  0.00     0.049 A 
ATOM     57  C   UNL A   1      38.073  33.053  34.697  1.00  0.00     0.074 A 
ATOM     58  C   UNL A   1      43.437  30.696  37.144  1.00  0.00     0.029 A 
ATOM     59  N   UNL A   1      41.668  31.117  35.863  1.00  0.00    -0.354 N 
ATOM     60  N   UNL A   1      39.193  32.515  35.120  1.00  0.00    -0.248 NA
ATOM     61  C   UNL A   1      37.442  33.964  35.665  1.00  0.00     0.031 C 
ATOM     62  C   UNL A   1      42.612  31.605  37.813  1.00  0.00     0.029 A 
ATOM     63  C   UNL A   1      41.522  31.887  37.004  1.00  0.00     0.049 A 
ATOM     64  H   UNL A   1      41.039  31.105  35.106  1.00  0.00     0.167 HD
ATOM     65  C   UNL A   1      39.408  33.034  36.394  1.00  0.00     0.074 A 
ATOM     66  C   UNL A   1      38.312  33.941  36.666  1.00  0.00     0.031 C 
ATOM     67  C   UNL A   1      40.421  32.784  37.260  1.00  0.00     0.031 A 
BRANCH  54  68
ATOM     68  C   UNL A   1      44.518  28.627  35.199  1.00  0.00    -0.014 A 
ATOM     69  C   UNL A   1      45.728  28.964  34.565  1.00  0.00     0.010 A 
ATOM     70  C   UNL A   1      44.479  27.514  36.057  1.00  0.00     0.010 A 
ATOM     71  C   UNL A   1      46.862  28.168  34.741  1.00  0.00     0.020 A 
ATOM     72  C   UNL A   1      45.620  26.732  36.259  1.00  0.00     0.020 A 
ATOM     73  C   UNL A   1      46.798  27.051  35.580  1.00  0.00     0.054 A 
BRANCH  73  74
ATOM     74  S   UNL A   1      48.280  26.024  35.775  1.00  0.00     0.124 S 
ATOM     75  O   UNL A   1      47.709  24.679  35.807  1.00  0.00    -0.237 OA
ATOM     76  O   UNL A   1      49.056  26.349  34.582  1.00  0.00    -0.237 OA
ATOM     77  O   UNL A   1      48.857  26.484  37.036  1.00  0.00    -0.744 OA
ENDBRANCH  73  74
ENDBRANCH  54  68
BRANCH  55  78
ATOM     78  C   UNL A   1      36.124  33.624  33.069  1.00  0.00    -0.014 A 
ATOM     79  C   UNL A   1      36.200  34.841  32.367  1.00  0.00     0.010 A 
ATOM     80  C   UNL A   1      34.863  33.152  33.477  1.00  0.00     0.010 A 
ATOM     81  C   UNL A   1      35.042  35.573  32.086  1.00  0.00     0.020 A 
ATOM     82  C   UNL A   1      33.700  33.868  33.175  1.00  0.00     0.020 A 
ATOM     83  C   UNL A   1      33.798  35.079  32.489  1.00  0.00     0.054 A 
BRANCH  83  84
ATOM     84  S   UNL A   1      32.305  36.021  32.066  1.00  0.00     0.124 S 
ATOM     85  O   UNL A   1      31.247  35.162  32.585  1.00  0.00    -0.237 OA
ATOM     86  O   UNL A   1      32.511  37.277  32.783  1.00  0.00    -0.237 OA
ATOM     87  O   UNL A   1      32.370  36.126  30.609  1.00  0.00    -0.744 OA
ENDBRANCH  83  84
ENDBRANCH  55  78
BRANCH  67  88
ATOM     88  C   UNL A   1      40.414  33.509  38.580  1.00  0.00    -0.014 A 
ATOM     89  C   UNL A   1      41.082  34.735  38.739  1.00  0.00     0.010 A 
ATOM     90  C   UNL A   1      39.649  33.001  39.647  1.00  0.00     0.010 A 
ATOM     91  C   UNL A   1      40.993  35.437  39.944  1.00  0.00     0.020 A 
ATOM     92  C   UNL A   1      39.538  33.712  40.845  1.00  0.00     0.020 A 
ATOM     93  C   UNL A   1      40.216  34.924  40.989  1.00  0.00     0.054 A 
BRANCH  93  94
ATOM     94  S   UNL A   1      40.052  35.894  42.513  1.00  0.00     0.124 S 
ATOM     95  O   UNL A   1      39.387  37.102  42.035  1.00  0.00    -0.237 OA
ATOM     96  O   UNL A   1      39.241  35.023  43.360  1.00  0.00    -0.237 OA
ATOM     97  O   UNL A   1      41.432  36.077  42.958  1.00  0.00    -0.744 OA
ENDBRANCH  93  94
ENDBRANCH  67  88
ENDBRANCH  41  42
ENDBRANCH  34  36
ENDBRANCH  33  34
ENDBRANCH  32  33
ENDBRANCH  31  32
ENDBRANCH  30  31
ENDBRANCH  29  30
ENDBRANCH   1  29
TORSDOF 24
ENDMDL
MODEL 3
REMARK VINA RESULT:      -9.6      3.150      9.125
REMARK SMILES Cc1c(Cl)cccc1NC(=O)C[C@](C)(C(=O)OCCOCCOCCOC(=O)c1ccc(-c2c3nc(c(-c4ccc(S(=O)(=O)[O-])cc4)c4ccc([nH]4)c(-c4ccc(S(=O)(=O)[O-])cc4)c4nc(c(-c5ccc(S(=O)(=O)[O-])cc5)c5ccc2[nH]5)C=C4)C=C3)cc1)c1ccccc1
REMARK SMILES IDX 21 1 20 2 19 3 18 4 17 5 15 6 16 7 13 8 14 9 12 10 10 11
REMARK SMILES IDX 9 12 11 14 8 15 1 16 2 17 3 18 4 19 5 20 7 21 6 22 89 23
REMARK SMILES IDX 90 24 94 25 91 26 93 27 92 28 22 29 23 30 24 31 25 32 26 33
REMARK SMILES IDX 27 34 28 35 29 36 30 37 88 38 31 39 87 40 32 41 33 42 34 43
REMARK SMILES IDX 81 44 35 45 86 46 80 47 82 48 36 49 85 50 79 51 78 52 37 54
REMARK SMILES IDX 67 55 48 56 66 57 49 58 52 59 65 60 83 61 50 62 51 63 64 65
REMARK SMILES IDX 84 66 53 67 38 68 39 69 47 70 40 71 46 72 41 73 42 74 43 75
REMARK SMILES IDX 44 76 45 77 68 78 69 79 77 80 70 81 76 82 71 83 72 84 73 85
REMARK SMILES IDX 74 86 75 87 54 88 55 89 63 90 56 91 62 92 57 93 58 94 59 95
REMARK SMILES IDX 60 96 61 97
REMARK H PARENT 9 13 82 53 52 64
REMARK Flexibility Score: inf
ROOT
ATOM      1  C   UNL A   1      36.462  22.861  23.841  1.00  0.00     0.188 C 
ENDROOT
BRANCH   1   2
ATOM      2  O   UNL A   1      35.795  24.070  24.176  1.00  0.00    -0.376 OA
BRANCH   2   3
ATOM      3  C   UNL A   1      34.900  24.051  25.285  1.00  0.00     0.202 C 
BRANCH   3   4
ATOM      4  C   UNL A   1      34.421  25.395  25.845  1.00  0.00     0.261 C 
BRANCH   4   5
ATOM      5  O   UNL A   1      33.307  25.971  25.129  1.00  0.00    -0.463 OA
BRANCH   5   6
ATOM      6  C   UNL A   1      33.477  27.260  24.737  1.00  0.00     0.316 C 
ATOM      7  O   UNL A   1      33.839  28.141  25.514  1.00  0.00    -0.251 OA
BRANCH   6   8
ATOM      8  C   UNL A   1      33.173  27.548  23.236  1.00  0.00     0.099 C 
ATOM      9  C   UNL A   1      34.089  28.594  22.539  1.00  0.00     0.029 C 
BRANCH   8  10
ATOM     10  C   UNL A   1      33.350  26.191  22.474  1.00  0.00     0.123 C 
BRANCH  10  11
ATOM     11  C   UNL A   1      32.143  25.547  21.784  1.00  0.00     0.225 C 
ATOM     12  N   UNL A   1      31.290  24.650  22.357  1.00  0.00    -0.326 N 
ATOM     13  H   UNL A   1      30.474  24.514  21.823  1.00  0.00     0.169 HD
ATOM     14  O   UNL A   1      31.891  25.856  20.611  1.00  0.00    -0.275 OA
BRANCH  12  15
ATOM     15  C   UNL A   1      31.303  23.873  23.530  1.00  0.00     0.045 A 
ATOM     16  C   UNL A   1      32.806  22.123  22.387  1.00  0.00     0.048 C 
ATOM     17  C   UNL A   1      31.993  22.633  23.554  1.00  0.00    -0.009 A 
ATOM     18  C   UNL A   1      31.911  21.838  24.720  1.00  0.00     0.046 A 
ATOM     19  Cl  UNL A   1      32.677  20.287  24.831  1.00  0.00    -0.084 Cl
ATOM     20  C   UNL A   1      31.198  22.266  25.839  1.00  0.00     0.021 A 
ATOM     21  C   UNL A   1      30.676  24.323  24.695  1.00  0.00     0.026 A 
ATOM     22  C   UNL A   1      30.604  23.519  25.835  1.00  0.00     0.004 A 
ENDBRANCH  12  15
ENDBRANCH  10  11
ENDBRANCH   8  10
BRANCH   8  23
ATOM     23  C   UNL A   1      31.728  28.132  23.065  1.00  0.00    -0.030 A 
ATOM     24  C   UNL A   1      31.456  29.107  22.079  1.00  0.00     0.005 A 
ATOM     25  C   UNL A   1      30.671  27.800  23.935  1.00  0.00     0.005 A 
ATOM     26  C   UNL A   1      30.210  29.744  22.002  1.00  0.00     0.000 A 
ATOM     27  C   UNL A   1      29.420  28.418  23.839  1.00  0.00     0.000 A 
ATOM     28  C   UNL A   1      29.192  29.401  22.885  1.00  0.00     0.000 A 
ENDBRANCH   8  23
ENDBRANCH   6   8
ENDBRANCH   5   6
ENDBRANCH   4   5
ENDBRANCH   3   4
ENDBRANCH   2   3
ENDBRANCH   1   2
BRANCH   1  29
ATOM     29  C   UNL A   1      36.114  21.605  24.652  1.00  0.00     0.188 C 
BRANCH  29  30
ATOM     30  O   UNL A   1      37.039  21.209  25.632  1.00  0.00    -0.376 OA
BRANCH  30  31
ATOM     31  C   UNL A   1      38.290  21.861  25.733  1.00  0.00     0.202 C 
BRANCH  31  32
ATOM     32  C   UNL A   1      39.599  21.198  26.206  1.00  0.00     0.261 C 
BRANCH  32  33
ATOM     33  O   UNL A   1      40.724  21.211  25.326  1.00  0.00    -0.460 OA
BRANCH  33  34
ATOM     34  C   UNL A   1      41.959  21.148  25.894  1.00  0.00     0.338 C 
ATOM     35  O   UNL A   1      42.853  20.386  25.615  1.00  0.00    -0.246 OA
BRANCH  34  36
ATOM     36  C   UNL A   1      42.095  22.374  26.725  1.00  0.00     0.060 A 
ATOM     37  C   UNL A   1      42.355  23.598  26.090  1.00  0.00     0.016 A 
ATOM     38  C   UNL A   1      41.849  22.329  28.099  1.00  0.00     0.016 A 
ATOM     39  C   UNL A   1      42.361  24.784  26.829  1.00  0.00     0.010 A 
ATOM     40  C   UNL A   1      41.893  23.509  28.842  1.00  0.00     0.010 A 
ATOM     41  C   UNL A   1      42.164  24.737  28.215  1.00  0.00    -0.014 A 
BRANCH  41  42
ATOM     42  C   UNL A   1      42.440  25.923  29.059  1.00  0.00     0.031 A 
ATOM     43  C   UNL A   1      43.744  25.963  29.801  1.00  0.00     0.074 A 
ATOM     44  C   UNL A   1      41.546  26.917  29.202  1.00  0.00     0.049 A 
ATOM     45  N   UNL A   1      44.164  26.815  30.698  1.00  0.00    -0.248 NA
ATOM     46  C   UNL A   1      44.700  24.885  29.494  1.00  0.00     0.031 C 
ATOM     47  C   UNL A   1      40.272  27.020  28.496  1.00  0.00     0.029 A 
ATOM     48  N   UNL A   1      41.577  28.028  30.008  1.00  0.00    -0.354 N 
ATOM     49  C   UNL A   1      45.425  26.370  31.075  1.00  0.00     0.074 A 
ATOM     50  C   UNL A   1      45.695  25.165  30.321  1.00  0.00     0.031 C 
ATOM     51  C   UNL A   1      39.642  28.141  28.897  1.00  0.00     0.029 A 
ATOM     52  C   UNL A   1      40.443  28.802  29.926  1.00  0.00     0.049 A 
ATOM     53  H   UNL A   1      42.340  28.251  30.590  1.00  0.00     0.167 HD
ATOM     54  C   UNL A   1      46.279  26.909  31.975  1.00  0.00     0.031 A 
ATOM     55  C   UNL A   1      40.085  29.898  30.627  1.00  0.00     0.031 A 
ATOM     56  C   UNL A   1      45.987  28.077  32.758  1.00  0.00     0.049 A 
ATOM     57  C   UNL A   1      41.000  30.412  31.710  1.00  0.00     0.074 A 
ATOM     58  C   UNL A   1      46.776  28.694  33.712  1.00  0.00     0.029 A 
ATOM     59  N   UNL A   1      44.803  28.796  32.690  1.00  0.00    -0.354 N 
ATOM     60  N   UNL A   1      42.193  29.987  32.056  1.00  0.00    -0.248 NA
ATOM     61  C   UNL A   1      40.512  31.546  32.512  1.00  0.00     0.031 C 
ATOM     62  C   UNL A   1      46.046  29.752  34.262  1.00  0.00     0.029 A 
ATOM     63  C   UNL A   1      44.826  29.832  33.608  1.00  0.00     0.049 A 
ATOM     64  H   UNL A   1      44.056  28.599  32.080  1.00  0.00     0.167 HD
ATOM     65  C   UNL A   1      42.602  30.809  33.102  1.00  0.00     0.074 A 
ATOM     66  C   UNL A   1      41.538  31.767  33.322  1.00  0.00     0.031 C 
ATOM     67  C   UNL A   1      43.754  30.775  33.816  1.00  0.00     0.031 A 
BRANCH  54  68
ATOM     68  C   UNL A   1      47.581  26.189  32.193  1.00  0.00    -0.014 A 
ATOM     69  C   UNL A   1      47.743  25.287  33.261  1.00  0.00     0.010 A 
ATOM     70  C   UNL A   1      48.664  26.433  31.330  1.00  0.00     0.010 A 
ATOM     71  C   UNL A   1      48.983  24.687  33.495  1.00  0.00     0.020 A 
ATOM     72  C   UNL A   1      49.897  25.812  31.544  1.00  0.00     0.020 A 
ATOM     73  C   UNL A   1      50.054  24.961  32.640  1.00  0.00     0.054 A 
BRANCH  73  74
ATOM     74  S   UNL A   1      51.658  24.184  32.979  1.00  0.00     0.124 S 
ATOM     75  O   UNL A   1      52.590  25.175  32.446  1.00  0.00    -0.237 OA
ATOM     76  O   UNL A   1      51.648  24.049  34.432  1.00  0.00    -0.237 OA
ATOM     77  O   UNL A   1      51.597  22.926  32.238  1.00  0.00    -0.744 OA
ENDBRANCH  73  74
ENDBRANCH  54  68
BRANCH  55  78
ATOM     78  C   UNL A   1      38.786  30.574  30.351  1.00  0.00    -0.014 A 
ATOM     79  C   UNL A   1      38.727  31.655  29.453  1.00  0.00     0.010 A 
ATOM     80  C   UNL A   1      37.604  30.151  30.986  1.00  0.00     0.010 A 
ATOM     81  C   UNL A   1      37.513  32.304  29.202  1.00  0.00     0.020 A 
ATOM     82  C   UNL A   1      36.385  30.780  30.718  1.00  0.00     0.020 A 
ATOM     83  C   UNL A   1      36.348  31.859  29.834  1.00  0.00     0.054 A 
BRANCH  83  84
ATOM     84  S   UNL A   1      34.777  32.683  29.451  1.00  0.00     0.124 S 
ATOM     85  O   UNL A   1      34.158  31.741  28.524  1.00  0.00    -0.237 OA
ATOM     86  O   UNL A   1      34.147  32.786  30.765  1.00  0.00    -0.237 OA
ATOM     87  O   UNL A   1      35.194  33.956  28.866  1.00  0.00    -0.744 OA
ENDBRANCH  83  84
ENDBRANCH  55  78
BRANCH  67  88
ATOM     88  C   UNL A   1      43.947  31.811  34.893  1.00  0.00    -0.014 A 
ATOM     89  C   UNL A   1      44.482  33.076  34.596  1.00  0.00     0.010 A 
ATOM     90  C   UNL A   1      43.497  31.546  36.200  1.00  0.00     0.010 A 
ATOM     91  C   UNL A   1      44.572  34.055  35.590  1.00  0.00     0.020 A 
ATOM     92  C   UNL A   1      43.562  32.530  37.190  1.00  0.00     0.020 A 
ATOM     93  C   UNL A   1      44.106  33.778  36.880  1.00  0.00     0.054 A 
BRANCH  93  94
ATOM     94  S   UNL A   1      44.161  35.092  38.130  1.00  0.00     0.124 S 
ATOM     95  O   UNL A   1      42.983  35.885  37.789  1.00  0.00    -0.237 OA
ATOM     96  O   UNL A   1      44.076  34.346  39.382  1.00  0.00    -0.237 OA
ATOM     97  O   UNL A   1      45.444  35.749  37.887  1.00  0.00    -0.744 OA
ENDBRANCH  93  94
ENDBRANCH  67  88
ENDBRANCH  41  42
ENDBRANCH  34  36
ENDBRANCH  33  34
ENDBRANCH  32  33
ENDBRANCH  31  32
ENDBRANCH  30  31
ENDBRANCH  29  30
ENDBRANCH   1  29
TORSDOF 24
ENDMDL
