MODEL 1
REMARK VINA RESULT:     -10.2      0.000      0.000
REMARK SMILES COc1cccc(CC2(CO)CCN(c3nc(C)ccc3C(=O)OCCOCCOCCOC(=O)c3ccc(-c4c5nc(c(-c6ccc(S(=O)(=O)[O-])cc6)c6ccc([nH]6)c(-c6ccc(S(=O)(=O)[O-])cc6)c6nc(c(-c7ccc(S(=O)(=O)[O-])cc7)c7ccc4[nH]7)C=C6)C=C5)cc3)CC2)c1
REMARK SMILES IDX 28 1 27 2 26 3 25 4 24 5 22 6 23 7 21 8 15 9 16 10 17 11
REMARK SMILES IDX 20 12 18 13 19 14 14 15 9 16 12 17 97 18 13 19 96 20 8 21
REMARK SMILES IDX 7 22 3 23 4 24 98 25 5 26 6 27 2 28 1 29 10 30 11 31 29 33
REMARK SMILES IDX 30 34 31 35 32 36 33 37 34 38 35 39 36 40 37 41 95 42 38 43
REMARK SMILES IDX 94 44 39 45 40 46 41 47 88 48 42 49 93 50 87 51 89 52 43 53
REMARK SMILES IDX 92 54 86 55 85 56 44 58 74 59 55 60 73 61 56 62 59 63 72 64
REMARK SMILES IDX 90 65 57 66 58 67 71 69 91 70 60 71 45 72 46 73 54 74 47 75
REMARK SMILES IDX 53 76 48 77 49 78 50 79 51 80 52 81 75 82 76 83 84 84 77 85
REMARK SMILES IDX 83 86 78 87 79 88 80 89 81 90 82 91 61 92 62 93 70 94 63 95
REMARK SMILES IDX 69 96 64 97 65 98 66 99 67 100 68 101
REMARK H PARENT 11 32 89 57 59 68
REMARK Flexibility Score: inf
ROOT
ATOM      1  C   UNL A   1      33.747  28.351  22.313  1.00  0.00     0.188 C 
ENDROOT
BRANCH   1   2
ATOM      2  O   UNL A   1      33.042  27.149  22.598  1.00  0.00    -0.376 OA
BRANCH   2   3
ATOM      3  C   UNL A   1      32.170  26.734  21.556  1.00  0.00     0.202 C 
BRANCH   3   4
ATOM      4  C   UNL A   1      32.546  25.357  21.011  1.00  0.00     0.261 C 
BRANCH   4   5
ATOM      5  O   UNL A   1      33.784  24.835  21.531  1.00  0.00    -0.460 OA
BRANCH   5   6
ATOM      6  C   UNL A   1      33.743  23.609  22.108  1.00  0.00     0.341 C 
ATOM      7  O   UNL A   1      32.995  22.701  21.788  1.00  0.00    -0.246 OA
BRANCH   6   8
ATOM      8  C   UNL A   1      34.750  23.557  23.200  1.00  0.00     0.102 A 
ATOM      9  C   UNL A   1      34.552  24.269  24.382  1.00  0.00     0.143 A 
ATOM     10  N   UNL A   1      35.474  24.283  25.377  1.00  0.00    -0.235 NA
ATOM     11  C   UNL A   1      36.588  23.535  25.253  1.00  0.00     0.040 A 
ATOM     12  C   UNL A   1      35.885  22.745  23.103  1.00  0.00     0.021 A 
ATOM     13  C   UNL A   1      37.543  23.591  26.405  1.00  0.00     0.067 C 
ATOM     14  C   UNL A   1      36.807  22.721  24.151  1.00  0.00     0.024 A 
BRANCH   9  15
ATOM     15  N   UNL A   1      33.303  24.726  24.734  1.00  0.00    -0.356 N 
ATOM     16  C   UNL A   1      30.818  24.220  26.087  1.00  0.00     0.001 C 
ATOM     17  C   UNL A   1      32.030  24.748  26.865  1.00  0.00     0.031 C 
ATOM     18  C   UNL A   1      31.324  23.336  24.941  1.00  0.00     0.031 C 
ATOM     19  C   UNL A   1      33.120  25.390  26.010  1.00  0.00     0.119 C 
ATOM     20  C   UNL A   1      32.219  24.100  24.013  1.00  0.00     0.119 C 
BRANCH  16  21
ATOM     21  C   UNL A   1      29.824  25.317  25.567  1.00  0.00     0.045 C 
BRANCH  21  22
ATOM     22  C   UNL A   1      30.076  26.673  24.918  1.00  0.00    -0.044 A 
ATOM     23  C   UNL A   1      29.494  28.343  23.202  1.00  0.00     0.119 A 
ATOM     24  C   UNL A   1      30.321  29.270  23.821  1.00  0.00     0.046 A 
ATOM     25  C   UNL A   1      29.381  27.055  23.740  1.00  0.00     0.050 A 
ATOM     26  C   UNL A   1      30.998  28.924  24.991  1.00  0.00     0.004 A 
ATOM     27  C   UNL A   1      30.860  27.645  25.545  1.00  0.00     0.004 A 
BRANCH  23  28
ATOM     28  O   UNL A   1      28.975  28.721  21.992  1.00  0.00    -0.497 OA
ATOM     29  C   UNL A   1      28.007  29.761  22.033  1.00  0.00     0.278 C 
ENDBRANCH  23  28
ENDBRANCH  21  22
ENDBRANCH  16  21
BRANCH  16  30
ATOM     30  C   UNL A   1      30.017  23.239  27.011  1.00  0.00     0.163 C 
BRANCH  30  31
ATOM     31  O   UNL A   1      29.767  21.971  26.430  1.00  0.00    -0.396 OA
ATOM     32  H   UNL A   1      29.478  22.088  25.511  1.00  0.00     0.210 HD
ENDBRANCH  30  31
ENDBRANCH  16  30
ENDBRANCH   9  15
ENDBRANCH   6   8
ENDBRANCH   5   6
ENDBRANCH   4   5
ENDBRANCH   3   4
ENDBRANCH   2   3
ENDBRANCH   1   2
BRANCH   1  33
ATOM     33  C   UNL A   1      34.501  28.937  23.518  1.00  0.00     0.188 C 
BRANCH  33  34
ATOM     34  O   UNL A   1      33.859  29.079  24.779  1.00  0.00    -0.376 OA
BRANCH  34  35
ATOM     35  C   UNL A   1      34.492  28.543  25.924  1.00  0.00     0.202 C 
BRANCH  35  36
ATOM     36  C   UNL A   1      34.786  29.481  27.103  1.00  0.00     0.261 C 
BRANCH  36  37
ATOM     37  O   UNL A   1      35.654  28.999  28.143  1.00  0.00    -0.460 OA
BRANCH  37  38
ATOM     38  C   UNL A   1      36.300  29.950  28.869  1.00  0.00     0.338 C 
ATOM     39  O   UNL A   1      35.792  30.777  29.598  1.00  0.00    -0.246 OA
BRANCH  38  40
ATOM     40  C   UNL A   1      37.773  29.800  28.699  1.00  0.00     0.060 A 
ATOM     41  C   UNL A   1      38.308  29.709  27.414  1.00  0.00     0.016 A 
ATOM     42  C   UNL A   1      38.626  29.672  29.800  1.00  0.00     0.016 A 
ATOM     43  C   UNL A   1      39.693  29.528  27.241  1.00  0.00     0.010 A 
ATOM     44  C   UNL A   1      40.013  29.494  29.622  1.00  0.00     0.010 A 
ATOM     45  C   UNL A   1      40.571  29.437  28.340  1.00  0.00    -0.014 A 
BRANCH  45  46
ATOM     46  C   UNL A   1      42.010  29.076  28.117  1.00  0.00     0.031 A 
ATOM     47  C   UNL A   1      42.299  27.702  27.599  1.00  0.00     0.074 A 
ATOM     48  C   UNL A   1      43.054  29.898  28.365  1.00  0.00     0.049 A 
ATOM     49  N   UNL A   1      43.442  27.182  27.250  1.00  0.00    -0.248 NA
ATOM     50  C   UNL A   1      41.158  26.774  27.545  1.00  0.00     0.031 C 
ATOM     51  C   UNL A   1      42.958  31.173  29.043  1.00  0.00     0.029 A 
ATOM     52  N   UNL A   1      44.391  29.832  28.025  1.00  0.00    -0.354 N 
ATOM     53  C   UNL A   1      43.177  25.844  27.005  1.00  0.00     0.074 A 
ATOM     54  C   UNL A   1      41.756  25.647  27.197  1.00  0.00     0.031 C 
ATOM     55  C   UNL A   1      44.087  31.876  28.855  1.00  0.00     0.029 A 
ATOM     56  C   UNL A   1      45.066  31.033  28.186  1.00  0.00     0.049 A 
ATOM     57  H   UNL A   1      44.824  29.011  27.698  1.00  0.00     0.167 HD
ATOM     58  C   UNL A   1      44.052  24.854  26.723  1.00  0.00     0.031 A 
ATOM     59  C   UNL A   1      46.324  31.408  27.853  1.00  0.00     0.031 A 
ATOM     60  C   UNL A   1      45.474  25.041  26.631  1.00  0.00     0.049 A 
ATOM     61  C   UNL A   1      47.263  30.317  27.405  1.00  0.00     0.074 A 
ATOM     62  C   UNL A   1      46.453  24.089  26.421  1.00  0.00     0.029 A 
ATOM     63  N   UNL A   1      46.123  26.261  26.764  1.00  0.00    -0.354 N 
ATOM     64  N   UNL A   1      46.992  29.054  27.171  1.00  0.00    -0.248 NA
ATOM     65  C   UNL A   1      48.686  30.663  27.260  1.00  0.00     0.031 C 
ATOM     66  C   UNL A   1      47.697  24.724  26.477  1.00  0.00     0.029 A 
ATOM     67  C   UNL A   1      47.490  26.084  26.647  1.00  0.00     0.049 A 
ATOM     68  H   UNL A   1      45.676  27.125  26.919  1.00  0.00     0.167 HD
ATOM     69  C   UNL A   1      48.209  28.449  26.892  1.00  0.00     0.074 A 
ATOM     70  C   UNL A   1      49.212  29.494  26.914  1.00  0.00     0.031 C 
ATOM     71  C   UNL A   1      48.474  27.138  26.680  1.00  0.00     0.031 A 
BRANCH  58  72
ATOM     72  C   UNL A   1      43.477  23.471  26.622  1.00  0.00    -0.014 A 
ATOM     73  C   UNL A   1      42.909  22.833  27.739  1.00  0.00     0.010 A 
ATOM     74  C   UNL A   1      43.568  22.778  25.402  1.00  0.00     0.010 A 
ATOM     75  C   UNL A   1      42.486  21.505  27.649  1.00  0.00     0.020 A 
ATOM     76  C   UNL A   1      43.115  21.461  25.300  1.00  0.00     0.020 A 
ATOM     77  C   UNL A   1      42.594  20.828  26.431  1.00  0.00     0.054 A 
BRANCH  77  78
ATOM     78  S   UNL A   1      42.029  19.109  26.341  1.00  0.00     0.124 S 
ATOM     79  O   UNL A   1      40.625  19.272  25.974  1.00  0.00    -0.237 OA
ATOM     80  O   UNL A   1      42.889  18.546  25.302  1.00  0.00    -0.237 OA
ATOM     81  O   UNL A   1      42.266  18.596  27.687  1.00  0.00    -0.744 OA
ENDBRANCH  77  78
ENDBRANCH  58  72
BRANCH  59  82
ATOM     82  C   UNL A   1      46.805  32.830  27.964  1.00  0.00    -0.014 A 
ATOM     83  C   UNL A   1      46.706  33.704  26.860  1.00  0.00     0.010 A 
ATOM     84  C   UNL A   1      47.373  33.336  29.149  1.00  0.00     0.010 A 
ATOM     85  C   UNL A   1      47.161  35.030  26.936  1.00  0.00     0.020 A 
ATOM     86  C   UNL A   1      47.782  34.674  29.248  1.00  0.00     0.020 A 
ATOM     87  C   UNL A   1      47.686  35.512  28.136  1.00  0.00     0.054 A 
BRANCH  87  88
ATOM     88  S   UNL A   1      48.196  37.253  28.250  1.00  0.00     0.124 S 
ATOM     89  O   UNL A   1      47.910  37.565  29.647  1.00  0.00    -0.237 OA
ATOM     90  O   UNL A   1      49.609  37.197  27.890  1.00  0.00    -0.237 OA
ATOM     91  O   UNL A   1      47.340  37.920  27.271  1.00  0.00    -0.744 OA
ENDBRANCH  87  88
ENDBRANCH  59  82
BRANCH  71  92
ATOM     92  C   UNL A   1      49.909  26.752  26.451  1.00  0.00    -0.014 A 
ATOM     93  C   UNL A   1      50.718  26.300  27.507  1.00  0.00     0.010 A 
ATOM     94  C   UNL A   1      50.423  26.761  25.142  1.00  0.00     0.010 A 
ATOM     95  C   UNL A   1      52.027  25.879  27.260  1.00  0.00     0.020 A 
ATOM     96  C   UNL A   1      51.720  26.316  24.888  1.00  0.00     0.020 A 
ATOM     97  C   UNL A   1      52.517  25.885  25.951  1.00  0.00     0.054 A 
BRANCH  97  98
ATOM     98  S   UNL A   1      54.194  25.267  25.646  1.00  0.00     0.124 S 
ATOM     99  O   UNL A   1      54.983  26.042  26.600  1.00  0.00    -0.237 OA
ATOM    100  O   UNL A   1      54.068  23.842  25.945  1.00  0.00    -0.237 OA
ATOM    101  O   UNL A   1      54.430  25.582  24.239  1.00  0.00    -0.744 OA
ENDBRANCH  97  98
ENDBRANCH  71  92
ENDBRANCH  45  46
ENDBRANCH  38  40
ENDBRANCH  37  38
ENDBRANCH  36  37
ENDBRANCH  35  36
ENDBRANCH  34  35
ENDBRANCH  33  34
ENDBRANCH   1  33
TORSDOF 26
ENDMDL
MODEL 2
REMARK VINA RESULT:     -10.1      4.928      9.455
REMARK SMILES COc1cccc(CC2(CO)CCN(c3nc(C)ccc3C(=O)OCCOCCOCCOC(=O)c3ccc(-c4c5nc(c(-c6ccc(S(=O)(=O)[O-])cc6)c6ccc([nH]6)c(-c6ccc(S(=O)(=O)[O-])cc6)c6nc(c(-c7ccc(S(=O)(=O)[O-])cc7)c7ccc4[nH]7)C=C6)C=C5)cc3)CC2)c1
REMARK SMILES IDX 28 1 27 2 26 3 25 4 24 5 22 6 23 7 21 8 15 9 16 10 17 11
REMARK SMILES IDX 20 12 18 13 19 14 14 15 9 16 12 17 97 18 13 19 96 20 8 21
REMARK SMILES IDX 7 22 3 23 4 24 98 25 5 26 6 27 2 28 1 29 10 30 11 31 29 33
REMARK SMILES IDX 30 34 31 35 32 36 33 37 34 38 35 39 36 40 37 41 95 42 38 43
REMARK SMILES IDX 94 44 39 45 40 46 41 47 88 48 42 49 93 50 87 51 89 52 43 53
REMARK SMILES IDX 92 54 86 55 85 56 44 58 74 59 55 60 73 61 56 62 59 63 72 64
REMARK SMILES IDX 90 65 57 66 58 67 71 69 91 70 60 71 45 72 46 73 54 74 47 75
REMARK SMILES IDX 53 76 48 77 49 78 50 79 51 80 52 81 75 82 76 83 84 84 77 85
REMARK SMILES IDX 83 86 78 87 79 88 80 89 81 90 82 91 61 92 62 93 70 94 63 95
REMARK SMILES IDX 69 96 64 97 65 98 66 99 67 100 68 101
REMARK H PARENT 11 32 89 57 59 68
REMARK Flexibility Score: inf
ROOT
ATOM      1  C   UNL A   1      29.449  28.630  23.417  1.00  0.00     0.188 C 
ENDROOT
BRANCH   1   2
ATOM      2  O   UNL A   1      28.711  27.419  23.520  1.00  0.00    -0.376 OA
BRANCH   2   3
ATOM      3  C   UNL A   1      29.314  26.448  24.364  1.00  0.00     0.202 C 
BRANCH   3   4
ATOM      4  C   UNL A   1      29.265  25.049  23.751  1.00  0.00     0.261 C 
BRANCH   4   5
ATOM      5  O   UNL A   1      30.338  24.184  24.169  1.00  0.00    -0.460 OA
BRANCH   5   6
ATOM      6  C   UNL A   1      31.263  23.852  23.235  1.00  0.00     0.341 C 
ATOM      7  O   UNL A   1      31.377  22.756  22.712  1.00  0.00    -0.246 OA
BRANCH   6   8
ATOM      8  C   UNL A   1      32.121  25.035  22.963  1.00  0.00     0.102 A 
ATOM      9  C   UNL A   1      33.297  25.239  23.683  1.00  0.00     0.143 A 
ATOM     10  N   UNL A   1      34.076  26.333  23.495  1.00  0.00    -0.235 NA
ATOM     11  C   UNL A   1      33.742  27.222  22.538  1.00  0.00     0.040 A 
ATOM     12  C   UNL A   1      31.811  25.936  21.940  1.00  0.00     0.021 A 
ATOM     13  C   UNL A   1      34.666  28.390  22.381  1.00  0.00     0.067 C 
ATOM     14  C   UNL A   1      32.643  27.034  21.713  1.00  0.00     0.024 A 
BRANCH   9  15
ATOM     15  N   UNL A   1      33.890  24.211  24.379  1.00  0.00    -0.356 N 
ATOM     16  C   UNL A   1      36.318  22.966  25.284  1.00  0.00     0.001 C 
ATOM     17  C   UNL A   1      35.694  24.118  26.082  1.00  0.00     0.031 C 
ATOM     18  C   UNL A   1      36.011  23.182  23.798  1.00  0.00     0.031 C 
ATOM     19  C   UNL A   1      34.224  24.396  25.778  1.00  0.00     0.119 C 
ATOM     20  C   UNL A   1      34.534  23.224  23.543  1.00  0.00     0.119 C 
BRANCH  16  21
ATOM     21  C   UNL A   1      35.905  21.526  25.749  1.00  0.00     0.045 C 
BRANCH  21  22
ATOM     22  C   UNL A   1      34.774  20.611  25.296  1.00  0.00    -0.044 A 
ATOM     23  C   UNL A   1      34.032  18.422  24.439  1.00  0.00     0.119 A 
ATOM     24  C   UNL A   1      32.711  18.776  24.674  1.00  0.00     0.046 A 
ATOM     25  C   UNL A   1      35.052  19.335  24.738  1.00  0.00     0.050 A 
ATOM     26  C   UNL A   1      32.415  20.016  25.241  1.00  0.00     0.004 A 
ATOM     27  C   UNL A   1      33.438  20.915  25.568  1.00  0.00     0.004 A 
BRANCH  23  28
ATOM     28  O   UNL A   1      34.224  17.247  23.761  1.00  0.00    -0.497 OA
ATOM     29  C   UNL A   1      34.611  16.133  24.554  1.00  0.00     0.278 C 
ENDBRANCH  23  28
ENDBRANCH  21  22
ENDBRANCH  16  21
BRANCH  16  30
ATOM     30  C   UNL A   1      37.878  23.077  25.380  1.00  0.00     0.163 C 
BRANCH  30  31
ATOM     31  O   UNL A   1      38.340  24.319  25.884  1.00  0.00    -0.396 OA
ATOM     32  H   UNL A   1      39.215  24.513  25.512  1.00  0.00     0.210 HD
ENDBRANCH  30  31
ENDBRANCH  16  30
ENDBRANCH   9  15
ENDBRANCH   6   8
ENDBRANCH   5   6
ENDBRANCH   4   5
ENDBRANCH   3   4
ENDBRANCH   2   3
ENDBRANCH   1   2
BRANCH   1  33
ATOM     33  C   UNL A   1      30.730  28.659  24.268  1.00  0.00     0.188 C 
BRANCH  33  34
ATOM     34  O   UNL A   1      31.364  29.891  24.586  1.00  0.00    -0.376 OA
BRANCH  34  35
ATOM     35  C   UNL A   1      32.480  29.873  25.454  1.00  0.00     0.202 C 
BRANCH  35  36
ATOM     36  C   UNL A   1      32.365  30.588  26.808  1.00  0.00     0.261 C 
BRANCH  36  37
ATOM     37  O   UNL A   1      33.444  30.427  27.745  1.00  0.00    -0.460 OA
BRANCH  37  38
ATOM     38  C   UNL A   1      34.222  31.522  27.951  1.00  0.00     0.338 C 
ATOM     39  O   UNL A   1      33.881  32.683  27.865  1.00  0.00    -0.246 OA
BRANCH  38  40
ATOM     40  C   UNL A   1      35.585  31.097  28.379  1.00  0.00     0.060 A 
ATOM     41  C   UNL A   1      35.805  29.770  28.746  1.00  0.00     0.016 A 
ATOM     42  C   UNL A   1      36.634  32.016  28.494  1.00  0.00     0.016 A 
ATOM     43  C   UNL A   1      37.078  29.365  29.189  1.00  0.00     0.010 A 
ATOM     44  C   UNL A   1      37.908  31.605  28.935  1.00  0.00     0.010 A 
ATOM     45  C   UNL A   1      38.156  30.271  29.271  1.00  0.00    -0.014 A 
BRANCH  45  46
ATOM     46  C   UNL A   1      39.445  29.839  29.906  1.00  0.00     0.031 A 
ATOM     47  C   UNL A   1      39.765  30.399  31.257  1.00  0.00     0.074 A 
ATOM     48  C   UNL A   1      40.336  28.996  29.337  1.00  0.00     0.049 A 
ATOM     49  N   UNL A   1      40.768  30.120  32.043  1.00  0.00    -0.248 NA
ATOM     50  C   UNL A   1      38.880  31.468  31.744  1.00  0.00     0.031 C 
ATOM     51  C   UNL A   1      40.270  28.526  27.969  1.00  0.00     0.029 A 
ATOM     52  N   UNL A   1      41.434  28.326  29.838  1.00  0.00    -0.354 N 
ATOM     53  C   UNL A   1      40.680  31.030  33.084  1.00  0.00     0.074 A 
ATOM     54  C   UNL A   1      39.498  31.833  32.855  1.00  0.00     0.031 C 
ATOM     55  C   UNL A   1      41.095  27.479  27.807  1.00  0.00     0.029 A 
ATOM     56  C   UNL A   1      41.887  27.306  29.014  1.00  0.00     0.049 A 
ATOM     57  H   UNL A   1      41.855  28.549  30.700  1.00  0.00     0.167 HD
ATOM     58  C   UNL A   1      41.550  31.228  34.099  1.00  0.00     0.031 A 
ATOM     59  C   UNL A   1      42.836  26.356  29.199  1.00  0.00     0.031 A 
ATOM     60  C   UNL A   1      42.773  30.491  34.264  1.00  0.00     0.049 A 
ATOM     61  C   UNL A   1      43.720  26.505  30.411  1.00  0.00     0.074 A 
ATOM     62  C   UNL A   1      43.757  30.665  35.218  1.00  0.00     0.029 A 
ATOM     63  N   UNL A   1      43.188  29.451  33.443  1.00  0.00    -0.354 N 
ATOM     64  N   UNL A   1      43.617  27.369  31.393  1.00  0.00    -0.248 NA
ATOM     65  C   UNL A   1      44.894  25.622  30.506  1.00  0.00     0.031 C 
ATOM     66  C   UNL A   1      44.792  29.765  34.945  1.00  0.00     0.029 A 
ATOM     67  C   UNL A   1      44.418  28.978  33.866  1.00  0.00     0.049 A 
ATOM     68  H   UNL A   1      42.682  29.102  32.674  1.00  0.00     0.167 HD
ATOM     69  C   UNL A   1      44.729  27.164  32.198  1.00  0.00     0.074 A 
ATOM     70  C   UNL A   1      45.456  26.046  31.632  1.00  0.00     0.031 C 
ATOM     71  C   UNL A   1      45.131  27.868  33.283  1.00  0.00     0.031 A 
BRANCH  58  72
ATOM     72  C   UNL A   1      41.244  32.375  35.019  1.00  0.00    -0.014 A 
ATOM     73  C   UNL A   1      41.767  33.658  34.786  1.00  0.00     0.010 A 
ATOM     74  C   UNL A   1      40.472  32.142  36.171  1.00  0.00     0.010 A 
ATOM     75  C   UNL A   1      41.563  34.679  35.716  1.00  0.00     0.020 A 
ATOM     76  C   UNL A   1      40.238  33.169  37.087  1.00  0.00     0.020 A 
ATOM     77  C   UNL A   1      40.802  34.426  36.862  1.00  0.00     0.054 A 
BRANCH  77  78
ATOM     78  S   UNL A   1      40.547  35.772  38.047  1.00  0.00     0.124 S 
ATOM     79  O   UNL A   1      39.642  36.652  37.313  1.00  0.00    -0.237 OA
ATOM     80  O   UNL A   1      39.958  35.080  39.191  1.00  0.00    -0.237 OA
ATOM     81  O   UNL A   1      41.890  36.301  38.266  1.00  0.00    -0.744 OA
ENDBRANCH  77  78
ENDBRANCH  58  72
BRANCH  59  82
ATOM     82  C   UNL A   1      43.053  25.225  28.230  1.00  0.00    -0.014 A 
ATOM     83  C   UNL A   1      43.808  25.431  27.054  1.00  0.00     0.010 A 
ATOM     84  C   UNL A   1      42.514  23.943  28.444  1.00  0.00     0.010 A 
ATOM     85  C   UNL A   1      44.012  24.395  26.129  1.00  0.00     0.020 A 
ATOM     86  C   UNL A   1      42.758  22.890  27.549  1.00  0.00     0.020 A 
ATOM     87  C   UNL A   1      43.495  23.125  26.389  1.00  0.00     0.054 A 
BRANCH  87  88
ATOM     88  S   UNL A   1      43.834  21.770  25.225  1.00  0.00     0.124 S 
ATOM     89  O   UNL A   1      42.786  20.810  25.558  1.00  0.00    -0.237 OA
ATOM     90  O   UNL A   1      43.706  22.424  23.926  1.00  0.00    -0.237 OA
ATOM     91  O   UNL A   1      45.193  21.359  25.572  1.00  0.00    -0.744 OA
ENDBRANCH  87  88
ENDBRANCH  59  82
BRANCH  71  92
ATOM     92  C   UNL A   1      46.418  27.452  33.938  1.00  0.00    -0.014 A 
ATOM     93  C   UNL A   1      46.436  26.487  34.960  1.00  0.00     0.010 A 
ATOM     94  C   UNL A   1      47.633  27.974  33.460  1.00  0.00     0.010 A 
ATOM     95  C   UNL A   1      47.649  26.063  35.506  1.00  0.00     0.020 A 
ATOM     96  C   UNL A   1      48.848  27.533  33.985  1.00  0.00     0.020 A 
ATOM     97  C   UNL A   1      48.848  26.585  35.010  1.00  0.00     0.054 A 
BRANCH  97  98
ATOM     98  S   UNL A   1      50.413  25.966  35.685  1.00  0.00     0.124 S 
ATOM     99  O   UNL A   1      49.967  25.243  36.873  1.00  0.00    -0.237 OA
ATOM    100  O   UNL A   1      50.922  25.135  34.597  1.00  0.00    -0.237 OA
ATOM    101  O   UNL A   1      51.183  27.181  35.945  1.00  0.00    -0.744 OA
ENDBRANCH  97  98
ENDBRANCH  71  92
ENDBRANCH  45  46
ENDBRANCH  38  40
ENDBRANCH  37  38
ENDBRANCH  36  37
ENDBRANCH  35  36
ENDBRANCH  34  35
ENDBRANCH  33  34
ENDBRANCH   1  33
TORSDOF 26
ENDMDL
MODEL 3
REMARK VINA RESULT:     -10.1      6.287     10.548
REMARK SMILES COc1cccc(CC2(CO)CCN(c3nc(C)ccc3C(=O)OCCOCCOCCOC(=O)c3ccc(-c4c5nc(c(-c6ccc(S(=O)(=O)[O-])cc6)c6ccc([nH]6)c(-c6ccc(S(=O)(=O)[O-])cc6)c6nc(c(-c7ccc(S(=O)(=O)[O-])cc7)c7ccc4[nH]7)C=C6)C=C5)cc3)CC2)c1
REMARK SMILES IDX 28 1 27 2 26 3 25 4 24 5 22 6 23 7 21 8 15 9 16 10 17 11
REMARK SMILES IDX 20 12 18 13 19 14 14 15 9 16 12 17 97 18 13 19 96 20 8 21
REMARK SMILES IDX 7 22 3 23 4 24 98 25 5 26 6 27 2 28 1 29 10 30 11 31 29 33
REMARK SMILES IDX 30 34 31 35 32 36 33 37 34 38 35 39 36 40 37 41 95 42 38 43
REMARK SMILES IDX 94 44 39 45 40 46 41 47 88 48 42 49 93 50 87 51 89 52 43 53
REMARK SMILES IDX 92 54 86 55 85 56 44 58 74 59 55 60 73 61 56 62 59 63 72 64
REMARK SMILES IDX 90 65 57 66 58 67 71 69 91 70 60 71 45 72 46 73 54 74 47 75
REMARK SMILES IDX 53 76 48 77 49 78 50 79 51 80 52 81 75 82 76 83 84 84 77 85
REMARK SMILES IDX 83 86 78 87 79 88 80 89 81 90 82 91 61 92 62 93 70 94 63 95
REMARK SMILES IDX 69 96 64 97 65 98 66 99 67 100 68 101
REMARK H PARENT 11 32 89 57 59 68
REMARK Flexibility Score: inf
ROOT
ATOM      1  C   UNL A   1      30.998  29.568  24.647  1.00  0.00     0.188 C 
ENDROOT
BRANCH   1   2
ATOM      2  O   UNL A   1      31.542  29.053  23.438  1.00  0.00    -0.376 OA
BRANCH   2   3
ATOM      3  C   UNL A   1      30.725  28.076  22.810  1.00  0.00     0.202 C 
BRANCH   3   4
ATOM      4  C   UNL A   1      31.325  26.674  22.916  1.00  0.00     0.261 C 
BRANCH   4   5
ATOM      5  O   UNL A   1      32.713  26.656  23.301  1.00  0.00    -0.460 OA
BRANCH   5   6
ATOM      6  C   UNL A   1      32.986  26.609  24.629  1.00  0.00     0.341 C 
ATOM      7  O   UNL A   1      33.814  27.294  25.205  1.00  0.00    -0.246 OA
BRANCH   6   8
ATOM      8  C   UNL A   1      32.120  25.581  25.263  1.00  0.00     0.102 A 
ATOM      9  C   UNL A   1      32.488  24.236  25.246  1.00  0.00     0.143 A 
ATOM     10  N   UNL A   1      31.696  23.267  25.771  1.00  0.00    -0.235 NA
ATOM     11  C   UNL A   1      30.550  23.616  26.387  1.00  0.00     0.040 A 
ATOM     12  C   UNL A   1      30.954  25.936  25.948  1.00  0.00     0.021 A 
ATOM     13  C   UNL A   1      29.746  22.488  26.958  1.00  0.00     0.067 C 
ATOM     14  C   UNL A   1      30.168  24.942  26.533  1.00  0.00     0.024 A 
BRANCH   9  15
ATOM     15  N   UNL A   1      33.785  23.858  24.991  1.00  0.00    -0.356 N 
ATOM     16  C   UNL A   1      35.725  21.740  24.871  1.00  0.00     0.001 C 
ATOM     17  C   UNL A   1      34.801  22.013  23.677  1.00  0.00     0.031 C 
ATOM     18  C   UNL A   1      34.971  22.091  26.159  1.00  0.00     0.031 C 
ATOM     19  C   UNL A   1      34.146  23.392  23.666  1.00  0.00     0.119 C 
ATOM     20  C   UNL A   1      34.549  23.529  26.173  1.00  0.00     0.119 C 
BRANCH  16  21
ATOM     21  C   UNL A   1      37.122  22.452  24.814  1.00  0.00     0.045 C 
BRANCH  21  22
ATOM     22  C   UNL A   1      38.183  22.667  25.887  1.00  0.00    -0.044 A 
ATOM     23  C   UNL A   1      40.308  21.986  26.935  1.00  0.00     0.119 A 
ATOM     24  C   UNL A   1      40.311  23.151  27.689  1.00  0.00     0.046 A 
ATOM     25  C   UNL A   1      39.249  21.743  26.050  1.00  0.00     0.050 A 
ATOM     26  C   UNL A   1      39.285  24.084  27.531  1.00  0.00     0.004 A 
ATOM     27  C   UNL A   1      38.244  23.853  26.623  1.00  0.00     0.004 A 
BRANCH  23  28
ATOM     28  O   UNL A   1      41.276  21.070  27.248  1.00  0.00    -0.497 OA
ATOM     29  C   UNL A   1      42.069  20.614  26.161  1.00  0.00     0.278 C 
ENDBRANCH  23  28
ENDBRANCH  21  22
ENDBRANCH  16  21
BRANCH  16  30
ATOM     30  C   UNL A   1      35.971  20.196  24.972  1.00  0.00     0.163 C 
BRANCH  30  31
ATOM     31  O   UNL A   1      34.819  19.447  25.316  1.00  0.00    -0.396 OA
ATOM     32  H   UNL A   1      34.820  18.609  24.829  1.00  0.00     0.210 HD
ENDBRANCH  30  31
ENDBRANCH  16  30
ENDBRANCH   9  15
ENDBRANCH   6   8
ENDBRANCH   5   6
ENDBRANCH   4   5
ENDBRANCH   3   4
ENDBRANCH   2   3
ENDBRANCH   1   2
BRANCH   1  33
ATOM     33  C   UNL A   1      32.035  30.225  25.573  1.00  0.00     0.188 C 
BRANCH  33  34
ATOM     34  O   UNL A   1      31.641  30.804  26.810  1.00  0.00    -0.376 OA
BRANCH  34  35
ATOM     35  C   UNL A   1      32.037  32.132  27.092  1.00  0.00     0.202 C 
BRANCH  35  36
ATOM     36  C   UNL A   1      33.342  32.357  27.868  1.00  0.00     0.261 C 
BRANCH  36  37
ATOM     37  O   UNL A   1      33.807  33.709  28.021  1.00  0.00    -0.460 OA
BRANCH  37  38
ATOM     38  C   UNL A   1      33.763  34.215  29.282  1.00  0.00     0.338 C 
ATOM     39  O   UNL A   1      32.859  34.857  29.777  1.00  0.00    -0.246 OA
BRANCH  38  40
ATOM     40  C   UNL A   1      34.986  33.810  30.031  1.00  0.00     0.060 A 
ATOM     41  C   UNL A   1      36.238  33.977  29.438  1.00  0.00     0.016 A 
ATOM     42  C   UNL A   1      34.907  33.195  31.284  1.00  0.00     0.016 A 
ATOM     43  C   UNL A   1      37.399  33.564  30.118  1.00  0.00     0.010 A 
ATOM     44  C   UNL A   1      36.071  32.785  31.963  1.00  0.00     0.010 A 
ATOM     45  C   UNL A   1      37.337  32.979  31.400  1.00  0.00    -0.014 A 
BRANCH  45  46
ATOM     46  C   UNL A   1      38.577  32.399  32.014  1.00  0.00     0.031 A 
ATOM     47  C   UNL A   1      38.766  32.592  33.487  1.00  0.00     0.074 A 
ATOM     48  C   UNL A   1      39.533  31.733  31.330  1.00  0.00     0.049 A 
ATOM     49  N   UNL A   1      39.704  32.121  34.261  1.00  0.00    -0.248 NA
ATOM     50  C   UNL A   1      37.816  33.498  34.151  1.00  0.00     0.031 C 
ATOM     51  C   UNL A   1      39.596  31.632  29.887  1.00  0.00     0.029 A 
ATOM     52  N   UNL A   1      40.599  30.957  31.738  1.00  0.00    -0.354 N 
ATOM     53  C   UNL A   1      39.505  32.731  35.489  1.00  0.00     0.074 A 
ATOM     54  C   UNL A   1      38.328  33.565  35.369  1.00  0.00     0.031 C 
ATOM     55  C   UNL A   1      40.457  30.662  29.535  1.00  0.00     0.029 A 
ATOM     56  C   UNL A   1      41.146  30.184  30.723  1.00  0.00     0.049 A 
ATOM     57  H   UNL A   1      40.940  30.951  32.662  1.00  0.00     0.167 HD
ATOM     58  C   UNL A   1      40.280  32.662  36.594  1.00  0.00     0.031 A 
ATOM     59  C   UNL A   1      42.097  29.220  30.741  1.00  0.00     0.031 A 
ATOM     60  C   UNL A   1      41.501  31.908  36.672  1.00  0.00     0.049 A 
ATOM     61  C   UNL A   1      42.871  29.052  32.025  1.00  0.00     0.074 A 
ATOM     62  C   UNL A   1      42.395  31.831  37.723  1.00  0.00     0.029 A 
ATOM     63  N   UNL A   1      42.010  31.115  35.652  1.00  0.00    -0.354 N 
ATOM     64  N   UNL A   1      42.663  29.634  33.183  1.00  0.00    -0.248 NA
ATOM     65  C   UNL A   1      44.053  28.176  31.995  1.00  0.00     0.031 C 
ATOM     66  C   UNL A   1      43.471  31.033  37.321  1.00  0.00     0.029 A 
ATOM     67  C   UNL A   1      43.210  30.551  36.047  1.00  0.00     0.049 A 
ATOM     68  H   UNL A   1      41.581  30.976  34.777  1.00  0.00     0.167 HD
ATOM     69  C   UNL A   1      43.707  29.229  34.004  1.00  0.00     0.074 A 
ATOM     70  C   UNL A   1      44.506  28.295  33.237  1.00  0.00     0.031 C 
ATOM     71  C   UNL A   1      43.997  29.630  35.265  1.00  0.00     0.031 A 
BRANCH  58  72
ATOM     72  C   UNL A   1      39.869  33.532  37.746  1.00  0.00    -0.014 A 
ATOM     73  C   UNL A   1      40.394  34.825  37.909  1.00  0.00     0.010 A 
ATOM     74  C   UNL A   1      38.990  33.015  38.715  1.00  0.00     0.010 A 
ATOM     75  C   UNL A   1      40.085  35.570  39.049  1.00  0.00     0.020 A 
ATOM     76  C   UNL A   1      38.653  33.771  39.840  1.00  0.00     0.020 A 
ATOM     77  C   UNL A   1      39.218  35.036  40.008  1.00  0.00     0.054 A 
BRANCH  77  78
ATOM     78  S   UNL A   1      38.829  36.029  41.473  1.00  0.00     0.124 S 
ATOM     79  O   UNL A   1      40.023  35.837  42.292  1.00  0.00    -0.237 OA
ATOM     80  O   UNL A   1      38.660  37.368  40.912  1.00  0.00    -0.237 OA
ATOM     81  O   UNL A   1      37.611  35.415  41.993  1.00  0.00    -0.744 OA
ENDBRANCH  77  78
ENDBRANCH  58  72
BRANCH  59  82
ATOM     82  C   UNL A   1      42.424  28.378  29.538  1.00  0.00    -0.014 A 
ATOM     83  C   UNL A   1      41.846  27.099  29.385  1.00  0.00     0.010 A 
ATOM     84  C   UNL A   1      43.313  28.817  28.538  1.00  0.00     0.010 A 
ATOM     85  C   UNL A   1      42.147  26.290  28.277  1.00  0.00     0.020 A 
ATOM     86  C   UNL A   1      43.577  28.035  27.403  1.00  0.00     0.020 A 
ATOM     87  C   UNL A   1      43.004  26.769  27.285  1.00  0.00     0.054 A 
BRANCH  87  88
ATOM     88  S   UNL A   1      43.322  25.749  25.815  1.00  0.00     0.124 S 
ATOM     89  O   UNL A   1      42.660  24.495  26.163  1.00  0.00    -0.237 OA
ATOM     90  O   UNL A   1      42.696  26.521  24.747  1.00  0.00    -0.237 OA
ATOM     91  O   UNL A   1      44.781  25.691  25.754  1.00  0.00    -0.744 OA
ENDBRANCH  87  88
ENDBRANCH  59  82
BRANCH  71  92
ATOM     92  C   UNL A   1      45.232  29.060  35.903  1.00  0.00    -0.014 A 
ATOM     93  C   UNL A   1      45.189  27.855  36.625  1.00  0.00     0.010 A 
ATOM     94  C   UNL A   1      46.469  29.698  35.699  1.00  0.00     0.010 A 
ATOM     95  C   UNL A   1      46.361  27.307  37.150  1.00  0.00     0.020 A 
ATOM     96  C   UNL A   1      47.645  29.139  36.199  1.00  0.00     0.020 A 
ATOM     97  C   UNL A   1      47.582  27.950  36.928  1.00  0.00     0.054 A 
BRANCH  97  98
ATOM     98  S   UNL A   1      49.099  27.181  37.558  1.00  0.00     0.124 S 
ATOM     99  O   UNL A   1      49.842  26.921  36.327  1.00  0.00    -0.237 OA
ATOM    100  O   UNL A   1      49.652  28.226  38.417  1.00  0.00    -0.237 OA
ATOM    101  O   UNL A   1      48.621  25.994  38.262  1.00  0.00    -0.744 OA
ENDBRANCH  97  98
ENDBRANCH  71  92
ENDBRANCH  45  46
ENDBRANCH  38  40
ENDBRANCH  37  38
ENDBRANCH  36  37
ENDBRANCH  35  36
ENDBRANCH  34  35
ENDBRANCH  33  34
ENDBRANCH   1  33
TORSDOF 26
ENDMDL
