MODEL 1
REMARK VINA RESULT:      -7.0      0.000      0.000
REMARK SMILES CC(C)CC1(CNc2ccnc(C(=O)OCCOCCOCCOC(=O)c3ccc(-c4c5nc(c(-c6ccc(S(=O)(=O)[O-])cc6)c6ccc([nH]6)c(-c6ccc(S(=O)(=O)[O-])cc6)c6nc(c(-c7ccc(S(=O)(=O)[O-])cc7)c7ccc4[nH]7)C=C6)C=C5)cc3)c2)CCCC1
REMARK SMILES IDX 19 1 18 2 17 3 16 4 15 5 13 6 14 7 12 8 8 9 9 10 87 11 10 12
REMARK SMILES IDX 11 13 7 14 6 16 5 17 88 18 91 19 89 20 90 21 4 22 2 23 1 24
REMARK SMILES IDX 3 25 20 26 21 27 22 28 23 29 24 30 25 31 26 32 27 33 28 34
REMARK SMILES IDX 86 35 29 36 85 37 30 38 31 39 32 40 79 41 33 42 84 43 78 44
REMARK SMILES IDX 80 45 34 46 83 47 77 48 76 49 35 51 65 52 46 53 64 54 47 55
REMARK SMILES IDX 50 56 63 57 81 58 48 59 49 60 62 62 82 63 51 64 36 65 37 66
REMARK SMILES IDX 45 67 38 68 44 69 39 70 40 71 41 72 42 73 43 74 66 75 67 76
REMARK SMILES IDX 75 77 68 78 74 79 69 80 70 81 71 82 72 83 73 84 52 85 53 86
REMARK SMILES IDX 61 87 54 88 60 89 55 90 56 91 57 92 58 93 59 94
REMARK H PARENT 7 15 80 50 50 61
REMARK Flexibility Score: inf
ROOT
ATOM      1  C   UNL A   1      43.671  24.419  25.003  1.00  0.00     0.188 C 
ENDROOT
BRANCH   1   2
ATOM      2  O   UNL A   1      44.386  24.828  26.155  1.00  0.00    -0.376 OA
BRANCH   2   3
ATOM      3  C   UNL A   1      44.624  26.207  26.392  1.00  0.00     0.202 C 
BRANCH   3   4
ATOM      4  C   UNL A   1      44.329  27.293  25.346  1.00  0.00     0.261 C 
BRANCH   4   5
ATOM      5  O   UNL A   1      45.064  28.511  25.513  1.00  0.00    -0.459 OA
BRANCH   5   6
ATOM      6  C   UNL A   1      46.415  28.396  25.377  1.00  0.00     0.357 C 
ATOM      7  O   UNL A   1      47.005  27.687  24.577  1.00  0.00    -0.244 OA
BRANCH   6   8
ATOM      8  C   UNL A   1      47.082  29.366  26.285  1.00  0.00     0.150 A 
ATOM      9  C   UNL A   1      47.015  31.293  27.722  1.00  0.00     0.038 A 
ATOM     10  C   UNL A   1      48.397  31.153  27.859  1.00  0.00     0.046 A 
ATOM     11  C   UNL A   1      46.352  30.375  26.901  1.00  0.00     0.061 A 
ATOM     12  C   UNL A   1      49.047  30.116  27.205  1.00  0.00     0.114 A 
ATOM     13  N   UNL A   1      48.423  29.220  26.418  1.00  0.00    -0.249 NA
BRANCH   9  14
ATOM     14  N   UNL A   1      46.286  32.314  28.295  1.00  0.00    -0.384 N 
ATOM     15  H   UNL A   1      46.307  32.377  29.278  1.00  0.00     0.160 HD
BRANCH  14  16
ATOM     16  C   UNL A   1      45.487  33.310  27.590  1.00  0.00     0.119 C 
BRANCH  16  17
ATOM     17  C   UNL A   1      45.018  34.442  28.559  1.00  0.00    -0.012 C 
ATOM     18  C   UNL A   1      43.483  34.436  28.718  1.00  0.00     0.009 C 
ATOM     19  C   UNL A   1      45.207  35.838  27.906  1.00  0.00     0.009 C 
ATOM     20  C   UNL A   1      42.935  35.076  27.446  1.00  0.00     0.001 C 
ATOM     21  C   UNL A   1      44.026  36.020  26.954  1.00  0.00     0.001 C 
BRANCH  17  22
ATOM     22  C   UNL A   1      45.764  34.378  29.927  1.00  0.00     0.012 C 
BRANCH  22  23
ATOM     23  C   UNL A   1      46.804  35.470  30.269  1.00  0.00    -0.017 C 
ATOM     24  C   UNL A   1      47.087  35.661  31.756  1.00  0.00     0.007 C 
ATOM     25  C   UNL A   1      48.125  35.141  29.556  1.00  0.00     0.007 C 
ENDBRANCH  22  23
ENDBRANCH  17  22
ENDBRANCH  16  17
ENDBRANCH  14  16
ENDBRANCH   9  14
ENDBRANCH   6   8
ENDBRANCH   5   6
ENDBRANCH   4   5
ENDBRANCH   3   4
ENDBRANCH   2   3
ENDBRANCH   1   2
BRANCH   1  26
ATOM     26  C   UNL A   1      43.078  22.997  24.940  1.00  0.00     0.188 C 
BRANCH  26  27
ATOM     27  O   UNL A   1      43.351  22.083  25.977  1.00  0.00    -0.376 OA
BRANCH  27  28
ATOM     28  C   UNL A   1      42.301  21.426  26.669  1.00  0.00     0.202 C 
BRANCH  28  29
ATOM     29  C   UNL A   1      41.324  22.073  27.666  1.00  0.00     0.261 C 
BRANCH  29  30
ATOM     30  O   UNL A   1      39.926  21.927  27.429  1.00  0.00    -0.460 OA
BRANCH  30  31
ATOM     31  C   UNL A   1      39.391  22.823  26.570  1.00  0.00     0.338 C 
ATOM     32  O   UNL A   1      38.738  22.584  25.557  1.00  0.00    -0.246 OA
BRANCH  31  33
ATOM     33  C   UNL A   1      39.569  24.174  27.118  1.00  0.00     0.060 A 
ATOM     34  C   UNL A   1      40.294  25.112  26.373  1.00  0.00     0.016 A 
ATOM     35  C   UNL A   1      39.055  24.501  28.375  1.00  0.00     0.016 A 
ATOM     36  C   UNL A   1      40.525  26.382  26.895  1.00  0.00     0.010 A 
ATOM     37  C   UNL A   1      39.306  25.769  28.904  1.00  0.00     0.010 A 
ATOM     38  C   UNL A   1      40.063  26.705  28.178  1.00  0.00    -0.014 A 
BRANCH  38  39
ATOM     39  C   UNL A   1      40.507  27.961  28.826  1.00  0.00     0.031 A 
ATOM     40  C   UNL A   1      41.902  28.029  29.386  1.00  0.00     0.074 A 
ATOM     41  C   UNL A   1      39.689  29.026  28.911  1.00  0.00     0.049 A 
ATOM     42  N   UNL A   1      42.487  29.001  30.036  1.00  0.00    -0.248 NA
ATOM     43  C   UNL A   1      42.749  26.841  29.187  1.00  0.00     0.031 C 
ATOM     44  C   UNL A   1      38.333  29.098  28.368  1.00  0.00     0.029 A 
ATOM     45  N   UNL A   1      39.884  30.252  29.496  1.00  0.00    -0.354 N 
ATOM     46  C   UNL A   1      43.765  28.540  30.333  1.00  0.00     0.074 A 
ATOM     47  C   UNL A   1      43.862  27.194  29.813  1.00  0.00     0.031 C 
ATOM     48  C   UNL A   1      37.812  30.303  28.659  1.00  0.00     0.029 A 
ATOM     49  C   UNL A   1      38.783  31.072  29.436  1.00  0.00     0.049 A 
ATOM     50  H   UNL A   1      40.732  30.518  29.919  1.00  0.00     0.167 HD
ATOM     51  C   UNL A   1      44.767  29.182  30.977  1.00  0.00     0.031 A 
ATOM     52  C   UNL A   1      38.575  32.292  29.970  1.00  0.00     0.031 A 
ATOM     53  C   UNL A   1      44.662  30.515  31.509  1.00  0.00     0.049 A 
ATOM     54  C   UNL A   1      39.681  32.956  30.751  1.00  0.00     0.074 A 
ATOM     55  C   UNL A   1      45.627  31.258  32.165  1.00  0.00     0.029 A 
ATOM     56  N   UNL A   1      43.520  31.301  31.455  1.00  0.00    -0.354 N 
ATOM     57  N   UNL A   1      40.894  32.521  30.998  1.00  0.00    -0.248 NA
ATOM     58  C   UNL A   1      39.390  34.281  31.319  1.00  0.00     0.031 C 
ATOM     59  C   UNL A   1      45.052  32.469  32.561  1.00  0.00     0.029 A 
ATOM     60  C   UNL A   1      43.748  32.508  32.092  1.00  0.00     0.049 A 
ATOM     61  H   UNL A   1      42.673  31.038  31.028  1.00  0.00     0.167 HD
ATOM     62  C   UNL A   1      41.520  33.531  31.722  1.00  0.00     0.074 A 
ATOM     63  C   UNL A   1      40.557  34.603  31.863  1.00  0.00     0.031 C 
ATOM     64  C   UNL A   1      42.781  33.569  32.222  1.00  0.00     0.031 A 
BRANCH  51  65
ATOM     65  C   UNL A   1      46.058  28.433  31.177  1.00  0.00    -0.014 A 
ATOM     66  C   UNL A   1      46.273  27.644  32.322  1.00  0.00     0.010 A 
ATOM     67  C   UNL A   1      47.054  28.489  30.186  1.00  0.00     0.010 A 
ATOM     68  C   UNL A   1      47.475  26.950  32.486  1.00  0.00     0.020 A 
ATOM     69  C   UNL A   1      48.246  27.775  30.333  1.00  0.00     0.020 A 
ATOM     70  C   UNL A   1      48.456  27.022  31.490  1.00  0.00     0.054 A 
BRANCH  70  71
ATOM     71  S   UNL A   1      49.995  26.089  31.717  1.00  0.00     0.124 S 
ATOM     72  O   UNL A   1      51.006  27.131  31.547  1.00  0.00    -0.237 OA
ATOM     73  O   UNL A   1      49.855  25.566  33.073  1.00  0.00    -0.237 OA
ATOM     74  O   UNL A   1      49.951  25.085  30.657  1.00  0.00    -0.744 OA
ENDBRANCH  70  71
ENDBRANCH  51  65
BRANCH  52  75
ATOM     75  C   UNL A   1      37.254  32.963  29.806  1.00  0.00    -0.014 A 
ATOM     76  C   UNL A   1      36.892  33.552  28.582  1.00  0.00     0.010 A 
ATOM     77  C   UNL A   1      36.354  33.027  30.886  1.00  0.00     0.010 A 
ATOM     78  C   UNL A   1      35.666  34.210  28.446  1.00  0.00     0.020 A 
ATOM     79  C   UNL A   1      35.115  33.659  30.746  1.00  0.00     0.020 A 
ATOM     80  C   UNL A   1      34.784  34.259  29.530  1.00  0.00     0.054 A 
BRANCH  80  81
ATOM     81  S   UNL A   1      33.184  35.088  29.319  1.00  0.00     0.124 S 
ATOM     82  O   UNL A   1      32.561  34.283  28.274  1.00  0.00    -0.237 OA
ATOM     83  O   UNL A   1      32.590  34.969  30.649  1.00  0.00    -0.237 OA
ATOM     84  O   UNL A   1      33.551  36.446  28.927  1.00  0.00    -0.744 OA
ENDBRANCH  80  81
ENDBRANCH  52  75
BRANCH  64  85
ATOM     85  C   UNL A   1      43.213  34.825  32.934  1.00  0.00    -0.014 A 
ATOM     86  C   UNL A   1      43.492  34.829  34.312  1.00  0.00     0.010 A 
ATOM     87  C   UNL A   1      43.402  36.008  32.194  1.00  0.00     0.010 A 
ATOM     88  C   UNL A   1      43.923  36.000  34.942  1.00  0.00     0.020 A 
ATOM     89  C   UNL A   1      43.861  37.172  32.814  1.00  0.00     0.020 A 
ATOM     90  C   UNL A   1      44.105  37.165  34.190  1.00  0.00     0.054 A 
BRANCH  90  91
ATOM     91  S   UNL A   1      44.708  38.660  35.022  1.00  0.00     0.124 S 
ATOM     92  O   UNL A   1      46.117  38.676  34.636  1.00  0.00    -0.237 OA
ATOM     93  O   UNL A   1      43.883  39.711  34.433  1.00  0.00    -0.237 OA
ATOM     94  O   UNL A   1      44.454  38.396  36.437  1.00  0.00    -0.744 OA
ENDBRANCH  90  91
ENDBRANCH  64  85
ENDBRANCH  38  39
ENDBRANCH  31  33
ENDBRANCH  30  31
ENDBRANCH  29  30
ENDBRANCH  28  29
ENDBRANCH  27  28
ENDBRANCH  26  27
ENDBRANCH   1  26
TORSDOF 25
ENDMDL
MODEL 2
REMARK VINA RESULT:      -7.0      4.385     12.288
REMARK SMILES CC(C)CC1(CNc2ccnc(C(=O)OCCOCCOCCOC(=O)c3ccc(-c4c5nc(c(-c6ccc(S(=O)(=O)[O-])cc6)c6ccc([nH]6)c(-c6ccc(S(=O)(=O)[O-])cc6)c6nc(c(-c7ccc(S(=O)(=O)[O-])cc7)c7ccc4[nH]7)C=C6)C=C5)cc3)c2)CCCC1
REMARK SMILES IDX 19 1 18 2 17 3 16 4 15 5 13 6 14 7 12 8 8 9 9 10 87 11 10 12
REMARK SMILES IDX 11 13 7 14 6 16 5 17 88 18 91 19 89 20 90 21 4 22 2 23 1 24
REMARK SMILES IDX 3 25 20 26 21 27 22 28 23 29 24 30 25 31 26 32 27 33 28 34
REMARK SMILES IDX 86 35 29 36 85 37 30 38 31 39 32 40 79 41 33 42 84 43 78 44
REMARK SMILES IDX 80 45 34 46 83 47 77 48 76 49 35 51 65 52 46 53 64 54 47 55
REMARK SMILES IDX 50 56 63 57 81 58 48 59 49 60 62 62 82 63 51 64 36 65 37 66
REMARK SMILES IDX 45 67 38 68 44 69 39 70 40 71 41 72 42 73 43 74 66 75 67 76
REMARK SMILES IDX 75 77 68 78 74 79 69 80 70 81 71 82 72 83 73 84 52 85 53 86
REMARK SMILES IDX 61 87 54 88 60 89 55 90 56 91 57 92 58 93 59 94
REMARK H PARENT 7 15 80 50 50 61
REMARK Flexibility Score: inf
ROOT
ATOM      1  C   UNL A   1      34.407  34.678  30.330  1.00  0.00     0.188 C 
ENDROOT
BRANCH   1   2
ATOM      2  O   UNL A   1      33.396  34.014  29.593  1.00  0.00    -0.376 OA
BRANCH   2   3
ATOM      3  C   UNL A   1      33.297  34.205  28.191  1.00  0.00     0.202 C 
BRANCH   3   4
ATOM      4  C   UNL A   1      32.329  33.402  27.309  1.00  0.00     0.261 C 
BRANCH   4   5
ATOM      5  O   UNL A   1      32.449  31.978  27.417  1.00  0.00    -0.459 OA
BRANCH   5   6
ATOM      6  C   UNL A   1      31.782  31.266  26.466  1.00  0.00     0.357 C 
ATOM      7  O   UNL A   1      30.850  31.664  25.785  1.00  0.00    -0.244 OA
BRANCH   6   8
ATOM      8  C   UNL A   1      32.440  29.944  26.294  1.00  0.00     0.150 A 
ATOM      9  C   UNL A   1      32.608  27.801  25.217  1.00  0.00     0.038 A 
ATOM     10  C   UNL A   1      33.643  27.512  26.106  1.00  0.00     0.046 A 
ATOM     11  C   UNL A   1      31.990  29.051  25.330  1.00  0.00     0.061 A 
ATOM     12  C   UNL A   1      34.027  28.463  27.041  1.00  0.00     0.114 A 
ATOM     13  N   UNL A   1      33.448  29.672  27.158  1.00  0.00    -0.249 NA
BRANCH   9  14
ATOM     14  N   UNL A   1      32.125  26.907  24.283  1.00  0.00    -0.384 N 
ATOM     15  H   UNL A   1      31.640  27.286  23.515  1.00  0.00     0.160 HD
BRANCH  14  16
ATOM     16  C   UNL A   1      32.262  25.455  24.322  1.00  0.00     0.119 C 
BRANCH  16  17
ATOM     17  C   UNL A   1      33.411  24.974  23.379  1.00  0.00    -0.012 C 
ATOM     18  C   UNL A   1      33.932  26.133  22.503  1.00  0.00     0.009 C 
ATOM     19  C   UNL A   1      32.856  24.039  22.271  1.00  0.00     0.009 C 
ATOM     20  C   UNL A   1      32.890  26.320  21.405  1.00  0.00     0.001 C 
ATOM     21  C   UNL A   1      32.235  24.956  21.218  1.00  0.00     0.001 C 
BRANCH  17  22
ATOM     22  C   UNL A   1      34.549  24.261  24.171  1.00  0.00     0.012 C 
BRANCH  22  23
ATOM     23  C   UNL A   1      35.167  22.965  23.597  1.00  0.00    -0.017 C 
ATOM     24  C   UNL A   1      36.679  22.996  23.393  1.00  0.00     0.007 C 
ATOM     25  C   UNL A   1      34.821  21.793  24.527  1.00  0.00     0.007 C 
ENDBRANCH  22  23
ENDBRANCH  17  22
ENDBRANCH  16  17
ENDBRANCH  14  16
ENDBRANCH   9  14
ENDBRANCH   6   8
ENDBRANCH   5   6
ENDBRANCH   4   5
ENDBRANCH   3   4
ENDBRANCH   2   3
ENDBRANCH   1   2
BRANCH   1  26
ATOM     26  C   UNL A   1      34.263  34.830  31.857  1.00  0.00     0.188 C 
BRANCH  26  27
ATOM     27  O   UNL A   1      34.840  33.867  32.710  1.00  0.00    -0.376 OA
BRANCH  27  28
ATOM     28  C   UNL A   1      35.137  32.561  32.244  1.00  0.00     0.202 C 
BRANCH  28  29
ATOM     29  C   UNL A   1      36.520  32.042  31.810  1.00  0.00     0.261 C 
BRANCH  29  30
ATOM     30  O   UNL A   1      36.633  30.676  31.419  1.00  0.00    -0.460 OA
BRANCH  30  31
ATOM     31  C   UNL A   1      36.623  30.457  30.085  1.00  0.00     0.338 C 
ATOM     32  O   UNL A   1      35.742  30.765  29.287  1.00  0.00    -0.246 OA
BRANCH  31  33
ATOM     33  C   UNL A   1      37.930  29.922  29.681  1.00  0.00     0.060 A 
ATOM     34  C   UNL A   1      38.828  29.516  30.677  1.00  0.00     0.016 A 
ATOM     35  C   UNL A   1      38.282  29.857  28.331  1.00  0.00     0.016 A 
ATOM     36  C   UNL A   1      40.095  29.058  30.323  1.00  0.00     0.010 A 
ATOM     37  C   UNL A   1      39.560  29.417  27.981  1.00  0.00     0.010 A 
ATOM     38  C   UNL A   1      40.480  29.040  28.976  1.00  0.00    -0.014 A 
BRANCH  38  39
ATOM     39  C   UNL A   1      41.894  28.781  28.617  1.00  0.00     0.031 A 
ATOM     40  C   UNL A   1      42.287  27.394  28.190  1.00  0.00     0.074 A 
ATOM     41  C   UNL A   1      42.813  29.763  28.664  1.00  0.00     0.049 A 
ATOM     42  N   UNL A   1      43.467  26.925  27.879  1.00  0.00    -0.248 NA
ATOM     43  C   UNL A   1      41.202  26.401  28.101  1.00  0.00     0.031 C 
ATOM     44  C   UNL A   1      42.547  31.156  29.019  1.00  0.00     0.029 A 
ATOM     45  N   UNL A   1      44.163  29.729  28.416  1.00  0.00    -0.354 N 
ATOM     46  C   UNL A   1      43.271  25.584  27.570  1.00  0.00     0.074 A 
ATOM     47  C   UNL A   1      41.863  25.308  27.752  1.00  0.00     0.031 C 
ATOM     48  C   UNL A   1      43.703  31.842  28.980  1.00  0.00     0.029 A 
ATOM     49  C   UNL A   1      44.792  30.932  28.631  1.00  0.00     0.049 A 
ATOM     50  H   UNL A   1      44.634  28.920  28.113  1.00  0.00     0.167 HD
ATOM     51  C   UNL A   1      44.182  24.667  27.167  1.00  0.00     0.031 A 
ATOM     52  C   UNL A   1      46.100  31.253  28.576  1.00  0.00     0.031 A 
ATOM     53  C   UNL A   1      45.585  24.941  27.003  1.00  0.00     0.049 A 
ATOM     54  C   UNL A   1      47.106  30.194  28.200  1.00  0.00     0.074 A 
ATOM     55  C   UNL A   1      46.585  24.082  26.584  1.00  0.00     0.029 A 
ATOM     56  N   UNL A   1      46.188  26.163  27.260  1.00  0.00    -0.354 N 
ATOM     57  N   UNL A   1      46.903  28.938  27.881  1.00  0.00    -0.248 NA
ATOM     58  C   UNL A   1      48.519  30.601  28.170  1.00  0.00     0.031 C 
ATOM     59  C   UNL A   1      47.802  24.767  26.646  1.00  0.00     0.029 A 
ATOM     60  C   UNL A   1      47.551  26.072  27.038  1.00  0.00     0.049 A 
ATOM     61  H   UNL A   1      45.717  26.974  27.558  1.00  0.00     0.167 HD
ATOM     62  C   UNL A   1      48.158  28.414  27.582  1.00  0.00     0.074 A 
ATOM     63  C   UNL A   1      49.110  29.492  27.747  1.00  0.00     0.031 C 
ATOM     64  C   UNL A   1      48.489  27.154  27.202  1.00  0.00     0.031 A 
BRANCH  51  65
ATOM     65  C   UNL A   1      43.692  23.266  26.911  1.00  0.00    -0.014 A 
ATOM     66  C   UNL A   1      44.013  22.588  25.721  1.00  0.00     0.010 A 
ATOM     67  C   UNL A   1      42.932  22.606  27.893  1.00  0.00     0.010 A 
ATOM     68  C   UNL A   1      43.554  21.285  25.506  1.00  0.00     0.020 A 
ATOM     69  C   UNL A   1      42.495  21.295  27.694  1.00  0.00     0.020 A 
ATOM     70  C   UNL A   1      42.796  20.647  26.494  1.00  0.00     0.054 A 
BRANCH  70  71
ATOM     71  S   UNL A   1      42.237  18.947  26.199  1.00  0.00     0.124 S 
ATOM     72  O   UNL A   1      40.841  19.150  25.821  1.00  0.00    -0.237 OA
ATOM     73  O   UNL A   1      43.120  18.502  25.124  1.00  0.00    -0.237 OA
ATOM     74  O   UNL A   1      42.445  18.285  27.485  1.00  0.00    -0.744 OA
ENDBRANCH  70  71
ENDBRANCH  51  65
BRANCH  52  75
ATOM     75  C   UNL A   1      46.544  32.636  28.909  1.00  0.00    -0.014 A 
ATOM     76  C   UNL A   1      46.526  33.097  30.237  1.00  0.00     0.010 A 
ATOM     77  C   UNL A   1      46.975  33.506  27.891  1.00  0.00     0.010 A 
ATOM     78  C   UNL A   1      46.910  34.408  30.539  1.00  0.00     0.020 A 
ATOM     79  C   UNL A   1      47.387  34.807  28.191  1.00  0.00     0.020 A 
ATOM     80  C   UNL A   1      47.339  35.255  29.512  1.00  0.00     0.054 A 
BRANCH  80  81
ATOM     81  S   UNL A   1      47.867  36.940  29.931  1.00  0.00     0.124 S 
ATOM     82  O   UNL A   1      48.480  37.385  28.685  1.00  0.00    -0.237 OA
ATOM     83  O   UNL A   1      46.605  37.587  30.283  1.00  0.00    -0.237 OA
ATOM     84  O   UNL A   1      48.790  36.741  31.046  1.00  0.00    -0.744 OA
ENDBRANCH  80  81
ENDBRANCH  52  75
BRANCH  64  85
ATOM     85  C   UNL A   1      49.938  26.876  26.894  1.00  0.00    -0.014 A 
ATOM     86  C   UNL A   1      50.841  26.490  27.900  1.00  0.00     0.010 A 
ATOM     87  C   UNL A   1      50.386  26.943  25.561  1.00  0.00     0.010 A 
ATOM     88  C   UNL A   1      52.173  26.206  27.583  1.00  0.00     0.020 A 
ATOM     89  C   UNL A   1      51.708  26.631  25.236  1.00  0.00     0.020 A 
ATOM     90  C   UNL A   1      52.599  26.278  26.253  1.00  0.00     0.054 A 
BRANCH  90  91
ATOM     91  S   UNL A   1      54.320  25.861  25.860  1.00  0.00     0.124 S 
ATOM     92  O   UNL A   1      54.188  25.219  24.555  1.00  0.00    -0.237 OA
ATOM     93  O   UNL A   1      54.974  27.167  25.855  1.00  0.00    -0.237 OA
ATOM     94  O   UNL A   1      54.720  24.975  26.952  1.00  0.00    -0.744 OA
ENDBRANCH  90  91
ENDBRANCH  64  85
ENDBRANCH  38  39
ENDBRANCH  31  33
ENDBRANCH  30  31
ENDBRANCH  29  30
ENDBRANCH  28  29
ENDBRANCH  27  28
ENDBRANCH  26  27
ENDBRANCH   1  26
TORSDOF 25
ENDMDL
MODEL 3
REMARK VINA RESULT:      -7.0      3.729     11.634
REMARK SMILES CC(C)CC1(CNc2ccnc(C(=O)OCCOCCOCCOC(=O)c3ccc(-c4c5nc(c(-c6ccc(S(=O)(=O)[O-])cc6)c6ccc([nH]6)c(-c6ccc(S(=O)(=O)[O-])cc6)c6nc(c(-c7ccc(S(=O)(=O)[O-])cc7)c7ccc4[nH]7)C=C6)C=C5)cc3)c2)CCCC1
REMARK SMILES IDX 19 1 18 2 17 3 16 4 15 5 13 6 14 7 12 8 8 9 9 10 87 11 10 12
REMARK SMILES IDX 11 13 7 14 6 16 5 17 88 18 91 19 89 20 90 21 4 22 2 23 1 24
REMARK SMILES IDX 3 25 20 26 21 27 22 28 23 29 24 30 25 31 26 32 27 33 28 34
REMARK SMILES IDX 86 35 29 36 85 37 30 38 31 39 32 40 79 41 33 42 84 43 78 44
REMARK SMILES IDX 80 45 34 46 83 47 77 48 76 49 35 51 65 52 46 53 64 54 47 55
REMARK SMILES IDX 50 56 63 57 81 58 48 59 49 60 62 62 82 63 51 64 36 65 37 66
REMARK SMILES IDX 45 67 38 68 44 69 39 70 40 71 41 72 42 73 43 74 66 75 67 76
REMARK SMILES IDX 75 77 68 78 74 79 69 80 70 81 71 82 72 83 73 84 52 85 53 86
REMARK SMILES IDX 61 87 54 88 60 89 55 90 56 91 57 92 58 93 59 94
REMARK H PARENT 7 15 80 50 50 61
REMARK Flexibility Score: inf
ROOT
ATOM      1  C   UNL A   1      34.185  36.575  33.109  1.00  0.00     0.188 C 
ENDROOT
BRANCH   1   2
ATOM      2  O   UNL A   1      32.782  36.715  32.977  1.00  0.00    -0.376 OA
BRANCH   2   3
ATOM      3  C   UNL A   1      32.156  36.456  31.731  1.00  0.00     0.202 C 
BRANCH   3   4
ATOM      4  C   UNL A   1      32.936  36.004  30.487  1.00  0.00     0.261 C 
BRANCH   4   5
ATOM      5  O   UNL A   1      33.239  34.605  30.436  1.00  0.00    -0.459 OA
BRANCH   5   6
ATOM      6  C   UNL A   1      33.501  34.113  29.193  1.00  0.00     0.357 C 
ATOM      7  O   UNL A   1      32.801  34.243  28.201  1.00  0.00    -0.244 OA
BRANCH   6   8
ATOM      8  C   UNL A   1      34.845  33.478  29.191  1.00  0.00     0.150 A 
ATOM      9  C   UNL A   1      36.318  31.665  29.760  1.00  0.00     0.038 A 
ATOM     10  C   UNL A   1      37.355  32.430  29.226  1.00  0.00     0.046 A 
ATOM     11  C   UNL A   1      35.033  32.219  29.746  1.00  0.00     0.061 A 
ATOM     12  C   UNL A   1      37.077  33.681  28.695  1.00  0.00     0.114 A 
ATOM     13  N   UNL A   1      35.847  34.226  28.667  1.00  0.00    -0.249 NA
BRANCH   9  14
ATOM     14  N   UNL A   1      36.499  30.431  30.350  1.00  0.00    -0.384 N 
ATOM     15  H   UNL A   1      36.383  30.385  31.327  1.00  0.00     0.160 HD
BRANCH  14  16
ATOM     16  C   UNL A   1      36.845  29.188  29.670  1.00  0.00     0.119 C 
BRANCH  16  17
ATOM     17  C   UNL A   1      38.387  28.943  29.698  1.00  0.00    -0.012 C 
ATOM     18  C   UNL A   1      38.723  27.583  30.345  1.00  0.00     0.009 C 
ATOM     19  C   UNL A   1      39.075  29.892  30.716  1.00  0.00     0.009 C 
ATOM     20  C   UNL A   1      38.566  27.791  31.848  1.00  0.00     0.001 C 
ATOM     21  C   UNL A   1      38.847  29.270  32.093  1.00  0.00     0.001 C 
BRANCH  17  22
ATOM     22  C   UNL A   1      39.025  29.110  28.285  1.00  0.00     0.012 C 
BRANCH  22  23
ATOM     23  C   UNL A   1      40.056  28.066  27.796  1.00  0.00    -0.017 C 
ATOM     24  C   UNL A   1      39.495  26.675  27.514  1.00  0.00     0.007 C 
ATOM     25  C   UNL A   1      40.733  28.591  26.521  1.00  0.00     0.007 C 
ENDBRANCH  22  23
ENDBRANCH  17  22
ENDBRANCH  16  17
ENDBRANCH  14  16
ENDBRANCH   9  14
ENDBRANCH   6   8
ENDBRANCH   5   6
ENDBRANCH   4   5
ENDBRANCH   3   4
ENDBRANCH   2   3
ENDBRANCH   1   2
BRANCH   1  26
ATOM     26  C   UNL A   1      34.766  35.307  33.768  1.00  0.00     0.188 C 
BRANCH  26  27
ATOM     27  O   UNL A   1      35.472  34.376  32.981  1.00  0.00    -0.376 OA
BRANCH  27  28
ATOM     28  C   UNL A   1      35.843  33.109  33.501  1.00  0.00     0.202 C 
BRANCH  28  29
ATOM     29  C   UNL A   1      37.053  32.265  33.065  1.00  0.00     0.261 C 
BRANCH  29  30
ATOM     30  O   UNL A   1      38.298  32.483  33.725  1.00  0.00    -0.460 OA
BRANCH  30  31
ATOM     31  C   UNL A   1      39.013  33.537  33.272  1.00  0.00     0.338 C 
ATOM     32  O   UNL A   1      38.742  34.729  33.400  1.00  0.00    -0.246 OA
BRANCH  31  33
ATOM     33  C   UNL A   1      40.285  33.050  32.724  1.00  0.00     0.060 A 
ATOM     34  C   UNL A   1      40.523  33.189  31.351  1.00  0.00     0.016 A 
ATOM     35  C   UNL A   1      41.221  32.427  33.553  1.00  0.00     0.016 A 
ATOM     36  C   UNL A   1      41.697  32.685  30.797  1.00  0.00     0.010 A 
ATOM     37  C   UNL A   1      42.387  31.905  32.991  1.00  0.00     0.010 A 
ATOM     38  C   UNL A   1      42.619  32.008  31.607  1.00  0.00    -0.014 A 
BRANCH  38  39
ATOM     39  C   UNL A   1      43.744  31.271  30.987  1.00  0.00     0.031 A 
ATOM     40  C   UNL A   1      45.099  31.921  30.952  1.00  0.00     0.074 A 
ATOM     41  C   UNL A   1      43.567  30.042  30.469  1.00  0.00     0.049 A 
ATOM     42  N   UNL A   1      46.213  31.488  30.420  1.00  0.00    -0.248 NA
ATOM     43  C   UNL A   1      45.215  33.237  31.604  1.00  0.00     0.031 C 
ATOM     44  C   UNL A   1      42.312  29.289  30.482  1.00  0.00     0.029 A 
ATOM     45  N   UNL A   1      44.450  29.214  29.823  1.00  0.00    -0.354 N 
ATOM     46  C   UNL A   1      47.157  32.479  30.662  1.00  0.00     0.074 A 
ATOM     47  C   UNL A   1      46.482  33.546  31.368  1.00  0.00     0.031 C 
ATOM     48  C   UNL A   1      42.505  28.114  29.858  1.00  0.00     0.029 A 
ATOM     49  C   UNL A   1      43.883  28.045  29.373  1.00  0.00     0.049 A 
ATOM     50  H   UNL A   1      45.400  29.436  29.693  1.00  0.00     0.167 HD
ATOM     51  C   UNL A   1      48.469  32.497  30.329  1.00  0.00     0.031 A 
ATOM     52  C   UNL A   1      44.409  27.049  28.633  1.00  0.00     0.031 A 
ATOM     53  C   UNL A   1      49.134  31.442  29.612  1.00  0.00     0.049 A 
ATOM     54  C   UNL A   1      45.854  27.129  28.208  1.00  0.00     0.074 A 
ATOM     55  C   UNL A   1      50.464  31.361  29.241  1.00  0.00     0.029 A 
ATOM     56  N   UNL A   1      48.518  30.290  29.147  1.00  0.00    -0.354 N 
ATOM     57  N   UNL A   1      46.743  28.057  28.470  1.00  0.00    -0.248 NA
ATOM     58  C   UNL A   1      46.367  26.018  27.392  1.00  0.00     0.031 C 
ATOM     59  C   UNL A   1      50.640  30.188  28.500  1.00  0.00     0.029 A 
ATOM     60  C   UNL A   1      49.434  29.506  28.467  1.00  0.00     0.049 A 
ATOM     61  H   UNL A   1      47.569  30.064  29.280  1.00  0.00     0.167 HD
ATOM     62  C   UNL A   1      47.927  27.628  27.878  1.00  0.00     0.074 A 
ATOM     63  C   UNL A   1      47.644  26.351  27.256  1.00  0.00     0.031 C 
ATOM     64  C   UNL A   1      49.140  28.235  27.855  1.00  0.00     0.031 A 
BRANCH  51  65
ATOM     65  C   UNL A   1      49.265  33.718  30.706  1.00  0.00    -0.014 A 
ATOM     66  C   UNL A   1      49.368  34.819  29.837  1.00  0.00     0.010 A 
ATOM     67  C   UNL A   1      49.888  33.779  31.966  1.00  0.00     0.010 A 
ATOM     68  C   UNL A   1      50.106  35.946  30.208  1.00  0.00     0.020 A 
ATOM     69  C   UNL A   1      50.604  34.915  32.352  1.00  0.00     0.020 A 
ATOM     70  C   UNL A   1      50.722  35.986  31.464  1.00  0.00     0.054 A 
BRANCH  70  71
ATOM     71  S   UNL A   1      51.651  37.473  31.930  1.00  0.00     0.124 S 
ATOM     72  O   UNL A   1      51.589  38.263  30.703  1.00  0.00    -0.237 OA
ATOM     73  O   UNL A   1      50.876  37.995  33.052  1.00  0.00    -0.237 OA
ATOM     74  O   UNL A   1      52.975  36.961  32.275  1.00  0.00    -0.744 OA
ENDBRANCH  70  71
ENDBRANCH  51  65
BRANCH  52  75
ATOM     75  C   UNL A   1      43.559  25.896  28.223  1.00  0.00    -0.014 A 
ATOM     76  C   UNL A   1      43.205  24.898  29.148  1.00  0.00     0.010 A 
ATOM     77  C   UNL A   1      43.110  25.784  26.895  1.00  0.00     0.010 A 
ATOM     78  C   UNL A   1      42.437  23.800  28.748  1.00  0.00     0.020 A 
ATOM     79  C   UNL A   1      42.318  24.704  26.497  1.00  0.00     0.020 A 
ATOM     80  C   UNL A   1      41.998  23.710  27.423  1.00  0.00     0.054 A 
BRANCH  80  81
ATOM     81  S   UNL A   1      40.972  22.294  26.936  1.00  0.00     0.124 S 
ATOM     82  O   UNL A   1      41.275  21.326  27.984  1.00  0.00    -0.237 OA
ATOM     83  O   UNL A   1      39.625  22.858  26.964  1.00  0.00    -0.237 OA
ATOM     84  O   UNL A   1      41.471  21.953  25.606  1.00  0.00    -0.744 OA
ENDBRANCH  80  81
ENDBRANCH  52  75
BRANCH  64  85
ATOM     85  C   UNL A   1      50.272  27.510  27.172  1.00  0.00    -0.014 A 
ATOM     86  C   UNL A   1      51.033  26.539  27.843  1.00  0.00     0.010 A 
ATOM     87  C   UNL A   1      50.535  27.767  25.813  1.00  0.00     0.010 A 
ATOM     88  C   UNL A   1      52.057  25.858  27.177  1.00  0.00     0.020 A 
ATOM     89  C   UNL A   1      51.537  27.069  25.135  1.00  0.00     0.020 A 
ATOM     90  C   UNL A   1      52.302  26.127  25.827  1.00  0.00     0.054 A 
BRANCH  90  91
ATOM     91  S   UNL A   1      53.606  25.199  24.973  1.00  0.00     0.124 S 
ATOM     92  O   UNL A   1      54.818  25.790  25.533  1.00  0.00    -0.237 OA
ATOM     93  O   UNL A   1      53.335  23.821  25.374  1.00  0.00    -0.237 OA
ATOM     94  O   UNL A   1      53.369  25.487  23.560  1.00  0.00    -0.744 OA
ENDBRANCH  90  91
ENDBRANCH  64  85
ENDBRANCH  38  39
ENDBRANCH  31  33
ENDBRANCH  30  31
ENDBRANCH  29  30
ENDBRANCH  28  29
ENDBRANCH  27  28
ENDBRANCH  26  27
ENDBRANCH   1  26
TORSDOF 25
ENDMDL
