MODEL 1
REMARK VINA RESULT:      -8.0      0.000      0.000
REMARK SMILES C[NH2+][C@]1(C(=O)OCCOCCOCCOC(=O)c2ccc(-c3c4nc(c(-c5ccc(S(=O)(=O)[O-])cc5)c5ccc([nH]5)c(-c5ccc(S(=O)(=O)[O-])cc5)c5nc(c(-c6ccc(S(=O)(=O)[O-])cc6)c6ccc3[nH]6)C=C5)C=C4)cc2)CC[C@H](SC2CCCCC2)C1
REMARK SMILES IDX 11 1 10 2 9 3 8 4 7 5 6 6 4 7 5 8 3 9 78 10 88 11 79 12
REMARK SMILES IDX 80 13 2 14 1 15 81 18 82 19 83 20 87 21 84 22 86 23 85 24
REMARK SMILES IDX 12 25 13 26 14 27 15 28 16 29 17 30 18 31 19 32 77 33 20 34
REMARK SMILES IDX 76 35 21 36 22 37 23 38 70 39 24 40 75 41 69 42 71 43 25 44
REMARK SMILES IDX 74 45 68 46 67 47 26 49 56 50 37 51 55 52 38 53 41 54 54 55
REMARK SMILES IDX 72 56 39 57 40 58 53 60 73 61 42 62 27 63 28 64 36 65 29 66
REMARK SMILES IDX 35 67 30 68 31 69 32 70 33 71 34 72 57 73 58 74 66 75 59 76
REMARK SMILES IDX 65 77 60 78 61 79 62 80 63 81 64 82 43 83 44 84 52 85 45 86
REMARK SMILES IDX 51 87 46 88 47 89 48 90 49 91 50 92
REMARK H PARENT 2 16 2 17 71 48 41 59
REMARK Flexibility Score: inf
ROOT
ATOM      1  C   UNL A   1      46.518  42.181  28.335  1.00  0.00     0.188 C 
ENDROOT
BRANCH   1   2
ATOM      2  C   UNL A   1      47.188  43.146  27.354  1.00  0.00     0.188 C 
BRANCH   2   3
ATOM      3  O   UNL A   1      46.633  43.276  26.053  1.00  0.00    -0.376 OA
BRANCH   3   4
ATOM      4  C   UNL A   1      45.892  44.449  25.734  1.00  0.00     0.202 C 
BRANCH   4   5
ATOM      5  C   UNL A   1      44.736  44.368  24.718  1.00  0.00     0.261 C 
BRANCH   5   6
ATOM      6  O   UNL A   1      45.128  44.104  23.354  1.00  0.00    -0.459 OA
BRANCH   6   7
ATOM      7  C   UNL A   1      44.903  42.845  22.883  1.00  0.00     0.368 C 
ATOM      8  O   UNL A   1      45.136  41.827  23.529  1.00  0.00    -0.245 OA
BRANCH   7   9
ATOM      9  C   UNL A   1      44.331  42.798  21.437  1.00  0.00     0.195 C 
ATOM     10  C   UNL A   1      42.880  42.344  21.214  1.00  0.00     0.082 C 
ATOM     11  C   UNL A   1      44.202  44.263  20.956  1.00  0.00     0.095 C 
ATOM     12  C   UNL A   1      42.469  42.953  19.878  1.00  0.00     0.022 C 
ATOM     13  C   UNL A   1      43.279  44.239  19.723  1.00  0.00     0.054 C 
BRANCH   9  14
ATOM     14  N   UNL A   1      45.257  42.093  20.511  1.00  0.00    -0.335 N 
ATOM     15  C   UNL A   1      46.638  42.539  20.502  1.00  0.00     0.331 C 
ATOM     16  H   UNL A   1      45.254  41.105  20.765  1.00  0.00     0.347 HD
ATOM     17  H   UNL A   1      44.904  42.295  19.575  1.00  0.00     0.347 HD
ENDBRANCH   9  14
BRANCH  13  18
ATOM     18  S   UNL A   1      44.267  44.303  18.173  1.00  0.00    -0.155 SA
BRANCH  18  19
ATOM     19  C   UNL A   1      43.775  45.893  17.393  1.00  0.00     0.047 C 
ATOM     20  C   UNL A   1      42.269  46.174  17.401  1.00  0.00     0.014 C 
ATOM     21  C   UNL A   1      44.576  47.073  17.947  1.00  0.00     0.014 C 
ATOM     22  C   UNL A   1      41.939  47.466  16.654  1.00  0.00     0.001 C 
ATOM     23  C   UNL A   1      44.230  48.364  17.205  1.00  0.00     0.001 C 
ATOM     24  C   UNL A   1      42.730  48.640  17.228  1.00  0.00     0.000 C 
ENDBRANCH  18  19
ENDBRANCH  13  18
ENDBRANCH   7   9
ENDBRANCH   6   7
ENDBRANCH   5   6
ENDBRANCH   4   5
ENDBRANCH   3   4
ENDBRANCH   2   3
ENDBRANCH   1   2
BRANCH   1  25
ATOM     25  O   UNL A   1      45.305  41.620  27.906  1.00  0.00    -0.376 OA
BRANCH  25  26
ATOM     26  C   UNL A   1      45.279  40.750  26.796  1.00  0.00     0.202 C 
BRANCH  26  27
ATOM     27  C   UNL A   1      44.004  40.051  26.293  1.00  0.00     0.261 C 
BRANCH  27  28
ATOM     28  O   UNL A   1      43.777  38.690  26.677  1.00  0.00    -0.460 OA
BRANCH  28  29
ATOM     29  C   UNL A   1      42.513  38.331  27.003  1.00  0.00     0.338 C 
ATOM     30  O   UNL A   1      41.483  38.837  26.588  1.00  0.00    -0.246 OA
BRANCH  29  31
ATOM     31  C   UNL A   1      42.593  37.071  27.783  1.00  0.00     0.060 A 
ATOM     32  C   UNL A   1      43.702  36.850  28.612  1.00  0.00     0.016 A 
ATOM     33  C   UNL A   1      41.570  36.122  27.715  1.00  0.00     0.016 A 
ATOM     34  C   UNL A   1      43.803  35.664  29.348  1.00  0.00     0.010 A 
ATOM     35  C   UNL A   1      41.683  34.929  28.436  1.00  0.00     0.010 A 
ATOM     36  C   UNL A   1      42.814  34.678  29.233  1.00  0.00    -0.014 A 
BRANCH  36  37
ATOM     37  C   UNL A   1      43.038  33.317  29.787  1.00  0.00     0.031 A 
ATOM     38  C   UNL A   1      42.574  33.030  31.191  1.00  0.00     0.074 A 
ATOM     39  C   UNL A   1      43.649  32.350  29.075  1.00  0.00     0.049 A 
ATOM     40  N   UNL A   1      42.715  31.945  31.909  1.00  0.00    -0.248 NA
ATOM     41  C   UNL A   1      41.852  34.116  31.876  1.00  0.00     0.031 C 
ATOM     42  C   UNL A   1      44.108  32.474  27.693  1.00  0.00     0.029 A 
ATOM     43  N   UNL A   1      43.997  31.070  29.433  1.00  0.00    -0.354 N 
ATOM     44  C   UNL A   1      42.110  32.220  33.129  1.00  0.00     0.074 A 
ATOM     45  C   UNL A   1      41.624  33.581  33.066  1.00  0.00     0.031 C 
ATOM     46  C   UNL A   1      44.691  31.320  27.324  1.00  0.00     0.029 A 
ATOM     47  C   UNL A   1      44.680  30.388  28.451  1.00  0.00     0.049 A 
ATOM     48  H   UNL A   1      43.779  30.677  30.308  1.00  0.00     0.167 HD
ATOM     49  C   UNL A   1      41.967  31.412  34.208  1.00  0.00     0.031 A 
ATOM     50  C   UNL A   1      45.251  29.166  28.470  1.00  0.00     0.031 A 
ATOM     51  C   UNL A   1      42.473  30.068  34.287  1.00  0.00     0.049 A 
ATOM     52  C   UNL A   1      45.161  28.318  29.716  1.00  0.00     0.074 A 
ATOM     53  C   UNL A   1      42.369  29.172  35.337  1.00  0.00     0.029 A 
ATOM     54  N   UNL A   1      43.190  29.430  33.287  1.00  0.00    -0.354 N 
ATOM     55  N   UNL A   1      44.560  28.579  30.853  1.00  0.00    -0.248 NA
ATOM     56  C   UNL A   1      45.823  27.005  29.677  1.00  0.00     0.031 C 
ATOM     57  C   UNL A   1      43.080  28.016  34.996  1.00  0.00     0.029 A 
ATOM     58  C   UNL A   1      43.563  28.163  33.706  1.00  0.00     0.049 A 
ATOM     59  H   UNL A   1      43.403  29.820  32.408  1.00  0.00     0.167 HD
ATOM     60  C   UNL A   1      44.741  27.451  31.649  1.00  0.00     0.074 A 
ATOM     61  C   UNL A   1      45.498  26.501  30.861  1.00  0.00     0.031 C 
ATOM     62  C   UNL A   1      44.315  27.221  32.916  1.00  0.00     0.031 A 
BRANCH  49  63
ATOM     63  C   UNL A   1      41.266  31.983  35.414  1.00  0.00    -0.014 A 
ATOM     64  C   UNL A   1      39.872  31.869  35.569  1.00  0.00     0.010 A 
ATOM     65  C   UNL A   1      42.018  32.611  36.422  1.00  0.00     0.010 A 
ATOM     66  C   UNL A   1      39.240  32.408  36.693  1.00  0.00     0.020 A 
ATOM     67  C   UNL A   1      41.394  33.125  37.562  1.00  0.00     0.020 A 
ATOM     68  C   UNL A   1      40.005  33.035  37.682  1.00  0.00     0.054 A 
BRANCH  68  69
ATOM     69  S   UNL A   1      39.161  33.710  39.137  1.00  0.00     0.124 S 
ATOM     70  O   UNL A   1      39.934  33.126  40.231  1.00  0.00    -0.237 OA
ATOM     71  O   UNL A   1      39.316  35.151  38.957  1.00  0.00    -0.237 OA
ATOM     72  O   UNL A   1      37.793  33.212  39.008  1.00  0.00    -0.744 OA
ENDBRANCH  68  69
ENDBRANCH  49  63
BRANCH  50  73
ATOM     73  C   UNL A   1      45.989  28.667  27.273  1.00  0.00    -0.014 A 
ATOM     74  C   UNL A   1      45.315  27.982  26.246  1.00  0.00     0.010 A 
ATOM     75  C   UNL A   1      47.379  28.858  27.166  1.00  0.00     0.010 A 
ATOM     76  C   UNL A   1      46.019  27.483  25.145  1.00  0.00     0.020 A 
ATOM     77  C   UNL A   1      48.081  28.388  26.053  1.00  0.00     0.020 A 
ATOM     78  C   UNL A   1      47.399  27.692  25.054  1.00  0.00     0.054 A 
BRANCH  78  79
ATOM     79  S   UNL A   1      48.282  27.076  23.594  1.00  0.00     0.124 S 
ATOM     80  O   UNL A   1      47.769  27.943  22.538  1.00  0.00    -0.237 OA
ATOM     81  O   UNL A   1      49.681  27.285  23.961  1.00  0.00    -0.237 OA
ATOM     82  O   UNL A   1      47.871  25.676  23.510  1.00  0.00    -0.744 OA
ENDBRANCH  78  79
ENDBRANCH  50  73
BRANCH  62  83
ATOM     83  C   UNL A   1      44.611  25.874  33.527  1.00  0.00    -0.014 A 
ATOM     84  C   UNL A   1      43.813  24.748  33.254  1.00  0.00     0.010 A 
ATOM     85  C   UNL A   1      45.750  25.718  34.341  1.00  0.00     0.010 A 
ATOM     86  C   UNL A   1      44.130  23.503  33.806  1.00  0.00     0.020 A 
ATOM     87  C   UNL A   1      46.089  24.469  34.869  1.00  0.00     0.020 A 
ATOM     88  C   UNL A   1      45.268  23.371  34.608  1.00  0.00     0.054 A 
BRANCH  88  89
ATOM     89  S   UNL A   1      45.684  21.735  35.275  1.00  0.00     0.124 S 
ATOM     90  O   UNL A   1      45.652  21.975  36.714  1.00  0.00    -0.237 OA
ATOM     91  O   UNL A   1      44.608  20.895  34.754  1.00  0.00    -0.237 OA
ATOM     92  O   UNL A   1      47.007  21.458  34.718  1.00  0.00    -0.744 OA
ENDBRANCH  88  89
ENDBRANCH  62  83
ENDBRANCH  36  37
ENDBRANCH  29  31
ENDBRANCH  28  29
ENDBRANCH  27  28
ENDBRANCH  26  27
ENDBRANCH  25  26
ENDBRANCH   1  25
TORSDOF 23
ENDMDL
MODEL 2
REMARK VINA RESULT:      -7.8      6.962     13.291
REMARK SMILES C[NH2+][C@]1(C(=O)OCCOCCOCCOC(=O)c2ccc(-c3c4nc(c(-c5ccc(S(=O)(=O)[O-])cc5)c5ccc([nH]5)c(-c5ccc(S(=O)(=O)[O-])cc5)c5nc(c(-c6ccc(S(=O)(=O)[O-])cc6)c6ccc3[nH]6)C=C5)C=C4)cc2)CC[C@H](SC2CCCCC2)C1
REMARK SMILES IDX 11 1 10 2 9 3 8 4 7 5 6 6 4 7 5 8 3 9 78 10 88 11 79 12
REMARK SMILES IDX 80 13 2 14 1 15 81 18 82 19 83 20 87 21 84 22 86 23 85 24
REMARK SMILES IDX 12 25 13 26 14 27 15 28 16 29 17 30 18 31 19 32 77 33 20 34
REMARK SMILES IDX 76 35 21 36 22 37 23 38 70 39 24 40 75 41 69 42 71 43 25 44
REMARK SMILES IDX 74 45 68 46 67 47 26 49 56 50 37 51 55 52 38 53 41 54 54 55
REMARK SMILES IDX 72 56 39 57 40 58 53 60 73 61 42 62 27 63 28 64 36 65 29 66
REMARK SMILES IDX 35 67 30 68 31 69 32 70 33 71 34 72 57 73 58 74 66 75 59 76
REMARK SMILES IDX 65 77 60 78 61 79 62 80 63 81 64 82 43 83 44 84 52 85 45 86
REMARK SMILES IDX 51 87 46 88 47 89 48 90 49 91 50 92
REMARK H PARENT 2 16 2 17 71 48 41 59
REMARK Flexibility Score: inf
ROOT
ATOM      1  C   UNL A   1      32.887  36.129  31.184  1.00  0.00     0.188 C 
ENDROOT
BRANCH   1   2
ATOM      2  C   UNL A   1      33.487  35.564  29.894  1.00  0.00     0.188 C 
BRANCH   2   3
ATOM      3  O   UNL A   1      32.963  34.346  29.385  1.00  0.00    -0.376 OA
BRANCH   3   4
ATOM      4  C   UNL A   1      33.216  34.002  28.026  1.00  0.00     0.202 C 
BRANCH   4   5
ATOM      5  C   UNL A   1      33.674  32.573  27.676  1.00  0.00     0.261 C 
BRANCH   5   6
ATOM      6  O   UNL A   1      32.677  31.543  27.848  1.00  0.00    -0.459 OA
BRANCH   6   7
ATOM      7  C   UNL A   1      32.062  31.091  26.719  1.00  0.00     0.368 C 
ATOM      8  O   UNL A   1      31.325  31.784  26.023  1.00  0.00    -0.245 OA
BRANCH   7   9
ATOM      9  C   UNL A   1      32.362  29.601  26.383  1.00  0.00     0.195 C 
ATOM     10  C   UNL A   1      31.910  28.502  27.357  1.00  0.00     0.082 C 
ATOM     11  C   UNL A   1      31.477  29.227  25.170  1.00  0.00     0.095 C 
ATOM     12  C   UNL A   1      31.807  27.236  26.515  1.00  0.00     0.022 C 
ATOM     13  C   UNL A   1      31.464  27.688  25.096  1.00  0.00     0.054 C 
BRANCH   9  14
ATOM     14  N   UNL A   1      33.782  29.411  25.988  1.00  0.00    -0.335 N 
ATOM     15  C   UNL A   1      34.698  28.979  27.028  1.00  0.00     0.331 C 
ATOM     16  H   UNL A   1      33.806  28.711  25.247  1.00  0.00     0.347 HD
ATOM     17  H   UNL A   1      34.110  30.337  25.712  1.00  0.00     0.347 HD
ENDBRANCH   9  14
BRANCH  13  18
ATOM     18  S   UNL A   1      32.653  27.090  23.827  1.00  0.00    -0.155 SA
BRANCH  18  19
ATOM     19  C   UNL A   1      32.528  25.259  23.921  1.00  0.00     0.047 C 
ATOM     20  C   UNL A   1      31.242  24.671  23.329  1.00  0.00     0.014 C 
ATOM     21  C   UNL A   1      33.776  24.572  23.363  1.00  0.00     0.014 C 
ATOM     22  C   UNL A   1      31.177  23.158  23.530  1.00  0.00     0.001 C 
ATOM     23  C   UNL A   1      33.697  23.057  23.554  1.00  0.00     0.001 C 
ATOM     24  C   UNL A   1      32.418  22.481  22.952  1.00  0.00     0.000 C 
ENDBRANCH  18  19
ENDBRANCH  13  18
ENDBRANCH   7   9
ENDBRANCH   6   7
ENDBRANCH   5   6
ENDBRANCH   4   5
ENDBRANCH   3   4
ENDBRANCH   2   3
ENDBRANCH   1   2
BRANCH   1  25
ATOM     25  O   UNL A   1      33.806  36.452  32.195  1.00  0.00    -0.376 OA
BRANCH  25  26
ATOM     26  C   UNL A   1      34.682  35.467  32.697  1.00  0.00     0.202 C 
BRANCH  26  27
ATOM     27  C   UNL A   1      34.205  34.156  33.346  1.00  0.00     0.261 C 
BRANCH  27  28
ATOM     28  O   UNL A   1      35.077  33.020  33.305  1.00  0.00    -0.460 OA
BRANCH  28  29
ATOM     29  C   UNL A   1      35.227  32.386  32.119  1.00  0.00     0.338 C 
ATOM     30  O   UNL A   1      34.367  32.217  31.269  1.00  0.00    -0.246 OA
BRANCH  29  31
ATOM     31  C   UNL A   1      36.676  32.125  31.932  1.00  0.00     0.060 A 
ATOM     32  C   UNL A   1      37.492  31.965  33.061  1.00  0.00     0.016 A 
ATOM     33  C   UNL A   1      37.224  32.016  30.651  1.00  0.00     0.016 A 
ATOM     34  C   UNL A   1      38.863  31.729  32.909  1.00  0.00     0.010 A 
ATOM     35  C   UNL A   1      38.598  31.800  30.502  1.00  0.00     0.010 A 
ATOM     36  C   UNL A   1      39.431  31.685  31.629  1.00  0.00    -0.014 A 
BRANCH  36  37
ATOM     37  C   UNL A   1      40.908  31.708  31.457  1.00  0.00     0.031 A 
ATOM     38  C   UNL A   1      41.532  32.906  30.791  1.00  0.00     0.074 A 
ATOM     39  C   UNL A   1      41.689  30.691  31.870  1.00  0.00     0.049 A 
ATOM     40  N   UNL A   1      42.783  33.124  30.473  1.00  0.00    -0.248 NA
ATOM     41  C   UNL A   1      40.619  34.005  30.434  1.00  0.00     0.031 C 
ATOM     42  C   UNL A   1      41.226  29.494  32.569  1.00  0.00     0.029 A 
ATOM     43  N   UNL A   1      43.045  30.505  31.744  1.00  0.00    -0.354 N 
ATOM     44  C   UNL A   1      42.807  34.377  29.874  1.00  0.00     0.074 A 
ATOM     45  C   UNL A   1      41.443  34.860  29.846  1.00  0.00     0.031 C 
ATOM     46  C   UNL A   1      42.280  28.690  32.798  1.00  0.00     0.029 A 
ATOM     47  C   UNL A   1      43.485  29.296  32.231  1.00  0.00     0.049 A 
ATOM     48  H   UNL A   1      43.645  31.173  31.343  1.00  0.00     0.167 HD
ATOM     49  C   UNL A   1      43.867  35.069  29.390  1.00  0.00     0.031 A 
ATOM     50  C   UNL A   1      44.711  28.732  32.201  1.00  0.00     0.031 A 
ATOM     51  C   UNL A   1      45.220  34.581  29.390  1.00  0.00     0.049 A 
ATOM     52  C   UNL A   1      45.861  29.482  31.573  1.00  0.00     0.074 A 
ATOM     53  C   UNL A   1      46.361  35.215  28.928  1.00  0.00     0.029 A 
ATOM     54  N   UNL A   1      45.615  33.338  29.858  1.00  0.00    -0.354 N 
ATOM     55  N   UNL A   1      45.874  30.679  31.036  1.00  0.00    -0.248 NA
ATOM     56  C   UNL A   1      47.166  28.803  31.554  1.00  0.00     0.031 C 
ATOM     57  C   UNL A   1      47.435  34.329  29.057  1.00  0.00     0.029 A 
ATOM     58  C   UNL A   1      46.978  33.173  29.667  1.00  0.00     0.049 A 
ATOM     59  H   UNL A   1      45.017  32.671  30.266  1.00  0.00     0.167 HD
ATOM     60  C   UNL A   1      47.192  30.910  30.649  1.00  0.00     0.074 A 
ATOM     61  C   UNL A   1      47.949  29.733  31.022  1.00  0.00     0.031 C 
ATOM     62  C   UNL A   1      47.727  31.999  30.043  1.00  0.00     0.031 A 
BRANCH  49  63
ATOM     63  C   UNL A   1      43.594  36.419  28.780  1.00  0.00    -0.014 A 
ATOM     64  C   UNL A   1      43.676  37.596  29.545  1.00  0.00     0.010 A 
ATOM     65  C   UNL A   1      43.287  36.513  27.410  1.00  0.00     0.010 A 
ATOM     66  C   UNL A   1      43.415  38.839  28.961  1.00  0.00     0.020 A 
ATOM     67  C   UNL A   1      43.056  37.756  26.815  1.00  0.00     0.020 A 
ATOM     68  C   UNL A   1      43.105  38.911  27.599  1.00  0.00     0.054 A 
BRANCH  68  69
ATOM     69  S   UNL A   1      42.790  40.538  26.864  1.00  0.00     0.124 S 
ATOM     70  O   UNL A   1      41.331  40.608  26.902  1.00  0.00    -0.237 OA
ATOM     71  O   UNL A   1      43.487  41.441  27.777  1.00  0.00    -0.237 OA
ATOM     72  O   UNL A   1      43.373  40.435  25.528  1.00  0.00    -0.744 OA
ENDBRANCH  68  69
ENDBRANCH  49  63
BRANCH  50  73
ATOM     73  C   UNL A   1      44.920  27.367  32.763  1.00  0.00    -0.014 A 
ATOM     74  C   UNL A   1      44.657  26.222  31.989  1.00  0.00     0.010 A 
ATOM     75  C   UNL A   1      45.365  27.205  34.089  1.00  0.00     0.010 A 
ATOM     76  C   UNL A   1      44.818  24.944  32.535  1.00  0.00     0.020 A 
ATOM     77  C   UNL A   1      45.556  25.930  34.627  1.00  0.00     0.020 A 
ATOM     78  C   UNL A   1      45.270  24.806  33.851  1.00  0.00     0.054 A 
BRANCH  78  79
ATOM     79  S   UNL A   1      45.515  23.138  34.521  1.00  0.00     0.124 S 
ATOM     80  O   UNL A   1      45.019  22.297  33.436  1.00  0.00    -0.237 OA
ATOM     81  O   UNL A   1      46.959  23.097  34.744  1.00  0.00    -0.237 OA
ATOM     82  O   UNL A   1      44.704  23.134  35.737  1.00  0.00    -0.744 OA
ENDBRANCH  78  79
ENDBRANCH  50  73
BRANCH  62  83
ATOM     83  C   UNL A   1      49.213  32.003  29.781  1.00  0.00    -0.014 A 
ATOM     84  C   UNL A   1      49.748  31.561  28.558  1.00  0.00     0.010 A 
ATOM     85  C   UNL A   1      50.086  32.523  30.758  1.00  0.00     0.010 A 
ATOM     86  C   UNL A   1      51.127  31.610  28.328  1.00  0.00     0.020 A 
ATOM     87  C   UNL A   1      51.461  32.602  30.520  1.00  0.00     0.020 A 
ATOM     88  C   UNL A   1      51.974  32.132  29.310  1.00  0.00     0.054 A 
BRANCH  88  89
ATOM     89  S   UNL A   1      53.755  32.226  28.970  1.00  0.00     0.124 S 
ATOM     90  O   UNL A   1      54.227  30.932  29.456  1.00  0.00    -0.237 OA
ATOM     91  O   UNL A   1      53.793  32.406  27.521  1.00  0.00    -0.237 OA
ATOM     92  O   UNL A   1      54.197  33.382  29.748  1.00  0.00    -0.744 OA
ENDBRANCH  88  89
ENDBRANCH  62  83
ENDBRANCH  36  37
ENDBRANCH  29  31
ENDBRANCH  28  29
ENDBRANCH  27  28
ENDBRANCH  26  27
ENDBRANCH  25  26
ENDBRANCH   1  25
TORSDOF 23
ENDMDL
MODEL 3
REMARK VINA RESULT:      -7.8      5.490     13.974
REMARK SMILES C[NH2+][C@]1(C(=O)OCCOCCOCCOC(=O)c2ccc(-c3c4nc(c(-c5ccc(S(=O)(=O)[O-])cc5)c5ccc([nH]5)c(-c5ccc(S(=O)(=O)[O-])cc5)c5nc(c(-c6ccc(S(=O)(=O)[O-])cc6)c6ccc3[nH]6)C=C5)C=C4)cc2)CC[C@H](SC2CCCCC2)C1
REMARK SMILES IDX 11 1 10 2 9 3 8 4 7 5 6 6 4 7 5 8 3 9 78 10 88 11 79 12
REMARK SMILES IDX 80 13 2 14 1 15 81 18 82 19 83 20 87 21 84 22 86 23 85 24
REMARK SMILES IDX 12 25 13 26 14 27 15 28 16 29 17 30 18 31 19 32 77 33 20 34
REMARK SMILES IDX 76 35 21 36 22 37 23 38 70 39 24 40 75 41 69 42 71 43 25 44
REMARK SMILES IDX 74 45 68 46 67 47 26 49 56 50 37 51 55 52 38 53 41 54 54 55
REMARK SMILES IDX 72 56 39 57 40 58 53 60 73 61 42 62 27 63 28 64 36 65 29 66
REMARK SMILES IDX 35 67 30 68 31 69 32 70 33 71 34 72 57 73 58 74 66 75 59 76
REMARK SMILES IDX 65 77 60 78 61 79 62 80 63 81 64 82 43 83 44 84 52 85 45 86
REMARK SMILES IDX 51 87 46 88 47 89 48 90 49 91 50 92
REMARK H PARENT 2 16 2 17 71 48 41 59
REMARK Flexibility Score: inf
ROOT
ATOM      1  C   UNL A   1      46.463  21.718  24.382  1.00  0.00     0.188 C 
ENDROOT
BRANCH   1   2
ATOM      2  C   UNL A   1      45.456  20.849  25.139  1.00  0.00     0.188 C 
BRANCH   2   3
ATOM      3  O   UNL A   1      44.454  20.175  24.392  1.00  0.00    -0.376 OA
BRANCH   3   4
ATOM      4  C   UNL A   1      43.420  19.487  25.090  1.00  0.00     0.202 C 
BRANCH   4   5
ATOM      5  C   UNL A   1      42.895  20.053  26.424  1.00  0.00     0.261 C 
BRANCH   5   6
ATOM      6  O   UNL A   1      42.223  21.327  26.334  1.00  0.00    -0.459 OA
BRANCH   6   7
ATOM      7  C   UNL A   1      41.755  21.857  27.500  1.00  0.00     0.368 C 
ATOM      8  O   UNL A   1      40.809  21.389  28.127  1.00  0.00    -0.245 OA
BRANCH   7   9
ATOM      9  C   UNL A   1      42.519  23.128  27.973  1.00  0.00     0.195 C 
ATOM     10  C   UNL A   1      43.904  23.439  27.385  1.00  0.00     0.082 C 
ATOM     11  C   UNL A   1      41.743  24.349  27.424  1.00  0.00     0.095 C 
ATOM     12  C   UNL A   1      44.091  24.940  27.570  1.00  0.00     0.022 C 
ATOM     13  C   UNL A   1      42.693  25.557  27.537  1.00  0.00     0.054 C 
BRANCH   9  14
ATOM     14  N   UNL A   1      42.537  23.227  29.456  1.00  0.00    -0.335 N 
ATOM     15  C   UNL A   1      43.793  22.924  30.117  1.00  0.00     0.331 C 
ATOM     16  H   UNL A   1      42.280  24.182  29.705  1.00  0.00     0.347 HD
ATOM     17  H   UNL A   1      41.885  22.512  29.780  1.00  0.00     0.347 HD
ENDBRANCH   9  14
BRANCH  13  18
ATOM     18  S   UNL A   1      42.296  26.557  29.027  1.00  0.00    -0.155 SA
BRANCH  18  19
ATOM     19  C   UNL A   1      40.724  27.404  28.594  1.00  0.00     0.047 C 
ATOM     20  C   UNL A   1      39.897  27.880  29.794  1.00  0.00     0.014 C 
ATOM     21  C   UNL A   1      40.941  28.524  27.574  1.00  0.00     0.014 C 
ATOM     22  C   UNL A   1      38.569  28.489  29.348  1.00  0.00     0.001 C 
ATOM     23  C   UNL A   1      39.609  29.138  27.145  1.00  0.00     0.001 C 
ATOM     24  C   UNL A   1      38.799  29.618  28.346  1.00  0.00     0.000 C 
ENDBRANCH  18  19
ENDBRANCH  13  18
ENDBRANCH   7   9
ENDBRANCH   6   7
ENDBRANCH   5   6
ENDBRANCH   4   5
ENDBRANCH   3   4
ENDBRANCH   2   3
ENDBRANCH   1   2
BRANCH   1  25
ATOM     25  O   UNL A   1      45.966  22.931  23.880  1.00  0.00    -0.376 OA
BRANCH  25  26
ATOM     26  C   UNL A   1      46.005  24.097  24.675  1.00  0.00     0.202 C 
BRANCH  26  27
ATOM     27  C   UNL A   1      47.208  25.054  24.719  1.00  0.00     0.261 C 
BRANCH  27  28
ATOM     28  O   UNL A   1      47.110  26.303  24.024  1.00  0.00    -0.460 OA
BRANCH  28  29
ATOM     29  C   UNL A   1      47.911  27.314  24.434  1.00  0.00     0.338 C 
ATOM     30  O   UNL A   1      48.918  27.718  23.875  1.00  0.00    -0.246 OA
BRANCH  29  31
ATOM     31  C   UNL A   1      47.231  27.993  25.566  1.00  0.00     0.060 A 
ATOM     32  C   UNL A   1      48.001  28.704  26.498  1.00  0.00     0.016 A 
ATOM     33  C   UNL A   1      45.841  27.947  25.697  1.00  0.00     0.016 A 
ATOM     34  C   UNL A   1      47.383  29.342  27.579  1.00  0.00     0.010 A 
ATOM     35  C   UNL A   1      45.227  28.569  26.789  1.00  0.00     0.010 A 
ATOM     36  C   UNL A   1      45.996  29.245  27.753  1.00  0.00    -0.014 A 
BRANCH  36  37
ATOM     37  C   UNL A   1      45.363  29.679  29.027  1.00  0.00     0.031 A 
ATOM     38  C   UNL A   1      44.826  31.083  29.117  1.00  0.00     0.074 A 
ATOM     39  C   UNL A   1      45.272  28.859  30.092  1.00  0.00     0.049 A 
ATOM     40  N   UNL A   1      44.294  31.706  30.137  1.00  0.00    -0.248 NA
ATOM     41  C   UNL A   1      44.900  31.891  27.888  1.00  0.00     0.031 C 
ATOM     42  C   UNL A   1      45.708  27.465  30.131  1.00  0.00     0.029 A 
ATOM     43  N   UNL A   1      44.787  29.096  31.356  1.00  0.00    -0.354 N 
ATOM     44  C   UNL A   1      43.978  32.979  29.677  1.00  0.00     0.074 A 
ATOM     45  C   UNL A   1      44.402  33.049  28.296  1.00  0.00     0.031 C 
ATOM     46  C   UNL A   1      45.484  26.973  31.363  1.00  0.00     0.029 A 
ATOM     47  C   UNL A   1      44.922  28.026  32.210  1.00  0.00     0.049 A 
ATOM     48  H   UNL A   1      44.381  29.951  31.625  1.00  0.00     0.167 HD
ATOM     49  C   UNL A   1      43.385  34.000  30.342  1.00  0.00     0.031 A 
ATOM     50  C   UNL A   1      44.650  27.916  33.527  1.00  0.00     0.031 A 
ATOM     51  C   UNL A   1      42.987  33.945  31.724  1.00  0.00     0.049 A 
ATOM     52  C   UNL A   1      44.076  29.098  34.271  1.00  0.00     0.074 A 
ATOM     53  C   UNL A   1      42.372  34.929  32.480  1.00  0.00     0.029 A 
ATOM     54  N   UNL A   1      43.176  32.857  32.561  1.00  0.00    -0.354 N 
ATOM     55  N   UNL A   1      43.755  30.286  33.817  1.00  0.00    -0.248 NA
ATOM     56  C   UNL A   1      43.821  28.918  35.709  1.00  0.00     0.031 C 
ATOM     57  C   UNL A   1      42.250  34.458  33.791  1.00  0.00     0.029 A 
ATOM     58  C   UNL A   1      42.719  33.156  33.835  1.00  0.00     0.049 A 
ATOM     59  H   UNL A   1      43.576  31.999  32.291  1.00  0.00     0.167 HD
ATOM     60  C   UNL A   1      43.228  30.981  34.903  1.00  0.00     0.074 A 
ATOM     61  C   UNL A   1      43.264  30.078  36.034  1.00  0.00     0.031 C 
ATOM     62  C   UNL A   1      42.755  32.251  34.957  1.00  0.00     0.031 A 
BRANCH  49  63
ATOM     63  C   UNL A   1      43.169  35.287  29.588  1.00  0.00    -0.014 A 
ATOM     64  C   UNL A   1      44.147  36.298  29.575  1.00  0.00     0.010 A 
ATOM     65  C   UNL A   1      41.985  35.470  28.851  1.00  0.00     0.010 A 
ATOM     66  C   UNL A   1      43.927  37.486  28.872  1.00  0.00     0.020 A 
ATOM     67  C   UNL A   1      41.775  36.643  28.122  1.00  0.00     0.020 A 
ATOM     68  C   UNL A   1      42.740  37.652  28.151  1.00  0.00     0.054 A 
BRANCH  68  69
ATOM     69  S   UNL A   1      42.490  39.195  27.234  1.00  0.00     0.124 S 
ATOM     70  O   UNL A   1      41.269  38.906  26.486  1.00  0.00    -0.237 OA
ATOM     71  O   UNL A   1      42.353  40.183  28.302  1.00  0.00    -0.237 OA
ATOM     72  O   UNL A   1      43.700  39.320  26.425  1.00  0.00    -0.744 OA
ENDBRANCH  68  69
ENDBRANCH  49  63
BRANCH  50  73
ATOM     73  C   UNL A   1      44.938  26.642  34.246  1.00  0.00    -0.014 A 
ATOM     74  C   UNL A   1      43.937  25.668  34.415  1.00  0.00     0.010 A 
ATOM     75  C   UNL A   1      46.216  26.405  34.788  1.00  0.00     0.010 A 
ATOM     76  C   UNL A   1      44.203  24.492  35.124  1.00  0.00     0.020 A 
ATOM     77  C   UNL A   1      46.494  25.218  35.471  1.00  0.00     0.020 A 
ATOM     78  C   UNL A   1      45.482  24.273  35.645  1.00  0.00     0.054 A 
BRANCH  78  79
ATOM     79  S   UNL A   1      45.815  22.720  36.522  1.00  0.00     0.124 S 
ATOM     80  O   UNL A   1      45.412  23.047  37.886  1.00  0.00    -0.237 OA
ATOM     81  O   UNL A   1      44.956  21.770  35.819  1.00  0.00    -0.237 OA
ATOM     82  O   UNL A   1      47.248  22.516  36.325  1.00  0.00    -0.744 OA
ENDBRANCH  78  79
ENDBRANCH  50  73
BRANCH  62  83
ATOM     83  C   UNL A   1      42.189  32.739  36.267  1.00  0.00    -0.014 A 
ATOM     84  C   UNL A   1      42.974  33.454  37.190  1.00  0.00     0.010 A 
ATOM     85  C   UNL A   1      40.825  32.533  36.551  1.00  0.00     0.010 A 
ATOM     86  C   UNL A   1      42.414  33.926  38.382  1.00  0.00     0.020 A 
ATOM     87  C   UNL A   1      40.254  33.030  37.726  1.00  0.00     0.020 A 
ATOM     88  C   UNL A   1      41.057  33.712  38.641  1.00  0.00     0.054 A 
BRANCH  88  89
ATOM     89  S   UNL A   1      40.344  34.374  40.174  1.00  0.00     0.124 S 
ATOM     90  O   UNL A   1      41.534  34.609  40.987  1.00  0.00    -0.237 OA
ATOM     91  O   UNL A   1      39.652  35.575  39.711  1.00  0.00    -0.237 OA
ATOM     92  O   UNL A   1      39.470  33.301  40.643  1.00  0.00    -0.744 OA
ENDBRANCH  88  89
ENDBRANCH  62  83
ENDBRANCH  36  37
ENDBRANCH  29  31
ENDBRANCH  28  29
ENDBRANCH  27  28
ENDBRANCH  26  27
ENDBRANCH  25  26
ENDBRANCH   1  25
TORSDOF 23
ENDMDL
