MODEL 1
REMARK VINA RESULT:      -9.0      0.000      0.000
REMARK SMILES CCCN1C(=O)/C(=C\c2ccc(OC)c(OC)c2C(=O)OCCOCCOCCOC(=O)c2ccc(-c3c4nc(c(-c5ccc(S(=O)(=O)[O-])cc5)c5ccc([nH]5)c(-c5ccc(S(=O)(=O)[O-])cc5)c5nc(c(-c6ccc(S(=O)(=O)[O-])cc6)c6ccc3[nH]6)C=C5)C=C4)cc2)S/C1=[NH+]\c1nccs1
REMARK SMILES IDX 25 1 24 2 23 3 22 4 21 5 19 6 20 7 18 8 9 9 10 10 11 11
REMARK SMILES IDX 15 12 12 13 8 14 4 15 5 16 94 17 6 18 7 19 93 20 95 21 3 23
REMARK SMILES IDX 2 24 1 25 96 26 97 27 100 28 98 29 99 30 16 31 17 32 13 33
REMARK SMILES IDX 14 34 26 35 27 36 28 37 29 38 30 39 31 40 32 41 33 42 34 43
REMARK SMILES IDX 92 44 35 45 91 46 36 47 37 48 38 49 85 50 39 51 90 52 84 53
REMARK SMILES IDX 86 54 40 55 89 56 83 57 82 58 41 60 71 61 52 62 70 63 53 64
REMARK SMILES IDX 56 65 69 66 87 67 54 68 55 69 68 71 88 72 57 73 42 74 43 75
REMARK SMILES IDX 51 76 44 77 50 78 45 79 46 80 47 81 48 82 49 83 72 84 73 85
REMARK SMILES IDX 81 86 74 87 80 88 75 89 76 90 77 91 78 92 79 93 58 94 59 95
REMARK SMILES IDX 67 96 60 97 66 98 61 99 62 100 63 101 64 102 65 103
REMARK H PARENT 95 22 86 59 56 70
REMARK Flexibility Score: inf
ROOT
ATOM      1  C   UNL A   1      36.541  21.746  24.715  1.00  0.00     0.188 C 
ENDROOT
BRANCH   1   2
ATOM      2  O   UNL A   1      36.767  22.952  23.995  1.00  0.00    -0.376 OA
BRANCH   2   3
ATOM      3  C   UNL A   1      36.063  23.063  22.764  1.00  0.00     0.202 C 
BRANCH   3   4
ATOM      4  C   UNL A   1      34.582  23.365  22.963  1.00  0.00     0.261 C 
BRANCH   4   5
ATOM      5  O   UNL A   1      34.273  24.761  22.815  1.00  0.00    -0.460 OA
BRANCH   5   6
ATOM      6  C   UNL A   1      33.289  25.127  21.954  1.00  0.00     0.342 C 
ATOM      7  O   UNL A   1      33.325  24.912  20.763  1.00  0.00    -0.246 OA
BRANCH   6   8
ATOM      8  C   UNL A   1      32.165  25.757  22.741  1.00  0.00     0.113 A 
ATOM      9  C   UNL A   1      31.140  24.964  23.349  1.00  0.00    -0.006 A 
ATOM     10  C   UNL A   1      30.108  25.596  24.050  1.00  0.00     0.013 A 
ATOM     11  C   UNL A   1      30.098  26.980  24.188  1.00  0.00     0.051 A 
ATOM     12  C   UNL A   1      32.131  27.169  22.882  1.00  0.00     0.175 A 
ATOM     13  C   UNL A   1      31.098  27.777  23.621  1.00  0.00     0.161 A 
BRANCH   9  14
ATOM     14  C   UNL A   1      31.052  23.485  23.312  1.00  0.00     0.032 C 
ATOM     15  N   UNL A   1      32.722  22.324  26.187  1.00  0.00    -0.219 N 
ATOM     16  C   UNL A   1      31.761  23.174  25.685  1.00  0.00     0.321 C 
ATOM     17  C   UNL A   1      32.813  21.097  25.557  1.00  0.00     0.271 C 
ATOM     18  O   UNL A   1      31.296  24.178  26.188  1.00  0.00    -0.250 OA
ATOM     19  C   UNL A   1      31.339  22.687  24.349  1.00  0.00     0.100 C 
ATOM     20  S   UNL A   1      31.639  21.001  24.245  1.00  0.00    -0.012 SA
ATOM     21  N   UNL A   1      33.662  20.202  25.942  1.00  0.00    -0.228 N 
ATOM     22  H   UNL A   1      34.260  20.366  26.707  1.00  0.00     0.268 HD
BRANCH  15  23
ATOM     23  C   UNL A   1      33.637  22.670  27.278  1.00  0.00     0.206 C 
BRANCH  23  24
ATOM     24  C   UNL A   1      34.887  23.491  26.959  1.00  0.00     0.035 C 
ATOM     25  C   UNL A   1      34.588  24.758  26.171  1.00  0.00     0.007 C 
ENDBRANCH  23  24
ENDBRANCH  15  23
BRANCH  21  26
ATOM     26  C   UNL A   1      33.707  19.034  25.262  1.00  0.00     0.319 A 
ATOM     27  N   UNL A   1      34.548  18.698  24.305  1.00  0.00    -0.101 NA
ATOM     28  S   UNL A   1      32.601  17.780  25.710  1.00  0.00    -0.070 S 
ATOM     29  C   UNL A   1      34.282  17.420  23.855  1.00  0.00     0.219 A 
ATOM     30  C   UNL A   1      33.258  16.766  24.498  1.00  0.00     0.110 A 
ENDBRANCH  21  26
ENDBRANCH   9  14
BRANCH  12  31
ATOM     31  O   UNL A   1      33.159  27.947  22.416  1.00  0.00    -0.492 OA
ATOM     32  C   UNL A   1      34.122  28.277  23.416  1.00  0.00     0.278 C 
ENDBRANCH  12  31
BRANCH  13  33
ATOM     33  O   UNL A   1      30.909  29.099  23.922  1.00  0.00    -0.493 OA
ATOM     34  C   UNL A   1      31.336  29.604  25.177  1.00  0.00     0.278 C 
ENDBRANCH  13  33
ENDBRANCH   6   8
ENDBRANCH   5   6
ENDBRANCH   4   5
ENDBRANCH   3   4
ENDBRANCH   2   3
ENDBRANCH   1   2
BRANCH   1  35
ATOM     35  C   UNL A   1      37.738  20.771  24.715  1.00  0.00     0.188 C 
BRANCH  35  36
ATOM     36  O   UNL A   1      38.810  20.936  25.632  1.00  0.00    -0.376 OA
BRANCH  36  37
ATOM     37  C   UNL A   1      39.685  19.844  25.862  1.00  0.00     0.202 C 
BRANCH  37  38
ATOM     38  C   UNL A   1      41.033  20.142  26.530  1.00  0.00     0.261 C 
BRANCH  38  39
ATOM     39  O   UNL A   1      41.160  21.474  27.059  1.00  0.00    -0.460 OA
BRANCH  39  40
ATOM     40  C   UNL A   1      41.870  22.338  26.291  1.00  0.00     0.338 C 
ATOM     41  O   UNL A   1      42.357  22.112  25.195  1.00  0.00    -0.246 OA
BRANCH  40  42
ATOM     42  C   UNL A   1      41.831  23.699  26.877  1.00  0.00     0.060 A 
ATOM     43  C   UNL A   1      41.784  24.792  25.998  1.00  0.00     0.016 A 
ATOM     44  C   UNL A   1      41.908  23.912  28.255  1.00  0.00     0.016 A 
ATOM     45  C   UNL A   1      41.863  26.096  26.488  1.00  0.00     0.010 A 
ATOM     46  C   UNL A   1      42.012  25.221  28.744  1.00  0.00     0.010 A 
ATOM     47  C   UNL A   1      42.030  26.316  27.861  1.00  0.00    -0.014 A 
BRANCH  47  48
ATOM     48  C   UNL A   1      42.431  27.664  28.341  1.00  0.00     0.031 A 
ATOM     49  C   UNL A   1      43.897  28.009  28.369  1.00  0.00     0.074 A 
ATOM     50  C   UNL A   1      41.523  28.583  28.716  1.00  0.00     0.049 A 
ATOM     51  N   UNL A   1      44.482  29.111  28.761  1.00  0.00    -0.248 NA
ATOM     52  C   UNL A   1      44.825  26.969  27.893  1.00  0.00     0.031 C 
ATOM     53  C   UNL A   1      40.075  28.396  28.698  1.00  0.00     0.029 A 
ATOM     54  N   UNL A   1      41.693  29.861  29.190  1.00  0.00    -0.354 N 
ATOM     55  C   UNL A   1      45.846  28.896  28.587  1.00  0.00     0.074 A 
ATOM     56  C   UNL A   1      45.999  27.549  28.079  1.00  0.00     0.031 C 
ATOM     57  C   UNL A   1      39.485  29.521  29.142  1.00  0.00     0.029 A 
ATOM     58  C   UNL A   1      40.516  30.493  29.510  1.00  0.00     0.049 A 
ATOM     59  H   UNL A   1      42.576  30.285  29.291  1.00  0.00     0.167 HD
ATOM     60  C   UNL A   1      46.878  29.739  28.825  1.00  0.00     0.031 A 
ATOM     61  C   UNL A   1      40.294  31.705  30.057  1.00  0.00     0.031 A 
ATOM     62  C   UNL A   1      46.734  31.070  29.350  1.00  0.00     0.049 A 
ATOM     63  C   UNL A   1      41.462  32.600  30.389  1.00  0.00     0.074 A 
ATOM     64  C   UNL A   1      47.722  32.002  29.616  1.00  0.00     0.029 A 
ATOM     65  N   UNL A   1      45.527  31.656  29.701  1.00  0.00    -0.354 N 
ATOM     66  N   UNL A   1      42.743  32.389  30.198  1.00  0.00    -0.248 NA
ATOM     67  C   UNL A   1      41.152  33.897  31.009  1.00  0.00     0.031 C 
ATOM     68  C   UNL A   1      47.118  33.131  30.180  1.00  0.00     0.029 A 
ATOM     69  C   UNL A   1      45.747  32.925  30.208  1.00  0.00     0.049 A 
ATOM     70  H   UNL A   1      44.644  31.231  29.605  1.00  0.00     0.167 HD
ATOM     71  C   UNL A   1      43.389  33.538  30.647  1.00  0.00     0.074 A 
ATOM     72  C   UNL A   1      42.357  34.443  31.111  1.00  0.00     0.031 C 
ATOM     73  C   UNL A   1      44.715  33.820  30.668  1.00  0.00     0.031 A 
BRANCH  60  74
ATOM     74  C   UNL A   1      48.264  29.221  28.553  1.00  0.00    -0.014 A 
ATOM     75  C   UNL A   1      49.017  28.590  29.560  1.00  0.00     0.010 A 
ATOM     76  C   UNL A   1      48.818  29.357  27.267  1.00  0.00     0.010 A 
ATOM     77  C   UNL A   1      50.316  28.148  29.299  1.00  0.00     0.020 A 
ATOM     78  C   UNL A   1      50.106  28.891  26.995  1.00  0.00     0.020 A 
ATOM     79  C   UNL A   1      50.856  28.309  28.018  1.00  0.00     0.054 A 
BRANCH  79  80
ATOM     80  S   UNL A   1      52.544  27.727  27.705  1.00  0.00     0.124 S 
ATOM     81  O   UNL A   1      52.339  26.289  27.544  1.00  0.00    -0.237 OA
ATOM     82  O   UNL A   1      52.912  28.448  26.489  1.00  0.00    -0.237 OA
ATOM     83  O   UNL A   1      53.276  28.121  28.907  1.00  0.00    -0.744 OA
ENDBRANCH  79  80
ENDBRANCH  60  74
BRANCH  61  84
ATOM     84  C   UNL A   1      38.901  32.146  30.345  1.00  0.00    -0.014 A 
ATOM     85  C   UNL A   1      38.253  31.749  31.528  1.00  0.00     0.010 A 
ATOM     86  C   UNL A   1      38.214  32.965  29.431  1.00  0.00     0.010 A 
ATOM     87  C   UNL A   1      36.940  32.156  31.787  1.00  0.00     0.020 A 
ATOM     88  C   UNL A   1      36.911  33.394  29.699  1.00  0.00     0.020 A 
ATOM     89  C   UNL A   1      36.278  32.978  30.871  1.00  0.00     0.054 A 
BRANCH  89  90
ATOM     90  S   UNL A   1      34.596  33.541  31.256  1.00  0.00     0.124 S 
ATOM     91  O   UNL A   1      34.134  32.508  32.176  1.00  0.00    -0.237 OA
ATOM     92  O   UNL A   1      34.831  34.856  31.845  1.00  0.00    -0.237 OA
ATOM     93  O   UNL A   1      33.937  33.560  29.951  1.00  0.00    -0.744 OA
ENDBRANCH  89  90
ENDBRANCH  61  84
BRANCH  73  94
ATOM     94  C   UNL A   1      45.137  35.175  31.175  1.00  0.00    -0.014 A 
ATOM     95  C   UNL A   1      45.485  35.377  32.522  1.00  0.00     0.010 A 
ATOM     96  C   UNL A   1      45.248  36.248  30.271  1.00  0.00     0.010 A 
ATOM     97  C   UNL A   1      45.912  36.635  32.961  1.00  0.00     0.020 A 
ATOM     98  C   UNL A   1      45.699  37.499  30.700  1.00  0.00     0.020 A 
ATOM     99  C   UNL A   1      46.016  37.689  32.046  1.00  0.00     0.054 A 
BRANCH  99 100
ATOM    100  S   UNL A   1      46.617  39.298  32.631  1.00  0.00     0.124 S 
ATOM    101  O   UNL A   1      46.491  39.162  34.079  1.00  0.00    -0.237 OA
ATOM    102  O   UNL A   1      47.984  39.336  32.120  1.00  0.00    -0.237 OA
ATOM    103  O   UNL A   1      45.701  40.254  32.013  1.00  0.00    -0.744 OA
ENDBRANCH  99 100
ENDBRANCH  73  94
ENDBRANCH  47  48
ENDBRANCH  40  42
ENDBRANCH  39  40
ENDBRANCH  38  39
ENDBRANCH  37  38
ENDBRANCH  36  37
ENDBRANCH  35  36
ENDBRANCH   1  35
TORSDOF 26
ENDMDL
MODEL 2
REMARK VINA RESULT:      -8.7      4.762      5.689
REMARK SMILES CCCN1C(=O)/C(=C\c2ccc(OC)c(OC)c2C(=O)OCCOCCOCCOC(=O)c2ccc(-c3c4nc(c(-c5ccc(S(=O)(=O)[O-])cc5)c5ccc([nH]5)c(-c5ccc(S(=O)(=O)[O-])cc5)c5nc(c(-c6ccc(S(=O)(=O)[O-])cc6)c6ccc3[nH]6)C=C5)C=C4)cc2)S/C1=[NH+]\c1nccs1
REMARK SMILES IDX 25 1 24 2 23 3 22 4 21 5 19 6 20 7 18 8 9 9 10 10 11 11
REMARK SMILES IDX 15 12 12 13 8 14 4 15 5 16 94 17 6 18 7 19 93 20 95 21 3 23
REMARK SMILES IDX 2 24 1 25 96 26 97 27 100 28 98 29 99 30 16 31 17 32 13 33
REMARK SMILES IDX 14 34 26 35 27 36 28 37 29 38 30 39 31 40 32 41 33 42 34 43
REMARK SMILES IDX 92 44 35 45 91 46 36 47 37 48 38 49 85 50 39 51 90 52 84 53
REMARK SMILES IDX 86 54 40 55 89 56 83 57 82 58 41 60 71 61 52 62 70 63 53 64
REMARK SMILES IDX 56 65 69 66 87 67 54 68 55 69 68 71 88 72 57 73 42 74 43 75
REMARK SMILES IDX 51 76 44 77 50 78 45 79 46 80 47 81 48 82 49 83 72 84 73 85
REMARK SMILES IDX 81 86 74 87 80 88 75 89 76 90 77 91 78 92 79 93 58 94 59 95
REMARK SMILES IDX 67 96 60 97 66 98 61 99 62 100 63 101 64 102 65 103
REMARK H PARENT 95 22 86 59 56 70
REMARK Flexibility Score: inf
ROOT
ATOM      1  C   UNL A   1      36.363  21.669  24.482  1.00  0.00     0.188 C 
ENDROOT
BRANCH   1   2
ATOM      2  O   UNL A   1      36.204  22.610  23.428  1.00  0.00    -0.376 OA
BRANCH   2   3
ATOM      3  C   UNL A   1      34.857  22.923  23.094  1.00  0.00     0.202 C 
BRANCH   3   4
ATOM      4  C   UNL A   1      34.444  24.311  23.570  1.00  0.00     0.261 C 
BRANCH   4   5
ATOM      5  O   UNL A   1      34.396  25.275  22.505  1.00  0.00    -0.460 OA
BRANCH   5   6
ATOM      6  C   UNL A   1      33.298  25.318  21.709  1.00  0.00     0.342 C 
ATOM      7  O   UNL A   1      33.255  24.837  20.598  1.00  0.00    -0.246 OA
BRANCH   6   8
ATOM      8  C   UNL A   1      32.174  25.985  22.465  1.00  0.00     0.113 A 
ATOM      9  C   UNL A   1      31.096  25.228  23.025  1.00  0.00    -0.006 A 
ATOM     10  C   UNL A   1      30.067  25.894  23.699  1.00  0.00     0.013 A 
ATOM     11  C   UNL A   1      30.110  27.275  23.858  1.00  0.00     0.051 A 
ATOM     12  C   UNL A   1      32.195  27.395  22.626  1.00  0.00     0.175 A 
ATOM     13  C   UNL A   1      31.163  28.037  23.338  1.00  0.00     0.161 A 
BRANCH   9  14
ATOM     14  C   UNL A   1      30.947  23.755  22.963  1.00  0.00     0.032 C 
ATOM     15  N   UNL A   1      32.134  22.512  26.037  1.00  0.00    -0.219 N 
ATOM     16  C   UNL A   1      31.295  23.407  25.410  1.00  0.00     0.321 C 
ATOM     17  C   UNL A   1      32.259  21.284  25.415  1.00  0.00     0.271 C 
ATOM     18  O   UNL A   1      30.808  24.430  25.850  1.00  0.00    -0.250 OA
ATOM     19  C   UNL A   1      31.046  22.942  24.024  1.00  0.00     0.100 C 
ATOM     20  S   UNL A   1      31.281  21.245  23.948  1.00  0.00    -0.012 SA
ATOM     21  N   UNL A   1      33.003  20.350  25.909  1.00  0.00    -0.228 N 
ATOM     22  H   UNL A   1      33.491  20.484  26.753  1.00  0.00     0.268 HD
BRANCH  15  23
ATOM     23  C   UNL A   1      32.898  22.813  27.250  1.00  0.00     0.206 C 
BRANCH  23  24
ATOM     24  C   UNL A   1      34.020  23.850  27.176  1.00  0.00     0.035 C 
ATOM     25  C   UNL A   1      35.379  23.243  26.858  1.00  0.00     0.007 C 
ENDBRANCH  23  24
ENDBRANCH  15  23
BRANCH  21  26
ATOM     26  C   UNL A   1      33.091  19.182  25.232  1.00  0.00     0.319 A 
ATOM     27  N   UNL A   1      32.117  18.333  24.973  1.00  0.00    -0.101 NA
ATOM     28  S   UNL A   1      34.619  18.743  24.548  1.00  0.00    -0.070 S 
ATOM     29  C   UNL A   1      32.595  17.255  24.256  1.00  0.00     0.219 A 
ATOM     30  C   UNL A   1      33.932  17.301  23.934  1.00  0.00     0.110 A 
ENDBRANCH  21  26
ENDBRANCH   9  14
BRANCH  12  31
ATOM     31  O   UNL A   1      33.271  28.134  22.207  1.00  0.00    -0.492 OA
ATOM     32  C   UNL A   1      34.113  28.568  23.275  1.00  0.00     0.278 C 
ENDBRANCH  12  31
BRANCH  13  33
ATOM     33  O   UNL A   1      31.019  29.362  23.652  1.00  0.00    -0.493 OA
ATOM     34  C   UNL A   1      29.724  29.938  23.696  1.00  0.00     0.278 C 
ENDBRANCH  13  33
ENDBRANCH   6   8
ENDBRANCH   5   6
ENDBRANCH   4   5
ENDBRANCH   3   4
ENDBRANCH   2   3
ENDBRANCH   1   2
BRANCH   1  35
ATOM     35  C   UNL A   1      37.790  21.095  24.613  1.00  0.00     0.188 C 
BRANCH  35  36
ATOM     36  O   UNL A   1      38.865  21.912  25.054  1.00  0.00    -0.376 OA
BRANCH  36  37
ATOM     37  C   UNL A   1      39.140  21.988  26.443  1.00  0.00     0.202 C 
BRANCH  37  38
ATOM     38  C   UNL A   1      40.095  23.090  26.919  1.00  0.00     0.261 C 
BRANCH  38  39
ATOM     39  O   UNL A   1      39.447  24.286  27.388  1.00  0.00    -0.460 OA
BRANCH  39  40
ATOM     40  C   UNL A   1      40.075  25.447  27.073  1.00  0.00     0.338 C 
ATOM     41  O   UNL A   1      40.651  25.707  26.030  1.00  0.00    -0.246 OA
BRANCH  40  42
ATOM     42  C   UNL A   1      39.814  26.471  28.113  1.00  0.00     0.060 A 
ATOM     43  C   UNL A   1      40.510  27.686  28.028  1.00  0.00     0.016 A 
ATOM     44  C   UNL A   1      38.961  26.227  29.191  1.00  0.00     0.016 A 
ATOM     45  C   UNL A   1      40.393  28.639  29.040  1.00  0.00     0.010 A 
ATOM     46  C   UNL A   1      38.863  27.175  30.219  1.00  0.00     0.010 A 
ATOM     47  C   UNL A   1      39.608  28.367  30.168  1.00  0.00    -0.014 A 
BRANCH  47  48
ATOM     48  C   UNL A   1      39.737  29.227  31.372  1.00  0.00     0.031 A 
ATOM     49  C   UNL A   1      40.892  28.982  32.309  1.00  0.00     0.074 A 
ATOM     50  C   UNL A   1      38.875  30.227  31.625  1.00  0.00     0.049 A 
ATOM     51  N   UNL A   1      41.198  29.592  33.425  1.00  0.00    -0.248 NA
ATOM     52  C   UNL A   1      41.822  27.904  31.935  1.00  0.00     0.031 C 
ATOM     53  C   UNL A   1      37.741  30.599  30.783  1.00  0.00     0.029 A 
ATOM     54  N   UNL A   1      38.821  31.113  32.674  1.00  0.00    -0.354 N 
ATOM     55  C   UNL A   1      42.351  28.968  33.891  1.00  0.00     0.074 A 
ATOM     56  C   UNL A   1      42.671  27.916  32.950  1.00  0.00     0.031 C 
ATOM     57  C   UNL A   1      37.101  31.639  31.347  1.00  0.00     0.029 A 
ATOM     58  C   UNL A   1      37.758  31.982  32.609  1.00  0.00     0.049 A 
ATOM     59  H   UNL A   1      39.482  31.125  33.403  1.00  0.00     0.167 HD
ATOM     60  C   UNL A   1      43.078  29.243  34.999  1.00  0.00     0.031 A 
ATOM     61  C   UNL A   1      37.348  32.929  33.478  1.00  0.00     0.031 A 
ATOM     62  C   UNL A   1      42.752  30.272  35.949  1.00  0.00     0.049 A 
ATOM     63  C   UNL A   1      38.128  33.166  34.747  1.00  0.00     0.074 A 
ATOM     64  C   UNL A   1      43.437  30.630  37.098  1.00  0.00     0.029 A 
ATOM     65  N   UNL A   1      41.643  31.100  35.870  1.00  0.00    -0.354 N 
ATOM     66  N   UNL A   1      39.227  32.582  35.161  1.00  0.00    -0.248 NA
ATOM     67  C   UNL A   1      37.611  34.194  35.663  1.00  0.00     0.031 C 
ATOM     68  C   UNL A   1      42.711  31.639  37.742  1.00  0.00     0.029 A 
ATOM     69  C   UNL A   1      41.608  31.950  36.963  1.00  0.00     0.049 A 
ATOM     70  H   UNL A   1      40.979  31.086  35.143  1.00  0.00     0.167 HD
ATOM     71  C   UNL A   1      39.549  33.191  36.372  1.00  0.00     0.074 A 
ATOM     72  C   UNL A   1      38.533  34.195  36.617  1.00  0.00     0.031 C 
ATOM     73  C   UNL A   1      40.593  32.946  37.201  1.00  0.00     0.031 A 
BRANCH  60  74
ATOM     74  C   UNL A   1      44.284  28.381  35.259  1.00  0.00    -0.014 A 
ATOM     75  C   UNL A   1      45.555  28.740  34.777  1.00  0.00     0.010 A 
ATOM     76  C   UNL A   1      44.144  27.199  36.008  1.00  0.00     0.010 A 
ATOM     77  C   UNL A   1      46.655  27.908  34.998  1.00  0.00     0.020 A 
ATOM     78  C   UNL A   1      45.247  26.378  36.255  1.00  0.00     0.020 A 
ATOM     79  C   UNL A   1      46.492  26.727  35.729  1.00  0.00     0.054 A 
BRANCH  79  80
ATOM     80  S   UNL A   1      47.936  25.664  36.003  1.00  0.00     0.124 S 
ATOM     81  O   UNL A   1      47.627  25.069  37.301  1.00  0.00    -0.237 OA
ATOM     82  O   UNL A   1      47.883  24.751  34.864  1.00  0.00    -0.237 OA
ATOM     83  O   UNL A   1      49.060  26.599  35.997  1.00  0.00    -0.744 OA
ENDBRANCH  79  80
ENDBRANCH  60  74
BRANCH  61  84
ATOM     84  C   UNL A   1      36.121  33.721  33.188  1.00  0.00    -0.014 A 
ATOM     85  C   UNL A   1      36.198  34.924  32.465  1.00  0.00     0.010 A 
ATOM     86  C   UNL A   1      34.866  33.274  33.639  1.00  0.00     0.010 A 
ATOM     87  C   UNL A   1      35.043  35.671  32.207  1.00  0.00     0.020 A 
ATOM     88  C   UNL A   1      33.707  34.004  33.362  1.00  0.00     0.020 A 
ATOM     89  C   UNL A   1      33.804  35.204  32.655  1.00  0.00     0.054 A 
BRANCH  89  90
ATOM     90  S   UNL A   1      32.313  36.159  32.258  1.00  0.00     0.124 S 
ATOM     91  O   UNL A   1      32.240  37.087  33.381  1.00  0.00    -0.237 OA
ATOM     92  O   UNL A   1      32.651  36.750  30.967  1.00  0.00    -0.237 OA
ATOM     93  O   UNL A   1      31.261  35.144  32.214  1.00  0.00    -0.744 OA
ENDBRANCH  89  90
ENDBRANCH  61  84
BRANCH  73  94
ATOM     94  C   UNL A   1      40.722  33.795  38.439  1.00  0.00    -0.014 A 
ATOM     95  C   UNL A   1      41.465  34.988  38.434  1.00  0.00     0.010 A 
ATOM     96  C   UNL A   1      40.032  33.423  39.608  1.00  0.00     0.010 A 
ATOM     97  C   UNL A   1      41.538  35.780  39.586  1.00  0.00     0.020 A 
ATOM     98  C   UNL A   1      40.081  34.224  40.752  1.00  0.00     0.020 A 
ATOM     99  C   UNL A   1      40.845  35.392  40.737  1.00  0.00     0.054 A 
BRANCH  99 100
ATOM    100  S   UNL A   1      40.917  36.460  42.202  1.00  0.00     0.124 S 
ATOM    101  O   UNL A   1      40.431  35.570  43.253  1.00  0.00    -0.237 OA
ATOM    102  O   UNL A   1      42.333  36.809  42.278  1.00  0.00    -0.237 OA
ATOM    103  O   UNL A   1      40.026  37.569  41.865  1.00  0.00    -0.744 OA
ENDBRANCH  99 100
ENDBRANCH  73  94
ENDBRANCH  47  48
ENDBRANCH  40  42
ENDBRANCH  39  40
ENDBRANCH  38  39
ENDBRANCH  37  38
ENDBRANCH  36  37
ENDBRANCH  35  36
ENDBRANCH   1  35
TORSDOF 26
ENDMDL
MODEL 3
REMARK VINA RESULT:      -7.8      5.482      8.320
REMARK SMILES CCCN1C(=O)/C(=C\c2ccc(OC)c(OC)c2C(=O)OCCOCCOCCOC(=O)c2ccc(-c3c4nc(c(-c5ccc(S(=O)(=O)[O-])cc5)c5ccc([nH]5)c(-c5ccc(S(=O)(=O)[O-])cc5)c5nc(c(-c6ccc(S(=O)(=O)[O-])cc6)c6ccc3[nH]6)C=C5)C=C4)cc2)S/C1=[NH+]\c1nccs1
REMARK SMILES IDX 25 1 24 2 23 3 22 4 21 5 19 6 20 7 18 8 9 9 10 10 11 11
REMARK SMILES IDX 15 12 12 13 8 14 4 15 5 16 94 17 6 18 7 19 93 20 95 21 3 23
REMARK SMILES IDX 2 24 1 25 96 26 97 27 100 28 98 29 99 30 16 31 17 32 13 33
REMARK SMILES IDX 14 34 26 35 27 36 28 37 29 38 30 39 31 40 32 41 33 42 34 43
REMARK SMILES IDX 92 44 35 45 91 46 36 47 37 48 38 49 85 50 39 51 90 52 84 53
REMARK SMILES IDX 86 54 40 55 89 56 83 57 82 58 41 60 71 61 52 62 70 63 53 64
REMARK SMILES IDX 56 65 69 66 87 67 54 68 55 69 68 71 88 72 57 73 42 74 43 75
REMARK SMILES IDX 51 76 44 77 50 78 45 79 46 80 47 81 48 82 49 83 72 84 73 85
REMARK SMILES IDX 81 86 74 87 80 88 75 89 76 90 77 91 78 92 79 93 58 94 59 95
REMARK SMILES IDX 67 96 60 97 66 98 61 99 62 100 63 101 64 102 65 103
REMARK H PARENT 95 22 86 59 56 70
REMARK Flexibility Score: inf
ROOT
ATOM      1  C   UNL A   1      36.338  21.740  24.483  1.00  0.00     0.188 C 
ENDROOT
BRANCH   1   2
ATOM      2  O   UNL A   1      36.239  22.699  23.437  1.00  0.00    -0.376 OA
BRANCH   2   3
ATOM      3  C   UNL A   1      34.914  23.065  23.075  1.00  0.00     0.202 C 
BRANCH   3   4
ATOM      4  C   UNL A   1      34.493  24.404  23.669  1.00  0.00     0.261 C 
BRANCH   4   5
ATOM      5  O   UNL A   1      34.302  25.421  22.672  1.00  0.00    -0.460 OA
BRANCH   5   6
ATOM      6  C   UNL A   1      33.216  25.350  21.861  1.00  0.00     0.342 C 
ATOM      7  O   UNL A   1      33.249  24.916  20.731  1.00  0.00    -0.246 OA
BRANCH   6   8
ATOM      8  C   UNL A   1      32.005  25.826  22.628  1.00  0.00     0.113 A 
ATOM      9  C   UNL A   1      31.037  24.907  23.143  1.00  0.00    -0.006 A 
ATOM     10  C   UNL A   1      29.921  25.398  23.829  1.00  0.00     0.013 A 
ATOM     11  C   UNL A   1      29.772  26.765  24.041  1.00  0.00     0.051 A 
ATOM     12  C   UNL A   1      31.831  27.218  22.843  1.00  0.00     0.175 A 
ATOM     13  C   UNL A   1      30.715  27.683  23.564  1.00  0.00     0.161 A 
BRANCH   9  14
ATOM     14  C   UNL A   1      31.092  23.431  23.023  1.00  0.00     0.032 C 
ATOM     15  N   UNL A   1      32.139  22.223  26.161  1.00  0.00    -0.219 N 
ATOM     16  C   UNL A   1      31.251  23.027  25.482  1.00  0.00     0.321 C 
ATOM     17  C   UNL A   1      32.485  21.049  25.519  1.00  0.00     0.271 C 
ATOM     18  O   UNL A   1      30.593  23.958  25.901  1.00  0.00    -0.250 OA
ATOM     19  C   UNL A   1      31.199  22.593  24.064  1.00  0.00     0.100 C 
ATOM     20  S   UNL A   1      31.664  20.946  23.961  1.00  0.00    -0.012 SA
ATOM     21  N   UNL A   1      33.297  20.199  26.056  1.00  0.00    -0.228 N 
ATOM     22  H   UNL A   1      33.681  20.359  26.948  1.00  0.00     0.268 HD
BRANCH  15  23
ATOM     23  C   UNL A   1      32.738  22.568  27.453  1.00  0.00     0.206 C 
BRANCH  23  24
ATOM     24  C   UNL A   1      34.254  22.442  27.619  1.00  0.00     0.035 C 
ATOM     25  C   UNL A   1      35.023  23.610  27.020  1.00  0.00     0.007 C 
ENDBRANCH  23  24
ENDBRANCH  15  23
BRANCH  21  26
ATOM     26  C   UNL A   1      33.604  19.083  25.357  1.00  0.00     0.319 A 
ATOM     27  N   UNL A   1      34.617  18.909  24.533  1.00  0.00    -0.101 NA
ATOM     28  S   UNL A   1      32.627  17.673  25.591  1.00  0.00    -0.070 S 
ATOM     29  C   UNL A   1      34.600  17.632  24.009  1.00  0.00     0.219 A 
ATOM     30  C   UNL A   1      33.591  16.816  24.466  1.00  0.00     0.110 A 
ENDBRANCH  21  26
ENDBRANCH   9  14
BRANCH  12  31
ATOM     31  O   UNL A   1      32.798  28.114  22.467  1.00  0.00    -0.492 OA
ATOM     32  C   UNL A   1      33.624  28.546  23.548  1.00  0.00     0.278 C 
ENDBRANCH  12  31
BRANCH  13  33
ATOM     33  O   UNL A   1      30.387  28.962  23.927  1.00  0.00    -0.493 OA
ATOM     34  C   UNL A   1      29.967  29.889  22.939  1.00  0.00     0.278 C 
ENDBRANCH  13  33
ENDBRANCH   6   8
ENDBRANCH   5   6
ENDBRANCH   4   5
ENDBRANCH   3   4
ENDBRANCH   2   3
ENDBRANCH   1   2
BRANCH   1  35
ATOM     35  C   UNL A   1      37.674  20.967  24.514  1.00  0.00     0.188 C 
BRANCH  35  36
ATOM     36  O   UNL A   1      38.369  20.764  25.736  1.00  0.00    -0.376 OA
BRANCH  36  37
ATOM     37  C   UNL A   1      39.560  19.996  25.724  1.00  0.00     0.202 C 
BRANCH  37  38
ATOM     38  C   UNL A   1      40.811  20.614  26.360  1.00  0.00     0.261 C 
BRANCH  38  39
ATOM     39  O   UNL A   1      40.590  21.235  27.640  1.00  0.00    -0.460 OA
BRANCH  39  40
ATOM     40  C   UNL A   1      40.462  22.586  27.614  1.00  0.00     0.338 C 
ATOM     41  O   UNL A   1      39.478  23.221  27.276  1.00  0.00    -0.246 OA
BRANCH  40  42
ATOM     42  C   UNL A   1      41.642  23.226  28.244  1.00  0.00     0.060 A 
ATOM     43  C   UNL A   1      41.656  24.625  28.344  1.00  0.00     0.016 A 
ATOM     44  C   UNL A   1      42.746  22.483  28.668  1.00  0.00     0.016 A 
ATOM     45  C   UNL A   1      42.788  25.288  28.819  1.00  0.00     0.010 A 
ATOM     46  C   UNL A   1      43.891  23.150  29.123  1.00  0.00     0.010 A 
ATOM     47  C   UNL A   1      43.932  24.556  29.164  1.00  0.00    -0.014 A 
BRANCH  47  48
ATOM     48  C   UNL A   1      45.222  25.267  29.359  1.00  0.00     0.031 A 
ATOM     49  C   UNL A   1      45.634  25.634  30.761  1.00  0.00     0.074 A 
ATOM     50  C   UNL A   1      46.035  25.557  28.328  1.00  0.00     0.049 A 
ATOM     51  N   UNL A   1      46.702  26.268  31.172  1.00  0.00    -0.248 NA
ATOM     52  C   UNL A   1      44.716  25.235  31.840  1.00  0.00     0.031 C 
ATOM     53  C   UNL A   1      45.780  25.222  26.930  1.00  0.00     0.029 A 
ATOM     54  N   UNL A   1      47.246  26.206  28.304  1.00  0.00    -0.354 N 
ATOM     55  C   UNL A   1      46.582  26.350  32.556  1.00  0.00     0.074 A 
ATOM     56  C   UNL A   1      45.324  25.725  32.908  1.00  0.00     0.031 C 
ATOM     57  C   UNL A   1      46.803  25.669  26.181  1.00  0.00     0.029 A 
ATOM     58  C   UNL A   1      47.768  26.354  27.042  1.00  0.00     0.049 A 
ATOM     59  H   UNL A   1      47.697  26.536  29.115  1.00  0.00     0.167 HD
ATOM     60  C   UNL A   1      47.437  26.893  33.454  1.00  0.00     0.031 A 
ATOM     61  C   UNL A   1      48.884  26.987  26.626  1.00  0.00     0.031 A 
ATOM     62  C   UNL A   1      48.676  27.535  33.108  1.00  0.00     0.049 A 
ATOM     63  C   UNL A   1      49.784  27.656  27.634  1.00  0.00     0.074 A 
ATOM     64  C   UNL A   1      49.614  28.106  33.952  1.00  0.00     0.029 A 
ATOM     65  N   UNL A   1      49.148  27.701  31.815  1.00  0.00    -0.354 N 
ATOM     66  N   UNL A   1      49.667  27.705  28.940  1.00  0.00    -0.248 NA
ATOM     67  C   UNL A   1      50.970  28.351  27.111  1.00  0.00     0.031 C 
ATOM     68  C   UNL A   1      50.626  28.668  33.164  1.00  0.00     0.029 A 
ATOM     69  C   UNL A   1      50.348  28.391  31.834  1.00  0.00     0.049 A 
ATOM     70  H   UNL A   1      48.696  27.376  31.003  1.00  0.00     0.167 HD
ATOM     71  C   UNL A   1      50.777  28.412  29.395  1.00  0.00     0.074 A 
ATOM     72  C   UNL A   1      51.558  28.761  28.227  1.00  0.00     0.031 C 
ATOM     73  C   UNL A   1      51.120  28.736  30.666  1.00  0.00     0.031 A 
BRANCH  60  74
ATOM     74  C   UNL A   1      47.031  26.848  34.902  1.00  0.00    -0.014 A 
ATOM     75  C   UNL A   1      47.519  25.852  35.766  1.00  0.00     0.010 A 
ATOM     76  C   UNL A   1      46.156  27.827  35.408  1.00  0.00     0.010 A 
ATOM     77  C   UNL A   1      47.101  25.806  37.098  1.00  0.00     0.020 A 
ATOM     78  C   UNL A   1      45.758  27.800  36.747  1.00  0.00     0.020 A 
ATOM     79  C   UNL A   1      46.216  26.777  37.579  1.00  0.00     0.054 A 
BRANCH  79  80
ATOM     80  S   UNL A   1      45.690  26.695  39.312  1.00  0.00     0.124 S 
ATOM     81  O   UNL A   1      46.960  26.479  40.000  1.00  0.00    -0.237 OA
ATOM     82  O   UNL A   1      45.077  28.004  39.524  1.00  0.00    -0.237 OA
ATOM     83  O   UNL A   1      44.765  25.564  39.341  1.00  0.00    -0.744 OA
ENDBRANCH  79  80
ENDBRANCH  60  74
BRANCH  61  84
ATOM     84  C   UNL A   1      49.212  27.036  25.174  1.00  0.00    -0.014 A 
ATOM     85  C   UNL A   1      50.485  26.660  24.712  1.00  0.00     0.010 A 
ATOM     86  C   UNL A   1      48.248  27.467  24.244  1.00  0.00     0.010 A 
ATOM     87  C   UNL A   1      50.791  26.721  23.348  1.00  0.00     0.020 A 
ATOM     88  C   UNL A   1      48.542  27.505  22.878  1.00  0.00     0.020 A 
ATOM     89  C   UNL A   1      49.815  27.141  22.440  1.00  0.00     0.054 A 
BRANCH  89  90
ATOM     90  S   UNL A   1      50.216  27.157  20.669  1.00  0.00     0.124 S 
ATOM     91  O   UNL A   1      51.361  26.255  20.610  1.00  0.00    -0.237 OA
ATOM     92  O   UNL A   1      48.984  26.659  20.063  1.00  0.00    -0.237 OA
ATOM     93  O   UNL A   1      50.510  28.563  20.400  1.00  0.00    -0.744 OA
ENDBRANCH  89  90
ENDBRANCH  61  84
BRANCH  73  94
ATOM     94  C   UNL A   1      52.415  29.478  30.877  1.00  0.00    -0.014 A 
ATOM     95  C   UNL A   1      52.452  30.882  30.940  1.00  0.00     0.010 A 
ATOM     96  C   UNL A   1      53.604  28.752  31.078  1.00  0.00     0.010 A 
ATOM     97  C   UNL A   1      53.660  31.547  31.176  1.00  0.00     0.020 A 
ATOM     98  C   UNL A   1      54.807  29.412  31.339  1.00  0.00     0.020 A 
ATOM     99  C   UNL A   1      54.831  30.807  31.373  1.00  0.00     0.054 A 
BRANCH  99 100
ATOM    100  S   UNL A   1      56.376  31.691  31.724  1.00  0.00     0.124 S 
ATOM    101  O   UNL A   1      56.665  31.268  33.091  1.00  0.00    -0.237 OA
ATOM    102  O   UNL A   1      57.282  31.175  30.702  1.00  0.00    -0.237 OA
ATOM    103  O   UNL A   1      56.011  33.098  31.570  1.00  0.00    -0.744 OA
ENDBRANCH  99 100
ENDBRANCH  73  94
ENDBRANCH  47  48
ENDBRANCH  40  42
ENDBRANCH  39  40
ENDBRANCH  38  39
ENDBRANCH  37  38
ENDBRANCH  36  37
ENDBRANCH  35  36
ENDBRANCH   1  35
TORSDOF 26
ENDMDL
