MODEL 1
REMARK VINA RESULT:     -10.0      0.000      0.000
REMARK SMILES O=C(CN(CC(=O)OCCOCCOCCOC(=O)c1ccc(-c2c3nc(c(-c4ccc(S(=O)(=O)[O-])cc4)c4ccc([nH]4)c(-c4ccc(S(=O)(=O)[O-])cc4)c4nc(c(-c5ccc(S(=O)(=O)[O-])cc5)c5ccc2[nH]5)C=C4)C=C3)cc1)c1ccccc1)NCc1ccccc1
REMARK SMILES IDX 12 1 11 2 10 3 9 4 8 5 6 6 7 7 5 8 4 9 3 10 2 11 1 12 86 13
REMARK SMILES IDX 87 15 88 16 89 17 93 18 90 19 92 20 91 21 80 22 81 23 85 24
REMARK SMILES IDX 82 25 84 26 83 27 13 28 14 29 15 30 16 31 17 32 18 33 19 34
REMARK SMILES IDX 20 35 21 36 79 37 22 38 78 39 23 40 24 41 25 42 72 43 26 44
REMARK SMILES IDX 77 45 71 46 73 47 27 48 76 49 70 50 69 51 28 53 58 54 39 55
REMARK SMILES IDX 57 56 40 57 43 58 56 59 74 60 41 61 42 62 55 64 75 65 44 66
REMARK SMILES IDX 29 67 30 68 38 69 31 70 37 71 32 72 33 73 34 74 35 75 36 76
REMARK SMILES IDX 59 77 60 78 68 79 61 80 67 81 62 82 63 83 64 84 65 85 66 86
REMARK SMILES IDX 45 87 46 88 54 89 47 90 53 91 48 92 49 93 50 94 51 95 52 96
REMARK H PARENT 86 14 73 52 43 63
REMARK Flexibility Score: inf
ROOT
ATOM      1  C   UNL A   1      34.195  21.352  25.090  1.00  0.00     0.188 C 
ENDROOT
BRANCH   1   2
ATOM      2  O   UNL A   1      33.144  21.081  24.166  1.00  0.00    -0.376 OA
BRANCH   2   3
ATOM      3  C   UNL A   1      32.722  22.118  23.287  1.00  0.00     0.202 C 
BRANCH   3   4
ATOM      4  C   UNL A   1      33.756  23.220  23.029  1.00  0.00     0.261 C 
BRANCH   4   5
ATOM      5  O   UNL A   1      33.275  24.506  23.462  1.00  0.00    -0.462 OA
BRANCH   5   6
ATOM      6  C   UNL A   1      33.089  25.450  22.501  1.00  0.00     0.325 C 
ATOM      7  O   UNL A   1      33.971  25.842  21.744  1.00  0.00    -0.250 OA
BRANCH   6   8
ATOM      8  C   UNL A   1      31.619  25.877  22.361  1.00  0.00     0.239 C 
BRANCH   8   9
ATOM      9  N   UNL A   1      31.031  26.519  23.551  1.00  0.00    -0.351 N 
BRANCH   9  10
ATOM     10  C   UNL A   1      29.856  25.905  24.211  1.00  0.00     0.217 C 
BRANCH  10  11
ATOM     11  C   UNL A   1      28.531  26.670  23.977  1.00  0.00     0.239 C 
ATOM     12  O   UNL A   1      27.448  26.235  24.368  1.00  0.00    -0.273 OA
ATOM     13  N   UNL A   1      28.659  27.885  23.338  1.00  0.00    -0.350 N 
ATOM     14  H   UNL A   1      29.556  28.278  23.244  1.00  0.00     0.163 HD
BRANCH  13  15
ATOM     15  C   UNL A   1      27.528  28.606  22.800  1.00  0.00     0.151 C 
BRANCH  15  16
ATOM     16  C   UNL A   1      27.865  30.042  22.519  1.00  0.00    -0.029 A 
ATOM     17  C   UNL A   1      28.141  30.479  21.215  1.00  0.00     0.005 A 
ATOM     18  C   UNL A   1      27.914  30.965  23.572  1.00  0.00     0.005 A 
ATOM     19  C   UNL A   1      28.442  31.820  20.971  1.00  0.00     0.000 A 
ATOM     20  C   UNL A   1      28.214  32.304  23.325  1.00  0.00     0.000 A 
ATOM     21  C   UNL A   1      28.477  32.731  22.025  1.00  0.00     0.000 A 
ENDBRANCH  15  16
ENDBRANCH  13  15
ENDBRANCH  10  11
ENDBRANCH   9  10
BRANCH   9  22
ATOM     22  C   UNL A   1      31.829  27.329  24.358  1.00  0.00     0.038 A 
ATOM     23  C   UNL A   1      32.451  28.461  23.817  1.00  0.00     0.026 A 
ATOM     24  C   UNL A   1      32.007  27.084  25.727  1.00  0.00     0.026 A 
ATOM     25  C   UNL A   1      33.248  29.298  24.606  1.00  0.00     0.002 A 
ATOM     26  C   UNL A   1      32.749  27.954  26.534  1.00  0.00     0.002 A 
ATOM     27  C   UNL A   1      33.386  29.052  25.968  1.00  0.00     0.000 A 
ENDBRANCH   9  22
ENDBRANCH   8   9
ENDBRANCH   6   8
ENDBRANCH   5   6
ENDBRANCH   4   5
ENDBRANCH   3   4
ENDBRANCH   2   3
ENDBRANCH   1   2
BRANCH   1  28
ATOM     28  C   UNL A   1      35.489  20.538  24.996  1.00  0.00     0.188 C 
BRANCH  28  29
ATOM     29  O   UNL A   1      36.641  21.302  25.327  1.00  0.00    -0.376 OA
BRANCH  29  30
ATOM     30  C   UNL A   1      37.865  20.619  25.081  1.00  0.00     0.202 C 
BRANCH  30  31
ATOM     31  C   UNL A   1      38.989  21.336  25.828  1.00  0.00     0.261 C 
BRANCH  31  32
ATOM     32  O   UNL A   1      39.735  20.444  26.680  1.00  0.00    -0.460 OA
BRANCH  32  33
ATOM     33  C   UNL A   1      41.018  20.213  26.308  1.00  0.00     0.338 C 
ATOM     34  O   UNL A   1      41.439  19.256  25.689  1.00  0.00    -0.246 OA
BRANCH  33  35
ATOM     35  C   UNL A   1      41.818  21.399  26.677  1.00  0.00     0.060 A 
ATOM     36  C   UNL A   1      42.107  21.647  28.025  1.00  0.00     0.016 A 
ATOM     37  C   UNL A   1      42.257  22.276  25.689  1.00  0.00     0.016 A 
ATOM     38  C   UNL A   1      42.826  22.785  28.395  1.00  0.00     0.010 A 
ATOM     39  C   UNL A   1      42.974  23.417  26.062  1.00  0.00     0.010 A 
ATOM     40  C   UNL A   1      43.251  23.687  27.415  1.00  0.00    -0.014 A 
BRANCH  40  41
ATOM     41  C   UNL A   1      43.904  24.970  27.773  1.00  0.00     0.031 A 
ATOM     42  C   UNL A   1      43.043  26.127  28.196  1.00  0.00     0.074 A 
ATOM     43  C   UNL A   1      45.235  25.127  27.663  1.00  0.00     0.049 A 
ATOM     44  N   UNL A   1      43.352  27.392  28.304  1.00  0.00    -0.248 NA
ATOM     45  C   UNL A   1      41.646  25.812  28.534  1.00  0.00     0.031 C 
ATOM     46  C   UNL A   1      46.193  24.070  27.338  1.00  0.00     0.029 A 
ATOM     47  N   UNL A   1      46.009  26.257  27.778  1.00  0.00    -0.354 N 
ATOM     48  C   UNL A   1      42.179  28.035  28.679  1.00  0.00     0.074 A 
ATOM     49  C   UNL A   1      41.154  27.017  28.788  1.00  0.00     0.031 C 
ATOM     50  C   UNL A   1      47.421  24.608  27.246  1.00  0.00     0.029 A 
ATOM     51  C   UNL A   1      47.327  26.053  27.440  1.00  0.00     0.049 A 
ATOM     52  H   UNL A   1      45.655  27.127  28.073  1.00  0.00     0.167 HD
ATOM     53  C   UNL A   1      41.973  29.355  28.897  1.00  0.00     0.031 A 
ATOM     54  C   UNL A   1      48.328  26.936  27.246  1.00  0.00     0.031 A 
ATOM     55  C   UNL A   1      42.996  30.359  28.784  1.00  0.00     0.049 A 
ATOM     56  C   UNL A   1      48.056  28.410  27.403  1.00  0.00     0.074 A 
ATOM     57  C   UNL A   1      42.890  31.723  28.998  1.00  0.00     0.029 A 
ATOM     58  N   UNL A   1      44.311  30.113  28.421  1.00  0.00    -0.354 N 
ATOM     59  N   UNL A   1      46.940  29.011  27.742  1.00  0.00    -0.248 NA
ATOM     60  C   UNL A   1      49.177  29.325  27.140  1.00  0.00     0.031 C 
ATOM     61  C   UNL A   1      44.127  32.307  28.711  1.00  0.00     0.029 A 
ATOM     62  C   UNL A   1      45.020  31.301  28.377  1.00  0.00     0.049 A 
ATOM     63  H   UNL A   1      44.685  29.225  28.223  1.00  0.00     0.167 HD
ATOM     64  C   UNL A   1      47.231  30.372  27.753  1.00  0.00     0.074 A 
ATOM     65  C   UNL A   1      48.629  30.505  27.400  1.00  0.00     0.031 C 
ATOM     66  C   UNL A   1      46.413  31.418  28.029  1.00  0.00     0.031 A 
BRANCH  53  67
ATOM     67  C   UNL A   1      40.573  29.798  29.226  1.00  0.00    -0.014 A 
ATOM     68  C   UNL A   1      40.223  30.225  30.518  1.00  0.00     0.010 A 
ATOM     69  C   UNL A   1      39.604  29.831  28.206  1.00  0.00     0.010 A 
ATOM     70  C   UNL A   1      38.919  30.646  30.793  1.00  0.00     0.020 A 
ATOM     71  C   UNL A   1      38.306  30.276  28.470  1.00  0.00     0.020 A 
ATOM     72  C   UNL A   1      37.968  30.668  29.767  1.00  0.00     0.054 A 
BRANCH  72  73
ATOM     73  S   UNL A   1      36.292  31.248  30.143  1.00  0.00     0.124 S 
ATOM     74  O   UNL A   1      35.480  30.416  29.258  1.00  0.00    -0.237 OA
ATOM     75  O   UNL A   1      36.164  30.956  31.569  1.00  0.00    -0.237 OA
ATOM     76  O   UNL A   1      36.329  32.668  29.803  1.00  0.00    -0.744 OA
ENDBRANCH  72  73
ENDBRANCH  53  67
BRANCH  54  77
ATOM     77  C   UNL A   1      49.669  26.456  26.815  1.00  0.00    -0.014 A 
ATOM     78  C   UNL A   1      50.017  26.429  25.453  1.00  0.00     0.010 A 
ATOM     79  C   UNL A   1      50.607  26.014  27.768  1.00  0.00     0.010 A 
ATOM     80  C   UNL A   1      51.272  25.960  25.052  1.00  0.00     0.020 A 
ATOM     81  C   UNL A   1      51.872  25.572  27.373  1.00  0.00     0.020 A 
ATOM     82  C   UNL A   1      52.192  25.537  26.015  1.00  0.00     0.054 A 
BRANCH  82  83
ATOM     83  S   UNL A   1      53.835  24.985  25.475  1.00  0.00     0.124 S 
ATOM     84  O   UNL A   1      54.553  24.887  26.742  1.00  0.00    -0.237 OA
ATOM     85  O   UNL A   1      53.539  23.716  24.815  1.00  0.00    -0.237 OA
ATOM     86  O   UNL A   1      54.278  26.054  24.583  1.00  0.00    -0.744 OA
ENDBRANCH  82  83
ENDBRANCH  54  77
BRANCH  66  87
ATOM     87  C   UNL A   1      47.011  32.800  28.002  1.00  0.00    -0.014 A 
ATOM     88  C   UNL A   1      47.791  33.278  29.070  1.00  0.00     0.010 A 
ATOM     89  C   UNL A   1      46.850  33.602  26.858  1.00  0.00     0.010 A 
ATOM     90  C   UNL A   1      48.382  34.543  29.001  1.00  0.00     0.020 A 
ATOM     91  C   UNL A   1      47.460  34.857  26.774  1.00  0.00     0.020 A 
ATOM     92  C   UNL A   1      48.214  35.324  27.853  1.00  0.00     0.054 A 
BRANCH  92  93
ATOM     93  S   UNL A   1      49.039  36.937  27.763  1.00  0.00     0.124 S 
ATOM     94  O   UNL A   1      50.158  36.757  28.685  1.00  0.00    -0.237 OA
ATOM     95  O   UNL A   1      49.400  37.036  26.351  1.00  0.00    -0.237 OA
ATOM     96  O   UNL A   1      48.012  37.877  28.206  1.00  0.00    -0.744 OA
ENDBRANCH  92  93
ENDBRANCH  66  87
ENDBRANCH  40  41
ENDBRANCH  33  35
ENDBRANCH  32  33
ENDBRANCH  31  32
ENDBRANCH  30  31
ENDBRANCH  29  30
ENDBRANCH  28  29
ENDBRANCH   1  28
TORSDOF 26
ENDMDL
MODEL 2
REMARK VINA RESULT:     -10.0      5.874      9.228
REMARK SMILES O=C(CN(CC(=O)OCCOCCOCCOC(=O)c1ccc(-c2c3nc(c(-c4ccc(S(=O)(=O)[O-])cc4)c4ccc([nH]4)c(-c4ccc(S(=O)(=O)[O-])cc4)c4nc(c(-c5ccc(S(=O)(=O)[O-])cc5)c5ccc2[nH]5)C=C4)C=C3)cc1)c1ccccc1)NCc1ccccc1
REMARK SMILES IDX 12 1 11 2 10 3 9 4 8 5 6 6 7 7 5 8 4 9 3 10 2 11 1 12 86 13
REMARK SMILES IDX 87 15 88 16 89 17 93 18 90 19 92 20 91 21 80 22 81 23 85 24
REMARK SMILES IDX 82 25 84 26 83 27 13 28 14 29 15 30 16 31 17 32 18 33 19 34
REMARK SMILES IDX 20 35 21 36 79 37 22 38 78 39 23 40 24 41 25 42 72 43 26 44
REMARK SMILES IDX 77 45 71 46 73 47 27 48 76 49 70 50 69 51 28 53 58 54 39 55
REMARK SMILES IDX 57 56 40 57 43 58 56 59 74 60 41 61 42 62 55 64 75 65 44 66
REMARK SMILES IDX 29 67 30 68 38 69 31 70 37 71 32 72 33 73 34 74 35 75 36 76
REMARK SMILES IDX 59 77 60 78 68 79 61 80 67 81 62 82 63 83 64 84 65 85 66 86
REMARK SMILES IDX 45 87 46 88 54 89 47 90 53 91 48 92 49 93 50 94 51 95 52 96
REMARK H PARENT 86 14 73 52 43 63
REMARK Flexibility Score: inf
ROOT
ATOM      1  C   UNL A   1      41.397  20.015  26.402  1.00  0.00     0.188 C 
ENDROOT
BRANCH   1   2
ATOM      2  O   UNL A   1      40.383  19.221  25.790  1.00  0.00    -0.376 OA
BRANCH   2   3
ATOM      3  C   UNL A   1      39.131  19.827  25.488  1.00  0.00     0.202 C 
BRANCH   3   4
ATOM      4  C   UNL A   1      39.054  21.336  25.743  1.00  0.00     0.261 C 
BRANCH   4   5
ATOM      5  O   UNL A   1      37.697  21.764  25.972  1.00  0.00    -0.462 OA
BRANCH   5   6
ATOM      6  C   UNL A   1      37.115  22.512  24.997  1.00  0.00     0.325 C 
ATOM      7  O   UNL A   1      36.979  22.141  23.836  1.00  0.00    -0.250 OA
BRANCH   6   8
ATOM      8  C   UNL A   1      36.513  23.822  25.531  1.00  0.00     0.239 C 
BRANCH   8   9
ATOM      9  N   UNL A   1      35.040  23.888  25.528  1.00  0.00    -0.351 N 
BRANCH   9  10
ATOM     10  C   UNL A   1      34.278  23.314  26.661  1.00  0.00     0.217 C 
BRANCH  10  11
ATOM     11  C   UNL A   1      33.024  22.513  26.235  1.00  0.00     0.239 C 
ATOM     12  O   UNL A   1      31.905  22.764  26.683  1.00  0.00    -0.273 OA
ATOM     13  N   UNL A   1      33.245  21.532  25.291  1.00  0.00    -0.350 N 
ATOM     14  H   UNL A   1      34.105  21.521  24.813  1.00  0.00     0.163 HD
BRANCH  13  15
ATOM     15  C   UNL A   1      32.265  20.520  24.974  1.00  0.00     0.151 C 
BRANCH  15  16
ATOM     16  C   UNL A   1      32.892  19.320  24.322  1.00  0.00    -0.029 A 
ATOM     17  C   UNL A   1      34.086  18.772  24.813  1.00  0.00     0.005 A 
ATOM     18  C   UNL A   1      32.285  18.741  23.200  1.00  0.00     0.005 A 
ATOM     19  C   UNL A   1      34.650  17.651  24.201  1.00  0.00     0.000 A 
ATOM     20  C   UNL A   1      32.850  17.620  22.591  1.00  0.00     0.000 A 
ATOM     21  C   UNL A   1      34.032  17.076  23.092  1.00  0.00     0.000 A 
ENDBRANCH  15  16
ENDBRANCH  13  15
ENDBRANCH  10  11
ENDBRANCH   9  10
BRANCH   9  22
ATOM     22  C   UNL A   1      34.401  24.901  24.814  1.00  0.00     0.038 A 
ATOM     23  C   UNL A   1      34.067  26.102  25.450  1.00  0.00     0.026 A 
ATOM     24  C   UNL A   1      34.110  24.787  23.448  1.00  0.00     0.026 A 
ATOM     25  C   UNL A   1      33.435  27.140  24.755  1.00  0.00     0.002 A 
ATOM     26  C   UNL A   1      33.538  25.846  22.733  1.00  0.00     0.002 A 
ATOM     27  C   UNL A   1      33.183  27.017  23.392  1.00  0.00     0.000 A 
ENDBRANCH   9  22
ENDBRANCH   8   9
ENDBRANCH   6   8
ENDBRANCH   5   6
ENDBRANCH   4   5
ENDBRANCH   3   4
ENDBRANCH   2   3
ENDBRANCH   1   2
BRANCH   1  28
ATOM     28  C   UNL A   1      42.786  20.061  25.759  1.00  0.00     0.188 C 
BRANCH  28  29
ATOM     29  O   UNL A   1      43.441  21.307  25.962  1.00  0.00    -0.376 OA
BRANCH  29  30
ATOM     30  C   UNL A   1      42.741  22.413  25.403  1.00  0.00     0.202 C 
BRANCH  30  31
ATOM     31  C   UNL A   1      43.688  23.609  25.326  1.00  0.00     0.261 C 
BRANCH  31  32
ATOM     32  O   UNL A   1      43.430  24.579  26.362  1.00  0.00    -0.460 OA
BRANCH  32  33
ATOM     33  C   UNL A   1      42.887  25.749  25.949  1.00  0.00     0.338 C 
ATOM     34  O   UNL A   1      42.712  26.109  24.801  1.00  0.00    -0.246 OA
BRANCH  33  35
ATOM     35  C   UNL A   1      42.419  26.480  27.143  1.00  0.00     0.060 A 
ATOM     36  C   UNL A   1      43.057  27.667  27.523  1.00  0.00     0.016 A 
ATOM     37  C   UNL A   1      41.365  25.974  27.900  1.00  0.00     0.016 A 
ATOM     38  C   UNL A   1      42.655  28.350  28.673  1.00  0.00     0.010 A 
ATOM     39  C   UNL A   1      40.966  26.656  29.053  1.00  0.00     0.010 A 
ATOM     40  C   UNL A   1      41.616  27.839  29.456  1.00  0.00    -0.014 A 
BRANCH  40  41
ATOM     41  C   UNL A   1      41.242  28.459  30.750  1.00  0.00     0.031 A 
ATOM     42  C   UNL A   1      40.095  29.428  30.785  1.00  0.00     0.074 A 
ATOM     43  C   UNL A   1      41.952  28.215  31.867  1.00  0.00     0.049 A 
ATOM     44  N   UNL A   1      39.754  30.273  31.720  1.00  0.00    -0.248 NA
ATOM     45  C   UNL A   1      39.222  29.448  29.600  1.00  0.00     0.031 C 
ATOM     46  C   UNL A   1      43.037  27.243  31.991  1.00  0.00     0.029 A 
ATOM     47  N   UNL A   1      41.883  28.802  33.108  1.00  0.00    -0.354 N 
ATOM     48  C   UNL A   1      38.653  30.960  31.223  1.00  0.00     0.074 A 
ATOM     49  C   UNL A   1      38.379  30.426  29.906  1.00  0.00     0.031 C 
ATOM     50  C   UNL A   1      43.556  27.325  33.228  1.00  0.00     0.029 A 
ATOM     51  C   UNL A   1      42.885  28.397  33.959  1.00  0.00     0.049 A 
ATOM     52  H   UNL A   1      41.186  29.450  33.363  1.00  0.00     0.167 HD
ATOM     53  C   UNL A   1      37.946  31.957  31.807  1.00  0.00     0.031 A 
ATOM     54  C   UNL A   1      43.258  28.877  35.164  1.00  0.00     0.031 A 
ATOM     55  C   UNL A   1      38.227  32.484  33.115  1.00  0.00     0.049 A 
ATOM     56  C   UNL A   1      42.517  30.048  35.756  1.00  0.00     0.074 A 
ATOM     57  C   UNL A   1      37.560  33.484  33.800  1.00  0.00     0.029 A 
ATOM     58  N   UNL A   1      39.261  32.059  33.936  1.00  0.00    -0.354 N 
ATOM     59  N   UNL A   1      41.488  30.703  35.272  1.00  0.00    -0.248 NA
ATOM     60  C   UNL A   1      42.996  30.552  37.052  1.00  0.00     0.031 C 
ATOM     61  C   UNL A   1      38.224  33.702  35.012  1.00  0.00     0.029 A 
ATOM     62  C   UNL A   1      39.268  32.796  35.107  1.00  0.00     0.049 A 
ATOM     63  H   UNL A   1      39.896  31.340  33.716  1.00  0.00     0.167 HD
ATOM     64  C   UNL A   1      41.184  31.681  36.215  1.00  0.00     0.074 A 
ATOM     65  C   UNL A   1      42.128  31.524  37.301  1.00  0.00     0.031 C 
ATOM     66  C   UNL A   1      40.211  32.626  36.182  1.00  0.00     0.031 A 
BRANCH  53  67
ATOM     67  C   UNL A   1      36.833  32.583  31.011  1.00  0.00    -0.014 A 
ATOM     68  C   UNL A   1      35.500  32.161  31.155  1.00  0.00     0.010 A 
ATOM     69  C   UNL A   1      37.125  33.646  30.137  1.00  0.00     0.010 A 
ATOM     70  C   UNL A   1      34.483  32.770  30.415  1.00  0.00     0.020 A 
ATOM     71  C   UNL A   1      36.109  34.275  29.414  1.00  0.00     0.020 A 
ATOM     72  C   UNL A   1      34.794  33.823  29.548  1.00  0.00     0.054 A 
BRANCH  72  73
ATOM     73  S   UNL A   1      33.452  34.615  28.621  1.00  0.00     0.124 S 
ATOM     74  O   UNL A   1      34.165  35.664  27.896  1.00  0.00    -0.237 OA
ATOM     75  O   UNL A   1      32.941  33.521  27.799  1.00  0.00    -0.237 OA
ATOM     76  O   UNL A   1      32.542  35.086  29.662  1.00  0.00    -0.744 OA
ENDBRANCH  72  73
ENDBRANCH  53  67
BRANCH  54  77
ATOM     77  C   UNL A   1      44.436  28.294  35.863  1.00  0.00    -0.014 A 
ATOM     78  C   UNL A   1      45.730  28.784  35.617  1.00  0.00     0.010 A 
ATOM     79  C   UNL A   1      44.268  27.237  36.778  1.00  0.00     0.010 A 
ATOM     80  C   UNL A   1      46.835  28.221  36.263  1.00  0.00     0.020 A 
ATOM     81  C   UNL A   1      45.366  26.691  37.448  1.00  0.00     0.020 A 
ATOM     82  C   UNL A   1      46.645  27.180  37.177  1.00  0.00     0.054 A 
BRANCH  82  83
ATOM     83  S   UNL A   1      48.087  26.503  38.046  1.00  0.00     0.124 S 
ATOM     84  O   UNL A   1      47.491  25.423  38.826  1.00  0.00    -0.237 OA
ATOM     85  O   UNL A   1      48.951  26.085  36.944  1.00  0.00    -0.237 OA
ATOM     86  O   UNL A   1      48.584  27.637  38.820  1.00  0.00    -0.744 OA
ENDBRANCH  82  83
ENDBRANCH  54  77
BRANCH  66  87
ATOM     87  C   UNL A   1      40.086  33.541  37.371  1.00  0.00    -0.014 A 
ATOM     88  C   UNL A   1      39.302  33.190  38.484  1.00  0.00     0.010 A 
ATOM     89  C   UNL A   1      40.824  34.739  37.404  1.00  0.00     0.010 A 
ATOM     90  C   UNL A   1      39.243  34.030  39.600  1.00  0.00     0.020 A 
ATOM     91  C   UNL A   1      40.788  35.569  38.527  1.00  0.00     0.020 A 
ATOM     92  C   UNL A   1      39.988  35.214  39.615  1.00  0.00     0.054 A 
BRANCH  92  93
ATOM     93  S   UNL A   1      39.942  36.258  41.098  1.00  0.00     0.124 S 
ATOM     94  O   UNL A   1      41.291  36.819  41.117  1.00  0.00    -0.237 OA
ATOM     95  O   UNL A   1      38.872  37.205  40.791  1.00  0.00    -0.237 OA
ATOM     96  O   UNL A   1      39.643  35.317  42.175  1.00  0.00    -0.744 OA
ENDBRANCH  92  93
ENDBRANCH  66  87
ENDBRANCH  40  41
ENDBRANCH  33  35
ENDBRANCH  32  33
ENDBRANCH  31  32
ENDBRANCH  30  31
ENDBRANCH  29  30
ENDBRANCH  28  29
ENDBRANCH   1  28
TORSDOF 26
ENDMDL
MODEL 3
REMARK VINA RESULT:     -10.0      5.867      9.087
REMARK SMILES O=C(CN(CC(=O)OCCOCCOCCOC(=O)c1ccc(-c2c3nc(c(-c4ccc(S(=O)(=O)[O-])cc4)c4ccc([nH]4)c(-c4ccc(S(=O)(=O)[O-])cc4)c4nc(c(-c5ccc(S(=O)(=O)[O-])cc5)c5ccc2[nH]5)C=C4)C=C3)cc1)c1ccccc1)NCc1ccccc1
REMARK SMILES IDX 12 1 11 2 10 3 9 4 8 5 6 6 7 7 5 8 4 9 3 10 2 11 1 12 86 13
REMARK SMILES IDX 87 15 88 16 89 17 93 18 90 19 92 20 91 21 80 22 81 23 85 24
REMARK SMILES IDX 82 25 84 26 83 27 13 28 14 29 15 30 16 31 17 32 18 33 19 34
REMARK SMILES IDX 20 35 21 36 79 37 22 38 78 39 23 40 24 41 25 42 72 43 26 44
REMARK SMILES IDX 77 45 71 46 73 47 27 48 76 49 70 50 69 51 28 53 58 54 39 55
REMARK SMILES IDX 57 56 40 57 43 58 56 59 74 60 41 61 42 62 55 64 75 65 44 66
REMARK SMILES IDX 29 67 30 68 38 69 31 70 37 71 32 72 33 73 34 74 35 75 36 76
REMARK SMILES IDX 59 77 60 78 68 79 61 80 67 81 62 82 63 83 64 84 65 85 66 86
REMARK SMILES IDX 45 87 46 88 54 89 47 90 53 91 48 92 49 93 50 94 51 95 52 96
REMARK H PARENT 86 14 73 52 43 63
REMARK Flexibility Score: inf
ROOT
ATOM      1  C   UNL A   1      41.321  21.111  26.078  1.00  0.00     0.188 C 
ENDROOT
BRANCH   1   2
ATOM      2  O   UNL A   1      40.030  21.375  26.623  1.00  0.00    -0.376 OA
BRANCH   2   3
ATOM      3  C   UNL A   1      39.117  22.163  25.867  1.00  0.00     0.202 C 
BRANCH   3   4
ATOM      4  C   UNL A   1      37.690  21.608  25.778  1.00  0.00     0.261 C 
BRANCH   4   5
ATOM      5  O   UNL A   1      37.182  21.672  24.432  1.00  0.00    -0.462 OA
BRANCH   5   6
ATOM      6  C   UNL A   1      35.957  22.237  24.263  1.00  0.00     0.325 C 
ATOM      7  O   UNL A   1      35.644  22.924  23.296  1.00  0.00    -0.250 OA
BRANCH   6   8
ATOM      8  C   UNL A   1      34.950  21.809  25.343  1.00  0.00     0.239 C 
BRANCH   8   9
ATOM      9  N   UNL A   1      33.705  21.200  24.842  1.00  0.00    -0.351 N 
BRANCH   9  10
ATOM     10  C   UNL A   1      32.692  22.048  24.171  1.00  0.00     0.217 C 
BRANCH  10  11
ATOM     11  C   UNL A   1      31.950  23.016  25.123  1.00  0.00     0.239 C 
ATOM     12  O   UNL A   1      31.480  22.643  26.198  1.00  0.00    -0.273 OA
ATOM     13  N   UNL A   1      31.891  24.328  24.700  1.00  0.00    -0.350 N 
ATOM     14  H   UNL A   1      32.463  24.608  23.951  1.00  0.00     0.163 HD
BRANCH  13  15
ATOM     15  C   UNL A   1      31.022  25.306  25.312  1.00  0.00     0.151 C 
BRANCH  15  16
ATOM     16  C   UNL A   1      31.799  26.442  25.914  1.00  0.00    -0.029 A 
ATOM     17  C   UNL A   1      33.201  26.435  25.924  1.00  0.00     0.005 A 
ATOM     18  C   UNL A   1      31.118  27.526  26.484  1.00  0.00     0.005 A 
ATOM     19  C   UNL A   1      33.907  27.504  26.478  1.00  0.00     0.000 A 
ATOM     20  C   UNL A   1      31.826  28.594  27.036  1.00  0.00     0.000 A 
ATOM     21  C   UNL A   1      33.220  28.582  27.033  1.00  0.00     0.000 A 
ENDBRANCH  15  16
ENDBRANCH  13  15
ENDBRANCH  10  11
ENDBRANCH   9  10
BRANCH   9  22
ATOM     22  C   UNL A   1      33.691  19.848  24.501  1.00  0.00     0.038 A 
ATOM     23  C   UNL A   1      32.545  19.282  23.931  1.00  0.00     0.026 A 
ATOM     24  C   UNL A   1      34.811  19.021  24.665  1.00  0.00     0.026 A 
ATOM     25  C   UNL A   1      32.507  17.930  23.568  1.00  0.00     0.002 A 
ATOM     26  C   UNL A   1      34.801  17.686  24.243  1.00  0.00     0.002 A 
ATOM     27  C   UNL A   1      33.640  17.136  23.711  1.00  0.00     0.000 A 
ENDBRANCH   9  22
ENDBRANCH   8   9
ENDBRANCH   6   8
ENDBRANCH   5   6
ENDBRANCH   4   5
ENDBRANCH   3   4
ENDBRANCH   2   3
ENDBRANCH   1   2
BRANCH   1  28
ATOM     28  C   UNL A   1      42.507  21.958  26.547  1.00  0.00     0.188 C 
BRANCH  28  29
ATOM     29  O   UNL A   1      42.986  22.834  25.535  1.00  0.00    -0.376 OA
BRANCH  29  30
ATOM     30  C   UNL A   1      43.893  23.819  26.019  1.00  0.00     0.202 C 
BRANCH  30  31
ATOM     31  C   UNL A   1      43.766  25.074  25.156  1.00  0.00     0.261 C 
BRANCH  31  32
ATOM     32  O   UNL A   1      42.495  25.731  25.331  1.00  0.00    -0.460 OA
BRANCH  32  33
ATOM     33  C   UNL A   1      42.534  27.085  25.367  1.00  0.00     0.338 C 
ATOM     34  O   UNL A   1      42.665  27.837  24.422  1.00  0.00    -0.246 OA
BRANCH  33  35
ATOM     35  C   UNL A   1      42.259  27.510  26.754  1.00  0.00     0.060 A 
ATOM     36  C   UNL A   1      41.441  26.721  27.572  1.00  0.00     0.016 A 
ATOM     37  C   UNL A   1      42.791  28.704  27.233  1.00  0.00     0.016 A 
ATOM     38  C   UNL A   1      41.137  27.128  28.872  1.00  0.00     0.010 A 
ATOM     39  C   UNL A   1      42.483  29.113  28.534  1.00  0.00     0.010 A 
ATOM     40  C   UNL A   1      41.643  28.337  29.357  1.00  0.00    -0.014 A 
BRANCH  40  41
ATOM     41  C   UNL A   1      41.243  28.871  30.682  1.00  0.00     0.031 A 
ATOM     42  C   UNL A   1      40.062  29.796  30.762  1.00  0.00     0.074 A 
ATOM     43  C   UNL A   1      41.955  28.590  31.788  1.00  0.00     0.049 A 
ATOM     44  N   UNL A   1      39.687  30.576  31.741  1.00  0.00    -0.248 NA
ATOM     45  C   UNL A   1      39.194  29.852  29.575  1.00  0.00     0.031 C 
ATOM     46  C   UNL A   1      43.073  27.651  31.864  1.00  0.00     0.029 A 
ATOM     47  N   UNL A   1      41.860  29.104  33.058  1.00  0.00    -0.354 N 
ATOM     48  C   UNL A   1      38.565  31.251  31.276  1.00  0.00     0.074 A 
ATOM     49  C   UNL A   1      38.316  30.782  29.929  1.00  0.00     0.031 C 
ATOM     50  C   UNL A   1      43.584  27.682  33.107  1.00  0.00     0.029 A 
ATOM     51  C   UNL A   1      42.872  28.687  33.893  1.00  0.00     0.049 A 
ATOM     52  H   UNL A   1      41.140  29.712  33.345  1.00  0.00     0.167 HD
ATOM     53  C   UNL A   1      37.821  32.188  31.910  1.00  0.00     0.031 A 
ATOM     54  C   UNL A   1      43.222  29.112  35.124  1.00  0.00     0.031 A 
ATOM     55  C   UNL A   1      38.077  32.651  33.247  1.00  0.00     0.049 A 
ATOM     56  C   UNL A   1      42.438  30.221  35.776  1.00  0.00     0.074 A 
ATOM     57  C   UNL A   1      37.372  33.588  33.983  1.00  0.00     0.029 A 
ATOM     58  N   UNL A   1      39.122  32.217  34.050  1.00  0.00    -0.354 N 
ATOM     59  N   UNL A   1      41.389  30.867  35.323  1.00  0.00    -0.248 NA
ATOM     60  C   UNL A   1      42.893  30.668  37.102  1.00  0.00     0.031 C 
ATOM     61  C   UNL A   1      38.023  33.760  35.209  1.00  0.00     0.029 A 
ATOM     62  C   UNL A   1      39.098  32.887  35.260  1.00  0.00     0.049 A 
ATOM     63  H   UNL A   1      39.783  31.534  33.795  1.00  0.00     0.167 HD
ATOM     64  C   UNL A   1      41.047  31.779  36.316  1.00  0.00     0.074 A 
ATOM     65  C   UNL A   1      41.991  31.594  37.398  1.00  0.00     0.031 C 
ATOM     66  C   UNL A   1      40.042  32.690  36.330  1.00  0.00     0.031 A 
BRANCH  53  67
ATOM     67  C   UNL A   1      36.691  32.818  31.143  1.00  0.00    -0.014 A 
ATOM     68  C   UNL A   1      35.352  32.468  31.388  1.00  0.00     0.010 A 
ATOM     69  C   UNL A   1      36.975  33.815  30.191  1.00  0.00     0.010 A 
ATOM     70  C   UNL A   1      34.320  33.080  30.672  1.00  0.00     0.020 A 
ATOM     71  C   UNL A   1      35.945  34.448  29.492  1.00  0.00     0.020 A 
ATOM     72  C   UNL A   1      34.623  34.066  29.727  1.00  0.00     0.054 A 
BRANCH  72  73
ATOM     73  S   UNL A   1      33.263  34.866  28.833  1.00  0.00     0.124 S 
ATOM     74  O   UNL A   1      32.408  35.316  29.929  1.00  0.00    -0.237 OA
ATOM     75  O   UNL A   1      33.945  35.926  28.094  1.00  0.00    -0.237 OA
ATOM     76  O   UNL A   1      32.708  33.794  28.011  1.00  0.00    -0.744 OA
ENDBRANCH  72  73
ENDBRANCH  53  67
BRANCH  54  77
ATOM     77  C   UNL A   1      44.417  28.532  35.798  1.00  0.00    -0.014 A 
ATOM     78  C   UNL A   1      44.291  27.418  36.645  1.00  0.00     0.010 A 
ATOM     79  C   UNL A   1      45.691  29.099  35.598  1.00  0.00     0.010 A 
ATOM     80  C   UNL A   1      45.414  26.889  37.289  1.00  0.00     0.020 A 
ATOM     81  C   UNL A   1      46.819  28.555  36.217  1.00  0.00     0.020 A 
ATOM     82  C   UNL A   1      46.671  27.459  37.069  1.00  0.00     0.054 A 
BRANCH  82  83
ATOM     83  S   UNL A   1      48.122  26.720  37.871  1.00  0.00     0.124 S 
ATOM     84  O   UNL A   1      47.787  26.857  39.285  1.00  0.00    -0.237 OA
ATOM     85  O   UNL A   1      48.111  25.357  37.347  1.00  0.00    -0.237 OA
ATOM     86  O   UNL A   1      49.230  27.550  37.405  1.00  0.00    -0.744 OA
ENDBRANCH  82  83
ENDBRANCH  54  77
BRANCH  66  87
ATOM     87  C   UNL A   1      39.879  33.533  37.568  1.00  0.00    -0.014 A 
ATOM     88  C   UNL A   1      40.407  34.834  37.638  1.00  0.00     0.010 A 
ATOM     89  C   UNL A   1      39.123  33.040  38.646  1.00  0.00     0.010 A 
ATOM     90  C   UNL A   1      40.198  35.620  38.776  1.00  0.00     0.020 A 
ATOM     91  C   UNL A   1      38.889  33.832  39.774  1.00  0.00     0.020 A 
ATOM     92  C   UNL A   1      39.439  35.114  39.836  1.00  0.00     0.054 A 
BRANCH  92  93
ATOM     93  S   UNL A   1      39.131  36.174  41.276  1.00  0.00     0.124 S 
ATOM     94  O   UNL A   1      39.008  37.493  40.660  1.00  0.00    -0.237 OA
ATOM     95  O   UNL A   1      37.896  35.620  41.826  1.00  0.00    -0.237 OA
ATOM     96  O   UNL A   1      40.318  35.983  42.107  1.00  0.00    -0.744 OA
ENDBRANCH  92  93
ENDBRANCH  66  87
ENDBRANCH  40  41
ENDBRANCH  33  35
ENDBRANCH  32  33
ENDBRANCH  31  32
ENDBRANCH  30  31
ENDBRANCH  29  30
ENDBRANCH  28  29
ENDBRANCH   1  28
TORSDOF 26
ENDMDL
