MODEL 1
REMARK VINA RESULT:     -11.4      0.000      0.000
REMARK SMILES Cc1ccn(CC(=O)N2CCC3(CC2)NC(=O)C[C@@H]3C(=O)OCCOCCOCCOC(=O)c2ccc(-c3c4nc(c(-c5ccc(S(=O)(=O)[O-])cc5)c5ccc([nH]5)c(-c5ccc(S(=O)(=O)[O-])cc5)c5nc(c(-c6ccc(S(=O)(=O)[O-])cc6)c6ccc3[nH]6)C=C5)C=C4)cc2)n1
REMARK SMILES IDX 27 1 26 2 25 3 24 4 23 5 22 6 20 7 21 8 19 9 7 10 8 11 9 12
REMARK SMILES IDX 10 13 14 14 11 15 13 16 12 17 15 18 16 19 18 21 17 22 6 23
REMARK SMILES IDX 5 24 1 25 2 26 3 27 94 28 4 29 28 30 29 31 30 32 31 33 32 34
REMARK SMILES IDX 33 35 34 36 35 37 93 38 36 39 92 40 37 41 38 42 39 43 86 44
REMARK SMILES IDX 40 45 91 46 85 47 87 48 41 49 90 50 84 51 83 52 42 54 72 55
REMARK SMILES IDX 53 56 71 57 54 58 57 59 70 60 88 61 55 62 56 63 69 65 89 66
REMARK SMILES IDX 58 67 43 68 44 69 52 70 45 71 51 72 46 73 47 74 48 75 49 76
REMARK SMILES IDX 50 77 73 78 74 79 82 80 75 81 81 82 76 83 77 84 78 85 79 86
REMARK SMILES IDX 80 87 59 88 60 89 68 90 61 91 67 92 62 93 63 94 64 95 65 96
REMARK SMILES IDX 66 97
REMARK H PARENT 15 20 87 53 57 64
REMARK Flexibility Score: inf
ROOT
ATOM      1  C   UNL A   1      37.326  21.609  25.248  1.00  0.00     0.188 C 
ENDROOT
BRANCH   1   2
ATOM      2  C   UNL A   1      36.361  22.770  25.575  1.00  0.00     0.188 C 
BRANCH   2   3
ATOM      3  O   UNL A   1      35.330  22.491  26.507  1.00  0.00    -0.376 OA
BRANCH   3   4
ATOM      4  C   UNL A   1      34.421  23.563  26.751  1.00  0.00     0.202 C 
BRANCH   4   5
ATOM      5  C   UNL A   1      34.568  24.711  25.750  1.00  0.00     0.261 C 
BRANCH   5   6
ATOM      6  O   UNL A   1      33.446  25.610  25.820  1.00  0.00    -0.463 OA
BRANCH   6   7
ATOM      7  C   UNL A   1      33.211  26.435  24.768  1.00  0.00     0.311 C 
ATOM      8  O   UNL A   1      34.021  27.232  24.326  1.00  0.00    -0.252 OA
BRANCH   7   9
ATOM      9  C   UNL A   1      31.806  26.167  24.241  1.00  0.00     0.134 C 
ATOM     10  C   UNL A   1      32.882  21.206  23.669  1.00  0.00     0.244 C 
ATOM     11  O   UNL A   1      34.011  21.003  24.126  1.00  0.00    -0.273 OA
ATOM     12  N   UNL A   1      32.420  22.507  23.457  1.00  0.00    -0.341 N 
ATOM     13  C   UNL A   1      33.425  23.539  23.244  1.00  0.00     0.122 C 
ATOM     14  C   UNL A   1      31.139  22.968  23.984  1.00  0.00     0.122 C 
ATOM     15  C   UNL A   1      32.866  24.654  22.365  1.00  0.00     0.051 C 
ATOM     16  C   UNL A   1      30.576  24.160  23.217  1.00  0.00     0.051 C 
ATOM     17  C   UNL A   1      31.611  25.295  22.973  1.00  0.00     0.057 C 
ATOM     18  N   UNL A   1      31.023  26.227  22.029  1.00  0.00    -0.350 N 
ATOM     19  C   UNL A   1      30.670  27.441  22.553  1.00  0.00     0.221 C 
ATOM     20  H   UNL A   1      30.887  26.001  21.080  1.00  0.00     0.164 HD
ATOM     21  C   UNL A   1      31.117  27.511  23.979  1.00  0.00     0.117 C 
ATOM     22  O   UNL A   1      30.077  28.315  21.945  1.00  0.00    -0.275 OA
BRANCH  10  23
ATOM     23  C   UNL A   1      32.088  20.062  23.074  1.00  0.00     0.244 C 
BRANCH  23  24
ATOM     24  N   UNL A   1      32.535  18.738  23.438  1.00  0.00    -0.263 N 
ATOM     25  C   UNL A   1      32.710  16.215  25.913  1.00  0.00     0.069 C 
ATOM     26  C   UNL A   1      32.777  17.041  24.684  1.00  0.00     0.059 A 
ATOM     27  C   UNL A   1      33.320  16.698  23.424  1.00  0.00     0.045 A 
ATOM     28  N   UNL A   1      32.274  18.281  24.680  1.00  0.00    -0.178 NA
ATOM     29  C   UNL A   1      33.137  17.813  22.639  1.00  0.00     0.109 A 
ENDBRANCH  23  24
ENDBRANCH  10  23
ENDBRANCH   7   9
ENDBRANCH   6   7
ENDBRANCH   5   6
ENDBRANCH   4   5
ENDBRANCH   3   4
ENDBRANCH   2   3
ENDBRANCH   1   2
BRANCH   1  30
ATOM     30  O   UNL A   1      38.601  21.455  25.856  1.00  0.00    -0.376 OA
BRANCH  30  31
ATOM     31  C   UNL A   1      39.348  20.257  25.735  1.00  0.00     0.202 C 
BRANCH  31  32
ATOM     32  C   UNL A   1      40.809  20.273  26.163  1.00  0.00     0.261 C 
BRANCH  32  33
ATOM     33  O   UNL A   1      41.395  21.553  26.025  1.00  0.00    -0.460 OA
BRANCH  33  34
ATOM     34  C   UNL A   1      41.391  22.287  27.162  1.00  0.00     0.338 C 
ATOM     35  O   UNL A   1      41.590  21.896  28.296  1.00  0.00    -0.246 OA
BRANCH  34  36
ATOM     36  C   UNL A   1      41.066  23.679  26.814  1.00  0.00     0.060 A 
ATOM     37  C   UNL A   1      42.116  24.445  26.306  1.00  0.00     0.016 A 
ATOM     38  C   UNL A   1      39.873  24.257  27.276  1.00  0.00     0.016 A 
ATOM     39  C   UNL A   1      42.112  25.792  26.573  1.00  0.00     0.010 A 
ATOM     40  C   UNL A   1      39.872  25.598  27.555  1.00  0.00     0.010 A 
ATOM     41  C   UNL A   1      41.054  26.301  27.327  1.00  0.00    -0.014 A 
BRANCH  41  42
ATOM     42  C   UNL A   1      41.339  27.458  28.147  1.00  0.00     0.031 A 
ATOM     43  C   UNL A   1      42.616  28.132  27.901  1.00  0.00     0.074 A 
ATOM     44  C   UNL A   1      40.395  27.938  28.981  1.00  0.00     0.049 A 
ATOM     45  N   UNL A   1      43.628  28.211  28.698  1.00  0.00    -0.248 NA
ATOM     46  C   UNL A   1      42.839  28.689  26.561  1.00  0.00     0.031 C 
ATOM     47  C   UNL A   1      38.978  27.550  29.036  1.00  0.00     0.029 A 
ATOM     48  N   UNL A   1      40.466  28.985  29.845  1.00  0.00    -0.354 N 
ATOM     49  C   UNL A   1      44.541  29.019  28.037  1.00  0.00     0.074 A 
ATOM     50  C   UNL A   1      44.100  29.102  26.667  1.00  0.00     0.031 C 
ATOM     51  C   UNL A   1      38.289  28.514  29.682  1.00  0.00     0.029 A 
ATOM     52  C   UNL A   1      39.225  29.516  30.166  1.00  0.00     0.049 A 
ATOM     53  H   UNL A   1      41.312  29.332  30.207  1.00  0.00     0.167 HD
ATOM     54  C   UNL A   1      45.437  29.791  28.709  1.00  0.00     0.031 A 
ATOM     55  C   UNL A   1      38.990  30.760  30.652  1.00  0.00     0.031 A 
ATOM     56  C   UNL A   1      45.543  29.436  30.100  1.00  0.00     0.049 A 
ATOM     57  C   UNL A   1      40.260  31.255  31.246  1.00  0.00     0.074 A 
ATOM     58  C   UNL A   1      45.833  28.273  30.785  1.00  0.00     0.029 A 
ATOM     59  N   UNL A   1      44.973  30.287  31.020  1.00  0.00    -0.354 N 
ATOM     60  N   UNL A   1      40.823  30.732  32.301  1.00  0.00    -0.248 NA
ATOM     61  C   UNL A   1      41.140  32.076  30.426  1.00  0.00     0.031 C 
ATOM     62  C   UNL A   1      45.025  28.316  31.958  1.00  0.00     0.029 A 
ATOM     63  C   UNL A   1      44.307  29.514  31.939  1.00  0.00     0.049 A 
ATOM     64  H   UNL A   1      45.031  31.269  31.019  1.00  0.00     0.167 HD
ATOM     65  C   UNL A   1      42.190  30.806  32.060  1.00  0.00     0.074 A 
ATOM     66  C   UNL A   1      42.323  31.748  30.953  1.00  0.00     0.031 C 
ATOM     67  C   UNL A   1      43.059  29.887  32.579  1.00  0.00     0.031 A 
BRANCH  54  68
ATOM     68  C   UNL A   1      45.917  31.113  28.176  1.00  0.00    -0.014 A 
ATOM     69  C   UNL A   1      45.006  32.180  28.072  1.00  0.00     0.010 A 
ATOM     70  C   UNL A   1      47.166  31.263  27.535  1.00  0.00     0.010 A 
ATOM     71  C   UNL A   1      45.315  33.317  27.316  1.00  0.00     0.020 A 
ATOM     72  C   UNL A   1      47.505  32.412  26.828  1.00  0.00     0.020 A 
ATOM     73  C   UNL A   1      46.559  33.416  26.687  1.00  0.00     0.054 A 
BRANCH  73  74
ATOM     74  S   UNL A   1      46.905  34.822  25.607  1.00  0.00     0.124 S 
ATOM     75  O   UNL A   1      45.808  34.732  24.649  1.00  0.00    -0.237 OA
ATOM     76  O   UNL A   1      46.851  35.950  26.532  1.00  0.00    -0.237 OA
ATOM     77  O   UNL A   1      48.232  34.522  25.073  1.00  0.00    -0.744 OA
ENDBRANCH  73  74
ENDBRANCH  54  68
BRANCH  55  78
ATOM     78  C   UNL A   1      37.851  31.638  30.266  1.00  0.00    -0.014 A 
ATOM     79  C   UNL A   1      37.958  32.552  29.203  1.00  0.00     0.010 A 
ATOM     80  C   UNL A   1      36.562  31.422  30.804  1.00  0.00     0.010 A 
ATOM     81  C   UNL A   1      36.819  33.193  28.683  1.00  0.00     0.020 A 
ATOM     82  C   UNL A   1      35.429  32.072  30.310  1.00  0.00     0.020 A 
ATOM     83  C   UNL A   1      35.559  32.942  29.236  1.00  0.00     0.054 A 
BRANCH  83  84
ATOM     84  S   UNL A   1      34.077  33.666  28.479  1.00  0.00     0.124 S 
ATOM     85  O   UNL A   1      33.385  32.489  27.964  1.00  0.00    -0.237 OA
ATOM     86  O   UNL A   1      33.437  34.332  29.610  1.00  0.00    -0.237 OA
ATOM     87  O   UNL A   1      34.614  34.565  27.459  1.00  0.00    -0.744 OA
ENDBRANCH  83  84
ENDBRANCH  55  78
BRANCH  67  88
ATOM     88  C   UNL A   1      42.586  28.974  33.690  1.00  0.00    -0.014 A 
ATOM     89  C   UNL A   1      42.236  27.627  33.481  1.00  0.00     0.010 A 
ATOM     90  C   UNL A   1      42.672  29.444  35.015  1.00  0.00     0.010 A 
ATOM     91  C   UNL A   1      41.964  26.778  34.564  1.00  0.00     0.020 A 
ATOM     92  C   UNL A   1      42.421  28.597  36.100  1.00  0.00     0.020 A 
ATOM     93  C   UNL A   1      42.063  27.268  35.869  1.00  0.00     0.054 A 
BRANCH  93  94
ATOM     94  S   UNL A   1      41.797  26.137  37.264  1.00  0.00     0.124 S 
ATOM     95  O   UNL A   1      42.905  26.467  38.154  1.00  0.00    -0.237 OA
ATOM     96  O   UNL A   1      40.469  26.517  37.743  1.00  0.00    -0.237 OA
ATOM     97  O   UNL A   1      41.867  24.810  36.653  1.00  0.00    -0.744 OA
ENDBRANCH  93  94
ENDBRANCH  67  88
ENDBRANCH  41  42
ENDBRANCH  34  36
ENDBRANCH  33  34
ENDBRANCH  32  33
ENDBRANCH  31  32
ENDBRANCH  30  31
ENDBRANCH   1  30
TORSDOF 22
ENDMDL
MODEL 2
REMARK VINA RESULT:     -10.2      6.401     10.088
REMARK SMILES Cc1ccn(CC(=O)N2CCC3(CC2)NC(=O)C[C@@H]3C(=O)OCCOCCOCCOC(=O)c2ccc(-c3c4nc(c(-c5ccc(S(=O)(=O)[O-])cc5)c5ccc([nH]5)c(-c5ccc(S(=O)(=O)[O-])cc5)c5nc(c(-c6ccc(S(=O)(=O)[O-])cc6)c6ccc3[nH]6)C=C5)C=C4)cc2)n1
REMARK SMILES IDX 27 1 26 2 25 3 24 4 23 5 22 6 20 7 21 8 19 9 7 10 8 11 9 12
REMARK SMILES IDX 10 13 14 14 11 15 13 16 12 17 15 18 16 19 18 21 17 22 6 23
REMARK SMILES IDX 5 24 1 25 2 26 3 27 94 28 4 29 28 30 29 31 30 32 31 33 32 34
REMARK SMILES IDX 33 35 34 36 35 37 93 38 36 39 92 40 37 41 38 42 39 43 86 44
REMARK SMILES IDX 40 45 91 46 85 47 87 48 41 49 90 50 84 51 83 52 42 54 72 55
REMARK SMILES IDX 53 56 71 57 54 58 57 59 70 60 88 61 55 62 56 63 69 65 89 66
REMARK SMILES IDX 58 67 43 68 44 69 52 70 45 71 51 72 46 73 47 74 48 75 49 76
REMARK SMILES IDX 50 77 73 78 74 79 82 80 75 81 81 82 76 83 77 84 78 85 79 86
REMARK SMILES IDX 80 87 59 88 60 89 68 90 61 91 67 92 62 93 63 94 64 95 65 96
REMARK SMILES IDX 66 97
REMARK H PARENT 15 20 87 53 57 64
REMARK Flexibility Score: inf
ROOT
ATOM      1  C   UNL A   1      34.838  31.965  29.223  1.00  0.00     0.188 C 
ENDROOT
BRANCH   1   2
ATOM      2  C   UNL A   1      34.297  32.881  28.101  1.00  0.00     0.188 C 
BRANCH   2   3
ATOM      3  O   UNL A   1      33.042  32.527  27.546  1.00  0.00    -0.376 OA
BRANCH   3   4
ATOM      4  C   UNL A   1      32.836  31.129  27.348  1.00  0.00     0.202 C 
BRANCH   4   5
ATOM      5  C   UNL A   1      31.806  30.825  26.258  1.00  0.00     0.261 C 
BRANCH   5   6
ATOM      6  O   UNL A   1      32.164  29.645  25.517  1.00  0.00    -0.463 OA
BRANCH   6   7
ATOM      7  C   UNL A   1      31.555  28.472  25.830  1.00  0.00     0.311 C 
ATOM      8  O   UNL A   1      31.455  28.032  26.963  1.00  0.00    -0.252 OA
BRANCH   7   9
ATOM      9  C   UNL A   1      31.013  27.846  24.551  1.00  0.00     0.134 C 
ATOM     10  C   UNL A   1      34.142  23.844  25.092  1.00  0.00     0.244 C 
ATOM     11  O   UNL A   1      34.730  23.960  26.171  1.00  0.00    -0.273 OA
ATOM     12  N   UNL A   1      33.414  24.910  24.557  1.00  0.00    -0.341 N 
ATOM     13  C   UNL A   1      33.807  26.250  24.966  1.00  0.00     0.122 C 
ATOM     14  C   UNL A   1      32.029  24.758  24.125  1.00  0.00     0.122 C 
ATOM     15  C   UNL A   1      33.487  27.259  23.866  1.00  0.00     0.051 C 
ATOM     16  C   UNL A   1      31.606  25.811  23.104  1.00  0.00     0.051 C 
ATOM     17  C   UNL A   1      31.996  27.263  23.502  1.00  0.00     0.057 C 
ATOM     18  N   UNL A   1      31.771  28.108  22.344  1.00  0.00    -0.350 N 
ATOM     19  C   UNL A   1      30.714  28.972  22.452  1.00  0.00     0.221 C 
ATOM     20  H   UNL A   1      32.336  28.063  21.539  1.00  0.00     0.164 HD
ATOM     21  C   UNL A   1      30.141  28.881  23.831  1.00  0.00     0.117 C 
ATOM     22  O   UNL A   1      30.308  29.689  21.554  1.00  0.00    -0.275 OA
BRANCH  10  23
ATOM     23  C   UNL A   1      34.423  22.654  24.199  1.00  0.00     0.244 C 
BRANCH  23  24
ATOM     24  N   UNL A   1      33.759  21.426  24.571  1.00  0.00    -0.263 N 
ATOM     25  C   UNL A   1      32.250  18.404  23.518  1.00  0.00     0.069 C 
ATOM     26  C   UNL A   1      32.832  19.546  24.262  1.00  0.00     0.059 A 
ATOM     27  C   UNL A   1      32.922  19.727  25.662  1.00  0.00     0.045 A 
ATOM     28  N   UNL A   1      33.370  20.576  23.599  1.00  0.00    -0.178 NA
ATOM     29  C   UNL A   1      33.536  20.947  25.827  1.00  0.00     0.109 A 
ENDBRANCH  23  24
ENDBRANCH  10  23
ENDBRANCH   7   9
ENDBRANCH   6   7
ENDBRANCH   5   6
ENDBRANCH   4   5
ENDBRANCH   3   4
ENDBRANCH   2   3
ENDBRANCH   1   2
BRANCH   1  30
ATOM     30  O   UNL A   1      35.093  32.415  30.546  1.00  0.00    -0.376 OA
BRANCH  30  31
ATOM     31  C   UNL A   1      36.397  32.760  30.981  1.00  0.00     0.202 C 
BRANCH  31  32
ATOM     32  C   UNL A   1      37.309  33.497  30.009  1.00  0.00     0.261 C 
BRANCH  32  33
ATOM     33  O   UNL A   1      38.676  33.212  30.236  1.00  0.00    -0.460 OA
BRANCH  33  34
ATOM     34  C   UNL A   1      39.421  34.298  30.547  1.00  0.00     0.338 C 
ATOM     35  O   UNL A   1      39.196  35.130  31.405  1.00  0.00    -0.246 OA
BRANCH  34  36
ATOM     36  C   UNL A   1      40.575  34.345  29.634  1.00  0.00     0.060 A 
ATOM     37  C   UNL A   1      41.807  33.994  30.188  1.00  0.00     0.016 A 
ATOM     38  C   UNL A   1      40.468  35.011  28.404  1.00  0.00     0.016 A 
ATOM     39  C   UNL A   1      42.930  34.604  29.684  1.00  0.00     0.010 A 
ATOM     40  C   UNL A   1      41.585  35.630  27.907  1.00  0.00     0.010 A 
ATOM     41  C   UNL A   1      42.760  35.525  28.649  1.00  0.00    -0.014 A 
BRANCH  41  42
ATOM     42  C   UNL A   1      43.725  36.600  28.573  1.00  0.00     0.031 A 
ATOM     43  C   UNL A   1      45.134  36.206  28.493  1.00  0.00     0.074 A 
ATOM     44  C   UNL A   1      43.301  37.873  28.444  1.00  0.00     0.049 A 
ATOM     45  N   UNL A   1      46.055  36.404  29.375  1.00  0.00    -0.248 NA
ATOM     46  C   UNL A   1      45.544  35.393  27.342  1.00  0.00     0.031 C 
ATOM     47  C   UNL A   1      41.933  38.329  28.160  1.00  0.00     0.029 A 
ATOM     48  N   UNL A   1      44.032  39.018  28.381  1.00  0.00    -0.354 N 
ATOM     49  C   UNL A   1      47.218  35.926  28.790  1.00  0.00     0.074 A 
ATOM     50  C   UNL A   1      46.812  35.136  27.654  1.00  0.00     0.031 C 
ATOM     51  C   UNL A   1      41.985  39.597  27.702  1.00  0.00     0.029 A 
ATOM     52  C   UNL A   1      43.361  40.062  27.761  1.00  0.00     0.049 A 
ATOM     53  H   UNL A   1      44.944  39.098  28.739  1.00  0.00     0.167 HD
ATOM     54  C   UNL A   1      48.441  36.431  29.104  1.00  0.00     0.031 A 
ATOM     55  C   UNL A   1      43.932  41.157  27.200  1.00  0.00     0.031 A 
ATOM     56  C   UNL A   1      48.418  37.243  30.292  1.00  0.00     0.049 A 
ATOM     57  C   UNL A   1      45.291  41.303  27.788  1.00  0.00     0.074 A 
ATOM     58  C   UNL A   1      48.022  37.039  31.599  1.00  0.00     0.029 A 
ATOM     59  N   UNL A   1      48.520  38.608  30.135  1.00  0.00    -0.354 N 
ATOM     60  N   UNL A   1      45.516  41.581  29.043  1.00  0.00    -0.248 NA
ATOM     61  C   UNL A   1      46.423  40.727  27.076  1.00  0.00     0.031 C 
ATOM     62  C   UNL A   1      47.478  38.285  32.026  1.00  0.00     0.029 A 
ATOM     63  C   UNL A   1      47.596  39.188  30.967  1.00  0.00     0.049 A 
ATOM     64  H   UNL A   1      49.141  39.079  29.535  1.00  0.00     0.167 HD
ATOM     65  C   UNL A   1      46.647  40.848  29.382  1.00  0.00     0.074 A 
ATOM     66  C   UNL A   1      47.226  40.443  28.105  1.00  0.00     0.031 C 
ATOM     67  C   UNL A   1      46.850  40.393  30.656  1.00  0.00     0.031 A 
BRANCH  54  68
ATOM     68  C   UNL A   1      49.563  36.497  28.105  1.00  0.00    -0.014 A 
ATOM     69  C   UNL A   1      50.503  35.452  28.062  1.00  0.00     0.010 A 
ATOM     70  C   UNL A   1      49.870  37.673  27.387  1.00  0.00     0.010 A 
ATOM     71  C   UNL A   1      51.715  35.603  27.377  1.00  0.00     0.020 A 
ATOM     72  C   UNL A   1      51.045  37.812  26.656  1.00  0.00     0.020 A 
ATOM     73  C   UNL A   1      51.981  36.790  26.691  1.00  0.00     0.054 A 
BRANCH  73  74
ATOM     74  S   UNL A   1      53.596  37.033  25.918  1.00  0.00     0.124 S 
ATOM     75  O   UNL A   1      54.309  35.834  26.347  1.00  0.00    -0.237 OA
ATOM     76  O   UNL A   1      53.258  37.099  24.499  1.00  0.00    -0.237 OA
ATOM     77  O   UNL A   1      54.067  38.287  26.500  1.00  0.00    -0.744 OA
ENDBRANCH  73  74
ENDBRANCH  54  68
BRANCH  55  78
ATOM     78  C   UNL A   1      43.497  41.806  25.933  1.00  0.00    -0.014 A 
ATOM     79  C   UNL A   1      44.284  42.787  25.305  1.00  0.00     0.010 A 
ATOM     80  C   UNL A   1      42.397  41.298  25.206  1.00  0.00     0.010 A 
ATOM     81  C   UNL A   1      43.999  43.213  23.995  1.00  0.00     0.020 A 
ATOM     82  C   UNL A   1      42.092  41.732  23.914  1.00  0.00     0.020 A 
ATOM     83  C   UNL A   1      42.908  42.675  23.305  1.00  0.00     0.054 A 
BRANCH  83  84
ATOM     84  S   UNL A   1      42.620  43.127  21.570  1.00  0.00     0.124 S 
ATOM     85  O   UNL A   1      43.737  44.025  21.295  1.00  0.00    -0.237 OA
ATOM     86  O   UNL A   1      42.664  41.833  20.894  1.00  0.00    -0.237 OA
ATOM     87  O   UNL A   1      41.304  43.765  21.594  1.00  0.00    -0.744 OA
ENDBRANCH  83  84
ENDBRANCH  55  78
BRANCH  67  88
ATOM     88  C   UNL A   1      46.014  40.964  31.782  1.00  0.00    -0.014 A 
ATOM     89  C   UNL A   1      46.484  41.959  32.659  1.00  0.00     0.010 A 
ATOM     90  C   UNL A   1      44.651  40.614  31.838  1.00  0.00     0.010 A 
ATOM     91  C   UNL A   1      45.621  42.574  33.578  1.00  0.00     0.020 A 
ATOM     92  C   UNL A   1      43.781  41.238  32.739  1.00  0.00     0.020 A 
ATOM     93  C   UNL A   1      44.272  42.212  33.609  1.00  0.00     0.054 A 
BRANCH  93  94
ATOM     94  S   UNL A   1      43.147  43.079  34.740  1.00  0.00     0.124 S 
ATOM     95  O   UNL A   1      41.854  42.481  34.421  1.00  0.00    -0.237 OA
ATOM     96  O   UNL A   1      43.687  42.745  36.057  1.00  0.00    -0.237 OA
ATOM     97  O   UNL A   1      43.289  44.484  34.362  1.00  0.00    -0.744 OA
ENDBRANCH  93  94
ENDBRANCH  67  88
ENDBRANCH  41  42
ENDBRANCH  34  36
ENDBRANCH  33  34
ENDBRANCH  32  33
ENDBRANCH  31  32
ENDBRANCH  30  31
ENDBRANCH   1  30
TORSDOF 22
ENDMDL
MODEL 3
REMARK VINA RESULT:     -10.1      1.625      2.304
REMARK SMILES Cc1ccn(CC(=O)N2CCC3(CC2)NC(=O)C[C@@H]3C(=O)OCCOCCOCCOC(=O)c2ccc(-c3c4nc(c(-c5ccc(S(=O)(=O)[O-])cc5)c5ccc([nH]5)c(-c5ccc(S(=O)(=O)[O-])cc5)c5nc(c(-c6ccc(S(=O)(=O)[O-])cc6)c6ccc3[nH]6)C=C5)C=C4)cc2)n1
REMARK SMILES IDX 27 1 26 2 25 3 24 4 23 5 22 6 20 7 21 8 19 9 7 10 8 11 9 12
REMARK SMILES IDX 10 13 14 14 11 15 13 16 12 17 15 18 16 19 18 21 17 22 6 23
REMARK SMILES IDX 5 24 1 25 2 26 3 27 94 28 4 29 28 30 29 31 30 32 31 33 32 34
REMARK SMILES IDX 33 35 34 36 35 37 93 38 36 39 92 40 37 41 38 42 39 43 86 44
REMARK SMILES IDX 40 45 91 46 85 47 87 48 41 49 90 50 84 51 83 52 42 54 72 55
REMARK SMILES IDX 53 56 71 57 54 58 57 59 70 60 88 61 55 62 56 63 69 65 89 66
REMARK SMILES IDX 58 67 43 68 44 69 52 70 45 71 51 72 46 73 47 74 48 75 49 76
REMARK SMILES IDX 50 77 73 78 74 79 82 80 75 81 81 82 76 83 77 84 78 85 79 86
REMARK SMILES IDX 80 87 59 88 60 89 68 90 61 91 67 92 62 93 63 94 64 95 65 96
REMARK SMILES IDX 66 97
REMARK H PARENT 15 20 87 53 57 64
REMARK Flexibility Score: inf
ROOT
ATOM      1  C   UNL A   1      37.703  22.262  25.258  1.00  0.00     0.188 C 
ENDROOT
BRANCH   1   2
ATOM      2  C   UNL A   1      37.046  23.585  25.713  1.00  0.00     0.188 C 
BRANCH   2   3
ATOM      3  O   UNL A   1      35.925  24.022  24.965  1.00  0.00    -0.376 OA
BRANCH   3   4
ATOM      4  C   UNL A   1      34.922  24.708  25.713  1.00  0.00     0.202 C 
BRANCH   4   5
ATOM      5  C   UNL A   1      34.808  26.189  25.344  1.00  0.00     0.261 C 
BRANCH   5   6
ATOM      6  O   UNL A   1      33.455  26.658  25.481  1.00  0.00    -0.463 OA
BRANCH   6   7
ATOM      7  C   UNL A   1      32.621  26.551  24.415  1.00  0.00     0.311 C 
ATOM      8  O   UNL A   1      32.938  26.812  23.267  1.00  0.00    -0.252 OA
BRANCH   7   9
ATOM      9  C   UNL A   1      31.271  26.035  24.900  1.00  0.00     0.134 C 
ATOM     10  C   UNL A   1      33.085  21.263  25.109  1.00  0.00     0.244 C 
ATOM     11  O   UNL A   1      34.293  21.301  24.853  1.00  0.00    -0.273 OA
ATOM     12  N   UNL A   1      32.273  22.376  24.880  1.00  0.00    -0.341 N 
ATOM     13  C   UNL A   1      32.714  23.320  23.863  1.00  0.00     0.122 C 
ATOM     14  C   UNL A   1      31.399  22.920  25.915  1.00  0.00     0.122 C 
ATOM     15  C   UNL A   1      31.515  24.016  23.226  1.00  0.00     0.051 C 
ATOM     16  C   UNL A   1      30.236  23.729  25.347  1.00  0.00     0.051 C 
ATOM     17  C   UNL A   1      30.660  24.759  24.262  1.00  0.00     0.057 C 
ATOM     18  N   UNL A   1      29.449  25.260  23.639  1.00  0.00    -0.350 N 
ATOM     19  C   UNL A   1      29.136  26.559  23.936  1.00  0.00     0.221 C 
ATOM     20  H   UNL A   1      28.892  24.705  23.047  1.00  0.00     0.164 HD
ATOM     21  C   UNL A   1      30.237  27.157  24.755  1.00  0.00     0.117 C 
ATOM     22  O   UNL A   1      28.114  27.125  23.589  1.00  0.00    -0.275 OA
BRANCH  10  23
ATOM     23  C   UNL A   1      32.415  19.940  25.409  1.00  0.00     0.244 C 
BRANCH  23  24
ATOM     24  N   UNL A   1      32.837  18.828  24.589  1.00  0.00    -0.263 N 
ATOM     25  C   UNL A   1      34.609  15.774  24.375  1.00  0.00     0.069 C 
ATOM     26  C   UNL A   1      33.780  16.981  24.153  1.00  0.00     0.059 A 
ATOM     27  C   UNL A   1      33.098  17.374  22.978  1.00  0.00     0.045 A 
ATOM     28  N   UNL A   1      33.595  17.860  25.145  1.00  0.00    -0.178 NA
ATOM     29  C   UNL A   1      32.490  18.566  23.298  1.00  0.00     0.109 A 
ENDBRANCH  23  24
ENDBRANCH  10  23
ENDBRANCH   7   9
ENDBRANCH   6   7
ENDBRANCH   5   6
ENDBRANCH   4   5
ENDBRANCH   3   4
ENDBRANCH   2   3
ENDBRANCH   1   2
BRANCH   1  30
ATOM     30  O   UNL A   1      38.740  21.612  25.982  1.00  0.00    -0.376 OA
BRANCH  30  31
ATOM     31  C   UNL A   1      39.138  20.284  25.689  1.00  0.00     0.202 C 
BRANCH  31  32
ATOM     32  C   UNL A   1      40.510  19.823  26.161  1.00  0.00     0.261 C 
BRANCH  32  33
ATOM     33  O   UNL A   1      41.535  20.729  25.798  1.00  0.00    -0.460 OA
BRANCH  33  34
ATOM     34  C   UNL A   1      42.163  21.301  26.851  1.00  0.00     0.338 C 
ATOM     35  O   UNL A   1      42.177  20.915  28.004  1.00  0.00    -0.246 OA
BRANCH  34  36
ATOM     36  C   UNL A   1      42.828  22.527  26.384  1.00  0.00     0.060 A 
ATOM     37  C   UNL A   1      44.109  22.759  26.888  1.00  0.00     0.016 A 
ATOM     38  C   UNL A   1      42.082  23.530  25.745  1.00  0.00     0.016 A 
ATOM     39  C   UNL A   1      44.503  24.064  27.056  1.00  0.00     0.010 A 
ATOM     40  C   UNL A   1      42.467  24.832  25.922  1.00  0.00     0.010 A 
ATOM     41  C   UNL A   1      43.598  25.066  26.704  1.00  0.00    -0.014 A 
BRANCH  41  42
ATOM     42  C   UNL A   1      43.683  26.307  27.442  1.00  0.00     0.031 A 
ATOM     43  C   UNL A   1      44.855  27.144  27.175  1.00  0.00     0.074 A 
ATOM     44  C   UNL A   1      42.653  26.697  28.219  1.00  0.00     0.049 A 
ATOM     45  N   UNL A   1      45.818  27.428  27.985  1.00  0.00    -0.248 NA
ATOM     46  C   UNL A   1      45.036  27.634  25.803  1.00  0.00     0.031 C 
ATOM     47  C   UNL A   1      41.307  26.108  28.272  1.00  0.00     0.029 A 
ATOM     48  N   UNL A   1      42.541  27.801  29.005  1.00  0.00    -0.354 N 
ATOM     49  C   UNL A   1      46.623  28.315  27.287  1.00  0.00     0.074 A 
ATOM     50  C   UNL A   1      46.219  28.236  25.905  1.00  0.00     0.031 C 
ATOM     51  C   UNL A   1      40.464  27.001  28.830  1.00  0.00     0.029 A 
ATOM     52  C   UNL A   1      41.226  28.163  29.259  1.00  0.00     0.049 A 
ATOM     53  H   UNL A   1      43.316  28.294  29.359  1.00  0.00     0.167 HD
ATOM     54  C   UNL A   1      47.374  29.256  27.919  1.00  0.00     0.031 A 
ATOM     55  C   UNL A   1      40.796  29.388  29.648  1.00  0.00     0.031 A 
ATOM     56  C   UNL A   1      47.486  29.019  29.334  1.00  0.00     0.049 A 
ATOM     57  C   UNL A   1      41.960  30.106  30.231  1.00  0.00     0.074 A 
ATOM     58  C   UNL A   1      47.922  27.962  30.109  1.00  0.00     0.029 A 
ATOM     59  N   UNL A   1      46.768  29.837  30.177  1.00  0.00    -0.354 N 
ATOM     60  N   UNL A   1      42.560  29.748  31.333  1.00  0.00    -0.248 NA
ATOM     61  C   UNL A   1      42.735  30.991  29.372  1.00  0.00     0.031 C 
ATOM     62  C   UNL A   1      47.080  27.966  31.258  1.00  0.00     0.029 A 
ATOM     63  C   UNL A   1      46.195  29.039  31.136  1.00  0.00     0.049 A 
ATOM     64  H   UNL A   1      46.682  30.814  30.105  1.00  0.00     0.167 HD
ATOM     65  C   UNL A   1      43.908  30.008  31.116  1.00  0.00     0.074 A 
ATOM     66  C   UNL A   1      43.936  30.880  29.946  1.00  0.00     0.031 C 
ATOM     67  C   UNL A   1      44.886  29.266  31.720  1.00  0.00     0.031 A 
BRANCH  54  68
ATOM     68  C   UNL A   1      47.672  30.595  27.301  1.00  0.00    -0.014 A 
ATOM     69  C   UNL A   1      48.992  31.079  27.321  1.00  0.00     0.010 A 
ATOM     70  C   UNL A   1      46.654  31.502  26.935  1.00  0.00     0.010 A 
ATOM     71  C   UNL A   1      49.268  32.422  27.039  1.00  0.00     0.020 A 
ATOM     72  C   UNL A   1      46.924  32.825  26.598  1.00  0.00     0.020 A 
ATOM     73  C   UNL A   1      48.227  33.288  26.694  1.00  0.00     0.054 A 
BRANCH  73  74
ATOM     74  S   UNL A   1      48.568  35.046  26.459  1.00  0.00     0.124 S 
ATOM     75  O   UNL A   1      49.878  35.178  27.088  1.00  0.00    -0.237 OA
ATOM     76  O   UNL A   1      48.544  35.180  25.005  1.00  0.00    -0.237 OA
ATOM     77  O   UNL A   1      47.466  35.703  27.158  1.00  0.00    -0.744 OA
ENDBRANCH  73  74
ENDBRANCH  54  68
BRANCH  55  78
ATOM     78  C   UNL A   1      39.553  30.058  29.174  1.00  0.00    -0.014 A 
ATOM     79  C   UNL A   1      38.809  29.546  28.097  1.00  0.00     0.010 A 
ATOM     80  C   UNL A   1      38.963  31.095  29.931  1.00  0.00     0.010 A 
ATOM     81  C   UNL A   1      37.518  30.028  27.815  1.00  0.00     0.020 A 
ATOM     82  C   UNL A   1      37.692  31.598  29.644  1.00  0.00     0.020 A 
ATOM     83  C   UNL A   1      36.965  31.047  28.597  1.00  0.00     0.054 A 
BRANCH  83  84
ATOM     84  S   UNL A   1      35.251  31.577  28.316  1.00  0.00     0.124 S 
ATOM     85  O   UNL A   1      34.807  31.916  29.664  1.00  0.00    -0.237 OA
ATOM     86  O   UNL A   1      35.413  32.701  27.399  1.00  0.00    -0.237 OA
ATOM     87  O   UNL A   1      34.617  30.394  27.734  1.00  0.00    -0.744 OA
ENDBRANCH  83  84
ENDBRANCH  55  78
BRANCH  67  88
ATOM     88  C   UNL A   1      44.516  28.373  32.885  1.00  0.00    -0.014 A 
ATOM     89  C   UNL A   1      44.622  28.780  34.228  1.00  0.00     0.010 A 
ATOM     90  C   UNL A   1      43.872  27.152  32.606  1.00  0.00     0.010 A 
ATOM     91  C   UNL A   1      44.114  27.982  35.264  1.00  0.00     0.020 A 
ATOM     92  C   UNL A   1      43.346  26.362  33.634  1.00  0.00     0.020 A 
ATOM     93  C   UNL A   1      43.473  26.778  34.959  1.00  0.00     0.054 A 
BRANCH  93  94
ATOM     94  S   UNL A   1      42.740  25.800  36.300  1.00  0.00     0.124 S 
ATOM     95  O   UNL A   1      43.121  24.437  35.943  1.00  0.00    -0.237 OA
ATOM     96  O   UNL A   1      43.388  26.343  37.492  1.00  0.00    -0.237 OA
ATOM     97  O   UNL A   1      41.310  26.089  36.200  1.00  0.00    -0.744 OA
ENDBRANCH  93  94
ENDBRANCH  67  88
ENDBRANCH  41  42
ENDBRANCH  34  36
ENDBRANCH  33  34
ENDBRANCH  32  33
ENDBRANCH  31  32
ENDBRANCH  30  31
ENDBRANCH   1  30
TORSDOF 22
ENDMDL
