MODEL 1
REMARK VINA RESULT:      -9.8      0.000      0.000
REMARK SMILES Cn1cc(S(=O)(=O)N2CCCc3cc(C(=O)OCCOCCOCCOC(=O)c4ccc(-c5c6nc(c(-c7ccc(S(=O)(=O)[O-])cc7)c7ccc([nH]7)c(-c7ccc(S(=O)(=O)[O-])cc7)c7nc(c(-c8ccc(S(=O)(=O)[O-])cc8)c8ccc5[nH]8)C=C7)C=C6)cc4)ccc32)cc1C(N)=O
REMARK SMILES IDX 21 1 20 2 19 3 18 4 17 5 15 6 16 7 14 8 8 9 9 10 91 11 10 12
REMARK SMILES IDX 12 13 90 14 11 15 13 16 89 17 5 18 6 19 7 20 4 21 1 22 2 23
REMARK SMILES IDX 3 24 93 25 92 26 94 27 95 28 96 29 22 32 23 33 24 34 25 35
REMARK SMILES IDX 26 36 27 37 28 38 29 39 30 40 88 41 31 42 87 43 32 44 33 45
REMARK SMILES IDX 34 46 81 47 35 48 86 49 80 50 82 51 36 52 85 53 79 54 78 55
REMARK SMILES IDX 37 57 67 58 48 59 66 60 49 61 52 62 65 63 83 64 50 65 51 66
REMARK SMILES IDX 64 68 84 69 53 70 38 71 39 72 47 73 40 74 46 75 41 76 42 77
REMARK SMILES IDX 43 78 44 79 45 80 68 81 69 82 77 83 70 84 76 85 71 86 72 87
REMARK SMILES IDX 73 88 74 89 75 90 54 91 55 92 63 93 56 94 62 95 57 96 58 97
REMARK SMILES IDX 59 98 60 99 61 100
REMARK H PARENT 95 30 95 31 82 56 52 67
REMARK Flexibility Score: inf
ROOT
ATOM      1  C   UNL A   1      34.142  30.871  27.683  1.00  0.00     0.188 C 
ENDROOT
BRANCH   1   2
ATOM      2  O   UNL A   1      32.916  31.424  27.217  1.00  0.00    -0.376 OA
BRANCH   2   3
ATOM      3  C   UNL A   1      31.833  30.566  26.879  1.00  0.00     0.202 C 
BRANCH   3   4
ATOM      4  C   UNL A   1      31.884  29.078  27.251  1.00  0.00     0.261 C 
BRANCH   4   5
ATOM      5  O   UNL A   1      31.218  28.210  26.324  1.00  0.00    -0.460 OA
BRANCH   5   6
ATOM      6  C   UNL A   1      31.677  28.266  25.048  1.00  0.00     0.338 C 
ATOM      7  O   UNL A   1      31.539  29.186  24.260  1.00  0.00    -0.246 OA
BRANCH   6   8
ATOM      8  C   UNL A   1      32.548  27.103  24.771  1.00  0.00     0.060 A 
ATOM      9  N   UNL A   1      34.844  23.619  23.917  1.00  0.00    -0.266 N 
ATOM     10  C   UNL A   1      34.687  22.993  22.571  1.00  0.00     0.136 C 
ATOM     11  C   UNL A   1      34.087  24.823  24.184  1.00  0.00     0.055 A 
ATOM     12  C   UNL A   1      33.240  23.040  22.108  1.00  0.00     0.028 C 
ATOM     13  C   UNL A   1      33.044  25.209  23.323  1.00  0.00    -0.023 A 
ATOM     14  C   UNL A   1      34.411  25.652  25.268  1.00  0.00     0.028 A 
ATOM     15  C   UNL A   1      32.784  24.485  22.029  1.00  0.00     0.039 C 
ATOM     16  C   UNL A   1      32.270  26.337  23.633  1.00  0.00     0.021 A 
ATOM     17  C   UNL A   1      33.642  26.780  25.573  1.00  0.00     0.018 A 
BRANCH   9  18
ATOM     18  S   UNL A   1      35.048  22.489  25.199  1.00  0.00     0.265 S 
ATOM     19  O   UNL A   1      34.993  21.149  24.677  1.00  0.00    -0.201 OA
ATOM     20  O   UNL A   1      34.298  22.877  26.384  1.00  0.00    -0.201 OA
BRANCH  18  21
ATOM     21  C   UNL A   1      36.690  22.649  25.746  1.00  0.00     0.106 A 
ATOM     22  C   UNL A   1      39.405  24.436  27.311  1.00  0.00     0.150 C 
ATOM     23  N   UNL A   1      38.552  23.472  26.647  1.00  0.00    -0.345 N 
ATOM     24  C   UNL A   1      37.217  23.722  26.429  1.00  0.00     0.108 A 
ATOM     25  C   UNL A   1      38.903  22.233  26.129  1.00  0.00     0.107 A 
ATOM     26  C   UNL A   1      37.743  21.728  25.544  1.00  0.00     0.056 A 
BRANCH  25  27
ATOM     27  C   UNL A   1      40.223  21.628  26.186  1.00  0.00     0.265 C 
ATOM     28  N   UNL A   1      41.256  22.401  25.740  1.00  0.00    -0.364 N 
ATOM     29  O   UNL A   1      40.467  20.497  26.594  1.00  0.00    -0.268 OA
ATOM     30  H   UNL A   1      41.083  23.312  25.408  1.00  0.00     0.160 HD
ATOM     31  H   UNL A   1      42.175  22.048  25.750  1.00  0.00     0.160 HD
ENDBRANCH  25  27
ENDBRANCH  18  21
ENDBRANCH   9  18
ENDBRANCH   6   8
ENDBRANCH   5   6
ENDBRANCH   4   5
ENDBRANCH   3   4
ENDBRANCH   2   3
ENDBRANCH   1   2
BRANCH   1  32
ATOM     32  C   UNL A   1      35.220  31.793  28.291  1.00  0.00     0.188 C 
BRANCH  32  33
ATOM     33  O   UNL A   1      35.441  32.991  27.587  1.00  0.00    -0.376 OA
BRANCH  33  34
ATOM     34  C   UNL A   1      35.235  34.242  28.215  1.00  0.00     0.202 C 
BRANCH  34  35
ATOM     35  C   UNL A   1      33.865  34.869  28.544  1.00  0.00     0.261 C 
BRANCH  35  36
ATOM     36  O   UNL A   1      33.121  34.349  29.646  1.00  0.00    -0.460 OA
BRANCH  36  37
ATOM     37  C   UNL A   1      33.259  35.006  30.820  1.00  0.00     0.338 C 
ATOM     38  O   UNL A   1      32.503  35.838  31.290  1.00  0.00    -0.246 OA
BRANCH  37  39
ATOM     39  C   UNL A   1      34.401  34.424  31.552  1.00  0.00     0.060 A 
ATOM     40  C   UNL A   1      35.472  35.261  31.886  1.00  0.00     0.016 A 
ATOM     41  C   UNL A   1      34.436  33.062  31.865  1.00  0.00     0.016 A 
ATOM     42  C   UNL A   1      36.608  34.726  32.491  1.00  0.00     0.010 A 
ATOM     43  C   UNL A   1      35.584  32.525  32.460  1.00  0.00     0.010 A 
ATOM     44  C   UNL A   1      36.690  33.347  32.736  1.00  0.00    -0.014 A 
BRANCH  44  45
ATOM     45  C   UNL A   1      38.005  32.752  33.081  1.00  0.00     0.031 A 
ATOM     46  C   UNL A   1      38.540  32.960  34.475  1.00  0.00     0.074 A 
ATOM     47  C   UNL A   1      38.683  31.991  32.204  1.00  0.00     0.049 A 
ATOM     48  N   UNL A   1      39.640  32.508  35.017  1.00  0.00    -0.248 NA
ATOM     49  C   UNL A   1      37.717  33.782  35.379  1.00  0.00     0.031 C 
ATOM     50  C   UNL A   1      38.255  31.678  30.840  1.00  0.00     0.029 A 
ATOM     51  N   UNL A   1      39.882  31.336  32.338  1.00  0.00    -0.354 N 
ATOM     52  C   UNL A   1      39.639  32.982  36.324  1.00  0.00     0.074 A 
ATOM     53  C   UNL A   1      38.449  33.789  36.482  1.00  0.00     0.031 C 
ATOM     54  C   UNL A   1      39.179  30.888  30.265  1.00  0.00     0.029 A 
ATOM     55  C   UNL A   1      40.273  30.660  31.207  1.00  0.00     0.049 A 
ATOM     56  H   UNL A   1      40.413  31.348  33.168  1.00  0.00     0.167 HD
ATOM     57  C   UNL A   1      40.536  32.756  37.312  1.00  0.00     0.031 A 
ATOM     58  C   UNL A   1      41.392  29.948  30.960  1.00  0.00     0.031 A 
ATOM     59  C   UNL A   1      41.736  31.979  37.152  1.00  0.00     0.049 A 
ATOM     60  C   UNL A   1      42.420  29.784  32.052  1.00  0.00     0.074 A 
ATOM     61  C   UNL A   1      42.720  31.708  38.088  1.00  0.00     0.029 A 
ATOM     62  N   UNL A   1      42.119  31.351  35.977  1.00  0.00    -0.354 N 
ATOM     63  N   UNL A   1      42.395  30.227  33.287  1.00  0.00    -0.248 NA
ATOM     64  C   UNL A   1      43.622  29.007  31.716  1.00  0.00     0.031 C 
ATOM     65  C   UNL A   1      43.719  30.953  37.466  1.00  0.00     0.029 A 
ATOM     66  C   UNL A   1      43.329  30.702  36.160  1.00  0.00     0.049 A 
ATOM     67  H   UNL A   1      41.606  31.364  35.138  1.00  0.00     0.167 HD
ATOM     68  C   UNL A   1      43.558  29.747  33.885  1.00  0.00     0.074 A 
ATOM     69  C   UNL A   1      44.255  28.972  32.881  1.00  0.00     0.031 C 
ATOM     70  C   UNL A   1      44.007  29.928  35.153  1.00  0.00     0.031 A 
BRANCH  57  71
ATOM     71  C   UNL A   1      40.257  33.381  38.653  1.00  0.00    -0.014 A 
ATOM     72  C   UNL A   1      41.090  34.393  39.165  1.00  0.00     0.010 A 
ATOM     73  C   UNL A   1      39.138  32.972  39.399  1.00  0.00     0.010 A 
ATOM     74  C   UNL A   1      40.831  34.957  40.417  1.00  0.00     0.020 A 
ATOM     75  C   UNL A   1      38.859  33.553  40.640  1.00  0.00     0.020 A 
ATOM     76  C   UNL A   1      39.718  34.531  41.147  1.00  0.00     0.054 A 
BRANCH  76  77
ATOM     77  S   UNL A   1      39.394  35.294  42.760  1.00  0.00     0.124 S 
ATOM     78  O   UNL A   1      39.262  36.705  42.403  1.00  0.00    -0.237 OA
ATOM     79  O   UNL A   1      38.161  34.637  43.184  1.00  0.00    -0.237 OA
ATOM     80  O   UNL A   1      40.579  34.959  43.547  1.00  0.00    -0.744 OA
ENDBRANCH  76  77
ENDBRANCH  57  71
BRANCH  58  81
ATOM     81  C   UNL A   1      41.613  29.333  29.622  1.00  0.00    -0.014 A 
ATOM     82  C   UNL A   1      41.113  28.051  29.329  1.00  0.00     0.010 A 
ATOM     83  C   UNL A   1      42.365  30.011  28.646  1.00  0.00     0.010 A 
ATOM     84  C   UNL A   1      41.393  27.446  28.100  1.00  0.00     0.020 A 
ATOM     85  C   UNL A   1      42.621  29.422  27.405  1.00  0.00     0.020 A 
ATOM     86  C   UNL A   1      42.148  28.133  27.148  1.00  0.00     0.054 A 
BRANCH  86  87
ATOM     87  S   UNL A   1      42.483  27.337  25.552  1.00  0.00     0.124 S 
ATOM     88  O   UNL A   1      43.820  26.791  25.762  1.00  0.00    -0.237 OA
ATOM     89  O   UNL A   1      41.406  26.355  25.458  1.00  0.00    -0.237 OA
ATOM     90  O   UNL A   1      42.398  28.439  24.596  1.00  0.00    -0.744 OA
ENDBRANCH  86  87
ENDBRANCH  58  81
BRANCH  70  91
ATOM     91  C   UNL A   1      45.282  29.225  35.542  1.00  0.00    -0.014 A 
ATOM     92  C   UNL A   1      45.276  27.918  36.059  1.00  0.00     0.010 A 
ATOM     93  C   UNL A   1      46.514  29.883  35.364  1.00  0.00     0.010 A 
ATOM     94  C   UNL A   1      46.472  27.304  36.443  1.00  0.00     0.020 A 
ATOM     95  C   UNL A   1      47.713  29.261  35.717  1.00  0.00     0.020 A 
ATOM     96  C   UNL A   1      47.683  27.983  36.276  1.00  0.00     0.054 A 
BRANCH  96  97
ATOM     97  S   UNL A   1      49.224  27.165  36.774  1.00  0.00     0.124 S 
ATOM     98  O   UNL A   1      50.175  27.693  35.801  1.00  0.00    -0.237 OA
ATOM     99  O   UNL A   1      49.405  27.630  38.147  1.00  0.00    -0.237 OA
ATOM    100  O   UNL A   1      48.918  25.742  36.640  1.00  0.00    -0.744 OA
ENDBRANCH  96  97
ENDBRANCH  70  91
ENDBRANCH  44  45
ENDBRANCH  37  39
ENDBRANCH  36  37
ENDBRANCH  35  36
ENDBRANCH  34  35
ENDBRANCH  33  34
ENDBRANCH  32  33
ENDBRANCH   1  32
TORSDOF 23
ENDMDL
MODEL 2
REMARK VINA RESULT:      -9.6      5.110     10.425
REMARK SMILES Cn1cc(S(=O)(=O)N2CCCc3cc(C(=O)OCCOCCOCCOC(=O)c4ccc(-c5c6nc(c(-c7ccc(S(=O)(=O)[O-])cc7)c7ccc([nH]7)c(-c7ccc(S(=O)(=O)[O-])cc7)c7nc(c(-c8ccc(S(=O)(=O)[O-])cc8)c8ccc5[nH]8)C=C7)C=C6)cc4)ccc32)cc1C(N)=O
REMARK SMILES IDX 21 1 20 2 19 3 18 4 17 5 15 6 16 7 14 8 8 9 9 10 91 11 10 12
REMARK SMILES IDX 12 13 90 14 11 15 13 16 89 17 5 18 6 19 7 20 4 21 1 22 2 23
REMARK SMILES IDX 3 24 93 25 92 26 94 27 95 28 96 29 22 32 23 33 24 34 25 35
REMARK SMILES IDX 26 36 27 37 28 38 29 39 30 40 88 41 31 42 87 43 32 44 33 45
REMARK SMILES IDX 34 46 81 47 35 48 86 49 80 50 82 51 36 52 85 53 79 54 78 55
REMARK SMILES IDX 37 57 67 58 48 59 66 60 49 61 52 62 65 63 83 64 50 65 51 66
REMARK SMILES IDX 64 68 84 69 53 70 38 71 39 72 47 73 40 74 46 75 41 76 42 77
REMARK SMILES IDX 43 78 44 79 45 80 68 81 69 82 77 83 70 84 76 85 71 86 72 87
REMARK SMILES IDX 73 88 74 89 75 90 54 91 55 92 63 93 56 94 62 95 57 96 58 97
REMARK SMILES IDX 59 98 60 99 61 100
REMARK H PARENT 95 30 95 31 82 56 52 67
REMARK Flexibility Score: inf
ROOT
ATOM      1  C   UNL A   1      37.056  31.625  41.564  1.00  0.00     0.188 C 
ENDROOT
BRANCH   1   2
ATOM      2  O   UNL A   1      37.009  32.529  40.466  1.00  0.00    -0.376 OA
BRANCH   2   3
ATOM      3  C   UNL A   1      36.949  32.029  39.136  1.00  0.00     0.202 C 
BRANCH   3   4
ATOM      4  C   UNL A   1      37.004  32.997  37.946  1.00  0.00     0.261 C 
BRANCH   4   5
ATOM      5  O   UNL A   1      37.349  32.383  36.697  1.00  0.00    -0.460 OA
BRANCH   5   6
ATOM      6  C   UNL A   1      36.773  32.940  35.601  1.00  0.00     0.338 C 
ATOM      7  O   UNL A   1      35.938  33.827  35.585  1.00  0.00    -0.246 OA
BRANCH   6   8
ATOM      8  C   UNL A   1      37.431  32.442  34.374  1.00  0.00     0.060 A 
ATOM      9  N   UNL A   1      39.189  31.183  30.705  1.00  0.00    -0.266 N 
ATOM     10  C   UNL A   1      39.884  32.211  29.875  1.00  0.00     0.136 C 
ATOM     11  C   UNL A   1      38.627  31.613  31.966  1.00  0.00     0.055 A 
ATOM     12  C   UNL A   1      39.141  33.536  29.906  1.00  0.00     0.028 C 
ATOM     13  C   UNL A   1      38.493  32.984  32.250  1.00  0.00    -0.023 A 
ATOM     14  C   UNL A   1      38.258  30.681  32.947  1.00  0.00     0.028 A 
ATOM     15  C   UNL A   1      39.063  34.036  31.336  1.00  0.00     0.039 C 
ATOM     16  C   UNL A   1      37.878  33.389  33.445  1.00  0.00     0.021 A 
ATOM     17  C   UNL A   1      37.651  31.086  34.140  1.00  0.00     0.018 A 
BRANCH   9  18
ATOM     18  S   UNL A   1      38.324  30.008  29.791  1.00  0.00     0.265 S 
ATOM     19  O   UNL A   1      37.584  30.659  28.742  1.00  0.00    -0.201 OA
ATOM     20  O   UNL A   1      37.711  29.003  30.647  1.00  0.00    -0.201 OA
BRANCH  18  21
ATOM     21  C   UNL A   1      39.512  29.071  28.935  1.00  0.00     0.106 A 
ATOM     22  C   UNL A   1      42.240  26.718  28.752  1.00  0.00     0.150 C 
ATOM     23  N   UNL A   1      41.181  27.668  28.483  1.00  0.00    -0.345 N 
ATOM     24  C   UNL A   1      40.390  28.169  29.492  1.00  0.00     0.108 A 
ATOM     25  C   UNL A   1      40.816  28.220  27.263  1.00  0.00     0.107 A 
ATOM     26  C   UNL A   1      39.786  29.116  27.549  1.00  0.00     0.056 A 
BRANCH  25  27
ATOM     27  C   UNL A   1      41.417  27.916  25.976  1.00  0.00     0.265 C 
ATOM     28  N   UNL A   1      42.096  28.938  25.376  1.00  0.00    -0.364 N 
ATOM     29  O   UNL A   1      41.356  26.833  25.402  1.00  0.00    -0.268 OA
ATOM     30  H   UNL A   1      42.157  29.816  25.819  1.00  0.00     0.160 HD
ATOM     31  H   UNL A   1      42.524  28.798  24.500  1.00  0.00     0.160 HD
ENDBRANCH  25  27
ENDBRANCH  18  21
ENDBRANCH   9  18
ENDBRANCH   6   8
ENDBRANCH   5   6
ENDBRANCH   4   5
ENDBRANCH   3   4
ENDBRANCH   2   3
ENDBRANCH   1   2
BRANCH   1  32
ATOM     32  C   UNL A   1      37.777  32.031  42.866  1.00  0.00     0.188 C 
BRANCH  32  33
ATOM     33  O   UNL A   1      38.982  32.734  42.681  1.00  0.00    -0.376 OA
BRANCH  33  34
ATOM     34  C   UNL A   1      40.184  32.041  42.399  1.00  0.00     0.202 C 
BRANCH  34  35
ATOM     35  C   UNL A   1      41.122  32.315  41.206  1.00  0.00     0.261 C 
BRANCH  35  36
ATOM     36  O   UNL A   1      40.570  32.324  39.888  1.00  0.00    -0.460 OA
BRANCH  36  37
ATOM     37  C   UNL A   1      40.627  33.503  39.228  1.00  0.00     0.338 C 
ATOM     38  O   UNL A   1      40.452  34.616  39.695  1.00  0.00    -0.246 OA
BRANCH  37  39
ATOM     39  C   UNL A   1      41.119  33.252  37.860  1.00  0.00     0.060 A 
ATOM     40  C   UNL A   1      40.282  32.571  36.968  1.00  0.00     0.016 A 
ATOM     41  C   UNL A   1      42.405  33.641  37.474  1.00  0.00     0.016 A 
ATOM     42  C   UNL A   1      40.750  32.231  35.700  1.00  0.00     0.010 A 
ATOM     43  C   UNL A   1      42.877  33.286  36.206  1.00  0.00     0.010 A 
ATOM     44  C   UNL A   1      42.066  32.543  35.330  1.00  0.00    -0.014 A 
BRANCH  44  45
ATOM     45  C   UNL A   1      42.646  31.909  34.121  1.00  0.00     0.031 A 
ATOM     46  C   UNL A   1      42.764  32.736  32.866  1.00  0.00     0.074 A 
ATOM     47  C   UNL A   1      43.117  30.649  34.145  1.00  0.00     0.049 A 
ATOM     48  N   UNL A   1      43.269  32.413  31.704  1.00  0.00    -0.248 NA
ATOM     49  C   UNL A   1      42.250  34.115  32.937  1.00  0.00     0.031 C 
ATOM     50  C   UNL A   1      43.101  29.759  35.306  1.00  0.00     0.029 A 
ATOM     51  N   UNL A   1      43.709  29.903  33.157  1.00  0.00    -0.354 N 
ATOM     52  C   UNL A   1      43.141  33.548  30.909  1.00  0.00     0.074 A 
ATOM     53  C   UNL A   1      42.476  34.553  31.708  1.00  0.00     0.031 C 
ATOM     54  C   UNL A   1      43.662  28.585  34.961  1.00  0.00     0.029 A 
ATOM     55  C   UNL A   1      44.051  28.632  33.553  1.00  0.00     0.049 A 
ATOM     56  H   UNL A   1      43.874  30.246  32.248  1.00  0.00     0.167 HD
ATOM     57  C   UNL A   1      43.553  33.744  29.635  1.00  0.00     0.031 A 
ATOM     58  C   UNL A   1      44.606  27.621  32.854  1.00  0.00     0.031 A 
ATOM     59  C   UNL A   1      44.188  32.739  28.826  1.00  0.00     0.049 A 
ATOM     60  C   UNL A   1      44.977  27.838  31.407  1.00  0.00     0.074 A 
ATOM     61  C   UNL A   1      44.624  32.834  27.515  1.00  0.00     0.029 A 
ATOM     62  N   UNL A   1      44.474  31.450  29.249  1.00  0.00    -0.354 N 
ATOM     63  N   UNL A   1      44.863  28.923  30.677  1.00  0.00    -0.248 NA
ATOM     64  C   UNL A   1      45.567  26.693  30.698  1.00  0.00     0.031 C 
ATOM     65  C   UNL A   1      45.135  31.589  27.133  1.00  0.00     0.029 A 
ATOM     66  C   UNL A   1      45.071  30.737  28.223  1.00  0.00     0.049 A 
ATOM     67  H   UNL A   1      44.281  31.095  30.147  1.00  0.00     0.167 HD
ATOM     68  C   UNL A   1      45.404  28.600  29.434  1.00  0.00     0.074 A 
ATOM     69  C   UNL A   1      45.856  27.227  29.519  1.00  0.00     0.031 C 
ATOM     70  C   UNL A   1      45.522  29.372  28.324  1.00  0.00     0.031 A 
BRANCH  57  71
ATOM     71  C   UNL A   1      43.306  35.101  29.033  1.00  0.00    -0.014 A 
ATOM     72  C   UNL A   1      42.119  35.373  28.326  1.00  0.00     0.010 A 
ATOM     73  C   UNL A   1      44.256  36.126  29.193  1.00  0.00     0.010 A 
ATOM     74  C   UNL A   1      41.905  36.631  27.759  1.00  0.00     0.020 A 
ATOM     75  C   UNL A   1      44.033  37.394  28.650  1.00  0.00     0.020 A 
ATOM     76  C   UNL A   1      42.866  37.633  27.923  1.00  0.00     0.054 A 
BRANCH  76  77
ATOM     77  S   UNL A   1      42.552  39.263  27.193  1.00  0.00     0.124 S 
ATOM     78  O   UNL A   1      43.747  39.460  26.374  1.00  0.00    -0.237 OA
ATOM     79  O   UNL A   1      41.313  39.050  26.452  1.00  0.00    -0.237 OA
ATOM     80  O   UNL A   1      42.440  40.147  28.351  1.00  0.00    -0.744 OA
ENDBRANCH  76  77
ENDBRANCH  57  71
BRANCH  58  81
ATOM     81  C   UNL A   1      44.849  26.301  33.501  1.00  0.00    -0.014 A 
ATOM     82  C   UNL A   1      46.038  26.057  34.211  1.00  0.00     0.010 A 
ATOM     83  C   UNL A   1      43.907  25.266  33.371  1.00  0.00     0.010 A 
ATOM     84  C   UNL A   1      46.296  24.792  34.748  1.00  0.00     0.020 A 
ATOM     85  C   UNL A   1      44.147  24.009  33.932  1.00  0.00     0.020 A 
ATOM     86  C   UNL A   1      45.350  23.775  34.601  1.00  0.00     0.054 A 
BRANCH  86  87
ATOM     87  S   UNL A   1      45.696  22.145  35.321  1.00  0.00     0.124 S 
ATOM     88  O   UNL A   1      46.998  21.830  34.742  1.00  0.00    -0.237 OA
ATOM     89  O   UNL A   1      45.692  22.427  36.754  1.00  0.00    -0.237 OA
ATOM     90  O   UNL A   1      44.584  21.322  34.851  1.00  0.00    -0.744 OA
ENDBRANCH  86  87
ENDBRANCH  58  81
BRANCH  70  91
ATOM     91  C   UNL A   1      46.219  28.769  27.133  1.00  0.00    -0.014 A 
ATOM     92  C   UNL A   1      47.620  28.783  27.012  1.00  0.00     0.010 A 
ATOM     93  C   UNL A   1      45.453  28.157  26.123  1.00  0.00     0.010 A 
ATOM     94  C   UNL A   1      48.238  28.245  25.879  1.00  0.00     0.020 A 
ATOM     95  C   UNL A   1      46.068  27.590  25.004  1.00  0.00     0.020 A 
ATOM     96  C   UNL A   1      47.456  27.658  24.878  1.00  0.00     0.054 A 
BRANCH  96  97
ATOM     97  S   UNL A   1      48.278  26.961  23.419  1.00  0.00     0.124 S 
ATOM     98  O   UNL A   1      47.905  25.552  23.505  1.00  0.00    -0.237 OA
ATOM     99  O   UNL A   1      47.670  27.707  22.320  1.00  0.00    -0.237 OA
ATOM    100  O   UNL A   1      49.692  27.247  23.650  1.00  0.00    -0.744 OA
ENDBRANCH  96  97
ENDBRANCH  70  91
ENDBRANCH  44  45
ENDBRANCH  37  39
ENDBRANCH  36  37
ENDBRANCH  35  36
ENDBRANCH  34  35
ENDBRANCH  33  34
ENDBRANCH  32  33
ENDBRANCH   1  32
TORSDOF 23
ENDMDL
MODEL 3
REMARK VINA RESULT:      -9.5      4.684     11.108
REMARK SMILES Cn1cc(S(=O)(=O)N2CCCc3cc(C(=O)OCCOCCOCCOC(=O)c4ccc(-c5c6nc(c(-c7ccc(S(=O)(=O)[O-])cc7)c7ccc([nH]7)c(-c7ccc(S(=O)(=O)[O-])cc7)c7nc(c(-c8ccc(S(=O)(=O)[O-])cc8)c8ccc5[nH]8)C=C7)C=C6)cc4)ccc32)cc1C(N)=O
REMARK SMILES IDX 21 1 20 2 19 3 18 4 17 5 15 6 16 7 14 8 8 9 9 10 91 11 10 12
REMARK SMILES IDX 12 13 90 14 11 15 13 16 89 17 5 18 6 19 7 20 4 21 1 22 2 23
REMARK SMILES IDX 3 24 93 25 92 26 94 27 95 28 96 29 22 32 23 33 24 34 25 35
REMARK SMILES IDX 26 36 27 37 28 38 29 39 30 40 88 41 31 42 87 43 32 44 33 45
REMARK SMILES IDX 34 46 81 47 35 48 86 49 80 50 82 51 36 52 85 53 79 54 78 55
REMARK SMILES IDX 37 57 67 58 48 59 66 60 49 61 52 62 65 63 83 64 50 65 51 66
REMARK SMILES IDX 64 68 84 69 53 70 38 71 39 72 47 73 40 74 46 75 41 76 42 77
REMARK SMILES IDX 43 78 44 79 45 80 68 81 69 82 77 83 70 84 76 85 71 86 72 87
REMARK SMILES IDX 73 88 74 89 75 90 54 91 55 92 63 93 56 94 62 95 57 96 58 97
REMARK SMILES IDX 59 98 60 99 61 100
REMARK H PARENT 95 30 95 31 82 56 52 67
REMARK Flexibility Score: inf
ROOT
ATOM      1  C   UNL A   1      44.288  23.422  28.041  1.00  0.00     0.188 C 
ENDROOT
BRANCH   1   2
ATOM      2  O   UNL A   1      43.305  23.851  27.105  1.00  0.00    -0.376 OA
BRANCH   2   3
ATOM      3  C   UNL A   1      42.819  25.188  27.148  1.00  0.00     0.202 C 
BRANCH   3   4
ATOM      4  C   UNL A   1      42.152  25.724  28.422  1.00  0.00     0.261 C 
BRANCH   4   5
ATOM      5  O   UNL A   1      41.648  27.062  28.310  1.00  0.00    -0.460 OA
BRANCH   5   6
ATOM      6  C   UNL A   1      40.324  27.159  28.030  1.00  0.00     0.338 C 
ATOM      7  O   UNL A   1      39.649  26.362  27.402  1.00  0.00    -0.246 OA
BRANCH   6   8
ATOM      8  C   UNL A   1      39.736  28.308  28.752  1.00  0.00     0.060 A 
ATOM      9  N   UNL A   1      38.133  31.516  31.050  1.00  0.00    -0.266 N 
ATOM     10  C   UNL A   1      39.073  32.300  31.903  1.00  0.00     0.136 C 
ATOM     11  C   UNL A   1      38.693  30.452  30.246  1.00  0.00     0.055 A 
ATOM     12  C   UNL A   1      40.117  31.400  32.543  1.00  0.00     0.028 C 
ATOM     13  C   UNL A   1      40.004  30.001  30.482  1.00  0.00    -0.023 A 
ATOM     14  C   UNL A   1      37.966  29.890  29.186  1.00  0.00     0.028 A 
ATOM     15  C   UNL A   1      40.913  30.701  31.457  1.00  0.00     0.039 C 
ATOM     16  C   UNL A   1      40.510  28.919  29.745  1.00  0.00     0.021 A 
ATOM     17  C   UNL A   1      38.473  28.815  28.448  1.00  0.00     0.018 A 
BRANCH   9  18
ATOM     18  S   UNL A   1      36.583  31.267  31.757  1.00  0.00     0.265 S 
ATOM     19  O   UNL A   1      36.663  31.455  33.181  1.00  0.00    -0.201 OA
ATOM     20  O   UNL A   1      35.903  30.119  31.175  1.00  0.00    -0.201 OA
BRANCH  18  21
ATOM     21  C   UNL A   1      35.579  32.583  31.226  1.00  0.00     0.106 A 
ATOM     22  C   UNL A   1      33.358  35.371  31.784  1.00  0.00     0.150 C 
ATOM     23  N   UNL A   1      34.204  34.335  31.229  1.00  0.00    -0.345 N 
ATOM     24  C   UNL A   1      34.909  33.471  32.036  1.00  0.00     0.108 A 
ATOM     25  C   UNL A   1      34.422  34.033  29.892  1.00  0.00     0.107 A 
ATOM     26  C   UNL A   1      35.264  32.921  29.889  1.00  0.00     0.056 A 
BRANCH  25  27
ATOM     27  C   UNL A   1      33.857  34.740  28.755  1.00  0.00     0.265 C 
ATOM     28  N   UNL A   1      33.076  33.997  27.916  1.00  0.00    -0.364 N 
ATOM     29  O   UNL A   1      34.031  35.927  28.500  1.00  0.00    -0.268 OA
ATOM     30  H   UNL A   1      32.923  33.042  28.101  1.00  0.00     0.160 HD
ATOM     31  H   UNL A   1      32.666  34.417  27.125  1.00  0.00     0.160 HD
ENDBRANCH  25  27
ENDBRANCH  18  21
ENDBRANCH   9  18
ENDBRANCH   6   8
ENDBRANCH   5   6
ENDBRANCH   4   5
ENDBRANCH   3   4
ENDBRANCH   2   3
ENDBRANCH   1   2
BRANCH   1  32
ATOM     32  C   UNL A   1      45.637  24.164  28.135  1.00  0.00     0.188 C 
BRANCH  32  33
ATOM     33  O   UNL A   1      46.661  23.639  27.325  1.00  0.00    -0.376 OA
BRANCH  33  34
ATOM     34  C   UNL A   1      46.559  23.688  25.915  1.00  0.00     0.202 C 
BRANCH  34  35
ATOM     35  C   UNL A   1      47.162  24.780  25.007  1.00  0.00     0.261 C 
BRANCH  35  36
ATOM     36  O   UNL A   1      46.283  25.726  24.397  1.00  0.00    -0.460 OA
BRANCH  36  37
ATOM     37  C   UNL A   1      46.792  26.962  24.190  1.00  0.00     0.338 C 
ATOM     38  O   UNL A   1      47.508  27.317  23.269  1.00  0.00    -0.246 OA
BRANCH  37  39
ATOM     39  C   UNL A   1      46.194  27.886  25.173  1.00  0.00     0.060 A 
ATOM     40  C   UNL A   1      47.030  28.811  25.809  1.00  0.00     0.016 A 
ATOM     41  C   UNL A   1      44.836  27.813  25.496  1.00  0.00     0.016 A 
ATOM     42  C   UNL A   1      46.519  29.633  26.812  1.00  0.00     0.010 A 
ATOM     43  C   UNL A   1      44.329  28.629  26.513  1.00  0.00     0.010 A 
ATOM     44  C   UNL A   1      45.178  29.512  27.204  1.00  0.00    -0.014 A 
BRANCH  44  45
ATOM     45  C   UNL A   1      44.733  30.156  28.464  1.00  0.00     0.031 A 
ATOM     46  C   UNL A   1      44.678  29.316  29.715  1.00  0.00     0.074 A 
ATOM     47  C   UNL A   1      44.443  31.468  28.519  1.00  0.00     0.049 A 
ATOM     48  N   UNL A   1      44.359  29.664  30.934  1.00  0.00    -0.248 NA
ATOM     49  C   UNL A   1      45.040  27.896  29.569  1.00  0.00     0.031 C 
ATOM     50  C   UNL A   1      44.499  32.398  27.391  1.00  0.00     0.029 A 
ATOM     51  N   UNL A   1      44.049  32.247  29.578  1.00  0.00    -0.354 N 
ATOM     52  C   UNL A   1      44.489  28.511  31.701  1.00  0.00     0.074 A 
ATOM     53  C   UNL A   1      44.876  27.445  30.803  1.00  0.00     0.031 C 
ATOM     54  C   UNL A   1      44.152  33.625  27.822  1.00  0.00     0.029 A 
ATOM     55  C   UNL A   1      43.827  33.562  29.245  1.00  0.00     0.049 A 
ATOM     56  H   UNL A   1      43.936  31.896  30.492  1.00  0.00     0.167 HD
ATOM     57  C   UNL A   1      44.317  28.352  33.034  1.00  0.00     0.031 A 
ATOM     58  C   UNL A   1      43.401  34.592  30.004  1.00  0.00     0.031 A 
ATOM     59  C   UNL A   1      43.902  29.401  33.927  1.00  0.00     0.049 A 
ATOM     60  C   UNL A   1      43.131  34.370  31.472  1.00  0.00     0.074 A 
ATOM     61  C   UNL A   1      43.680  29.336  35.292  1.00  0.00     0.029 A 
ATOM     62  N   UNL A   1      43.641  30.708  33.542  1.00  0.00    -0.354 N 
ATOM     63  N   UNL A   1      43.274  33.275  32.183  1.00  0.00    -0.248 NA
ATOM     64  C   UNL A   1      42.658  35.530  32.240  1.00  0.00     0.031 C 
ATOM     65  C   UNL A   1      43.243  30.592  35.725  1.00  0.00     0.029 A 
ATOM     66  C   UNL A   1      43.251  31.455  34.640  1.00  0.00     0.049 A 
ATOM     67  H   UNL A   1      43.723  31.052  32.624  1.00  0.00     0.167 HD
ATOM     68  C   UNL A   1      42.946  33.629  33.490  1.00  0.00     0.074 A 
ATOM     69  C   UNL A   1      42.611  35.037  33.471  1.00  0.00     0.031 C 
ATOM     70  C   UNL A   1      42.928  32.859  34.607  1.00  0.00     0.031 A 
BRANCH  57  71
ATOM     71  C   UNL A   1      44.560  26.979  33.602  1.00  0.00    -0.014 A 
ATOM     72  C   UNL A   1      45.864  26.541  33.898  1.00  0.00     0.010 A 
ATOM     73  C   UNL A   1      43.474  26.125  33.864  1.00  0.00     0.010 A 
ATOM     74  C   UNL A   1      46.080  25.260  34.411  1.00  0.00     0.020 A 
ATOM     75  C   UNL A   1      43.684  24.852  34.403  1.00  0.00     0.020 A 
ATOM     76  C   UNL A   1      44.988  24.423  34.657  1.00  0.00     0.054 A 
BRANCH  76  77
ATOM     77  S   UNL A   1      45.297  22.772  35.342  1.00  0.00     0.124 S 
ATOM     78  O   UNL A   1      44.271  21.974  34.675  1.00  0.00    -0.237 OA
ATOM     79  O   UNL A   1      46.670  22.504  34.924  1.00  0.00    -0.237 OA
ATOM     80  O   UNL A   1      45.110  22.952  36.779  1.00  0.00    -0.744 OA
ENDBRANCH  76  77
ENDBRANCH  57  71
BRANCH  58  81
ATOM     81  C   UNL A   1      43.193  35.938  29.399  1.00  0.00    -0.014 A 
ATOM     82  C   UNL A   1      44.104  36.982  29.642  1.00  0.00     0.010 A 
ATOM     83  C   UNL A   1      42.057  36.193  28.611  1.00  0.00     0.010 A 
ATOM     84  C   UNL A   1      43.862  38.264  29.138  1.00  0.00     0.020 A 
ATOM     85  C   UNL A   1      41.828  37.465  28.079  1.00  0.00     0.020 A 
ATOM     86  C   UNL A   1      42.723  38.497  28.363  1.00  0.00     0.054 A 
BRANCH  86  87
ATOM     87  S   UNL A   1      42.439  40.164  27.703  1.00  0.00     0.124 S 
ATOM     88  O   UNL A   1      43.644  40.867  28.130  1.00  0.00    -0.237 OA
ATOM     89  O   UNL A   1      42.323  39.919  26.268  1.00  0.00    -0.237 OA
ATOM     90  O   UNL A   1      41.202  40.584  28.359  1.00  0.00    -0.744 OA
ENDBRANCH  86  87
ENDBRANCH  58  81
BRANCH  70  91
ATOM     91  C   UNL A   1      42.593  33.537  35.910  1.00  0.00    -0.014 A 
ATOM     92  C   UNL A   1      43.586  34.117  36.718  1.00  0.00     0.010 A 
ATOM     93  C   UNL A   1      41.248  33.613  36.322  1.00  0.00     0.010 A 
ATOM     94  C   UNL A   1      43.249  34.710  37.938  1.00  0.00     0.020 A 
ATOM     95  C   UNL A   1      40.904  34.232  37.525  1.00  0.00     0.020 A 
ATOM     96  C   UNL A   1      41.909  34.757  38.337  1.00  0.00     0.054 A 
BRANCH  96  97
ATOM     97  S   UNL A   1      41.493  35.537  39.921  1.00  0.00     0.124 S 
ATOM     98  O   UNL A   1      42.814  35.839  40.466  1.00  0.00    -0.237 OA
ATOM     99  O   UNL A   1      40.702  36.695  39.512  1.00  0.00    -0.237 OA
ATOM    100  O   UNL A   1      40.748  34.500  40.631  1.00  0.00    -0.744 OA
ENDBRANCH  96  97
ENDBRANCH  70  91
ENDBRANCH  44  45
ENDBRANCH  37  39
ENDBRANCH  36  37
ENDBRANCH  35  36
ENDBRANCH  34  35
ENDBRANCH  33  34
ENDBRANCH  32  33
ENDBRANCH   1  32
TORSDOF 23
ENDMDL
