MODEL 1
REMARK VINA RESULT:      -8.7      0.000      0.000
REMARK SMILES O=C(OCCOCCOCCOC(=O)[C@H](Cc1ccccn1)[C@H]1CCS(=O)(=O)C1)c1ccc(-c2c3nc(c(-c4ccc(S(=O)(=O)[O-])cc4)c4ccc([nH]4)c(-c4ccc(S(=O)(=O)[O-])cc4)c4nc(c(-c5ccc(S(=O)(=O)[O-])cc5)c5ccc2[nH]5)C=C4)C=C3)cc1
REMARK SMILES IDX 7 1 6 2 5 3 4 4 3 5 2 6 1 7 30 8 31 9 89 10 32 11 88 12
REMARK SMILES IDX 33 13 34 14 35 15 82 16 36 17 87 18 81 19 83 20 37 21 86 22
REMARK SMILES IDX 80 23 79 24 38 26 68 27 49 28 67 29 50 30 53 31 66 32 84 33
REMARK SMILES IDX 51 34 52 35 65 37 85 38 54 39 39 40 40 41 48 42 41 43 47 44
REMARK SMILES IDX 42 45 43 46 44 47 45 48 46 49 69 50 70 51 78 52 71 53 77 54
REMARK SMILES IDX 72 55 73 56 74 57 75 58 76 59 55 60 56 61 64 62 57 63 63 64
REMARK SMILES IDX 58 65 59 66 60 67 61 68 62 69 8 70 9 71 10 72 11 73 12 74
REMARK SMILES IDX 13 75 14 76 15 77 16 78 17 79 18 80 22 81 19 82 21 83 20 84
REMARK SMILES IDX 23 85 24 86 29 87 25 88 26 89 27 90 28 91
REMARK H PARENT 83 25 53 36
REMARK Flexibility Score: inf
ROOT
ATOM      1  C   UNL A   1      35.083  32.343  29.446  1.00  0.00     0.188 C 
ENDROOT
BRANCH   1   2
ATOM      2  O   UNL A   1      34.001  33.044  28.815  1.00  0.00    -0.376 OA
BRANCH   2   3
ATOM      3  C   UNL A   1      34.254  34.440  28.615  1.00  0.00     0.202 C 
BRANCH   3   4
ATOM      4  C   UNL A   1      33.325  35.408  29.364  1.00  0.00     0.261 C 
BRANCH   4   5
ATOM      5  O   UNL A   1      32.719  34.831  30.524  1.00  0.00    -0.460 OA
BRANCH   5   6
ATOM      6  C   UNL A   1      33.187  34.825  31.794  1.00  0.00     0.338 C 
ATOM      7  O   UNL A   1      32.444  35.256  32.676  1.00  0.00    -0.246 OA
BRANCH   6   8
ATOM      8  C   UNL A   1      34.551  34.350  32.203  1.00  0.00     0.060 A 
ATOM      9  C   UNL A   1      35.743  35.083  32.156  1.00  0.00     0.016 A 
ATOM     10  C   UNL A   1      34.609  33.062  32.755  1.00  0.00     0.016 A 
ATOM     11  C   UNL A   1      36.957  34.554  32.590  1.00  0.00     0.010 A 
ATOM     12  C   UNL A   1      35.810  32.545  33.247  1.00  0.00     0.010 A 
ATOM     13  C   UNL A   1      37.003  33.282  33.141  1.00  0.00    -0.014 A 
BRANCH  13  14
ATOM     14  C   UNL A   1      38.306  32.643  33.432  1.00  0.00     0.031 A 
ATOM     15  C   UNL A   1      38.872  32.892  34.796  1.00  0.00     0.074 A 
ATOM     16  C   UNL A   1      38.944  31.854  32.544  1.00  0.00     0.049 A 
ATOM     17  N   UNL A   1      40.011  32.511  35.301  1.00  0.00    -0.248 NA
ATOM     18  C   UNL A   1      38.039  33.690  35.716  1.00  0.00     0.031 C 
ATOM     19  C   UNL A   1      38.427  31.453  31.240  1.00  0.00     0.029 A 
ATOM     20  N   UNL A   1      40.168  31.235  32.599  1.00  0.00    -0.354 N 
ATOM     21  C   UNL A   1      40.030  33.040  36.584  1.00  0.00     0.074 A 
ATOM     22  C   UNL A   1      38.855  33.862  36.737  1.00  0.00     0.031 C 
ATOM     23  C   UNL A   1      39.333  30.700  30.596  1.00  0.00     0.029 A 
ATOM     24  C   UNL A   1      40.496  30.544  31.452  1.00  0.00     0.049 A 
ATOM     25  H   UNL A   1      40.758  31.281  33.387  1.00  0.00     0.167 HD
ATOM     26  C   UNL A   1      40.915  32.805  37.574  1.00  0.00     0.031 A 
ATOM     27  C   UNL A   1      41.600  29.838  31.141  1.00  0.00     0.031 A 
ATOM     28  C   UNL A   1      42.064  31.970  37.400  1.00  0.00     0.049 A 
ATOM     29  C   UNL A   1      42.634  29.675  32.220  1.00  0.00     0.074 A 
ATOM     30  C   UNL A   1      43.046  31.649  38.312  1.00  0.00     0.029 A 
ATOM     31  N   UNL A   1      42.379  31.322  36.210  1.00  0.00    -0.354 N 
ATOM     32  N   UNL A   1      42.623  30.156  33.443  1.00  0.00    -0.248 NA
ATOM     33  C   UNL A   1      43.797  28.839  31.907  1.00  0.00     0.031 C 
ATOM     34  C   UNL A   1      43.990  30.852  37.655  1.00  0.00     0.029 A 
ATOM     35  C   UNL A   1      43.557  30.618  36.357  1.00  0.00     0.049 A 
ATOM     36  H   UNL A   1      41.841  31.361  35.387  1.00  0.00     0.167 HD
ATOM     37  C   UNL A   1      43.746  29.634  34.066  1.00  0.00     0.074 A 
ATOM     38  C   UNL A   1      44.416  28.804  33.080  1.00  0.00     0.031 C 
ATOM     39  C   UNL A   1      44.178  29.803  35.341  1.00  0.00     0.031 A 
BRANCH  26  40
ATOM     40  C   UNL A   1      40.646  33.504  38.877  1.00  0.00    -0.014 A 
ATOM     41  C   UNL A   1      39.722  32.984  39.805  1.00  0.00     0.010 A 
ATOM     42  C   UNL A   1      41.221  34.763  39.112  1.00  0.00     0.010 A 
ATOM     43  C   UNL A   1      39.307  33.752  40.895  1.00  0.00     0.020 A 
ATOM     44  C   UNL A   1      40.837  35.517  40.224  1.00  0.00     0.020 A 
ATOM     45  C   UNL A   1      39.860  35.021  41.090  1.00  0.00     0.054 A 
BRANCH  45  46
ATOM     46  S   UNL A   1      39.272  36.018  42.485  1.00  0.00     0.124 S 
ATOM     47  O   UNL A   1      39.319  37.369  41.931  1.00  0.00    -0.237 OA
ATOM     48  O   UNL A   1      37.934  35.482  42.719  1.00  0.00    -0.237 OA
ATOM     49  O   UNL A   1      40.245  35.742  43.541  1.00  0.00    -0.744 OA
ENDBRANCH  45  46
ENDBRANCH  26  40
BRANCH  27  50
ATOM     50  C   UNL A   1      41.742  29.176  29.809  1.00  0.00    -0.014 A 
ATOM     51  C   UNL A   1      41.376  27.830  29.631  1.00  0.00     0.010 A 
ATOM     52  C   UNL A   1      42.239  29.890  28.701  1.00  0.00     0.010 A 
ATOM     53  C   UNL A   1      41.521  27.205  28.386  1.00  0.00     0.020 A 
ATOM     54  C   UNL A   1      42.367  29.275  27.447  1.00  0.00     0.020 A 
ATOM     55  C   UNL A   1      42.015  27.933  27.300  1.00  0.00     0.054 A 
BRANCH  55  56
ATOM     56  S   UNL A   1      42.152  27.108  25.686  1.00  0.00     0.124 S 
ATOM     57  O   UNL A   1      40.905  26.353  25.619  1.00  0.00    -0.237 OA
ATOM     58  O   UNL A   1      42.258  28.238  24.766  1.00  0.00    -0.237 OA
ATOM     59  O   UNL A   1      43.366  26.304  25.813  1.00  0.00    -0.744 OA
ENDBRANCH  55  56
ENDBRANCH  27  50
BRANCH  39  60
ATOM     60  C   UNL A   1      45.399  29.033  35.753  1.00  0.00    -0.014 A 
ATOM     61  C   UNL A   1      45.296  27.775  36.367  1.00  0.00     0.010 A 
ATOM     62  C   UNL A   1      46.666  29.554  35.436  1.00  0.00     0.010 A 
ATOM     63  C   UNL A   1      46.451  27.058  36.681  1.00  0.00     0.020 A 
ATOM     64  C   UNL A   1      47.819  28.824  35.715  1.00  0.00     0.020 A 
ATOM     65  C   UNL A   1      47.703  27.585  36.347  1.00  0.00     0.054 A 
BRANCH  65  66
ATOM     66  S   UNL A   1      49.182  26.603  36.707  1.00  0.00     0.124 S 
ATOM     67  O   UNL A   1      49.751  26.415  35.375  1.00  0.00    -0.237 OA
ATOM     68  O   UNL A   1      49.938  27.479  37.598  1.00  0.00    -0.237 OA
ATOM     69  O   UNL A   1      48.650  25.395  37.335  1.00  0.00    -0.744 OA
ENDBRANCH  65  66
ENDBRANCH  39  60
ENDBRANCH  13  14
ENDBRANCH   6   8
ENDBRANCH   5   6
ENDBRANCH   4   5
ENDBRANCH   3   4
ENDBRANCH   2   3
ENDBRANCH   1   2
BRANCH   1  70
ATOM     70  C   UNL A   1      35.713  31.265  28.558  1.00  0.00     0.188 C 
BRANCH  70  71
ATOM     71  O   UNL A   1      34.884  30.161  28.199  1.00  0.00    -0.376 OA
BRANCH  71  72
ATOM     72  C   UNL A   1      35.037  29.645  26.887  1.00  0.00     0.202 C 
BRANCH  72  73
ATOM     73  C   UNL A   1      33.874  28.867  26.263  1.00  0.00     0.261 C 
BRANCH  73  74
ATOM     74  O   UNL A   1      33.813  27.462  26.551  1.00  0.00    -0.463 OA
BRANCH  74  75
ATOM     75  C   UNL A   1      32.555  26.957  26.654  1.00  0.00     0.309 C 
ATOM     76  O   UNL A   1      31.672  27.426  27.365  1.00  0.00    -0.252 OA
BRANCH  75  77
ATOM     77  C   UNL A   1      32.355  25.667  25.866  1.00  0.00     0.109 C 
BRANCH  77  78
ATOM     78  C   UNL A   1      33.337  24.535  26.261  1.00  0.00     0.071 C 
BRANCH  78  79
ATOM     79  C   UNL A   1      33.069  23.179  25.661  1.00  0.00     0.041 A 
ATOM     80  C   UNL A   1      33.983  22.616  24.773  1.00  0.00     0.024 A 
ATOM     81  N   UNL A   1      31.875  22.604  25.943  1.00  0.00    -0.261 NA
ATOM     82  C   UNL A   1      33.649  21.429  24.129  1.00  0.00     0.003 A 
ATOM     83  C   UNL A   1      31.596  21.432  25.334  1.00  0.00     0.111 A 
ATOM     84  C   UNL A   1      32.432  20.821  24.414  1.00  0.00     0.020 A 
ENDBRANCH  78  79
ENDBRANCH  77  78
BRANCH  77  85
ATOM     85  C   UNL A   1      32.119  25.867  24.349  1.00  0.00     0.020 C 
ATOM     86  C   UNL A   1      31.242  27.061  23.963  1.00  0.00     0.021 C 
ATOM     87  C   UNL A   1      33.456  26.025  23.603  1.00  0.00     0.141 C 
ATOM     88  C   UNL A   1      31.626  27.566  22.574  1.00  0.00     0.137 C 
ATOM     89  S   UNL A   1      33.045  26.685  22.015  1.00  0.00     0.150 S 
ATOM     90  O   UNL A   1      32.608  25.604  21.161  1.00  0.00    -0.229 OA
ATOM     91  O   UNL A   1      34.070  27.627  21.608  1.00  0.00    -0.229 OA
ENDBRANCH  77  85
ENDBRANCH  75  77
ENDBRANCH  74  75
ENDBRANCH  73  74
ENDBRANCH  72  73
ENDBRANCH  71  72
ENDBRANCH  70  71
ENDBRANCH   1  70
TORSDOF 23
ENDMDL
MODEL 2
REMARK VINA RESULT:      -8.6      5.992     10.146
REMARK SMILES O=C(OCCOCCOCCOC(=O)[C@H](Cc1ccccn1)[C@H]1CCS(=O)(=O)C1)c1ccc(-c2c3nc(c(-c4ccc(S(=O)(=O)[O-])cc4)c4ccc([nH]4)c(-c4ccc(S(=O)(=O)[O-])cc4)c4nc(c(-c5ccc(S(=O)(=O)[O-])cc5)c5ccc2[nH]5)C=C4)C=C3)cc1
REMARK SMILES IDX 7 1 6 2 5 3 4 4 3 5 2 6 1 7 30 8 31 9 89 10 32 11 88 12
REMARK SMILES IDX 33 13 34 14 35 15 82 16 36 17 87 18 81 19 83 20 37 21 86 22
REMARK SMILES IDX 80 23 79 24 38 26 68 27 49 28 67 29 50 30 53 31 66 32 84 33
REMARK SMILES IDX 51 34 52 35 65 37 85 38 54 39 39 40 40 41 48 42 41 43 47 44
REMARK SMILES IDX 42 45 43 46 44 47 45 48 46 49 69 50 70 51 78 52 71 53 77 54
REMARK SMILES IDX 72 55 73 56 74 57 75 58 76 59 55 60 56 61 64 62 57 63 63 64
REMARK SMILES IDX 58 65 59 66 60 67 61 68 62 69 8 70 9 71 10 72 11 73 12 74
REMARK SMILES IDX 13 75 14 76 15 77 16 78 17 79 18 80 22 81 19 82 21 83 20 84
REMARK SMILES IDX 23 85 24 86 29 87 25 88 26 89 27 90 28 91
REMARK H PARENT 83 25 53 36
REMARK Flexibility Score: inf
ROOT
ATOM      1  C   UNL A   1      36.697  22.347  25.165  1.00  0.00     0.188 C 
ENDROOT
BRANCH   1   2
ATOM      2  O   UNL A   1      36.588  20.921  25.054  1.00  0.00    -0.376 OA
BRANCH   2   3
ATOM      3  C   UNL A   1      37.847  20.238  25.118  1.00  0.00     0.202 C 
BRANCH   3   4
ATOM      4  C   UNL A   1      39.064  21.102  25.483  1.00  0.00     0.261 C 
BRANCH   4   5
ATOM      5  O   UNL A   1      39.680  20.723  26.717  1.00  0.00    -0.460 OA
BRANCH   5   6
ATOM      6  C   UNL A   1      40.999  20.709  27.022  1.00  0.00     0.338 C 
ATOM      7  O   UNL A   1      41.548  19.612  27.125  1.00  0.00    -0.246 OA
BRANCH   6   8
ATOM      8  C   UNL A   1      41.836  21.931  27.263  1.00  0.00     0.060 A 
ATOM      9  C   UNL A   1      42.617  22.204  28.392  1.00  0.00     0.016 A 
ATOM     10  C   UNL A   1      41.889  22.853  26.207  1.00  0.00     0.016 A 
ATOM     11  C   UNL A   1      43.384  23.363  28.502  1.00  0.00     0.010 A 
ATOM     12  C   UNL A   1      42.701  23.988  26.283  1.00  0.00     0.010 A 
ATOM     13  C   UNL A   1      43.435  24.265  27.450  1.00  0.00    -0.014 A 
BRANCH  13  14
ATOM     14  C   UNL A   1      44.093  25.578  27.625  1.00  0.00     0.031 A 
ATOM     15  C   UNL A   1      43.276  26.641  28.293  1.00  0.00     0.074 A 
ATOM     16  C   UNL A   1      45.364  25.813  27.240  1.00  0.00     0.049 A 
ATOM     17  N   UNL A   1      43.571  27.888  28.524  1.00  0.00    -0.248 NA
ATOM     18  C   UNL A   1      41.935  26.240  28.759  1.00  0.00     0.031 C 
ATOM     19  C   UNL A   1      46.281  24.820  26.690  1.00  0.00     0.029 A 
ATOM     20  N   UNL A   1      46.117  26.960  27.255  1.00  0.00    -0.354 N 
ATOM     21  C   UNL A   1      42.446  28.415  29.141  1.00  0.00     0.074 A 
ATOM     22  C   UNL A   1      41.427  27.395  29.141  1.00  0.00     0.031 C 
ATOM     23  C   UNL A   1      47.452  25.397  26.377  1.00  0.00     0.029 A 
ATOM     24  C   UNL A   1      47.380  26.806  26.722  1.00  0.00     0.049 A 
ATOM     25  H   UNL A   1      45.786  27.816  27.615  1.00  0.00     0.167 HD
ATOM     26  C   UNL A   1      42.297  29.623  29.722  1.00  0.00     0.031 A 
ATOM     27  C   UNL A   1      48.376  27.698  26.560  1.00  0.00     0.031 A 
ATOM     28  C   UNL A   1      43.332  30.612  29.723  1.00  0.00     0.049 A 
ATOM     29  C   UNL A   1      48.155  29.077  27.115  1.00  0.00     0.074 A 
ATOM     30  C   UNL A   1      43.318  31.879  30.267  1.00  0.00     0.029 A 
ATOM     31  N   UNL A   1      44.580  30.429  29.137  1.00  0.00    -0.354 N 
ATOM     32  N   UNL A   1      47.095  29.554  27.727  1.00  0.00    -0.248 NA
ATOM     33  C   UNL A   1      49.271  30.023  27.011  1.00  0.00     0.031 C 
ATOM     34  C   UNL A   1      44.541  32.486  29.958  1.00  0.00     0.029 A 
ATOM     35  C   UNL A   1      45.341  31.571  29.286  1.00  0.00     0.049 A 
ATOM     36  H   UNL A   1      44.876  29.607  28.684  1.00  0.00     0.167 HD
ATOM     37  C   UNL A   1      47.434  30.834  28.134  1.00  0.00     0.074 A 
ATOM     38  C   UNL A   1      48.799  31.059  27.691  1.00  0.00     0.031 C 
ATOM     39  C   UNL A   1      46.699  31.739  28.828  1.00  0.00     0.031 A 
BRANCH  26  40
ATOM     40  C   UNL A   1      40.957  29.894  30.346  1.00  0.00    -0.014 A 
ATOM     41  C   UNL A   1      39.929  30.528  29.618  1.00  0.00     0.010 A 
ATOM     42  C   UNL A   1      40.771  29.638  31.713  1.00  0.00     0.010 A 
ATOM     43  C   UNL A   1      38.781  30.984  30.268  1.00  0.00     0.020 A 
ATOM     44  C   UNL A   1      39.605  30.057  32.358  1.00  0.00     0.020 A 
ATOM     45  C   UNL A   1      38.632  30.756  31.638  1.00  0.00     0.054 A 
BRANCH  45  46
ATOM     46  S   UNL A   1      37.155  31.397  32.469  1.00  0.00     0.124 S 
ATOM     47  O   UNL A   1      37.655  31.653  33.818  1.00  0.00    -0.237 OA
ATOM     48  O   UNL A   1      36.837  32.585  31.683  1.00  0.00    -0.237 OA
ATOM     49  O   UNL A   1      36.193  30.303  32.358  1.00  0.00    -0.744 OA
ENDBRANCH  45  46
ENDBRANCH  26  40
BRANCH  27  50
ATOM     50  C   UNL A   1      49.672  27.300  25.934  1.00  0.00    -0.014 A 
ATOM     51  C   UNL A   1      49.884  27.461  24.553  1.00  0.00     0.010 A 
ATOM     52  C   UNL A   1      50.713  26.761  26.715  1.00  0.00     0.010 A 
ATOM     53  C   UNL A   1      51.095  27.075  23.962  1.00  0.00     0.020 A 
ATOM     54  C   UNL A   1      51.935  26.393  26.133  1.00  0.00     0.020 A 
ATOM     55  C   UNL A   1      52.114  26.545  24.758  1.00  0.00     0.054 A 
BRANCH  55  56
ATOM     56  S   UNL A   1      53.689  26.094  23.971  1.00  0.00     0.124 S 
ATOM     57  O   UNL A   1      54.030  24.850  24.654  1.00  0.00    -0.237 OA
ATOM     58  O   UNL A   1      53.311  25.961  22.566  1.00  0.00    -0.237 OA
ATOM     59  O   UNL A   1      54.559  27.231  24.268  1.00  0.00    -0.744 OA
ENDBRANCH  55  56
ENDBRANCH  27  50
BRANCH  39  60
ATOM     60  C   UNL A   1      47.376  33.026  29.197  1.00  0.00    -0.014 A 
ATOM     61  C   UNL A   1      48.156  33.135  30.359  1.00  0.00     0.010 A 
ATOM     62  C   UNL A   1      47.290  34.115  28.310  1.00  0.00     0.010 A 
ATOM     63  C   UNL A   1      48.822  34.328  30.641  1.00  0.00     0.020 A 
ATOM     64  C   UNL A   1      47.984  35.294  28.570  1.00  0.00     0.020 A 
ATOM     65  C   UNL A   1      48.737  35.396  29.741  1.00  0.00     0.054 A 
BRANCH  65  66
ATOM     66  S   UNL A   1      49.666  36.909  30.099  1.00  0.00     0.124 S 
ATOM     67  O   UNL A   1      49.851  37.473  28.765  1.00  0.00    -0.237 OA
ATOM     68  O   UNL A   1      48.755  37.643  30.974  1.00  0.00    -0.237 OA
ATOM     69  O   UNL A   1      50.883  36.422  30.745  1.00  0.00    -0.744 OA
ENDBRANCH  65  66
ENDBRANCH  39  60
ENDBRANCH  13  14
ENDBRANCH   6   8
ENDBRANCH   5   6
ENDBRANCH   4   5
ENDBRANCH   3   4
ENDBRANCH   2   3
ENDBRANCH   1   2
BRANCH   1  70
ATOM     70  C   UNL A   1      35.582  23.104  24.436  1.00  0.00     0.188 C 
BRANCH  70  71
ATOM     71  O   UNL A   1      34.254  22.611  24.600  1.00  0.00    -0.376 OA
BRANCH  71  72
ATOM     72  C   UNL A   1      33.288  23.042  23.656  1.00  0.00     0.202 C 
BRANCH  72  73
ATOM     73  C   UNL A   1      33.762  23.815  22.421  1.00  0.00     0.261 C 
BRANCH  73  74
ATOM     74  O   UNL A   1      33.659  25.245  22.477  1.00  0.00    -0.463 OA
BRANCH  74  75
ATOM     75  C   UNL A   1      32.565  25.761  21.857  1.00  0.00     0.309 C 
ATOM     76  O   UNL A   1      32.344  25.680  20.653  1.00  0.00    -0.252 OA
BRANCH  75  77
ATOM     77  C   UNL A   1      31.659  26.556  22.791  1.00  0.00     0.109 C 
BRANCH  77  78
ATOM     78  C   UNL A   1      31.658  28.081  22.513  1.00  0.00     0.071 C 
BRANCH  78  79
ATOM     79  C   UNL A   1      30.308  28.745  22.442  1.00  0.00     0.041 A 
ATOM     80  C   UNL A   1      29.210  28.168  23.076  1.00  0.00     0.024 A 
ATOM     81  N   UNL A   1      30.203  29.848  21.661  1.00  0.00    -0.261 NA
ATOM     82  C   UNL A   1      27.952  28.727  22.882  1.00  0.00     0.003 A 
ATOM     83  C   UNL A   1      28.975  30.393  21.524  1.00  0.00     0.111 A 
ATOM     84  C   UNL A   1      27.828  29.864  22.092  1.00  0.00     0.020 A 
ENDBRANCH  78  79
ENDBRANCH  77  78
BRANCH  77  85
ATOM     85  C   UNL A   1      31.734  26.134  24.278  1.00  0.00     0.020 C 
ATOM     86  C   UNL A   1      31.778  27.280  25.293  1.00  0.00     0.021 C 
ATOM     87  C   UNL A   1      30.541  25.238  24.655  1.00  0.00     0.141 C 
ATOM     88  C   UNL A   1      31.170  26.827  26.620  1.00  0.00     0.137 C 
ATOM     89  S   UNL A   1      30.500  25.210  26.422  1.00  0.00     0.150 S 
ATOM     90  O   UNL A   1      31.470  24.249  26.895  1.00  0.00    -0.229 OA
ATOM     91  O   UNL A   1      29.120  25.200  26.868  1.00  0.00    -0.229 OA
ENDBRANCH  77  85
ENDBRANCH  75  77
ENDBRANCH  74  75
ENDBRANCH  73  74
ENDBRANCH  72  73
ENDBRANCH  71  72
ENDBRANCH  70  71
ENDBRANCH   1  70
TORSDOF 23
ENDMDL
MODEL 3
REMARK VINA RESULT:      -8.0      1.665      2.231
REMARK SMILES O=C(OCCOCCOCCOC(=O)[C@H](Cc1ccccn1)[C@H]1CCS(=O)(=O)C1)c1ccc(-c2c3nc(c(-c4ccc(S(=O)(=O)[O-])cc4)c4ccc([nH]4)c(-c4ccc(S(=O)(=O)[O-])cc4)c4nc(c(-c5ccc(S(=O)(=O)[O-])cc5)c5ccc2[nH]5)C=C4)C=C3)cc1
REMARK SMILES IDX 7 1 6 2 5 3 4 4 3 5 2 6 1 7 30 8 31 9 89 10 32 11 88 12
REMARK SMILES IDX 33 13 34 14 35 15 82 16 36 17 87 18 81 19 83 20 37 21 86 22
REMARK SMILES IDX 80 23 79 24 38 26 68 27 49 28 67 29 50 30 53 31 66 32 84 33
REMARK SMILES IDX 51 34 52 35 65 37 85 38 54 39 39 40 40 41 48 42 41 43 47 44
REMARK SMILES IDX 42 45 43 46 44 47 45 48 46 49 69 50 70 51 78 52 71 53 77 54
REMARK SMILES IDX 72 55 73 56 74 57 75 58 76 59 55 60 56 61 64 62 57 63 63 64
REMARK SMILES IDX 58 65 59 66 60 67 61 68 62 69 8 70 9 71 10 72 11 73 12 74
REMARK SMILES IDX 13 75 14 76 15 77 16 78 17 79 18 80 22 81 19 82 21 83 20 84
REMARK SMILES IDX 23 85 24 86 29 87 25 88 26 89 27 90 28 91
REMARK H PARENT 83 25 53 36
REMARK Flexibility Score: inf
ROOT
ATOM      1  C   UNL A   1      35.207  31.299  29.120  1.00  0.00     0.188 C 
ENDROOT
BRANCH   1   2
ATOM      2  O   UNL A   1      34.189  32.249  28.775  1.00  0.00    -0.376 OA
BRANCH   2   3
ATOM      3  C   UNL A   1      34.696  33.553  28.465  1.00  0.00     0.202 C 
BRANCH   3   4
ATOM      4  C   UNL A   1      33.886  34.739  29.013  1.00  0.00     0.261 C 
BRANCH   4   5
ATOM      5  O   UNL A   1      33.175  34.433  30.216  1.00  0.00    -0.460 OA
BRANCH   5   6
ATOM      6  C   UNL A   1      33.606  34.556  31.494  1.00  0.00     0.338 C 
ATOM      7  O   UNL A   1      32.839  35.076  32.305  1.00  0.00    -0.246 OA
BRANCH   6   8
ATOM      8  C   UNL A   1      34.955  34.123  31.989  1.00  0.00     0.060 A 
ATOM      9  C   UNL A   1      36.136  34.874  31.968  1.00  0.00     0.016 A 
ATOM     10  C   UNL A   1      35.005  32.861  32.600  1.00  0.00     0.016 A 
ATOM     11  C   UNL A   1      37.336  34.385  32.484  1.00  0.00     0.010 A 
ATOM     12  C   UNL A   1      36.188  32.387  33.172  1.00  0.00     0.010 A 
ATOM     13  C   UNL A   1      37.373  33.138  33.092  1.00  0.00    -0.014 A 
BRANCH  13  14
ATOM     14  C   UNL A   1      38.669  32.535  33.474  1.00  0.00     0.031 A 
ATOM     15  C   UNL A   1      39.155  32.838  34.858  1.00  0.00     0.074 A 
ATOM     16  C   UNL A   1      39.370  31.732  32.648  1.00  0.00     0.049 A 
ATOM     17  N   UNL A   1      40.270  32.496  35.437  1.00  0.00    -0.248 NA
ATOM     18  C   UNL A   1      38.257  33.647  35.705  1.00  0.00     0.031 C 
ATOM     19  C   UNL A   1      38.933  31.281  31.331  1.00  0.00     0.029 A 
ATOM     20  N   UNL A   1      40.600  31.140  32.790  1.00  0.00    -0.354 N 
ATOM     21  C   UNL A   1      40.209  33.065  36.700  1.00  0.00     0.074 A 
ATOM     22  C   UNL A   1      39.013  33.868  36.763  1.00  0.00     0.031 C 
ATOM     23  C   UNL A   1      39.887  30.526  30.762  1.00  0.00     0.029 A 
ATOM     24  C   UNL A   1      41.003  30.420  31.684  1.00  0.00     0.049 A 
ATOM     25  H   UNL A   1      41.145  31.222  33.606  1.00  0.00     0.167 HD
ATOM     26  C   UNL A   1      41.042  32.879  37.744  1.00  0.00     0.031 A 
ATOM     27  C   UNL A   1      42.136  29.727  31.457  1.00  0.00     0.031 A 
ATOM     28  C   UNL A   1      42.214  32.062  37.660  1.00  0.00     0.049 A 
ATOM     29  C   UNL A   1      43.111  29.619  32.596  1.00  0.00     0.074 A 
ATOM     30  C   UNL A   1      43.151  31.790  38.635  1.00  0.00     0.029 A 
ATOM     31  N   UNL A   1      42.607  31.384  36.511  1.00  0.00    -0.354 N 
ATOM     32  N   UNL A   1      43.024  30.138  33.801  1.00  0.00    -0.248 NA
ATOM     33  C   UNL A   1      44.305  28.797  32.375  1.00  0.00     0.031 C 
ATOM     34  C   UNL A   1      44.144  30.991  38.057  1.00  0.00     0.029 A 
ATOM     35  C   UNL A   1      43.787  30.709  36.745  1.00  0.00     0.049 A 
ATOM     36  H   UNL A   1      42.115  31.386  35.659  1.00  0.00     0.167 HD
ATOM     37  C   UNL A   1      44.121  29.658  34.500  1.00  0.00     0.074 A 
ATOM     38  C   UNL A   1      44.859  28.811  33.579  1.00  0.00     0.031 C 
ATOM     39  C   UNL A   1      44.479  29.875  35.791  1.00  0.00     0.031 A 
BRANCH  26  40
ATOM     40  C   UNL A   1      40.689  33.613  39.008  1.00  0.00    -0.014 A 
ATOM     41  C   UNL A   1      41.257  34.869  39.303  1.00  0.00     0.010 A 
ATOM     42  C   UNL A   1      39.892  32.977  39.972  1.00  0.00     0.010 A 
ATOM     43  C   UNL A   1      41.109  35.430  40.573  1.00  0.00     0.020 A 
ATOM     44  C   UNL A   1      39.709  33.555  41.230  1.00  0.00     0.020 A 
ATOM     45  C   UNL A   1      40.345  34.762  41.533  1.00  0.00     0.054 A 
BRANCH  45  46
ATOM     46  S   UNL A   1      40.205  35.487  43.188  1.00  0.00     0.124 S 
ATOM     47  O   UNL A   1      39.569  36.771  42.902  1.00  0.00    -0.237 OA
ATOM     48  O   UNL A   1      39.370  34.517  43.892  1.00  0.00    -0.237 OA
ATOM     49  O   UNL A   1      41.589  35.566  43.649  1.00  0.00    -0.744 OA
ENDBRANCH  45  46
ENDBRANCH  26  40
BRANCH  27  50
ATOM     50  C   UNL A   1      42.364  29.027  30.157  1.00  0.00    -0.014 A 
ATOM     51  C   UNL A   1      42.998  29.684  29.087  1.00  0.00     0.010 A 
ATOM     52  C   UNL A   1      41.955  27.691  29.979  1.00  0.00     0.010 A 
ATOM     53  C   UNL A   1      43.199  29.033  27.864  1.00  0.00     0.020 A 
ATOM     54  C   UNL A   1      42.173  27.028  28.763  1.00  0.00     0.020 A 
ATOM     55  C   UNL A   1      42.786  27.707  27.709  1.00  0.00     0.054 A 
BRANCH  55  56
ATOM     56  S   UNL A   1      43.100  26.873  26.125  1.00  0.00     0.124 S 
ATOM     57  O   UNL A   1      44.160  27.695  25.549  1.00  0.00    -0.237 OA
ATOM     58  O   UNL A   1      43.500  25.534  26.550  1.00  0.00    -0.237 OA
ATOM     59  O   UNL A   1      41.811  26.941  25.440  1.00  0.00    -0.744 OA
ENDBRANCH  55  56
ENDBRANCH  27  50
BRANCH  39  60
ATOM     60  C   UNL A   1      45.688  29.143  36.293  1.00  0.00    -0.014 A 
ATOM     61  C   UNL A   1      45.598  28.217  37.345  1.00  0.00     0.010 A 
ATOM     62  C   UNL A   1      46.917  29.334  35.636  1.00  0.00     0.010 A 
ATOM     63  C   UNL A   1      46.730  27.508  37.746  1.00  0.00     0.020 A 
ATOM     64  C   UNL A   1      48.040  28.600  36.011  1.00  0.00     0.020 A 
ATOM     65  C   UNL A   1      47.940  27.700  37.073  1.00  0.00     0.054 A 
BRANCH  65  66
ATOM     66  S   UNL A   1      49.378  26.718  37.572  1.00  0.00     0.124 S 
ATOM     67  O   UNL A   1      49.450  26.993  39.004  1.00  0.00    -0.237 OA
ATOM     68  O   UNL A   1      48.978  25.360  37.209  1.00  0.00    -0.237 OA
ATOM     69  O   UNL A   1      50.470  27.272  36.773  1.00  0.00    -0.744 OA
ENDBRANCH  65  66
ENDBRANCH  39  60
ENDBRANCH  13  14
ENDBRANCH   6   8
ENDBRANCH   5   6
ENDBRANCH   4   5
ENDBRANCH   3   4
ENDBRANCH   2   3
ENDBRANCH   1   2
BRANCH   1  70
ATOM     70  C   UNL A   1      36.168  30.987  27.968  1.00  0.00     0.188 C 
BRANCH  70  71
ATOM     71  O   UNL A   1      35.717  30.056  26.986  1.00  0.00    -0.376 OA
BRANCH  71  72
ATOM     72  C   UNL A   1      34.544  29.321  27.291  1.00  0.00     0.202 C 
BRANCH  72  73
ATOM     73  C   UNL A   1      34.058  28.265  26.293  1.00  0.00     0.261 C 
BRANCH  73  74
ATOM     74  O   UNL A   1      32.727  28.427  25.782  1.00  0.00    -0.463 OA
BRANCH  74  75
ATOM     75  C   UNL A   1      32.644  28.503  24.427  1.00  0.00     0.309 C 
ATOM     76  O   UNL A   1      33.393  29.169  23.719  1.00  0.00    -0.252 OA
BRANCH  75  77
ATOM     77  C   UNL A   1      31.450  27.750  23.851  1.00  0.00     0.109 C 
BRANCH  77  78
ATOM     78  C   UNL A   1      31.779  26.943  22.569  1.00  0.00     0.071 C 
BRANCH  78  79
ATOM     79  C   UNL A   1      32.000  25.463  22.751  1.00  0.00     0.041 A 
ATOM     80  C   UNL A   1      33.018  24.818  22.053  1.00  0.00     0.024 A 
ATOM     81  N   UNL A   1      31.111  24.798  23.527  1.00  0.00    -0.261 NA
ATOM     82  C   UNL A   1      33.112  23.433  22.133  1.00  0.00     0.003 A 
ATOM     83  C   UNL A   1      31.253  23.458  23.618  1.00  0.00     0.111 A 
ATOM     84  C   UNL A   1      32.215  22.736  22.932  1.00  0.00     0.020 A 
ENDBRANCH  78  79
ENDBRANCH  77  78
BRANCH  77  85
ATOM     85  C   UNL A   1      30.127  28.555  23.829  1.00  0.00     0.020 C 
ATOM     86  C   UNL A   1      30.266  30.067  24.031  1.00  0.00     0.021 C 
ATOM     87  C   UNL A   1      29.378  28.340  22.502  1.00  0.00     0.141 C 
ATOM     88  C   UNL A   1      29.118  30.795  23.333  1.00  0.00     0.137 C 
ATOM     89  S   UNL A   1      28.168  29.626  22.421  1.00  0.00     0.150 S 
ATOM     90  O   UNL A   1      27.025  29.241  23.218  1.00  0.00    -0.229 OA
ATOM     91  O   UNL A   1      28.037  30.074  21.048  1.00  0.00    -0.229 OA
ENDBRANCH  77  85
ENDBRANCH  75  77
ENDBRANCH  74  75
ENDBRANCH  73  74
ENDBRANCH  72  73
ENDBRANCH  71  72
ENDBRANCH  70  71
ENDBRANCH   1  70
TORSDOF 23
ENDMDL
