MODEL 1
REMARK VINA RESULT:      -9.3      0.000      0.000
REMARK SMILES CCn1c(C)cc(/C=C(/C(=O)OCCOCCOCCOC(=O)c2ccc(-c3c4nc(c(-c5ccc(S(=O)(=O)[O-])cc5)c5ccc([nH]5)c(-c5ccc(S(=O)(=O)[O-])cc5)c5nc(c(-c6ccc(S(=O)(=O)[O-])cc6)c6ccc3[nH]6)C=C5)C=C4)cc2)c2ccccc2)c1C
REMARK SMILES IDX 17 1 16 2 15 3 14 4 13 5 12 6 10 7 11 8 9 9 8 10 7 11 3 12
REMARK SMILES IDX 4 13 90 14 5 15 6 16 91 17 2 18 1 19 84 20 85 21 89 22 86 23
REMARK SMILES IDX 88 24 87 25 18 26 19 27 20 28 21 29 22 30 23 31 24 32 25 33
REMARK SMILES IDX 83 34 26 35 82 36 27 37 28 38 29 39 76 40 30 41 81 42 75 43
REMARK SMILES IDX 77 44 31 45 80 46 74 47 73 48 32 50 62 51 43 52 61 53 44 54
REMARK SMILES IDX 47 55 60 56 78 57 45 58 46 59 59 61 79 62 48 63 33 64 34 65
REMARK SMILES IDX 42 66 35 67 41 68 36 69 37 70 38 71 39 72 40 73 63 74 64 75
REMARK SMILES IDX 72 76 65 77 71 78 66 79 67 80 68 81 69 82 70 83 49 84 50 85
REMARK SMILES IDX 58 86 51 87 57 88 52 89 53 90 54 91 55 92 56 93
REMARK H PARENT 77 49 47 60
REMARK Flexibility Score: inf
ROOT
ATOM      1  C   UNL A   1      43.344  41.245  27.025  1.00  0.00     0.188 C 
ENDROOT
BRANCH   1   2
ATOM      2  C   UNL A   1      44.881  41.220  27.095  1.00  0.00     0.188 C 
BRANCH   2   3
ATOM      3  O   UNL A   1      45.489  41.365  25.831  1.00  0.00    -0.376 OA
BRANCH   3   4
ATOM      4  C   UNL A   1      45.506  42.618  25.178  1.00  0.00     0.202 C 
BRANCH   4   5
ATOM      5  C   UNL A   1      46.796  43.393  24.840  1.00  0.00     0.261 C 
BRANCH   5   6
ATOM      6  O   UNL A   1      47.324  43.243  23.516  1.00  0.00    -0.460 OA
BRANCH   6   7
ATOM      7  C   UNL A   1      46.471  42.736  22.586  1.00  0.00     0.338 C 
ATOM      8  O   UNL A   1      46.338  41.560  22.310  1.00  0.00    -0.246 OA
BRANCH   7   9
ATOM      9  C   UNL A   1      45.631  43.822  21.985  1.00  0.00     0.067 C 
ATOM     10  C   UNL A   1      46.275  44.870  21.422  1.00  0.00     0.026 C 
BRANCH  10  11
ATOM     11  C   UNL A   1      45.807  45.920  20.553  1.00  0.00    -0.004 A 
ATOM     12  N   UNL A   1      45.325  47.268  18.833  1.00  0.00    -0.349 N 
ATOM     13  C   UNL A   1      45.150  48.026  19.970  1.00  0.00     0.015 A 
ATOM     14  C   UNL A   1      45.490  45.938  19.201  1.00  0.00     0.022 A 
ATOM     15  C   UNL A   1      44.686  49.437  19.972  1.00  0.00     0.064 C 
ATOM     16  C   UNL A   1      45.504  47.225  21.038  1.00  0.00     0.031 A 
ATOM     17  C   UNL A   1      45.293  44.854  18.200  1.00  0.00     0.065 C 
BRANCH  12  18
ATOM     18  C   UNL A   1      45.261  47.750  17.456  1.00  0.00     0.118 C 
ATOM     19  C   UNL A   1      43.858  47.839  16.870  1.00  0.00     0.027 C 
ENDBRANCH  12  18
ENDBRANCH  10  11
BRANCH   9  20
ATOM     20  C   UNL A   1      44.189  43.559  21.906  1.00  0.00    -0.011 A 
ATOM     21  C   UNL A   1      43.670  42.871  20.799  1.00  0.00     0.009 A 
ATOM     22  C   UNL A   1      43.321  43.973  22.921  1.00  0.00     0.009 A 
ATOM     23  C   UNL A   1      42.314  42.559  20.725  1.00  0.00     0.001 A 
ATOM     24  C   UNL A   1      41.962  43.664  22.844  1.00  0.00     0.001 A 
ATOM     25  C   UNL A   1      41.462  42.950  21.754  1.00  0.00     0.000 A 
ENDBRANCH   9  20
ENDBRANCH   7   9
ENDBRANCH   6   7
ENDBRANCH   5   6
ENDBRANCH   4   5
ENDBRANCH   3   4
ENDBRANCH   2   3
ENDBRANCH   1   2
BRANCH   1  26
ATOM     26  O   UNL A   1      42.647  40.512  28.022  1.00  0.00    -0.376 OA
BRANCH  26  27
ATOM     27  C   UNL A   1      42.261  39.164  27.722  1.00  0.00     0.202 C 
BRANCH  27  28
ATOM     28  C   UNL A   1      42.926  37.999  28.506  1.00  0.00     0.261 C 
BRANCH  28  29
ATOM     29  O   UNL A   1      42.786  36.609  28.029  1.00  0.00    -0.460 OA
BRANCH  29  30
ATOM     30  C   UNL A   1      43.367  35.638  28.818  1.00  0.00     0.338 C 
ATOM     31  O   UNL A   1      43.793  35.876  29.942  1.00  0.00    -0.246 OA
BRANCH  30  32
ATOM     32  C   UNL A   1      43.400  34.208  28.253  1.00  0.00     0.060 A 
ATOM     33  C   UNL A   1      43.331  33.134  29.133  1.00  0.00     0.016 A 
ATOM     34  C   UNL A   1      43.786  33.857  26.940  1.00  0.00     0.016 A 
ATOM     35  C   UNL A   1      43.578  31.783  28.700  1.00  0.00     0.010 A 
ATOM     36  C   UNL A   1      44.099  32.474  26.518  1.00  0.00     0.010 A 
ATOM     37  C   UNL A   1      44.008  31.369  27.385  1.00  0.00    -0.014 A 
BRANCH  37  38
ATOM     38  C   UNL A   1      44.708  29.897  27.259  1.00  0.00     0.031 A 
ATOM     39  C   UNL A   1      43.576  29.028  26.821  1.00  0.00     0.074 A 
ATOM     40  C   UNL A   1      45.876  29.158  27.501  1.00  0.00     0.049 A 
ATOM     41  N   UNL A   1      42.499  28.948  27.549  1.00  0.00    -0.248 NA
ATOM     42  C   UNL A   1      43.433  28.538  25.451  1.00  0.00     0.031 C 
ATOM     43  C   UNL A   1      47.121  29.601  28.153  1.00  0.00     0.029 A 
ATOM     44  N   UNL A   1      46.247  27.793  27.211  1.00  0.00    -0.354 N 
ATOM     45  C   UNL A   1      41.627  28.151  26.852  1.00  0.00     0.074 A 
ATOM     46  C   UNL A   1      42.161  28.126  25.496  1.00  0.00     0.031 C 
ATOM     47  C   UNL A   1      48.109  28.656  28.075  1.00  0.00     0.029 A 
ATOM     48  C   UNL A   1      47.636  27.435  27.421  1.00  0.00     0.049 A 
ATOM     49  H   UNL A   1      45.589  27.137  26.887  1.00  0.00     0.167 HD
ATOM     50  C   UNL A   1      41.046  27.129  27.541  1.00  0.00     0.031 A 
ATOM     51  C   UNL A   1      48.341  26.251  27.173  1.00  0.00     0.031 A 
ATOM     52  C   UNL A   1      41.659  25.863  27.236  1.00  0.00     0.049 A 
ATOM     53  C   UNL A   1      47.351  25.165  27.240  1.00  0.00     0.074 A 
ATOM     54  C   UNL A   1      42.034  25.245  26.059  1.00  0.00     0.029 A 
ATOM     55  N   UNL A   1      42.386  25.270  28.249  1.00  0.00    -0.354 N 
ATOM     56  N   UNL A   1      46.872  24.749  28.372  1.00  0.00    -0.248 NA
ATOM     57  C   UNL A   1      46.963  24.387  26.068  1.00  0.00     0.031 C 
ATOM     58  C   UNL A   1      43.288  24.660  26.337  1.00  0.00     0.029 A 
ATOM     59  C   UNL A   1      43.490  24.640  27.711  1.00  0.00     0.049 A 
ATOM     60  H   UNL A   1      42.153  25.293  29.206  1.00  0.00     0.167 HD
ATOM     61  C   UNL A   1      45.780  24.020  28.003  1.00  0.00     0.074 A 
ATOM     62  C   UNL A   1      46.034  23.614  26.634  1.00  0.00     0.031 C 
ATOM     63  C   UNL A   1      44.601  24.342  28.590  1.00  0.00     0.031 A 
BRANCH  50  64
ATOM     64  C   UNL A   1      40.520  27.471  28.912  1.00  0.00    -0.014 A 
ATOM     65  C   UNL A   1      39.142  27.390  29.151  1.00  0.00     0.010 A 
ATOM     66  C   UNL A   1      41.357  27.930  29.953  1.00  0.00     0.010 A 
ATOM     67  C   UNL A   1      38.610  27.825  30.371  1.00  0.00     0.020 A 
ATOM     68  C   UNL A   1      40.833  28.388  31.163  1.00  0.00     0.020 A 
ATOM     69  C   UNL A   1      39.456  28.344  31.360  1.00  0.00     0.054 A 
BRANCH  69  70
ATOM     70  S   UNL A   1      38.715  29.034  32.864  1.00  0.00     0.124 S 
ATOM     71  O   UNL A   1      38.420  30.411  32.466  1.00  0.00    -0.237 OA
ATOM     72  O   UNL A   1      37.546  28.183  33.052  1.00  0.00    -0.237 OA
ATOM     73  O   UNL A   1      39.767  28.908  33.870  1.00  0.00    -0.744 OA
ENDBRANCH  69  70
ENDBRANCH  50  64
BRANCH  51  74
ATOM     74  C   UNL A   1      49.767  25.598  27.049  1.00  0.00    -0.014 A 
ATOM     75  C   UNL A   1      50.371  25.444  25.747  1.00  0.00     0.010 A 
ATOM     76  C   UNL A   1      50.686  25.529  28.110  1.00  0.00     0.010 A 
ATOM     77  C   UNL A   1      51.770  25.393  25.513  1.00  0.00     0.020 A 
ATOM     78  C   UNL A   1      52.101  25.440  27.886  1.00  0.00     0.020 A 
ATOM     79  C   UNL A   1      52.639  25.429  26.592  1.00  0.00     0.054 A 
BRANCH  79  80
ATOM     80  S   UNL A   1      54.440  25.617  26.281  1.00  0.00     0.124 S 
ATOM     81  O   UNL A   1      55.043  25.114  27.512  1.00  0.00    -0.237 OA
ATOM     82  O   UNL A   1      54.650  24.785  25.097  1.00  0.00    -0.237 OA
ATOM     83  O   UNL A   1      54.602  27.051  26.052  1.00  0.00    -0.744 OA
ENDBRANCH  79  80
ENDBRANCH  51  74
BRANCH  63  84
ATOM     84  C   UNL A   1      44.604  24.591  30.091  1.00  0.00    -0.014 A 
ATOM     85  C   UNL A   1      44.955  25.806  30.722  1.00  0.00     0.010 A 
ATOM     86  C   UNL A   1      44.286  23.503  30.922  1.00  0.00     0.010 A 
ATOM     87  C   UNL A   1      45.062  25.906  32.117  1.00  0.00     0.020 A 
ATOM     88  C   UNL A   1      44.347  23.605  32.317  1.00  0.00     0.020 A 
ATOM     89  C   UNL A   1      44.772  24.795  32.906  1.00  0.00     0.054 A 
BRANCH  89  90
ATOM     90  S   UNL A   1      44.995  24.907  34.703  1.00  0.00     0.124 S 
ATOM     91  O   UNL A   1      45.312  26.323  34.887  1.00  0.00    -0.237 OA
ATOM     92  O   UNL A   1      43.696  24.491  35.220  1.00  0.00    -0.237 OA
ATOM     93  O   UNL A   1      46.105  23.995  34.972  1.00  0.00    -0.744 OA
ENDBRANCH  89  90
ENDBRANCH  63  84
ENDBRANCH  37  38
ENDBRANCH  30  32
ENDBRANCH  29  30
ENDBRANCH  28  29
ENDBRANCH  27  28
ENDBRANCH  26  27
ENDBRANCH   1  26
TORSDOF 23
ENDMDL
MODEL 2
REMARK VINA RESULT:      -9.3      7.444     15.713
REMARK SMILES CCn1c(C)cc(/C=C(/C(=O)OCCOCCOCCOC(=O)c2ccc(-c3c4nc(c(-c5ccc(S(=O)(=O)[O-])cc5)c5ccc([nH]5)c(-c5ccc(S(=O)(=O)[O-])cc5)c5nc(c(-c6ccc(S(=O)(=O)[O-])cc6)c6ccc3[nH]6)C=C5)C=C4)cc2)c2ccccc2)c1C
REMARK SMILES IDX 17 1 16 2 15 3 14 4 13 5 12 6 10 7 11 8 9 9 8 10 7 11 3 12
REMARK SMILES IDX 4 13 90 14 5 15 6 16 91 17 2 18 1 19 84 20 85 21 89 22 86 23
REMARK SMILES IDX 88 24 87 25 18 26 19 27 20 28 21 29 22 30 23 31 24 32 25 33
REMARK SMILES IDX 83 34 26 35 82 36 27 37 28 38 29 39 76 40 30 41 81 42 75 43
REMARK SMILES IDX 77 44 31 45 80 46 74 47 73 48 32 50 62 51 43 52 61 53 44 54
REMARK SMILES IDX 47 55 60 56 78 57 45 58 46 59 59 61 79 62 48 63 33 64 34 65
REMARK SMILES IDX 42 66 35 67 41 68 36 69 37 70 38 71 39 72 40 73 63 74 64 75
REMARK SMILES IDX 72 76 65 77 71 78 66 79 67 80 68 81 69 82 70 83 49 84 50 85
REMARK SMILES IDX 58 86 51 87 57 88 52 89 53 90 54 91 55 92 56 93
REMARK H PARENT 77 49 47 60
REMARK Flexibility Score: inf
ROOT
ATOM      1  C   UNL A   1      49.765  25.608  28.982  1.00  0.00     0.188 C 
ENDROOT
BRANCH   1   2
ATOM      2  C   UNL A   1      49.545  26.463  27.724  1.00  0.00     0.188 C 
BRANCH   2   3
ATOM      3  O   UNL A   1      48.805  25.792  26.728  1.00  0.00    -0.376 OA
BRANCH   3   4
ATOM      4  C   UNL A   1      48.966  26.122  25.364  1.00  0.00     0.202 C 
BRANCH   4   5
ATOM      5  C   UNL A   1      47.840  26.019  24.315  1.00  0.00     0.261 C 
BRANCH   5   6
ATOM      6  O   UNL A   1      46.709  25.203  24.646  1.00  0.00    -0.460 OA
BRANCH   6   7
ATOM      7  C   UNL A   1      45.654  25.846  25.213  1.00  0.00     0.338 C 
ATOM      8  O   UNL A   1      45.436  27.040  25.158  1.00  0.00    -0.246 OA
BRANCH   7   9
ATOM      9  C   UNL A   1      44.721  24.869  25.863  1.00  0.00     0.067 C 
ATOM     10  C   UNL A   1      44.311  23.812  25.125  1.00  0.00     0.026 C 
BRANCH  10  11
ATOM     11  C   UNL A   1      43.652  22.586  25.501  1.00  0.00    -0.004 A 
ATOM     12  N   UNL A   1      42.954  20.472  25.730  1.00  0.00    -0.349 N 
ATOM     13  C   UNL A   1      41.951  21.261  26.248  1.00  0.00     0.015 A 
ATOM     14  C   UNL A   1      44.073  21.263  25.499  1.00  0.00     0.022 A 
ATOM     15  C   UNL A   1      40.705  20.735  26.862  1.00  0.00     0.064 C 
ATOM     16  C   UNL A   1      42.340  22.572  26.058  1.00  0.00     0.031 A 
ATOM     17  C   UNL A   1      45.413  20.636  25.332  1.00  0.00     0.065 C 
BRANCH  12  18
ATOM     18  C   UNL A   1      42.900  19.027  25.531  1.00  0.00     0.118 C 
ATOM     19  C   UNL A   1      43.016  18.199  26.804  1.00  0.00     0.027 C 
ENDBRANCH  12  18
ENDBRANCH  10  11
BRANCH   9  20
ATOM     20  C   UNL A   1      44.482  25.057  27.299  1.00  0.00    -0.011 A 
ATOM     21  C   UNL A   1      45.428  24.593  28.225  1.00  0.00     0.009 A 
ATOM     22  C   UNL A   1      43.330  25.700  27.763  1.00  0.00     0.009 A 
ATOM     23  C   UNL A   1      45.254  24.807  29.591  1.00  0.00     0.001 A 
ATOM     24  C   UNL A   1      43.154  25.910  29.132  1.00  0.00     0.001 A 
ATOM     25  C   UNL A   1      44.118  25.474  30.042  1.00  0.00     0.000 A 
ENDBRANCH   9  20
ENDBRANCH   7   9
ENDBRANCH   6   7
ENDBRANCH   5   6
ENDBRANCH   4   5
ENDBRANCH   3   4
ENDBRANCH   2   3
ENDBRANCH   1   2
BRANCH   1  26
ATOM     26  O   UNL A   1      48.703  25.573  29.926  1.00  0.00    -0.376 OA
BRANCH  26  27
ATOM     27  C   UNL A   1      48.859  26.316  31.143  1.00  0.00     0.202 C 
BRANCH  27  28
ATOM     28  C   UNL A   1      48.967  25.545  32.487  1.00  0.00     0.261 C 
BRANCH  28  29
ATOM     29  O   UNL A   1      47.827  24.746  32.977  1.00  0.00    -0.460 OA
BRANCH  29  30
ATOM     30  C   UNL A   1      47.112  25.290  34.023  1.00  0.00     0.338 C 
ATOM     31  O   UNL A   1      47.545  25.314  35.169  1.00  0.00    -0.246 OA
BRANCH  30  32
ATOM     32  C   UNL A   1      45.760  25.940  33.681  1.00  0.00     0.060 A 
ATOM     33  C   UNL A   1      45.748  27.174  33.043  1.00  0.00     0.016 A 
ATOM     34  C   UNL A   1      44.510  25.546  34.209  1.00  0.00     0.016 A 
ATOM     35  C   UNL A   1      44.535  27.938  32.894  1.00  0.00     0.010 A 
ATOM     36  C   UNL A   1      43.282  26.365  34.105  1.00  0.00     0.010 A 
ATOM     37  C   UNL A   1      43.240  27.604  33.440  1.00  0.00    -0.014 A 
BRANCH  37  38
ATOM     38  C   UNL A   1      42.159  28.823  33.590  1.00  0.00     0.031 A 
ATOM     39  C   UNL A   1      41.302  28.656  32.381  1.00  0.00     0.074 A 
ATOM     40  C   UNL A   1      41.819  29.970  34.323  1.00  0.00     0.049 A 
ATOM     41  N   UNL A   1      41.839  28.681  31.195  1.00  0.00    -0.248 NA
ATOM     42  C   UNL A   1      39.949  28.101  32.435  1.00  0.00     0.031 C 
ATOM     43  C   UNL A   1      42.558  30.600  35.432  1.00  0.00     0.029 A 
ATOM     44  N   UNL A   1      40.697  30.875  34.257  1.00  0.00    -0.354 N 
ATOM     45  C   UNL A   1      40.822  28.423  30.311  1.00  0.00     0.074 A 
ATOM     46  C   UNL A   1      39.760  27.857  31.133  1.00  0.00     0.031 C 
ATOM     47  C   UNL A   1      41.848  31.617  36.012  1.00  0.00     0.029 A 
ATOM     48  C   UNL A   1      40.573  31.842  35.330  1.00  0.00     0.049 A 
ATOM     49  H   UNL A   1      40.047  30.839  33.519  1.00  0.00     0.167 HD
ATOM     50  C   UNL A   1      40.698  29.274  29.254  1.00  0.00     0.031 A 
ATOM     51  C   UNL A   1      39.588  32.794  35.617  1.00  0.00     0.031 A 
ATOM     52  C   UNL A   1      39.619  30.208  29.444  1.00  0.00     0.049 A 
ATOM     53  C   UNL A   1      38.966  33.138  34.329  1.00  0.00     0.074 A 
ATOM     54  C   UNL A   1      38.312  30.079  29.869  1.00  0.00     0.029 A 
ATOM     55  N   UNL A   1      39.974  31.529  29.631  1.00  0.00    -0.354 N 
ATOM     56  N   UNL A   1      39.568  33.891  33.461  1.00  0.00    -0.248 NA
ATOM     57  C   UNL A   1      37.584  32.791  34.010  1.00  0.00     0.031 C 
ATOM     58  C   UNL A   1      38.096  31.182  30.725  1.00  0.00     0.029 A 
ATOM     59  C   UNL A   1      39.116  32.107  30.545  1.00  0.00     0.049 A 
ATOM     60  H   UNL A   1      40.721  31.987  29.182  1.00  0.00     0.167 HD
ATOM     61  C   UNL A   1      38.852  33.689  32.317  1.00  0.00     0.074 A 
ATOM     62  C   UNL A   1      37.542  33.250  32.758  1.00  0.00     0.031 C 
ATOM     63  C   UNL A   1      39.548  33.315  31.216  1.00  0.00     0.031 A 
BRANCH  50  64
ATOM     64  C   UNL A   1      41.977  29.639  28.545  1.00  0.00    -0.014 A 
ATOM     65  C   UNL A   1      42.891  30.487  29.184  1.00  0.00     0.010 A 
ATOM     66  C   UNL A   1      42.267  29.207  27.232  1.00  0.00     0.010 A 
ATOM     67  C   UNL A   1      44.024  30.948  28.502  1.00  0.00     0.020 A 
ATOM     68  C   UNL A   1      43.381  29.680  26.537  1.00  0.00     0.020 A 
ATOM     69  C   UNL A   1      44.249  30.561  27.175  1.00  0.00     0.054 A 
BRANCH  69  70
ATOM     70  S   UNL A   1      45.644  31.296  26.280  1.00  0.00     0.124 S 
ATOM     71  O   UNL A   1      46.479  31.809  27.366  1.00  0.00    -0.237 OA
ATOM     72  O   UNL A   1      46.196  30.147  25.570  1.00  0.00    -0.237 OA
ATOM     73  O   UNL A   1      45.031  32.328  25.448  1.00  0.00    -0.744 OA
ENDBRANCH  69  70
ENDBRANCH  50  64
BRANCH  51  74
ATOM     74  C   UNL A   1      39.018  33.776  36.706  1.00  0.00    -0.014 A 
ATOM     75  C   UNL A   1      38.293  33.245  37.836  1.00  0.00     0.010 A 
ATOM     76  C   UNL A   1      39.500  35.081  36.906  1.00  0.00     0.010 A 
ATOM     77  C   UNL A   1      38.199  33.883  39.100  1.00  0.00     0.020 A 
ATOM     78  C   UNL A   1      39.378  35.751  38.170  1.00  0.00     0.020 A 
ATOM     79  C   UNL A   1      38.780  35.129  39.275  1.00  0.00     0.054 A 
BRANCH  79  80
ATOM     80  S   UNL A   1      38.878  35.839  40.966  1.00  0.00     0.124 S 
ATOM     81  O   UNL A   1      38.738  37.273  40.733  1.00  0.00    -0.237 OA
ATOM     82  O   UNL A   1      37.750  35.204  41.647  1.00  0.00    -0.237 OA
ATOM     83  O   UNL A   1      40.192  35.413  41.443  1.00  0.00    -0.744 OA
ENDBRANCH  79  80
ENDBRANCH  51  74
BRANCH  63  84
ATOM     84  C   UNL A   1      40.847  34.049  30.918  1.00  0.00    -0.014 A 
ATOM     85  C   UNL A   1      41.978  34.095  31.765  1.00  0.00     0.010 A 
ATOM     86  C   UNL A   1      40.905  34.792  29.726  1.00  0.00     0.010 A 
ATOM     87  C   UNL A   1      43.082  34.910  31.473  1.00  0.00     0.020 A 
ATOM     88  C   UNL A   1      42.021  35.574  29.405  1.00  0.00     0.020 A 
ATOM     89  C   UNL A   1      43.088  35.659  30.298  1.00  0.00     0.054 A 
BRANCH  89  90
ATOM     90  S   UNL A   1      44.481  36.774  29.970  1.00  0.00     0.124 S 
ATOM     91  O   UNL A   1      44.827  36.436  28.590  1.00  0.00    -0.237 OA
ATOM     92  O   UNL A   1      43.891  38.096  30.156  1.00  0.00    -0.237 OA
ATOM     93  O   UNL A   1      45.480  36.382  30.962  1.00  0.00    -0.744 OA
ENDBRANCH  89  90
ENDBRANCH  63  84
ENDBRANCH  37  38
ENDBRANCH  30  32
ENDBRANCH  29  30
ENDBRANCH  28  29
ENDBRANCH  27  28
ENDBRANCH  26  27
ENDBRANCH   1  26
TORSDOF 23
ENDMDL
MODEL 3
REMARK VINA RESULT:      -8.7      5.781      8.038
REMARK SMILES CCn1c(C)cc(/C=C(/C(=O)OCCOCCOCCOC(=O)c2ccc(-c3c4nc(c(-c5ccc(S(=O)(=O)[O-])cc5)c5ccc([nH]5)c(-c5ccc(S(=O)(=O)[O-])cc5)c5nc(c(-c6ccc(S(=O)(=O)[O-])cc6)c6ccc3[nH]6)C=C5)C=C4)cc2)c2ccccc2)c1C
REMARK SMILES IDX 17 1 16 2 15 3 14 4 13 5 12 6 10 7 11 8 9 9 8 10 7 11 3 12
REMARK SMILES IDX 4 13 90 14 5 15 6 16 91 17 2 18 1 19 84 20 85 21 89 22 86 23
REMARK SMILES IDX 88 24 87 25 18 26 19 27 20 28 21 29 22 30 23 31 24 32 25 33
REMARK SMILES IDX 83 34 26 35 82 36 27 37 28 38 29 39 76 40 30 41 81 42 75 43
REMARK SMILES IDX 77 44 31 45 80 46 74 47 73 48 32 50 62 51 43 52 61 53 44 54
REMARK SMILES IDX 47 55 60 56 78 57 45 58 46 59 59 61 79 62 48 63 33 64 34 65
REMARK SMILES IDX 42 66 35 67 41 68 36 69 37 70 38 71 39 72 40 73 63 74 64 75
REMARK SMILES IDX 72 76 65 77 71 78 66 79 67 80 68 81 69 82 70 83 49 84 50 85
REMARK SMILES IDX 58 86 51 87 57 88 52 89 53 90 54 91 55 92 56 93
REMARK H PARENT 77 49 47 60
REMARK Flexibility Score: inf
ROOT
ATOM      1  C   UNL A   1      45.826  43.147  30.667  1.00  0.00     0.188 C 
ENDROOT
BRANCH   1   2
ATOM      2  C   UNL A   1      46.353  43.189  29.223  1.00  0.00     0.188 C 
BRANCH   2   3
ATOM      3  O   UNL A   1      46.187  41.965  28.543  1.00  0.00    -0.376 OA
BRANCH   3   4
ATOM      4  C   UNL A   1      46.986  41.649  27.421  1.00  0.00     0.202 C 
BRANCH   4   5
ATOM      5  C   UNL A   1      46.420  41.149  26.077  1.00  0.00     0.261 C 
BRANCH   5   6
ATOM      6  O   UNL A   1      46.218  42.125  25.046  1.00  0.00    -0.460 OA
BRANCH   6   7
ATOM      7  C   UNL A   1      46.376  41.687  23.769  1.00  0.00     0.338 C 
ATOM      8  O   UNL A   1      46.674  40.556  23.437  1.00  0.00    -0.246 OA
BRANCH   7   9
ATOM      9  C   UNL A   1      46.048  42.773  22.789  1.00  0.00     0.067 C 
ATOM     10  C   UNL A   1      47.081  43.395  22.177  1.00  0.00     0.026 C 
BRANCH  10  11
ATOM     11  C   UNL A   1      47.123  44.267  21.030  1.00  0.00    -0.004 A 
ATOM     12  N   UNL A   1      46.690  45.724  19.387  1.00  0.00    -0.349 N 
ATOM     13  C   UNL A   1      47.792  45.007  18.979  1.00  0.00     0.015 A 
ATOM     14  C   UNL A   1      46.437  45.435  20.723  1.00  0.00     0.022 A 
ATOM     15  C   UNL A   1      48.522  45.246  17.706  1.00  0.00     0.064 C 
ATOM     16  C   UNL A   1      48.035  44.062  19.955  1.00  0.00     0.031 A 
ATOM     17  C   UNL A   1      45.583  46.343  21.537  1.00  0.00     0.065 C 
BRANCH  12  18
ATOM     18  C   UNL A   1      45.949  46.698  18.590  1.00  0.00     0.118 C 
ATOM     19  C   UNL A   1      44.844  46.111  17.723  1.00  0.00     0.027 C 
ENDBRANCH  12  18
ENDBRANCH  10  11
BRANCH   9  20
ATOM     20  C   UNL A   1      44.627  42.936  22.454  1.00  0.00    -0.011 A 
ATOM     21  C   UNL A   1      43.775  43.595  23.354  1.00  0.00     0.009 A 
ATOM     22  C   UNL A   1      44.108  42.456  21.249  1.00  0.00     0.009 A 
ATOM     23  C   UNL A   1      42.436  43.813  23.038  1.00  0.00     0.001 A 
ATOM     24  C   UNL A   1      42.765  42.671  20.934  1.00  0.00     0.001 A 
ATOM     25  C   UNL A   1      41.934  43.356  21.822  1.00  0.00     0.000 A 
ENDBRANCH   9  20
ENDBRANCH   7   9
ENDBRANCH   6   7
ENDBRANCH   5   6
ENDBRANCH   4   5
ENDBRANCH   3   4
ENDBRANCH   2   3
ENDBRANCH   1   2
BRANCH   1  26
ATOM     26  O   UNL A   1      44.948  44.193  31.059  1.00  0.00    -0.376 OA
BRANCH  26  27
ATOM     27  C   UNL A   1      44.804  44.464  32.459  1.00  0.00     0.202 C 
BRANCH  27  28
ATOM     28  C   UNL A   1      43.475  45.082  32.974  1.00  0.00     0.261 C 
BRANCH  28  29
ATOM     29  O   UNL A   1      42.205  44.347  32.817  1.00  0.00    -0.460 OA
BRANCH  29  30
ATOM     30  C   UNL A   1      42.186  43.061  33.316  1.00  0.00     0.338 C 
ATOM     31  O   UNL A   1      41.902  42.815  34.482  1.00  0.00    -0.246 OA
BRANCH  30  32
ATOM     32  C   UNL A   1      42.471  41.922  32.321  1.00  0.00     0.060 A 
ATOM     33  C   UNL A   1      43.237  40.840  32.738  1.00  0.00     0.016 A 
ATOM     34  C   UNL A   1      42.277  41.992  30.923  1.00  0.00     0.016 A 
ATOM     35  C   UNL A   1      43.727  39.856  31.807  1.00  0.00     0.010 A 
ATOM     36  C   UNL A   1      42.835  41.011  29.967  1.00  0.00     0.010 A 
ATOM     37  C   UNL A   1      43.590  39.893  30.369  1.00  0.00    -0.014 A 
BRANCH  37  38
ATOM     38  C   UNL A   1      44.632  38.982  29.498  1.00  0.00     0.031 A 
ATOM     39  C   UNL A   1      43.725  38.213  28.596  1.00  0.00     0.074 A 
ATOM     40  C   UNL A   1      45.971  38.586  29.361  1.00  0.00     0.049 A 
ATOM     41  N   UNL A   1      42.790  37.460  29.101  1.00  0.00    -0.248 NA
ATOM     42  C   UNL A   1      43.569  38.521  27.175  1.00  0.00     0.031 C 
ATOM     43  C   UNL A   1      47.120  38.931  30.217  1.00  0.00     0.029 A 
ATOM     44  N   UNL A   1      46.652  37.758  28.394  1.00  0.00    -0.354 N 
ATOM     45  C   UNL A   1      42.087  36.960  28.036  1.00  0.00     0.074 A 
ATOM     46  C   UNL A   1      42.460  37.817  26.917  1.00  0.00     0.031 C 
ATOM     47  C   UNL A   1      48.305  38.494  29.690  1.00  0.00     0.029 A 
ATOM     48  C   UNL A   1      48.100  37.744  28.450  1.00  0.00     0.049 A 
ATOM     49  H   UNL A   1      46.156  37.227  27.729  1.00  0.00     0.167 HD
ATOM     50  C   UNL A   1      41.869  35.614  28.022  1.00  0.00     0.031 A 
ATOM     51  C   UNL A   1      49.058  37.129  27.635  1.00  0.00     0.031 A 
ATOM     52  C   UNL A   1      42.755  34.940  27.108  1.00  0.00     0.049 A 
ATOM     53  C   UNL A   1      48.398  35.955  27.044  1.00  0.00     0.074 A 
ATOM     54  C   UNL A   1      43.148  35.185  25.808  1.00  0.00     0.029 A 
ATOM     55  N   UNL A   1      43.714  34.123  27.671  1.00  0.00    -0.354 N 
ATOM     56  N   UNL A   1      48.169  34.882  27.736  1.00  0.00    -0.248 NA
ATOM     57  C   UNL A   1      48.103  35.859  25.617  1.00  0.00     0.031 C 
ATOM     58  C   UNL A   1      44.535  34.916  25.789  1.00  0.00     0.029 A 
ATOM     59  C   UNL A   1      44.881  34.216  26.938  1.00  0.00     0.049 A 
ATOM     60  H   UNL A   1      43.588  33.562  28.471  1.00  0.00     0.167 HD
ATOM     61  C   UNL A   1      47.270  34.198  26.969  1.00  0.00     0.074 A 
ATOM     62  C   UNL A   1      47.473  34.682  25.618  1.00  0.00     0.031 C 
ATOM     63  C   UNL A   1      46.118  33.813  27.571  1.00  0.00     0.031 A 
BRANCH  50  64
ATOM     64  C   UNL A   1      41.422  35.004  29.325  1.00  0.00    -0.014 A 
ATOM     65  C   UNL A   1      40.058  34.764  29.531  1.00  0.00     0.010 A 
ATOM     66  C   UNL A   1      42.321  34.716  30.376  1.00  0.00     0.010 A 
ATOM     67  C   UNL A   1      39.599  34.320  30.778  1.00  0.00     0.020 A 
ATOM     68  C   UNL A   1      41.869  34.297  31.628  1.00  0.00     0.020 A 
ATOM     69  C   UNL A   1      40.504  34.113  31.825  1.00  0.00     0.054 A 
BRANCH  69  70
ATOM     70  S   UNL A   1      39.857  33.683  33.464  1.00  0.00     0.124 S 
ATOM     71  O   UNL A   1      41.079  33.534  34.255  1.00  0.00    -0.237 OA
ATOM     72  O   UNL A   1      39.049  34.851  33.794  1.00  0.00    -0.237 OA
ATOM     73  O   UNL A   1      39.124  32.439  33.242  1.00  0.00    -0.744 OA
ENDBRANCH  69  70
ENDBRANCH  50  64
BRANCH  51  74
ATOM     74  C   UNL A   1      50.583  37.070  27.253  1.00  0.00    -0.014 A 
ATOM     75  C   UNL A   1      51.288  38.288  26.936  1.00  0.00     0.010 A 
ATOM     76  C   UNL A   1      51.428  35.999  27.592  1.00  0.00     0.010 A 
ATOM     77  C   UNL A   1      52.685  38.473  27.102  1.00  0.00     0.020 A 
ATOM     78  C   UNL A   1      52.848  36.166  27.726  1.00  0.00     0.020 A 
ATOM     79  C   UNL A   1      53.462  37.411  27.536  1.00  0.00     0.054 A 
BRANCH  79  80
ATOM     80  S   UNL A   1      55.216  37.715  27.989  1.00  0.00     0.124 S 
ATOM     81  O   UNL A   1      55.918  36.595  27.370  1.00  0.00    -0.237 OA
ATOM     82  O   UNL A   1      55.480  39.024  27.394  1.00  0.00    -0.237 OA
ATOM     83  O   UNL A   1      55.200  37.705  29.451  1.00  0.00    -0.744 OA
ENDBRANCH  79  80
ENDBRANCH  51  74
BRANCH  63  84
ATOM     84  C   UNL A   1      46.217  33.204  28.961  1.00  0.00    -0.014 A 
ATOM     85  C   UNL A   1      46.466  31.842  29.247  1.00  0.00     0.010 A 
ATOM     86  C   UNL A   1      45.985  34.058  30.054  1.00  0.00     0.010 A 
ATOM     87  C   UNL A   1      46.404  31.342  30.557  1.00  0.00     0.020 A 
ATOM     88  C   UNL A   1      45.965  33.577  31.369  1.00  0.00     0.020 A 
ATOM     89  C   UNL A   1      46.136  32.214  31.610  1.00  0.00     0.054 A 
BRANCH  89  90
ATOM     90  S   UNL A   1      45.974  31.547  33.289  1.00  0.00     0.124 S 
ATOM     91  O   UNL A   1      45.625  32.738  34.062  1.00  0.00    -0.237 OA
ATOM     92  O   UNL A   1      44.905  30.564  33.147  1.00  0.00    -0.237 OA
ATOM     93  O   UNL A   1      47.299  31.002  33.575  1.00  0.00    -0.744 OA
ENDBRANCH  89  90
ENDBRANCH  63  84
ENDBRANCH  37  38
ENDBRANCH  30  32
ENDBRANCH  29  30
ENDBRANCH  28  29
ENDBRANCH  27  28
ENDBRANCH  26  27
ENDBRANCH   1  26
TORSDOF 23
ENDMDL
