MODEL 1
REMARK VINA RESULT:     -10.2      0.000      0.000
REMARK SMILES COc1cc([C@@H]2CC(=O)Nc3c(C(=O)OCCOCCOCCOC(=O)c4ccc(-c5c6nc(c(-c7ccc(S(=O)(=O)[O-])cc7)c7ccc([nH]7)c(-c7ccc(S(=O)(=O)[O-])cc7)c7nc(c(-c8ccc(S(=O)(=O)[O-])cc8)c8ccc5[nH]8)C=C7)C=C6)cc4)cn(-c4ccc(F)cc4)c32)c(OC)c2c1OCO2
REMARK SMILES IDX 20 1 19 2 18 3 17 4 16 5 15 6 13 7 14 8 12 9 6 10 7 11 96 12
REMARK SMILES IDX 8 13 11 14 88 15 9 16 10 17 87 18 5 20 3 21 4 22 101 23
REMARK SMILES IDX 100 24 102 25 97 26 104 27 103 28 2 29 1 30 98 31 99 32
REMARK SMILES IDX 89 33 90 34 95 35 91 36 94 37 92 38 93 39 21 40 22 41 23 42
REMARK SMILES IDX 24 43 25 44 26 45 27 46 28 47 86 48 29 49 85 50 30 51 31 52
REMARK SMILES IDX 32 53 79 54 33 55 84 56 78 57 80 58 34 59 83 60 77 61 76 62
REMARK SMILES IDX 35 64 65 65 46 66 64 67 47 68 50 69 63 70 81 71 48 72 49 73
REMARK SMILES IDX 62 75 82 76 51 77 36 78 37 79 45 80 38 81 44 82 39 83 40 84
REMARK SMILES IDX 41 85 42 86 43 87 66 88 67 89 75 90 68 91 74 92 69 93 70 94
REMARK SMILES IDX 71 95 72 96 73 97 52 98 53 99 61 100 54 101 60 102 55 103
REMARK SMILES IDX 56 104 57 105 58 106 59 107
REMARK H PARENT 10 19 80 63 50 74
REMARK Flexibility Score: inf
ROOT
ATOM      1  C   UNL A   1      38.779  21.052  25.652  1.00  0.00     0.188 C 
ENDROOT
BRANCH   1   2
ATOM      2  C   UNL A   1      38.012  22.381  25.818  1.00  0.00     0.188 C 
BRANCH   2   3
ATOM      3  O   UNL A   1      37.503  23.099  24.700  1.00  0.00    -0.376 OA
BRANCH   3   4
ATOM      4  C   UNL A   1      36.124  23.423  24.599  1.00  0.00     0.202 C 
BRANCH   4   5
ATOM      5  C   UNL A   1      35.120  22.763  25.559  1.00  0.00     0.261 C 
BRANCH   5   6
ATOM      6  O   UNL A   1      33.739  22.922  25.204  1.00  0.00    -0.460 OA
BRANCH   6   7
ATOM      7  C   UNL A   1      33.041  23.803  25.973  1.00  0.00     0.341 C 
ATOM      8  O   UNL A   1      32.472  23.514  27.020  1.00  0.00    -0.246 OA
BRANCH   7   9
ATOM      9  C   UNL A   1      33.106  25.171  25.480  1.00  0.00     0.102 A 
ATOM     10  C   UNL A   1      32.609  27.911  23.065  1.00  0.00     0.082 C 
ATOM     11  C   UNL A   1      33.175  27.273  21.786  1.00  0.00     0.115 C 
ATOM     12  C   UNL A   1      32.948  27.050  24.241  1.00  0.00     0.055 A 
ATOM     13  C   UNL A   1      33.178  25.747  21.752  1.00  0.00     0.225 C 
ATOM     14  C   UNL A   1      33.166  25.693  24.165  1.00  0.00     0.078 A 
ATOM     15  N   UNL A   1      33.065  27.424  25.558  1.00  0.00    -0.317 N 
ATOM     16  O   UNL A   1      33.192  25.135  20.681  1.00  0.00    -0.275 OA
ATOM     17  N   UNL A   1      33.265  25.066  22.944  1.00  0.00    -0.324 N 
ATOM     18  C   UNL A   1      33.142  26.280  26.317  1.00  0.00     0.109 A 
ATOM     19  H   UNL A   1      33.405  24.092  22.924  1.00  0.00     0.170 HD
BRANCH  10  20
ATOM     20  C   UNL A   1      31.100  28.202  22.978  1.00  0.00     0.012 A 
ATOM     21  C   UNL A   1      29.374  29.917  22.603  1.00  0.00     0.165 A 
ATOM     22  C   UNL A   1      30.705  29.490  22.536  1.00  0.00     0.059 A 
ATOM     23  C   UNL A   1      28.434  29.014  23.063  1.00  0.00     0.211 A 
ATOM     24  C   UNL A   1      28.788  27.734  23.442  1.00  0.00     0.211 A 
ATOM     25  O   UNL A   1      27.093  29.229  23.187  1.00  0.00    -0.449 OA
ATOM     26  C   UNL A   1      30.102  27.290  23.401  1.00  0.00     0.168 A 
ATOM     27  O   UNL A   1      27.702  27.014  23.851  1.00  0.00    -0.449 OA
ATOM     28  C   UNL A   1      26.639  27.951  23.653  1.00  0.00     0.468 C 
BRANCH  21  29
ATOM     29  O   UNL A   1      29.151  31.198  22.191  1.00  0.00    -0.493 OA
ATOM     30  C   UNL A   1      28.525  31.328  20.919  1.00  0.00     0.278 C 
ENDBRANCH  21  29
BRANCH  26  31
ATOM     31  O   UNL A   1      30.522  26.040  23.729  1.00  0.00    -0.492 OA
ATOM     32  C   UNL A   1      29.958  24.903  23.099  1.00  0.00     0.278 C 
ENDBRANCH  26  31
ENDBRANCH  10  20
BRANCH  15  33
ATOM     33  C   UNL A   1      33.040  28.723  26.095  1.00  0.00     0.046 A 
ATOM     34  C   UNL A   1      31.844  29.445  26.080  1.00  0.00     0.029 A 
ATOM     35  C   UNL A   1      34.200  29.253  26.671  1.00  0.00     0.029 A 
ATOM     36  C   UNL A   1      31.820  30.735  26.603  1.00  0.00     0.041 A 
ATOM     37  C   UNL A   1      34.167  30.549  27.188  1.00  0.00     0.041 A 
ATOM     38  C   UNL A   1      32.982  31.278  27.145  1.00  0.00     0.123 A 
ATOM     39  F   UNL A   1      32.952  32.522  27.639  1.00  0.00    -0.207 F 
ENDBRANCH  15  33
ENDBRANCH   7   9
ENDBRANCH   6   7
ENDBRANCH   5   6
ENDBRANCH   4   5
ENDBRANCH   3   4
ENDBRANCH   2   3
ENDBRANCH   1   2
BRANCH   1  40
ATOM     40  O   UNL A   1      39.948  20.940  26.444  1.00  0.00    -0.376 OA
BRANCH  40  41
ATOM     41  C   UNL A   1      40.881  19.938  26.070  1.00  0.00     0.202 C 
BRANCH  41  42
ATOM     42  C   UNL A   1      42.208  19.900  26.828  1.00  0.00     0.261 C 
BRANCH  42  43
ATOM     43  O   UNL A   1      43.322  20.479  26.161  1.00  0.00    -0.460 OA
BRANCH  43  44
ATOM     44  C   UNL A   1      43.180  21.772  25.807  1.00  0.00     0.338 C 
ATOM     45  O   UNL A   1      42.933  22.201  24.693  1.00  0.00    -0.246 OA
BRANCH  44  46
ATOM     46  C   UNL A   1      43.466  22.605  26.981  1.00  0.00     0.060 A 
ATOM     47  C   UNL A   1      42.546  22.595  28.031  1.00  0.00     0.016 A 
ATOM     48  C   UNL A   1      44.514  23.538  26.929  1.00  0.00     0.016 A 
ATOM     49  C   UNL A   1      42.590  23.623  28.952  1.00  0.00     0.010 A 
ATOM     50  C   UNL A   1      44.548  24.570  27.841  1.00  0.00     0.010 A 
ATOM     51  C   UNL A   1      43.544  24.639  28.802  1.00  0.00    -0.014 A 
BRANCH  51  52
ATOM     52  C   UNL A   1      43.493  25.750  29.730  1.00  0.00     0.031 A 
ATOM     53  C   UNL A   1      42.588  26.833  29.314  1.00  0.00     0.074 A 
ATOM     54  C   UNL A   1      44.145  25.766  30.908  1.00  0.00     0.049 A 
ATOM     55  N   UNL A   1      42.912  28.000  28.866  1.00  0.00    -0.248 NA
ATOM     56  C   UNL A   1      41.150  26.530  29.255  1.00  0.00     0.031 C 
ATOM     57  C   UNL A   1      44.814  24.633  31.553  1.00  0.00     0.029 A 
ATOM     58  N   UNL A   1      44.259  26.769  31.829  1.00  0.00    -0.354 N 
ATOM     59  C   UNL A   1      41.706  28.674  28.736  1.00  0.00     0.074 A 
ATOM     60  C   UNL A   1      40.669  27.673  28.764  1.00  0.00     0.031 C 
ATOM     61  C   UNL A   1      45.073  24.948  32.840  1.00  0.00     0.029 A 
ATOM     62  C   UNL A   1      44.721  26.342  33.066  1.00  0.00     0.049 A 
ATOM     63  H   UNL A   1      44.034  27.708  31.633  1.00  0.00     0.167 HD
ATOM     64  C   UNL A   1      41.631  30.006  28.999  1.00  0.00     0.031 A 
ATOM     65  C   UNL A   1      44.775  27.058  34.213  1.00  0.00     0.031 A 
ATOM     66  C   UNL A   1      42.928  30.631  29.029  1.00  0.00     0.049 A 
ATOM     67  C   UNL A   1      44.803  28.497  33.869  1.00  0.00     0.074 A 
ATOM     68  C   UNL A   1      43.896  30.997  28.122  1.00  0.00     0.029 A 
ATOM     69  N   UNL A   1      43.501  30.668  30.272  1.00  0.00    -0.354 N 
ATOM     70  N   UNL A   1      45.805  29.067  33.260  1.00  0.00    -0.248 NA
ATOM     71  C   UNL A   1      43.585  29.296  33.944  1.00  0.00     0.031 C 
ATOM     72  C   UNL A   1      45.115  31.106  28.856  1.00  0.00     0.029 A 
ATOM     73  C   UNL A   1      44.861  30.815  30.194  1.00  0.00     0.049 A 
ATOM     74  H   UNL A   1      42.998  30.599  31.116  1.00  0.00     0.167 HD
ATOM     75  C   UNL A   1      45.230  30.086  32.528  1.00  0.00     0.074 A 
ATOM     76  C   UNL A   1      43.917  30.293  33.119  1.00  0.00     0.031 C 
ATOM     77  C   UNL A   1      45.717  30.432  31.302  1.00  0.00     0.031 A 
BRANCH  64  78
ATOM     78  C   UNL A   1      40.471  30.611  29.762  1.00  0.00    -0.014 A 
ATOM     79  C   UNL A   1      40.348  30.325  31.136  1.00  0.00     0.010 A 
ATOM     80  C   UNL A   1      39.346  31.173  29.122  1.00  0.00     0.010 A 
ATOM     81  C   UNL A   1      39.142  30.542  31.816  1.00  0.00     0.020 A 
ATOM     82  C   UNL A   1      38.154  31.434  29.799  1.00  0.00     0.020 A 
ATOM     83  C   UNL A   1      38.050  31.084  31.137  1.00  0.00     0.054 A 
BRANCH  83  84
ATOM     84  S   UNL A   1      36.466  31.263  31.991  1.00  0.00     0.124 S 
ATOM     85  O   UNL A   1      36.212  29.895  32.433  1.00  0.00    -0.237 OA
ATOM     86  O   UNL A   1      36.790  32.222  33.042  1.00  0.00    -0.237 OA
ATOM     87  O   UNL A   1      35.573  31.765  30.949  1.00  0.00    -0.744 OA
ENDBRANCH  83  84
ENDBRANCH  64  78
BRANCH  65  88
ATOM     88  C   UNL A   1      44.617  26.574  35.604  1.00  0.00    -0.014 A 
ATOM     89  C   UNL A   1      44.786  25.213  35.915  1.00  0.00     0.010 A 
ATOM     90  C   UNL A   1      44.569  27.492  36.673  1.00  0.00     0.010 A 
ATOM     91  C   UNL A   1      44.979  24.794  37.240  1.00  0.00     0.020 A 
ATOM     92  C   UNL A   1      44.744  27.081  37.998  1.00  0.00     0.020 A 
ATOM     93  C   UNL A   1      44.979  25.736  38.272  1.00  0.00     0.054 A 
BRANCH  93  94
ATOM     94  S   UNL A   1      45.424  25.216  39.953  1.00  0.00     0.124 S 
ATOM     95  O   UNL A   1      44.494  25.988  40.772  1.00  0.00    -0.237 OA
ATOM     96  O   UNL A   1      45.187  23.776  39.914  1.00  0.00    -0.237 OA
ATOM     97  O   UNL A   1      46.828  25.607  40.074  1.00  0.00    -0.744 OA
ENDBRANCH  93  94
ENDBRANCH  65  88
BRANCH  77  98
ATOM     98  C   UNL A   1      47.187  30.229  31.046  1.00  0.00    -0.014 A 
ATOM     99  C   UNL A   1      48.207  31.015  31.612  1.00  0.00     0.010 A 
ATOM    100  C   UNL A   1      47.551  29.164  30.202  1.00  0.00     0.010 A 
ATOM    101  C   UNL A   1      49.553  30.765  31.308  1.00  0.00     0.020 A 
ATOM    102  C   UNL A   1      48.890  28.896  29.911  1.00  0.00     0.020 A 
ATOM    103  C   UNL A   1      49.885  29.709  30.454  1.00  0.00     0.054 A 
BRANCH 103 104
ATOM    104  S   UNL A   1      51.629  29.384  30.075  1.00  0.00     0.124 S 
ATOM    105  O   UNL A   1      51.844  28.067  30.669  1.00  0.00    -0.237 OA
ATOM    106  O   UNL A   1      51.656  29.426  28.615  1.00  0.00    -0.237 OA
ATOM    107  O   UNL A   1      52.339  30.481  30.731  1.00  0.00    -0.744 OA
ENDBRANCH 103 104
ENDBRANCH  77  98
ENDBRANCH  51  52
ENDBRANCH  44  46
ENDBRANCH  43  44
ENDBRANCH  42  43
ENDBRANCH  41  42
ENDBRANCH  40  41
ENDBRANCH   1  40
TORSDOF 24
ENDMDL
MODEL 2
REMARK VINA RESULT:     -10.0     11.358     16.925
REMARK SMILES COc1cc([C@@H]2CC(=O)Nc3c(C(=O)OCCOCCOCCOC(=O)c4ccc(-c5c6nc(c(-c7ccc(S(=O)(=O)[O-])cc7)c7ccc([nH]7)c(-c7ccc(S(=O)(=O)[O-])cc7)c7nc(c(-c8ccc(S(=O)(=O)[O-])cc8)c8ccc5[nH]8)C=C7)C=C6)cc4)cn(-c4ccc(F)cc4)c32)c(OC)c2c1OCO2
REMARK SMILES IDX 20 1 19 2 18 3 17 4 16 5 15 6 13 7 14 8 12 9 6 10 7 11 96 12
REMARK SMILES IDX 8 13 11 14 88 15 9 16 10 17 87 18 5 20 3 21 4 22 101 23
REMARK SMILES IDX 100 24 102 25 97 26 104 27 103 28 2 29 1 30 98 31 99 32
REMARK SMILES IDX 89 33 90 34 95 35 91 36 94 37 92 38 93 39 21 40 22 41 23 42
REMARK SMILES IDX 24 43 25 44 26 45 27 46 28 47 86 48 29 49 85 50 30 51 31 52
REMARK SMILES IDX 32 53 79 54 33 55 84 56 78 57 80 58 34 59 83 60 77 61 76 62
REMARK SMILES IDX 35 64 65 65 46 66 64 67 47 68 50 69 63 70 81 71 48 72 49 73
REMARK SMILES IDX 62 75 82 76 51 77 36 78 37 79 45 80 38 81 44 82 39 83 40 84
REMARK SMILES IDX 41 85 42 86 43 87 66 88 67 89 75 90 68 91 74 92 69 93 70 94
REMARK SMILES IDX 71 95 72 96 73 97 52 98 53 99 61 100 54 101 60 102 55 103
REMARK SMILES IDX 56 104 57 105 58 106 59 107
REMARK H PARENT 10 19 80 63 50 74
REMARK Flexibility Score: inf
ROOT
ATOM      1  C   UNL A   1      45.309  39.853  28.679  1.00  0.00     0.188 C 
ENDROOT
BRANCH   1   2
ATOM      2  C   UNL A   1      46.364  40.605  27.840  1.00  0.00     0.188 C 
BRANCH   2   3
ATOM      3  O   UNL A   1      46.326  40.614  26.418  1.00  0.00    -0.376 OA
BRANCH   3   4
ATOM      4  C   UNL A   1      45.664  41.648  25.706  1.00  0.00     0.202 C 
BRANCH   4   5
ATOM      5  C   UNL A   1      45.153  42.884  26.467  1.00  0.00     0.261 C 
BRANCH   5   6
ATOM      6  O   UNL A   1      44.329  43.776  25.702  1.00  0.00    -0.460 OA
BRANCH   6   7
ATOM      7  C   UNL A   1      44.999  44.758  25.038  1.00  0.00     0.341 C 
ATOM      8  O   UNL A   1      45.389  45.802  25.548  1.00  0.00    -0.246 OA
BRANCH   7   9
ATOM      9  C   UNL A   1      45.299  44.413  23.656  1.00  0.00     0.102 A 
ATOM     10  C   UNL A   1      44.601  43.974  20.064  1.00  0.00     0.082 C 
ATOM     11  C   UNL A   1      43.280  43.191  20.121  1.00  0.00     0.115 C 
ATOM     12  C   UNL A   1      45.200  44.038  21.433  1.00  0.00     0.055 A 
ATOM     13  C   UNL A   1      42.464  43.359  21.400  1.00  0.00     0.225 C 
ATOM     14  C   UNL A   1      44.469  43.970  22.598  1.00  0.00     0.078 A 
ATOM     15  N   UNL A   1      46.521  44.205  21.773  1.00  0.00    -0.317 N 
ATOM     16  O   UNL A   1      41.248  43.155  21.410  1.00  0.00    -0.275 OA
ATOM     17  N   UNL A   1      43.131  43.648  22.568  1.00  0.00    -0.324 N 
ATOM     18  C   UNL A   1      46.582  44.452  23.124  1.00  0.00     0.109 A 
ATOM     19  H   UNL A   1      42.633  43.624  23.416  1.00  0.00     0.170 HD
BRANCH  10  20
ATOM     20  C   UNL A   1      44.449  45.370  19.434  1.00  0.00     0.012 A 
ATOM     21  C   UNL A   1      44.968  47.767  19.645  1.00  0.00     0.165 A 
ATOM     22  C   UNL A   1      45.181  46.435  20.017  1.00  0.00     0.059 A 
ATOM     23  C   UNL A   1      44.056  48.012  18.636  1.00  0.00     0.211 A 
ATOM     24  C   UNL A   1      43.375  46.985  18.012  1.00  0.00     0.211 A 
ATOM     25  O   UNL A   1      43.721  49.230  18.121  1.00  0.00    -0.449 OA
ATOM     26  C   UNL A   1      43.555  45.657  18.373  1.00  0.00     0.168 A 
ATOM     27  O   UNL A   1      42.536  47.454  17.043  1.00  0.00    -0.449 OA
ATOM     28  C   UNL A   1      42.787  48.862  17.096  1.00  0.00     0.468 C 
BRANCH  21  29
ATOM     29  O   UNL A   1      45.707  48.690  20.327  1.00  0.00    -0.493 OA
ATOM     30  C   UNL A   1      46.993  48.963  19.781  1.00  0.00     0.278 C 
ENDBRANCH  21  29
BRANCH  26  31
ATOM     31  O   UNL A   1      42.946  44.592  17.789  1.00  0.00    -0.492 OA
ATOM     32  C   UNL A   1      43.337  44.160  16.497  1.00  0.00     0.278 C 
ENDBRANCH  26  31
ENDBRANCH  10  20
BRANCH  15  33
ATOM     33  C   UNL A   1      47.640  44.208  20.922  1.00  0.00     0.046 A 
ATOM     34  C   UNL A   1      48.303  43.007  20.661  1.00  0.00     0.029 A 
ATOM     35  C   UNL A   1      48.044  45.406  20.320  1.00  0.00     0.029 A 
ATOM     36  C   UNL A   1      49.417  43.010  19.825  1.00  0.00     0.041 A 
ATOM     37  C   UNL A   1      49.164  45.400  19.487  1.00  0.00     0.041 A 
ATOM     38  C   UNL A   1      49.842  44.206  19.253  1.00  0.00     0.123 A 
ATOM     39  F   UNL A   1      50.918  44.202  18.456  1.00  0.00    -0.207 F 
ENDBRANCH  15  33
ENDBRANCH   7   9
ENDBRANCH   6   7
ENDBRANCH   5   6
ENDBRANCH   4   5
ENDBRANCH   3   4
ENDBRANCH   2   3
ENDBRANCH   1   2
BRANCH   1  40
ATOM     40  O   UNL A   1      44.145  40.603  28.977  1.00  0.00    -0.376 OA
BRANCH  40  41
ATOM     41  C   UNL A   1      44.277  41.628  29.950  1.00  0.00     0.202 C 
BRANCH  41  42
ATOM     42  C   UNL A   1      44.677  41.203  31.363  1.00  0.00     0.261 C 
BRANCH  42  43
ATOM     43  O   UNL A   1      43.914  40.149  31.935  1.00  0.00    -0.460 OA
BRANCH  43  44
ATOM     44  C   UNL A   1      44.061  39.981  33.265  1.00  0.00     0.338 C 
ATOM     45  O   UNL A   1      44.468  40.807  34.064  1.00  0.00    -0.246 OA
BRANCH  44  46
ATOM     46  C   UNL A   1      43.737  38.588  33.592  1.00  0.00     0.060 A 
ATOM     47  C   UNL A   1      43.479  37.711  32.537  1.00  0.00     0.016 A 
ATOM     48  C   UNL A   1      43.478  38.232  34.926  1.00  0.00     0.016 A 
ATOM     49  C   UNL A   1      42.818  36.530  32.811  1.00  0.00     0.010 A 
ATOM     50  C   UNL A   1      42.808  37.060  35.195  1.00  0.00     0.010 A 
ATOM     51  C   UNL A   1      42.424  36.254  34.128  1.00  0.00    -0.014 A 
BRANCH  51  52
ATOM     52  C   UNL A   1      41.647  35.053  34.358  1.00  0.00     0.031 A 
ATOM     53  C   UNL A   1      42.093  33.893  33.569  1.00  0.00     0.074 A 
ATOM     54  C   UNL A   1      40.658  34.970  35.268  1.00  0.00     0.049 A 
ATOM     55  N   UNL A   1      41.503  33.361  32.552  1.00  0.00    -0.248 NA
ATOM     56  C   UNL A   1      43.429  33.350  33.858  1.00  0.00     0.031 C 
ATOM     57  C   UNL A   1      40.341  35.953  36.308  1.00  0.00     0.029 A 
ATOM     58  N   UNL A   1      39.794  33.944  35.526  1.00  0.00    -0.354 N 
ATOM     59  C   UNL A   1      42.261  32.238  32.254  1.00  0.00     0.074 A 
ATOM     60  C   UNL A   1      43.528  32.407  32.920  1.00  0.00     0.031 C 
ATOM     61  C   UNL A   1      39.509  35.389  37.209  1.00  0.00     0.029 A 
ATOM     62  C   UNL A   1      39.126  34.067  36.737  1.00  0.00     0.049 A 
ATOM     63  H   UNL A   1      39.657  33.187  34.911  1.00  0.00     0.167 HD
ATOM     64  C   UNL A   1      41.662  31.102  31.809  1.00  0.00     0.031 A 
ATOM     65  C   UNL A   1      38.346  33.140  37.341  1.00  0.00     0.031 A 
ATOM     66  C   UNL A   1      40.318  31.336  31.348  1.00  0.00     0.049 A 
ATOM     67  C   UNL A   1      37.846  32.202  36.312  1.00  0.00     0.074 A 
ATOM     68  C   UNL A   1      39.708  31.927  30.265  1.00  0.00     0.029 A 
ATOM     69  N   UNL A   1      39.361  31.171  32.314  1.00  0.00    -0.354 N 
ATOM     70  N   UNL A   1      37.010  32.550  35.374  1.00  0.00    -0.248 NA
ATOM     71  C   UNL A   1      38.484  30.904  36.126  1.00  0.00     0.031 C 
ATOM     72  C   UNL A   1      38.379  32.249  30.677  1.00  0.00     0.029 A 
ATOM     73  C   UNL A   1      38.207  31.839  31.997  1.00  0.00     0.049 A 
ATOM     74  H   UNL A   1      39.485  30.637  33.132  1.00  0.00     0.167 HD
ATOM     75  C   UNL A   1      37.330  31.736  34.306  1.00  0.00     0.074 A 
ATOM     76  C   UNL A   1      38.101  30.641  34.874  1.00  0.00     0.031 C 
ATOM     77  C   UNL A   1      37.244  32.193  33.024  1.00  0.00     0.031 A 
BRANCH  64  78
ATOM     78  C   UNL A   1      42.074  29.729  32.299  1.00  0.00    -0.014 A 
ATOM     79  C   UNL A   1      41.513  29.247  33.498  1.00  0.00     0.010 A 
ATOM     80  C   UNL A   1      43.210  29.051  31.807  1.00  0.00     0.010 A 
ATOM     81  C   UNL A   1      42.093  28.176  34.191  1.00  0.00     0.020 A 
ATOM     82  C   UNL A   1      43.770  27.956  32.465  1.00  0.00     0.020 A 
ATOM     83  C   UNL A   1      43.227  27.547  33.673  1.00  0.00     0.054 A 
BRANCH  83  84
ATOM     84  S   UNL A   1      44.033  26.237  34.623  1.00  0.00     0.124 S 
ATOM     85  O   UNL A   1      43.406  26.391  35.932  1.00  0.00    -0.237 OA
ATOM     86  O   UNL A   1      43.661  25.040  33.875  1.00  0.00    -0.237 OA
ATOM     87  O   UNL A   1      45.449  26.592  34.557  1.00  0.00    -0.744 OA
ENDBRANCH  83  84
ENDBRANCH  64  78
BRANCH  65  88
ATOM     88  C   UNL A   1      38.156  32.908  38.792  1.00  0.00    -0.014 A 
ATOM     89  C   UNL A   1      36.976  32.314  39.276  1.00  0.00     0.010 A 
ATOM     90  C   UNL A   1      39.248  33.019  39.677  1.00  0.00     0.010 A 
ATOM     91  C   UNL A   1      36.918  31.780  40.572  1.00  0.00     0.020 A 
ATOM     92  C   UNL A   1      39.191  32.505  40.976  1.00  0.00     0.020 A 
ATOM     93  C   UNL A   1      38.035  31.860  41.406  1.00  0.00     0.054 A 
BRANCH  93  94
ATOM     94  S   UNL A   1      38.019  30.997  43.004  1.00  0.00     0.124 S 
ATOM     95  O   UNL A   1      36.594  30.760  43.213  1.00  0.00    -0.237 OA
ATOM     96  O   UNL A   1      38.824  29.811  42.733  1.00  0.00    -0.237 OA
ATOM     97  O   UNL A   1      38.628  31.960  43.921  1.00  0.00    -0.744 OA
ENDBRANCH  93  94
ENDBRANCH  65  88
BRANCH  77  98
ATOM     98  C   UNL A   1      36.216  33.249  32.720  1.00  0.00    -0.014 A 
ATOM     99  C   UNL A   1      34.978  32.997  32.101  1.00  0.00     0.010 A 
ATOM    100  C   UNL A   1      36.515  34.568  33.109  1.00  0.00     0.010 A 
ATOM    101  C   UNL A   1      34.082  34.044  31.842  1.00  0.00     0.020 A 
ATOM    102  C   UNL A   1      35.618  35.612  32.872  1.00  0.00     0.020 A 
ATOM    103  C   UNL A   1      34.411  35.347  32.225  1.00  0.00     0.054 A 
BRANCH 103 104
ATOM    104  S   UNL A   1      33.243  36.695  31.898  1.00  0.00     0.124 S 
ATOM    105  O   UNL A   1      33.362  36.876  30.453  1.00  0.00    -0.237 OA
ATOM    106  O   UNL A   1      31.972  36.141  32.359  1.00  0.00    -0.237 OA
ATOM    107  O   UNL A   1      33.754  37.804  32.704  1.00  0.00    -0.744 OA
ENDBRANCH 103 104
ENDBRANCH  77  98
ENDBRANCH  51  52
ENDBRANCH  44  46
ENDBRANCH  43  44
ENDBRANCH  42  43
ENDBRANCH  41  42
ENDBRANCH  40  41
ENDBRANCH   1  40
TORSDOF 24
ENDMDL
MODEL 3
REMARK VINA RESULT:      -9.8      7.324     17.378
REMARK SMILES COc1cc([C@@H]2CC(=O)Nc3c(C(=O)OCCOCCOCCOC(=O)c4ccc(-c5c6nc(c(-c7ccc(S(=O)(=O)[O-])cc7)c7ccc([nH]7)c(-c7ccc(S(=O)(=O)[O-])cc7)c7nc(c(-c8ccc(S(=O)(=O)[O-])cc8)c8ccc5[nH]8)C=C7)C=C6)cc4)cn(-c4ccc(F)cc4)c32)c(OC)c2c1OCO2
REMARK SMILES IDX 20 1 19 2 18 3 17 4 16 5 15 6 13 7 14 8 12 9 6 10 7 11 96 12
REMARK SMILES IDX 8 13 11 14 88 15 9 16 10 17 87 18 5 20 3 21 4 22 101 23
REMARK SMILES IDX 100 24 102 25 97 26 104 27 103 28 2 29 1 30 98 31 99 32
REMARK SMILES IDX 89 33 90 34 95 35 91 36 94 37 92 38 93 39 21 40 22 41 23 42
REMARK SMILES IDX 24 43 25 44 26 45 27 46 28 47 86 48 29 49 85 50 30 51 31 52
REMARK SMILES IDX 32 53 79 54 33 55 84 56 78 57 80 58 34 59 83 60 77 61 76 62
REMARK SMILES IDX 35 64 65 65 46 66 64 67 47 68 50 69 63 70 81 71 48 72 49 73
REMARK SMILES IDX 62 75 82 76 51 77 36 78 37 79 45 80 38 81 44 82 39 83 40 84
REMARK SMILES IDX 41 85 42 86 43 87 66 88 67 89 75 90 68 91 74 92 69 93 70 94
REMARK SMILES IDX 71 95 72 96 73 97 52 98 53 99 61 100 54 101 60 102 55 103
REMARK SMILES IDX 56 104 57 105 58 106 59 107
REMARK H PARENT 10 19 80 63 50 74
REMARK Flexibility Score: inf
ROOT
ATOM      1  C   UNL A   1      50.005  21.927  36.741  1.00  0.00     0.188 C 
ENDROOT
BRANCH   1   2
ATOM      2  C   UNL A   1      50.670  20.733  37.460  1.00  0.00     0.188 C 
BRANCH   2   3
ATOM      3  O   UNL A   1      50.106  20.153  38.630  1.00  0.00    -0.376 OA
BRANCH   3   4
ATOM      4  C   UNL A   1      48.834  19.523  38.600  1.00  0.00     0.202 C 
BRANCH   4   5
ATOM      5  C   UNL A   1      47.794  19.867  39.680  1.00  0.00     0.261 C 
BRANCH   5   6
ATOM      6  O   UNL A   1      48.319  20.022  41.007  1.00  0.00    -0.460 OA
BRANCH   6   7
ATOM      7  C   UNL A   1      48.792  18.881  41.580  1.00  0.00     0.341 C 
ATOM      8  O   UNL A   1      49.941  18.469  41.466  1.00  0.00    -0.246 OA
BRANCH   7   9
ATOM      9  C   UNL A   1      47.816  18.223  42.437  1.00  0.00     0.102 A 
ATOM     10  C   UNL A   1      44.452  17.232  43.571  1.00  0.00     0.082 C 
ATOM     11  C   UNL A   1      43.731  18.589  43.553  1.00  0.00     0.115 C 
ATOM     12  C   UNL A   1      45.921  17.447  43.384  1.00  0.00     0.055 A 
ATOM     13  C   UNL A   1      44.326  19.643  42.622  1.00  0.00     0.225 C 
ATOM     14  C   UNL A   1      46.463  18.527  42.724  1.00  0.00     0.078 A 
ATOM     15  N   UNL A   1      46.954  16.634  43.784  1.00  0.00    -0.317 N 
ATOM     16  O   UNL A   1      43.639  20.575  42.196  1.00  0.00    -0.275 OA
ATOM     17  N   UNL A   1      45.672  19.588  42.347  1.00  0.00    -0.324 N 
ATOM     18  C   UNL A   1      48.107  17.093  43.192  1.00  0.00     0.109 A 
ATOM     19  H   UNL A   1      46.087  20.337  41.862  1.00  0.00     0.170 HD
BRANCH  10  20
ATOM     20  C   UNL A   1      43.881  16.230  42.551  1.00  0.00     0.012 A 
ATOM     21  C   UNL A   1      43.726  15.609  40.174  1.00  0.00     0.165 A 
ATOM     22  C   UNL A   1      44.323  16.340  41.208  1.00  0.00     0.059 A 
ATOM     23  C   UNL A   1      42.723  14.720  40.514  1.00  0.00     0.211 A 
ATOM     24  C   UNL A   1      42.319  14.554  41.824  1.00  0.00     0.211 A 
ATOM     25  O   UNL A   1      42.033  13.909  39.662  1.00  0.00    -0.449 OA
ATOM     26  C   UNL A   1      42.881  15.278  42.866  1.00  0.00     0.168 A 
ATOM     27  O   UNL A   1      41.326  13.623  41.928  1.00  0.00    -0.449 OA
ATOM     28  C   UNL A   1      41.179  13.199  40.569  1.00  0.00     0.468 C 
BRANCH  21  29
ATOM     29  O   UNL A   1      44.220  15.854  38.926  1.00  0.00    -0.493 OA
ATOM     30  C   UNL A   1      43.749  17.047  38.309  1.00  0.00     0.278 C 
ENDBRANCH  21  29
BRANCH  26  31
ATOM     31  O   UNL A   1      42.558  15.149  44.180  1.00  0.00    -0.492 OA
ATOM     32  C   UNL A   1      42.274  13.874  44.729  1.00  0.00     0.278 C 
ENDBRANCH  26  31
ENDBRANCH  10  20
BRANCH  15  33
ATOM     33  C   UNL A   1      46.888  15.483  44.588  1.00  0.00     0.046 A 
ATOM     34  C   UNL A   1      47.111  15.596  45.962  1.00  0.00     0.029 A 
ATOM     35  C   UNL A   1      46.560  14.253  44.005  1.00  0.00     0.029 A 
ATOM     36  C   UNL A   1      47.055  14.455  46.758  1.00  0.00     0.041 A 
ATOM     37  C   UNL A   1      46.510  13.115  44.810  1.00  0.00     0.041 A 
ATOM     38  C   UNL A   1      46.763  13.225  46.176  1.00  0.00     0.123 A 
ATOM     39  F   UNL A   1      46.718  12.131  46.947  1.00  0.00    -0.207 F 
ENDBRANCH  15  33
ENDBRANCH   7   9
ENDBRANCH   6   7
ENDBRANCH   5   6
ENDBRANCH   4   5
ENDBRANCH   3   4
ENDBRANCH   2   3
ENDBRANCH   1   2
BRANCH   1  40
ATOM     40  O   UNL A   1      49.573  21.656  35.420  1.00  0.00    -0.376 OA
BRANCH  40  41
ATOM     41  C   UNL A   1      48.172  21.549  35.215  1.00  0.00     0.202 C 
BRANCH  41  42
ATOM     42  C   UNL A   1      47.269  21.784  36.426  1.00  0.00     0.261 C 
BRANCH  42  43
ATOM     43  O   UNL A   1      46.406  22.911  36.350  1.00  0.00    -0.460 OA
BRANCH  43  44
ATOM     44  C   UNL A   1      47.008  24.112  36.471  1.00  0.00     0.338 C 
ATOM     45  O   UNL A   1      47.592  24.540  37.452  1.00  0.00    -0.246 OA
BRANCH  44  46
ATOM     46  C   UNL A   1      46.762  24.876  35.242  1.00  0.00     0.060 A 
ATOM     47  C   UNL A   1      45.441  25.025  34.818  1.00  0.00     0.016 A 
ATOM     48  C   UNL A   1      47.845  25.238  34.424  1.00  0.00     0.016 A 
ATOM     49  C   UNL A   1      45.210  25.396  33.508  1.00  0.00     0.010 A 
ATOM     50  C   UNL A   1      47.612  25.595  33.114  1.00  0.00     0.010 A 
ATOM     51  C   UNL A   1      46.300  25.604  32.652  1.00  0.00    -0.014 A 
BRANCH  51  52
ATOM     52  C   UNL A   1      46.016  25.895  31.261  1.00  0.00     0.031 A 
ATOM     53  C   UNL A   1      46.870  26.946  30.685  1.00  0.00     0.074 A 
ATOM     54  C   UNL A   1      45.112  25.217  30.528  1.00  0.00     0.049 A 
ATOM     55  N   UNL A   1      46.534  28.156  30.385  1.00  0.00    -0.248 NA
ATOM     56  C   UNL A   1      48.307  26.659  30.561  1.00  0.00     0.031 C 
ATOM     57  C   UNL A   1      44.439  23.970  30.905  1.00  0.00     0.029 A 
ATOM     58  N   UNL A   1      44.683  25.437  29.250  1.00  0.00    -0.354 N 
ATOM     59  C   UNL A   1      47.657  28.691  29.772  1.00  0.00     0.074 A 
ATOM     60  C   UNL A   1      48.761  27.829  30.109  1.00  0.00     0.031 C 
ATOM     61  C   UNL A   1      43.859  23.435  29.810  1.00  0.00     0.029 A 
ATOM     62  C   UNL A   1      43.997  24.363  28.699  1.00  0.00     0.049 A 
ATOM     63  H   UNL A   1      44.844  26.279  28.766  1.00  0.00     0.167 HD
ATOM     64  C   UNL A   1      47.525  29.566  28.739  1.00  0.00     0.031 A 
ATOM     65  C   UNL A   1      43.604  24.216  27.412  1.00  0.00     0.031 A 
ATOM     66  C   UNL A   1      46.197  30.114  28.653  1.00  0.00     0.049 A 
ATOM     67  C   UNL A   1      43.500  25.557  26.794  1.00  0.00     0.074 A 
ATOM     68  C   UNL A   1      45.429  31.021  29.348  1.00  0.00     0.029 A 
ATOM     69  N   UNL A   1      45.352  29.406  27.839  1.00  0.00    -0.354 N 
ATOM     70  N   UNL A   1      42.610  26.440  27.149  1.00  0.00    -0.248 NA
ATOM     71  C   UNL A   1      44.575  26.062  25.947  1.00  0.00     0.031 C 
ATOM     72  C   UNL A   1      44.069  30.725  29.031  1.00  0.00     0.029 A 
ATOM     73  C   UNL A   1      44.039  29.652  28.143  1.00  0.00     0.049 A 
ATOM     74  H   UNL A   1      45.652  28.799  27.124  1.00  0.00     0.167 HD
ATOM     75  C   UNL A   1      43.224  27.657  26.931  1.00  0.00     0.074 A 
ATOM     76  C   UNL A   1      44.335  27.373  26.036  1.00  0.00     0.031 C 
ATOM     77  C   UNL A   1      42.997  28.717  27.758  1.00  0.00     0.031 A 
BRANCH  64  78
ATOM     78  C   UNL A   1      48.406  29.496  27.508  1.00  0.00    -0.014 A 
ATOM     79  C   UNL A   1      48.188  28.457  26.584  1.00  0.00     0.010 A 
ATOM     80  C   UNL A   1      49.620  30.208  27.396  1.00  0.00     0.010 A 
ATOM     81  C   UNL A   1      49.160  28.117  25.633  1.00  0.00     0.020 A 
ATOM     82  C   UNL A   1      50.576  29.907  26.426  1.00  0.00     0.020 A 
ATOM     83  C   UNL A   1      50.353  28.839  25.571  1.00  0.00     0.054 A 
BRANCH  83  84
ATOM     84  S   UNL A   1      51.647  28.329  24.416  1.00  0.00     0.124 S 
ATOM     85  O   UNL A   1      52.853  28.526  25.214  1.00  0.00    -0.237 OA
ATOM     86  O   UNL A   1      51.285  26.941  24.141  1.00  0.00    -0.237 OA
ATOM     87  O   UNL A   1      51.478  29.246  23.291  1.00  0.00    -0.744 OA
ENDBRANCH  83  84
ENDBRANCH  64  78
BRANCH  65  88
ATOM     88  C   UNL A   1      43.490  22.965  26.626  1.00  0.00    -0.014 A 
ATOM     89  C   UNL A   1      44.536  22.547  25.785  1.00  0.00     0.010 A 
ATOM     90  C   UNL A   1      42.465  22.040  26.913  1.00  0.00     0.010 A 
ATOM     91  C   UNL A   1      44.596  21.227  25.311  1.00  0.00     0.020 A 
ATOM     92  C   UNL A   1      42.509  20.728  26.430  1.00  0.00     0.020 A 
ATOM     93  C   UNL A   1      43.592  20.320  25.656  1.00  0.00     0.054 A 
BRANCH  93  94
ATOM     94  S   UNL A   1      43.777  18.571  25.204  1.00  0.00     0.124 S 
ATOM     95  O   UNL A   1      44.976  18.186  25.941  1.00  0.00    -0.237 OA
ATOM     96  O   UNL A   1      42.526  17.986  25.679  1.00  0.00    -0.237 OA
ATOM     97  O   UNL A   1      43.927  18.606  23.749  1.00  0.00    -0.744 OA
ENDBRANCH  93  94
ENDBRANCH  65  88
BRANCH  77  98
ATOM     98  C   UNL A   1      41.657  28.805  28.438  1.00  0.00    -0.014 A 
ATOM     99  C   UNL A   1      40.422  28.713  27.771  1.00  0.00     0.010 A 
ATOM    100  C   UNL A   1      41.655  28.965  29.836  1.00  0.00     0.010 A 
ATOM    101  C   UNL A   1      39.217  28.819  28.481  1.00  0.00     0.020 A 
ATOM    102  C   UNL A   1      40.459  29.052  30.552  1.00  0.00     0.020 A 
ATOM    103  C   UNL A   1      39.244  28.993  29.868  1.00  0.00     0.054 A 
BRANCH 103 104
ATOM    104  S   UNL A   1      37.682  29.118  30.782  1.00  0.00     0.124 S 
ATOM    105  O   UNL A   1      37.678  27.892  31.574  1.00  0.00    -0.237 OA
ATOM    106  O   UNL A   1      37.848  30.356  31.539  1.00  0.00    -0.237 OA
ATOM    107  O   UNL A   1      36.667  29.178  29.730  1.00  0.00    -0.744 OA
ENDBRANCH 103 104
ENDBRANCH  77  98
ENDBRANCH  51  52
ENDBRANCH  44  46
ENDBRANCH  43  44
ENDBRANCH  42  43
ENDBRANCH  41  42
ENDBRANCH  40  41
ENDBRANCH   1  40
TORSDOF 24
ENDMDL
