MODEL 1
REMARK VINA RESULT:      -9.4      0.000      0.000
REMARK SMILES CCC1CN(c2cc(F)ccc2C(=O)OCCOCCOCCOC(=O)c2ccc(-c3c4nc(c(-c5ccc(S(=O)(=O)[O-])cc5)c5ccc([nH]5)c(-c5ccc(S(=O)(=O)[O-])cc5)c5nc(c(-c6ccc(S(=O)(=O)[O-])cc6)c6ccc3[nH]6)C=C5)C=C4)cc2)C1
REMARK SMILES IDX 20 1 19 2 18 3 17 4 16 5 15 6 13 7 14 8 12 9 6 10 7 11 8 12
REMARK SMILES IDX 11 13 9 14 10 15 5 16 3 17 4 18 87 19 2 20 1 21 21 22 22 23
REMARK SMILES IDX 23 24 24 25 25 26 26 27 27 28 28 29 86 30 29 31 85 32 30 33
REMARK SMILES IDX 31 34 32 35 79 36 33 37 84 38 78 39 80 40 34 41 83 42 77 43
REMARK SMILES IDX 76 44 35 46 65 47 46 48 64 49 47 50 50 51 63 52 81 53 48 54
REMARK SMILES IDX 49 55 62 57 82 58 51 59 36 60 37 61 45 62 38 63 44 64 39 65
REMARK SMILES IDX 40 66 41 67 42 68 43 69 66 70 67 71 75 72 68 73 74 74 69 75
REMARK SMILES IDX 70 76 71 77 72 78 73 79 52 80 53 81 61 82 54 83 60 84 55 85
REMARK SMILES IDX 56 86 57 87 58 88 59 89
REMARK H PARENT 80 45 50 56
REMARK Flexibility Score: inf
ROOT
ATOM      1  C   UNL A   1      35.722  23.493  25.281  1.00  0.00     0.188 C 
ENDROOT
BRANCH   1   2
ATOM      2  C   UNL A   1      34.660  23.037  26.305  1.00  0.00     0.188 C 
BRANCH   2   3
ATOM      3  O   UNL A   1      33.412  23.729  26.323  1.00  0.00    -0.376 OA
BRANCH   3   4
ATOM      4  C   UNL A   1      32.374  23.267  25.456  1.00  0.00     0.202 C 
BRANCH   4   5
ATOM      5  C   UNL A   1      31.361  24.310  24.979  1.00  0.00     0.261 C 
BRANCH   5   6
ATOM      6  O   UNL A   1      31.856  25.634  25.225  1.00  0.00    -0.460 OA
BRANCH   6   7
ATOM      7  C   UNL A   1      32.369  26.284  24.152  1.00  0.00     0.340 C 
ATOM      8  O   UNL A   1      33.247  25.879  23.410  1.00  0.00    -0.246 OA
BRANCH   7   9
ATOM      9  C   UNL A   1      31.536  27.475  23.879  1.00  0.00     0.083 A 
ATOM     10  C   UNL A   1      31.653  28.689  24.588  1.00  0.00     0.054 A 
ATOM     11  C   UNL A   1      30.703  29.689  24.310  1.00  0.00     0.066 A 
ATOM     12  C   UNL A   1      29.706  29.497  23.357  1.00  0.00     0.125 A 
ATOM     13  C   UNL A   1      30.517  27.287  22.924  1.00  0.00     0.021 A 
ATOM     14  F   UNL A   1      28.842  30.489  23.103  1.00  0.00    -0.207 F 
ATOM     15  C   UNL A   1      29.601  28.304  22.662  1.00  0.00     0.040 A 
BRANCH  10  16
ATOM     16  N   UNL A   1      32.662  28.961  25.522  1.00  0.00    -0.370 N 
ATOM     17  C   UNL A   1      34.048  29.828  26.754  1.00  0.00     0.028 C 
ATOM     18  C   UNL A   1      34.077  29.068  25.415  1.00  0.00     0.122 C 
ATOM     19  C   UNL A   1      32.616  29.291  26.907  1.00  0.00     0.122 C 
BRANCH  17  20
ATOM     20  C   UNL A   1      35.061  29.422  27.812  1.00  0.00     0.004 C 
ATOM     21  C   UNL A   1      36.289  30.316  27.722  1.00  0.00     0.004 C 
ENDBRANCH  17  20
ENDBRANCH  10  16
ENDBRANCH   7   9
ENDBRANCH   6   7
ENDBRANCH   5   6
ENDBRANCH   4   5
ENDBRANCH   3   4
ENDBRANCH   2   3
ENDBRANCH   1   2
BRANCH   1  22
ATOM     22  O   UNL A   1      36.867  22.674  25.236  1.00  0.00    -0.376 OA
BRANCH  22  23
ATOM     23  C   UNL A   1      38.013  22.992  26.000  1.00  0.00     0.202 C 
BRANCH  23  24
ATOM     24  C   UNL A   1      38.366  24.393  26.535  1.00  0.00     0.261 C 
BRANCH  24  25
ATOM     25  O   UNL A   1      39.685  24.620  27.028  1.00  0.00    -0.460 OA
BRANCH  25  26
ATOM     26  C   UNL A   1      40.270  25.790  26.683  1.00  0.00     0.338 C 
ATOM     27  O   UNL A   1      40.723  26.093  25.595  1.00  0.00    -0.246 OA
BRANCH  26  28
ATOM     28  C   UNL A   1      40.115  26.718  27.821  1.00  0.00     0.060 A 
ATOM     29  C   UNL A   1      40.759  27.961  27.769  1.00  0.00     0.016 A 
ATOM     30  C   UNL A   1      39.335  26.367  28.927  1.00  0.00     0.016 A 
ATOM     31  C   UNL A   1      40.646  28.845  28.842  1.00  0.00     0.010 A 
ATOM     32  C   UNL A   1      39.238  27.248  30.007  1.00  0.00     0.010 A 
ATOM     33  C   UNL A   1      39.915  28.479  29.980  1.00  0.00    -0.014 A 
BRANCH  33  34
ATOM     34  C   UNL A   1      39.991  29.304  31.209  1.00  0.00     0.031 A 
ATOM     35  C   UNL A   1      41.108  29.040  32.181  1.00  0.00     0.074 A 
ATOM     36  C   UNL A   1      39.089  30.270  31.458  1.00  0.00     0.049 A 
ATOM     37  N   UNL A   1      41.361  29.618  33.327  1.00  0.00    -0.248 NA
ATOM     38  C   UNL A   1      42.066  27.986  31.811  1.00  0.00     0.031 C 
ATOM     39  C   UNL A   1      37.979  30.643  30.580  1.00  0.00     0.029 A 
ATOM     40  N   UNL A   1      38.963  31.110  32.536  1.00  0.00    -0.354 N 
ATOM     41  C   UNL A   1      42.505  28.996  33.816  1.00  0.00     0.074 A 
ATOM     42  C   UNL A   1      42.882  27.983  32.854  1.00  0.00     0.031 C 
ATOM     43  C   UNL A   1      37.281  31.634  31.161  1.00  0.00     0.029 A 
ATOM     44  C   UNL A   1      37.874  31.946  32.460  1.00  0.00     0.049 A 
ATOM     45  H   UNL A   1      39.593  31.114  33.292  1.00  0.00     0.167 HD
ATOM     46  C   UNL A   1      43.181  29.246  34.961  1.00  0.00     0.031 A 
ATOM     47  C   UNL A   1      37.404  32.847  33.346  1.00  0.00     0.031 A 
ATOM     48  C   UNL A   1      42.793  30.235  35.929  1.00  0.00     0.049 A 
ATOM     49  C   UNL A   1      38.132  33.054  34.650  1.00  0.00     0.074 A 
ATOM     50  C   UNL A   1      43.424  30.572  37.114  1.00  0.00     0.029 A 
ATOM     51  N   UNL A   1      41.668  31.038  35.831  1.00  0.00    -0.354 N 
ATOM     52  N   UNL A   1      39.234  32.485  35.079  1.00  0.00    -0.248 NA
ATOM     53  C   UNL A   1      37.555  34.031  35.585  1.00  0.00     0.031 C 
ATOM     54  C   UNL A   1      42.652  31.547  37.757  1.00  0.00     0.029 A 
ATOM     55  C   UNL A   1      41.569  31.852  36.946  1.00  0.00     0.049 A 
ATOM     56  H   UNL A   1      41.032  31.031  35.078  1.00  0.00     0.167 HD
ATOM     57  C   UNL A   1      39.496  33.056  36.321  1.00  0.00     0.074 A 
ATOM     58  C   UNL A   1      38.443  34.020  36.570  1.00  0.00     0.031 C 
ATOM     59  C   UNL A   1      40.518  32.809  37.176  1.00  0.00     0.031 A 
BRANCH  46  60
ATOM     60  C   UNL A   1      44.395  28.405  35.242  1.00  0.00    -0.014 A 
ATOM     61  C   UNL A   1      44.283  27.167  35.901  1.00  0.00     0.010 A 
ATOM     62  C   UNL A   1      45.660  28.846  34.819  1.00  0.00     0.010 A 
ATOM     63  C   UNL A   1      45.421  26.402  36.162  1.00  0.00     0.020 A 
ATOM     64  C   UNL A   1      46.800  28.073  35.060  1.00  0.00     0.020 A 
ATOM     65  C   UNL A   1      46.674  26.862  35.745  1.00  0.00     0.054 A 
BRANCH  65  66
ATOM     66  S   UNL A   1      48.135  25.842  36.080  1.00  0.00     0.124 S 
ATOM     67  O   UNL A   1      47.787  24.592  35.408  1.00  0.00    -0.237 OA
ATOM     68  O   UNL A   1      49.212  26.608  35.459  1.00  0.00    -0.237 OA
ATOM     69  O   UNL A   1      48.184  25.774  37.538  1.00  0.00    -0.744 OA
ENDBRANCH  65  66
ENDBRANCH  46  60
BRANCH  47  70
ATOM     70  C   UNL A   1      36.167  33.617  33.043  1.00  0.00    -0.014 A 
ATOM     71  C   UNL A   1      36.219  35.009  32.857  1.00  0.00     0.010 A 
ATOM     72  C   UNL A   1      34.925  32.961  32.961  1.00  0.00     0.010 A 
ATOM     73  C   UNL A   1      35.049  35.736  32.615  1.00  0.00     0.020 A 
ATOM     74  C   UNL A   1      33.756  33.680  32.695  1.00  0.00     0.020 A 
ATOM     75  C   UNL A   1      33.824  35.067  32.537  1.00  0.00     0.054 A 
BRANCH  75  76
ATOM     76  S   UNL A   1      32.322  36.022  32.185  1.00  0.00     0.124 S 
ATOM     77  O   UNL A   1      31.279  35.148  32.709  1.00  0.00    -0.237 OA
ATOM     78  O   UNL A   1      32.549  37.257  32.931  1.00  0.00    -0.237 OA
ATOM     79  O   UNL A   1      32.346  36.168  30.731  1.00  0.00    -0.744 OA
ENDBRANCH  75  76
ENDBRANCH  47  70
BRANCH  59  80
ATOM     80  C   UNL A   1      40.578  33.618  38.444  1.00  0.00    -0.014 A 
ATOM     81  C   UNL A   1      41.258  34.848  38.494  1.00  0.00     0.010 A 
ATOM     82  C   UNL A   1      39.889  33.167  39.586  1.00  0.00     0.010 A 
ATOM     83  C   UNL A   1      41.267  35.601  39.672  1.00  0.00     0.020 A 
ATOM     84  C   UNL A   1      39.876  33.929  40.757  1.00  0.00     0.020 A 
ATOM     85  C   UNL A   1      40.577  35.136  40.796  1.00  0.00     0.054 A 
BRANCH  85  86
ATOM     86  S   UNL A   1      40.561  36.153  42.298  1.00  0.00     0.124 S 
ATOM     87  O   UNL A   1      41.158  35.253  43.281  1.00  0.00    -0.237 OA
ATOM     88  O   UNL A   1      41.382  37.302  41.920  1.00  0.00    -0.237 OA
ATOM     89  O   UNL A   1      39.145  36.449  42.501  1.00  0.00    -0.744 OA
ENDBRANCH  85  86
ENDBRANCH  59  80
ENDBRANCH  33  34
ENDBRANCH  26  28
ENDBRANCH  25  26
ENDBRANCH  24  25
ENDBRANCH  23  24
ENDBRANCH  22  23
ENDBRANCH   1  22
TORSDOF 22
ENDMDL
MODEL 2
REMARK VINA RESULT:      -9.2      6.440     11.547
REMARK SMILES CCC1CN(c2cc(F)ccc2C(=O)OCCOCCOCCOC(=O)c2ccc(-c3c4nc(c(-c5ccc(S(=O)(=O)[O-])cc5)c5ccc([nH]5)c(-c5ccc(S(=O)(=O)[O-])cc5)c5nc(c(-c6ccc(S(=O)(=O)[O-])cc6)c6ccc3[nH]6)C=C5)C=C4)cc2)C1
REMARK SMILES IDX 20 1 19 2 18 3 17 4 16 5 15 6 13 7 14 8 12 9 6 10 7 11 8 12
REMARK SMILES IDX 11 13 9 14 10 15 5 16 3 17 4 18 87 19 2 20 1 21 21 22 22 23
REMARK SMILES IDX 23 24 24 25 25 26 26 27 27 28 28 29 86 30 29 31 85 32 30 33
REMARK SMILES IDX 31 34 32 35 79 36 33 37 84 38 78 39 80 40 34 41 83 42 77 43
REMARK SMILES IDX 76 44 35 46 65 47 46 48 64 49 47 50 50 51 63 52 81 53 48 54
REMARK SMILES IDX 49 55 62 57 82 58 51 59 36 60 37 61 45 62 38 63 44 64 39 65
REMARK SMILES IDX 40 66 41 67 42 68 43 69 66 70 67 71 75 72 68 73 74 74 69 75
REMARK SMILES IDX 70 76 71 77 72 78 73 79 52 80 53 81 61 82 54 83 60 84 55 85
REMARK SMILES IDX 56 86 57 87 58 88 59 89
REMARK H PARENT 80 45 50 56
REMARK Flexibility Score: inf
ROOT
ATOM      1  C   UNL A   1      36.255  22.332  25.159  1.00  0.00     0.188 C 
ENDROOT
BRANCH   1   2
ATOM      2  C   UNL A   1      35.419  22.479  23.869  1.00  0.00     0.188 C 
BRANCH   2   3
ATOM      3  O   UNL A   1      34.896  23.770  23.559  1.00  0.00    -0.376 OA
BRANCH   3   4
ATOM      4  C   UNL A   1      33.789  23.849  22.659  1.00  0.00     0.202 C 
BRANCH   4   5
ATOM      5  C   UNL A   1      33.245  25.248  22.358  1.00  0.00     0.261 C 
BRANCH   5   6
ATOM      6  O   UNL A   1      31.850  25.179  22.031  1.00  0.00    -0.460 OA
BRANCH   6   7
ATOM      7  C   UNL A   1      30.993  25.197  23.081  1.00  0.00     0.340 C 
ATOM      8  O   UNL A   1      30.294  24.274  23.464  1.00  0.00    -0.246 OA
BRANCH   7   9
ATOM      9  C   UNL A   1      31.203  26.448  23.841  1.00  0.00     0.083 A 
ATOM     10  C   UNL A   1      31.656  26.483  25.176  1.00  0.00     0.054 A 
ATOM     11  C   UNL A   1      31.679  27.738  25.814  1.00  0.00     0.066 A 
ATOM     12  C   UNL A   1      31.297  28.898  25.144  1.00  0.00     0.125 A 
ATOM     13  C   UNL A   1      30.808  27.626  23.176  1.00  0.00     0.021 A 
ATOM     14  F   UNL A   1      31.366  30.074  25.781  1.00  0.00    -0.207 F 
ATOM     15  C   UNL A   1      30.859  28.854  23.831  1.00  0.00     0.040 A 
BRANCH  10  16
ATOM     16  N   UNL A   1      32.100  25.360  25.888  1.00  0.00    -0.370 N 
ATOM     17  C   UNL A   1      32.728  23.505  26.483  1.00  0.00     0.028 C 
ATOM     18  C   UNL A   1      31.416  24.308  26.560  1.00  0.00     0.122 C 
ATOM     19  C   UNL A   1      33.403  24.842  26.137  1.00  0.00     0.122 C 
BRANCH  17  20
ATOM     20  C   UNL A   1      33.191  22.797  27.746  1.00  0.00     0.004 C 
ATOM     21  C   UNL A   1      33.641  21.382  27.410  1.00  0.00     0.004 C 
ENDBRANCH  17  20
ENDBRANCH  10  16
ENDBRANCH   7   9
ENDBRANCH   6   7
ENDBRANCH   5   6
ENDBRANCH   4   5
ENDBRANCH   3   4
ENDBRANCH   2   3
ENDBRANCH   1   2
BRANCH   1  22
ATOM     22  O   UNL A   1      36.668  21.012  25.430  1.00  0.00    -0.376 OA
BRANCH  22  23
ATOM     23  C   UNL A   1      38.003  20.610  25.197  1.00  0.00     0.202 C 
BRANCH  23  24
ATOM     24  C   UNL A   1      39.245  21.202  25.889  1.00  0.00     0.261 C 
BRANCH  24  25
ATOM     25  O   UNL A   1      40.013  20.358  26.746  1.00  0.00    -0.460 OA
BRANCH  25  26
ATOM     26  C   UNL A   1      41.270  20.066  26.342  1.00  0.00     0.338 C 
ATOM     27  O   UNL A   1      41.645  19.056  25.775  1.00  0.00    -0.246 OA
BRANCH  26  28
ATOM     28  C   UNL A   1      42.098  21.269  26.558  1.00  0.00     0.060 A 
ATOM     29  C   UNL A   1      42.360  21.681  27.870  1.00  0.00     0.016 A 
ATOM     30  C   UNL A   1      42.616  21.982  25.472  1.00  0.00     0.016 A 
ATOM     31  C   UNL A   1      43.120  22.829  28.098  1.00  0.00     0.010 A 
ATOM     32  C   UNL A   1      43.362  23.140  25.703  1.00  0.00     0.010 A 
ATOM     33  C   UNL A   1      43.594  23.583  27.016  1.00  0.00    -0.014 A 
BRANCH  33  34
ATOM     34  C   UNL A   1      44.189  24.921  27.248  1.00  0.00     0.031 A 
ATOM     35  C   UNL A   1      43.288  26.036  27.705  1.00  0.00     0.074 A 
ATOM     36  C   UNL A   1      45.501  25.144  27.058  1.00  0.00     0.049 A 
ATOM     37  N   UNL A   1      43.579  27.288  27.947  1.00  0.00    -0.248 NA
ATOM     38  C   UNL A   1      41.872  25.693  27.916  1.00  0.00     0.031 C 
ATOM     39  C   UNL A   1      46.483  24.139  26.647  1.00  0.00     0.029 A 
ATOM     40  N   UNL A   1      46.233  26.299  27.181  1.00  0.00    -0.354 N 
ATOM     41  C   UNL A   1      42.384  27.882  28.337  1.00  0.00     0.074 A 
ATOM     42  C   UNL A   1      41.361  26.860  28.276  1.00  0.00     0.031 C 
ATOM     43  C   UNL A   1      47.688  24.727  26.545  1.00  0.00     0.029 A 
ATOM     44  C   UNL A   1      47.559  26.149  26.855  1.00  0.00     0.049 A 
ATOM     45  H   UNL A   1      45.844  27.153  27.476  1.00  0.00     0.167 HD
ATOM     46  C   UNL A   1      42.158  29.162  28.713  1.00  0.00     0.031 A 
ATOM     47  C   UNL A   1      48.550  27.062  26.798  1.00  0.00     0.031 A 
ATOM     48  C   UNL A   1      43.168  30.184  28.751  1.00  0.00     0.049 A 
ATOM     49  C   UNL A   1      48.257  28.499  27.148  1.00  0.00     0.074 A 
ATOM     50  C   UNL A   1      43.038  31.507  29.133  1.00  0.00     0.029 A 
ATOM     51  N   UNL A   1      44.491  30.001  28.383  1.00  0.00    -0.354 N 
ATOM     52  N   UNL A   1      47.129  29.036  27.552  1.00  0.00    -0.248 NA
ATOM     53  C   UNL A   1      49.373  29.450  27.041  1.00  0.00     0.031 C 
ATOM     54  C   UNL A   1      44.274  32.138  28.949  1.00  0.00     0.029 A 
ATOM     55  C   UNL A   1      45.184  31.192  28.502  1.00  0.00     0.049 A 
ATOM     56  H   UNL A   1      44.881  29.148  28.080  1.00  0.00     0.167 HD
ATOM     57  C   UNL A   1      47.409  30.381  27.774  1.00  0.00     0.074 A 
ATOM     58  C   UNL A   1      48.812  30.574  27.468  1.00  0.00     0.031 C 
ATOM     59  C   UNL A   1      46.581  31.367  28.198  1.00  0.00     0.031 A 
BRANCH  46  60
ATOM     60  C   UNL A   1      40.748  29.533  29.081  1.00  0.00    -0.014 A 
ATOM     61  C   UNL A   1      40.410  29.880  30.401  1.00  0.00     0.010 A 
ATOM     62  C   UNL A   1      39.754  29.560  28.088  1.00  0.00     0.010 A 
ATOM     63  C   UNL A   1      39.094  30.215  30.728  1.00  0.00     0.020 A 
ATOM     64  C   UNL A   1      38.440  29.915  28.407  1.00  0.00     0.020 A 
ATOM     65  C   UNL A   1      38.116  30.224  29.730  1.00  0.00     0.054 A 
BRANCH  65  66
ATOM     66  S   UNL A   1      36.418  30.679  30.175  1.00  0.00     0.124 S 
ATOM     67  O   UNL A   1      36.594  32.041  30.674  1.00  0.00    -0.237 OA
ATOM     68  O   UNL A   1      35.709  30.563  28.904  1.00  0.00    -0.237 OA
ATOM     69  O   UNL A   1      36.047  29.689  31.184  1.00  0.00    -0.744 OA
ENDBRANCH  65  66
ENDBRANCH  46  60
BRANCH  47  70
ATOM     70  C   UNL A   1      49.918  26.654  26.376  1.00  0.00    -0.014 A 
ATOM     71  C   UNL A   1      50.357  26.878  25.060  1.00  0.00     0.010 A 
ATOM     72  C   UNL A   1      50.782  26.019  27.287  1.00  0.00     0.010 A 
ATOM     73  C   UNL A   1      51.628  26.455  24.656  1.00  0.00     0.020 A 
ATOM     74  C   UNL A   1      52.061  25.617  26.894  1.00  0.00     0.020 A 
ATOM     75  C   UNL A   1      52.471  25.826  25.575  1.00  0.00     0.054 A 
BRANCH  75  76
ATOM     76  S   UNL A   1      54.130  25.319  25.042  1.00  0.00     0.124 S 
ATOM     77  O   UNL A   1      54.282  26.052  23.790  1.00  0.00    -0.237 OA
ATOM     78  O   UNL A   1      54.971  25.772  26.148  1.00  0.00    -0.237 OA
ATOM     79  O   UNL A   1      54.016  23.868  24.909  1.00  0.00    -0.744 OA
ENDBRANCH  75  76
ENDBRANCH  47  70
BRANCH  59  80
ATOM     80  C   UNL A   1      47.172  32.737  28.397  1.00  0.00    -0.014 A 
ATOM     81  C   UNL A   1      47.771  33.103  29.615  1.00  0.00     0.010 A 
ATOM     82  C   UNL A   1      47.182  33.649  27.325  1.00  0.00     0.010 A 
ATOM     83  C   UNL A   1      48.348  34.367  29.766  1.00  0.00     0.020 A 
ATOM     84  C   UNL A   1      47.780  34.904  27.464  1.00  0.00     0.020 A 
ATOM     85  C   UNL A   1      48.348  35.260  28.689  1.00  0.00     0.054 A 
BRANCH  85  86
ATOM     86  S   UNL A   1      49.147  36.877  28.890  1.00  0.00     0.124 S 
ATOM     87  O   UNL A   1      50.459  36.505  29.409  1.00  0.00    -0.237 OA
ATOM     88  O   UNL A   1      49.138  37.413  27.530  1.00  0.00    -0.237 OA
ATOM     89  O   UNL A   1      48.278  37.577  29.832  1.00  0.00    -0.744 OA
ENDBRANCH  85  86
ENDBRANCH  59  80
ENDBRANCH  33  34
ENDBRANCH  26  28
ENDBRANCH  25  26
ENDBRANCH  24  25
ENDBRANCH  23  24
ENDBRANCH  22  23
ENDBRANCH   1  22
TORSDOF 22
ENDMDL
MODEL 3
REMARK VINA RESULT:      -9.1      6.413      8.541
REMARK SMILES CCC1CN(c2cc(F)ccc2C(=O)OCCOCCOCCOC(=O)c2ccc(-c3c4nc(c(-c5ccc(S(=O)(=O)[O-])cc5)c5ccc([nH]5)c(-c5ccc(S(=O)(=O)[O-])cc5)c5nc(c(-c6ccc(S(=O)(=O)[O-])cc6)c6ccc3[nH]6)C=C5)C=C4)cc2)C1
REMARK SMILES IDX 20 1 19 2 18 3 17 4 16 5 15 6 13 7 14 8 12 9 6 10 7 11 8 12
REMARK SMILES IDX 11 13 9 14 10 15 5 16 3 17 4 18 87 19 2 20 1 21 21 22 22 23
REMARK SMILES IDX 23 24 24 25 25 26 26 27 27 28 28 29 86 30 29 31 85 32 30 33
REMARK SMILES IDX 31 34 32 35 79 36 33 37 84 38 78 39 80 40 34 41 83 42 77 43
REMARK SMILES IDX 76 44 35 46 65 47 46 48 64 49 47 50 50 51 63 52 81 53 48 54
REMARK SMILES IDX 49 55 62 57 82 58 51 59 36 60 37 61 45 62 38 63 44 64 39 65
REMARK SMILES IDX 40 66 41 67 42 68 43 69 66 70 67 71 75 72 68 73 74 74 69 75
REMARK SMILES IDX 70 76 71 77 72 78 73 79 52 80 53 81 61 82 54 83 60 84 55 85
REMARK SMILES IDX 56 86 57 87 58 88 59 89
REMARK H PARENT 80 45 50 56
REMARK Flexibility Score: inf
ROOT
ATOM      1  C   UNL A   1      35.805  20.655  25.319  1.00  0.00     0.188 C 
ENDROOT
BRANCH   1   2
ATOM      2  C   UNL A   1      34.740  21.683  25.756  1.00  0.00     0.188 C 
BRANCH   2   3
ATOM      3  O   UNL A   1      33.711  21.241  26.641  1.00  0.00    -0.376 OA
BRANCH   3   4
ATOM      4  C   UNL A   1      33.354  22.088  27.735  1.00  0.00     0.202 C 
BRANCH   4   5
ATOM      5  C   UNL A   1      32.756  23.452  27.383  1.00  0.00     0.261 C 
BRANCH   5   6
ATOM      6  O   UNL A   1      31.344  23.334  27.158  1.00  0.00    -0.460 OA
BRANCH   6   7
ATOM      7  C   UNL A   1      30.821  24.165  26.223  1.00  0.00     0.340 C 
ATOM      8  O   UNL A   1      30.012  25.056  26.415  1.00  0.00    -0.246 OA
BRANCH   7   9
ATOM      9  C   UNL A   1      31.560  23.974  24.956  1.00  0.00     0.083 A 
ATOM     10  C   UNL A   1      32.206  25.019  24.265  1.00  0.00     0.054 A 
ATOM     11  C   UNL A   1      32.753  24.714  23.004  1.00  0.00     0.066 A 
ATOM     12  C   UNL A   1      32.681  23.427  22.476  1.00  0.00     0.125 A 
ATOM     13  C   UNL A   1      31.484  22.678  24.408  1.00  0.00     0.021 A 
ATOM     14  F   UNL A   1      33.243  23.175  21.286  1.00  0.00    -0.207 F 
ATOM     15  C   UNL A   1      32.049  22.405  23.165  1.00  0.00     0.040 A 
BRANCH  10  16
ATOM     16  N   UNL A   1      32.354  26.321  24.763  1.00  0.00    -0.370 N 
ATOM     17  C   UNL A   1      32.289  28.049  25.858  1.00  0.00     0.028 C 
ATOM     18  C   UNL A   1      31.598  27.515  24.590  1.00  0.00     0.122 C 
ATOM     19  C   UNL A   1      33.286  26.894  25.675  1.00  0.00     0.122 C 
BRANCH  17  20
ATOM     20  C   UNL A   1      32.845  29.463  25.812  1.00  0.00     0.004 C 
ATOM     21  C   UNL A   1      32.413  30.229  27.053  1.00  0.00     0.004 C 
ENDBRANCH  17  20
ENDBRANCH  10  16
ENDBRANCH   7   9
ENDBRANCH   6   7
ENDBRANCH   5   6
ENDBRANCH   4   5
ENDBRANCH   3   4
ENDBRANCH   2   3
ENDBRANCH   1   2
BRANCH   1  22
ATOM     22  O   UNL A   1      37.007  21.230  24.862  1.00  0.00    -0.376 OA
BRANCH  22  23
ATOM     23  C   UNL A   1      38.252  20.625  25.148  1.00  0.00     0.202 C 
BRANCH  23  24
ATOM     24  C   UNL A   1      39.361  21.239  26.024  1.00  0.00     0.261 C 
BRANCH  24  25
ATOM     25  O   UNL A   1      40.288  20.361  26.661  1.00  0.00    -0.460 OA
BRANCH  25  26
ATOM     26  C   UNL A   1      41.519  20.271  26.107  1.00  0.00     0.338 C 
ATOM     27  O   UNL A   1      41.946  19.373  25.406  1.00  0.00    -0.246 OA
BRANCH  26  28
ATOM     28  C   UNL A   1      42.215  21.549  26.358  1.00  0.00     0.060 A 
ATOM     29  C   UNL A   1      42.560  21.880  27.674  1.00  0.00     0.016 A 
ATOM     30  C   UNL A   1      42.528  22.410  25.302  1.00  0.00     0.016 A 
ATOM     31  C   UNL A   1      43.197  23.093  27.939  1.00  0.00     0.010 A 
ATOM     32  C   UNL A   1      43.151  23.631  25.572  1.00  0.00     0.010 A 
ATOM     33  C   UNL A   1      43.464  23.989  26.894  1.00  0.00    -0.014 A 
BRANCH  33  34
ATOM     34  C   UNL A   1      43.915  25.368  27.197  1.00  0.00     0.031 A 
ATOM     35  C   UNL A   1      45.341  25.739  26.890  1.00  0.00     0.074 A 
ATOM     36  C   UNL A   1      43.079  26.274  27.732  1.00  0.00     0.049 A 
ATOM     37  N   UNL A   1      45.962  26.873  27.089  1.00  0.00    -0.248 NA
ATOM     38  C   UNL A   1      46.175  24.692  26.277  1.00  0.00     0.031 C 
ATOM     39  C   UNL A   1      41.668  26.047  28.046  1.00  0.00     0.029 A 
ATOM     40  N   UNL A   1      43.304  27.574  28.114  1.00  0.00    -0.354 N 
ATOM     41  C   UNL A   1      47.259  26.676  26.629  1.00  0.00     0.074 A 
ATOM     42  C   UNL A   1      47.342  25.308  26.163  1.00  0.00     0.031 C 
ATOM     43  C   UNL A   1      41.156  27.170  28.581  1.00  0.00     0.029 A 
ATOM     44  C   UNL A   1      42.206  28.183  28.672  1.00  0.00     0.049 A 
ATOM     45  H   UNL A   1      44.170  28.026  27.998  1.00  0.00     0.167 HD
ATOM     46  C   UNL A   1      48.288  27.553  26.596  1.00  0.00     0.031 A 
ATOM     47  C   UNL A   1      42.071  29.412  29.210  1.00  0.00     0.031 A 
ATOM     48  C   UNL A   1      48.215  28.904  27.082  1.00  0.00     0.049 A 
ATOM     49  C   UNL A   1      43.254  30.347  29.231  1.00  0.00     0.074 A 
ATOM     50  C   UNL A   1      49.202  29.874  27.078  1.00  0.00     0.029 A 
ATOM     51  N   UNL A   1      47.096  29.472  27.669  1.00  0.00    -0.354 N 
ATOM     52  N   UNL A   1      44.463  30.157  28.757  1.00  0.00    -0.248 NA
ATOM     53  C   UNL A   1      43.051  31.662  29.855  1.00  0.00     0.031 C 
ATOM     54  C   UNL A   1      48.693  31.015  27.708  1.00  0.00     0.029 A 
ATOM     55  C   UNL A   1      47.374  30.771  28.057  1.00  0.00     0.049 A 
ATOM     56  H   UNL A   1      46.230  29.019  27.793  1.00  0.00     0.167 HD
ATOM     57  C   UNL A   1      45.154  31.341  29.000  1.00  0.00     0.074 A 
ATOM     58  C   UNL A   1      44.228  32.241  29.656  1.00  0.00     0.031 C 
ATOM     59  C   UNL A   1      46.439  31.656  28.703  1.00  0.00     0.031 A 
BRANCH  46  60
ATOM     60  C   UNL A   1      49.597  27.060  26.044  1.00  0.00    -0.014 A 
ATOM     61  C   UNL A   1      50.462  26.272  26.824  1.00  0.00     0.010 A 
ATOM     62  C   UNL A   1      49.953  27.367  24.720  1.00  0.00     0.010 A 
ATOM     63  C   UNL A   1      51.678  25.829  26.300  1.00  0.00     0.020 A 
ATOM     64  C   UNL A   1      51.160  26.908  24.184  1.00  0.00     0.020 A 
ATOM     65  C   UNL A   1      52.022  26.154  24.984  1.00  0.00     0.054 A 
BRANCH  65  66
ATOM     66  S   UNL A   1      53.598  25.552  24.319  1.00  0.00     0.124 S 
ATOM     67  O   UNL A   1      53.553  24.136  24.678  1.00  0.00    -0.237 OA
ATOM     68  O   UNL A   1      53.478  25.842  22.893  1.00  0.00    -0.237 OA
ATOM     69  O   UNL A   1      54.600  26.343  25.030  1.00  0.00    -0.744 OA
ENDBRANCH  65  66
ENDBRANCH  46  60
BRANCH  47  70
ATOM     70  C   UNL A   1      40.768  29.834  29.792  1.00  0.00    -0.014 A 
ATOM     71  C   UNL A   1      40.564  29.807  31.183  1.00  0.00     0.010 A 
ATOM     72  C   UNL A   1      39.716  30.246  28.953  1.00  0.00     0.010 A 
ATOM     73  C   UNL A   1      39.324  30.164  31.724  1.00  0.00     0.020 A 
ATOM     74  C   UNL A   1      38.484  30.627  29.492  1.00  0.00     0.020 A 
ATOM     75  C   UNL A   1      38.291  30.570  30.874  1.00  0.00     0.054 A 
BRANCH  75  76
ATOM     76  S   UNL A   1      36.703  31.066  31.598  1.00  0.00     0.124 S 
ATOM     77  O   UNL A   1      36.267  29.833  32.244  1.00  0.00    -0.237 OA
ATOM     78  O   UNL A   1      37.089  32.151  32.497  1.00  0.00    -0.237 OA
ATOM     79  O   UNL A   1      35.915  31.479  30.438  1.00  0.00    -0.744 OA
ENDBRANCH  75  76
ENDBRANCH  47  70
BRANCH  59  80
ATOM     80  C   UNL A   1      46.914  33.043  29.044  1.00  0.00    -0.014 A 
ATOM     81  C   UNL A   1      47.546  33.317  30.269  1.00  0.00     0.010 A 
ATOM     82  C   UNL A   1      46.780  34.073  28.094  1.00  0.00     0.010 A 
ATOM     83  C   UNL A   1      48.014  34.605  30.549  1.00  0.00     0.020 A 
ATOM     84  C   UNL A   1      47.269  35.355  28.360  1.00  0.00     0.020 A 
ATOM     85  C   UNL A   1      47.871  35.616  29.592  1.00  0.00     0.054 A 
BRANCH  85  86
ATOM     86  S   UNL A   1      48.530  37.267  29.955  1.00  0.00     0.124 S 
ATOM     87  O   UNL A   1      48.362  37.949  28.675  1.00  0.00    -0.237 OA
ATOM     88  O   UNL A   1      47.660  37.732  31.033  1.00  0.00    -0.237 OA
ATOM     89  O   UNL A   1      49.913  37.009  30.349  1.00  0.00    -0.744 OA
ENDBRANCH  85  86
ENDBRANCH  59  80
ENDBRANCH  33  34
ENDBRANCH  26  28
ENDBRANCH  25  26
ENDBRANCH  24  25
ENDBRANCH  23  24
ENDBRANCH  22  23
ENDBRANCH   1  22
TORSDOF 22
ENDMDL
