MODEL 1
REMARK VINA RESULT:     -11.0      0.000      0.000
REMARK SMILES Cc1ccc(S(=O)(=O)n2cc(C(=O)C(=O)N[C@@H](Cc3c[nH]c4ccccc34)C(=O)NCC(=O)OCCOCCOCCOC(=O)c3ccc(-c4c5nc(c(-c6ccc(S(=O)(=O)[O-])cc6)c6ccc([nH]6)c(-c6ccc(S(=O)(=O)[O-])cc6)c6nc(c(-c7ccc(S(=O)(=O)[O-])cc7)c7ccc4[nH]7)C=C6)C=C5)cc3)c3ccccc32)cc1
REMARK SMILES IDX 36 1 35 2 34 3 32 4 33 5 31 6 30 7 28 8 29 9 17 11 16 12
REMARK SMILES IDX 14 13 15 14 12 16 13 17 11 18 9 19 10 20 111 21 106 22
REMARK SMILES IDX 110 23 107 24 109 25 108 26 6 27 7 28 8 29 5 30 1 31 2 32
REMARK SMILES IDX 3 33 113 34 4 35 112 36 18 37 19 38 20 39 27 40 21 41 22 42
REMARK SMILES IDX 26 43 23 45 25 46 24 47 37 48 38 49 39 50 40 51 41 52 42 53
REMARK SMILES IDX 43 54 44 55 45 56 46 57 47 58 105 59 48 60 104 61 49 62
REMARK SMILES IDX 50 63 51 64 98 65 52 66 103 67 97 68 99 69 53 70 102 71
REMARK SMILES IDX 96 72 95 73 54 75 84 76 65 77 83 78 66 79 69 80 82 81 100 82
REMARK SMILES IDX 67 83 68 84 81 86 101 87 70 88 55 89 56 90 64 91 57 92 63 93
REMARK SMILES IDX 58 94 59 95 60 96 61 97 62 98 85 99 86 100 94 101 87 102
REMARK SMILES IDX 93 103 88 104 89 105 90 106 91 107 92 108 71 109 72 110
REMARK SMILES IDX 80 111 73 112 79 113 74 114 75 115 76 116 77 117 78 118
REMARK H PARENT 30 10 16 15 21 44 99 74 69 85
REMARK Flexibility Score: inf
ROOT
ATOM      1  C   UNL A   1      38.084  21.767  25.359  1.00  0.00     0.202 C 
ENDROOT
BRANCH   1   2
ATOM      2  C   UNL A   1      36.636  21.495  25.714  1.00  0.00     0.261 C 
BRANCH   2   3
ATOM      3  O   UNL A   1      35.490  22.458  25.818  1.00  0.00    -0.462 OA
BRANCH   3   4
ATOM      4  C   UNL A   1      34.231  22.681  25.343  1.00  0.00     0.325 C 
ATOM      5  O   UNL A   1      33.737  21.892  24.597  1.00  0.00    -0.250 OA
BRANCH   4   6
ATOM      6  C   UNL A   1      33.686  24.264  25.580  1.00  0.00     0.238 C 
BRANCH   6   7
ATOM      7  N   UNL A   1      32.274  24.673  26.002  1.00  0.00    -0.343 N 
ATOM      8  C   UNL A   1      31.291  25.630  25.847  1.00  0.00     0.243 C 
ATOM      9  O   UNL A   1      30.231  25.284  26.416  1.00  0.00    -0.273 OA
ATOM     10  H   UNL A   1      31.935  23.989  26.623  1.00  0.00     0.164 HD
BRANCH   8  11
ATOM     11  C   UNL A   1      31.164  27.066  25.006  1.00  0.00     0.176 C 
BRANCH  11  12
ATOM     12  N   UNL A   1      32.389  27.858  24.590  1.00  0.00    -0.337 N 
ATOM     13  C   UNL A   1      33.276  28.846  25.040  1.00  0.00     0.293 C 
ATOM     14  O   UNL A   1      34.291  29.068  24.378  1.00  0.00    -0.265 OA
ATOM     15  H   UNL A   1      32.654  27.581  23.683  1.00  0.00     0.164 HD
BRANCH  13  16
ATOM     16  C   UNL A   1      33.086  29.672  26.294  1.00  0.00     0.252 C 
ATOM     17  O   UNL A   1      31.910  29.994  26.496  1.00  0.00    -0.283 OA
BRANCH  16  18
ATOM     18  C   UNL A   1      34.130  30.053  27.318  1.00  0.00     0.054 A 
ATOM     19  N   UNL A   1      36.083  30.502  28.462  1.00  0.00    -0.240 N 
ATOM     20  C   UNL A   1      35.200  29.456  28.033  1.00  0.00     0.117 A 
ATOM     21  C   UNL A   1      35.499  31.694  27.973  1.00  0.00     0.065 A 
ATOM     22  C   UNL A   1      34.161  31.400  27.766  1.00  0.00     0.012 A 
ATOM     23  C   UNL A   1      35.944  33.028  27.967  1.00  0.00     0.028 A 
ATOM     24  C   UNL A   1      33.206  32.429  27.859  1.00  0.00     0.011 A 
ATOM     25  C   UNL A   1      34.985  34.030  28.122  1.00  0.00     0.002 A 
ATOM     26  C   UNL A   1      33.630  33.727  28.134  1.00  0.00     0.001 A 
BRANCH  19  27
ATOM     27  S   UNL A   1      36.791  30.788  30.085  1.00  0.00     0.268 S 
ATOM     28  O   UNL A   1      38.222  30.721  29.827  1.00  0.00    -0.201 OA
ATOM     29  O   UNL A   1      36.148  29.711  30.838  1.00  0.00    -0.201 OA
BRANCH  27  30
ATOM     30  C   UNL A   1      36.596  32.061  31.300  1.00  0.00     0.088 A 
ATOM     31  C   UNL A   1      34.999  35.075  34.010  1.00  0.00     0.044 C 
ATOM     32  C   UNL A   1      35.596  34.006  33.138  1.00  0.00    -0.051 A 
ATOM     33  C   UNL A   1      34.752  33.013  32.670  1.00  0.00     0.005 A 
ATOM     34  C   UNL A   1      36.941  33.999  32.704  1.00  0.00     0.005 A 
ATOM     35  C   UNL A   1      35.254  32.061  31.793  1.00  0.00     0.022 A 
ATOM     36  C   UNL A   1      37.452  33.031  31.783  1.00  0.00     0.022 A 
ENDBRANCH  27  30
ENDBRANCH  19  27
ENDBRANCH  16  18
ENDBRANCH  13  16
ENDBRANCH  11  12
BRANCH  11  37
ATOM     37  C   UNL A   1      29.983  27.067  23.980  1.00  0.00     0.072 C 
BRANCH  37  38
ATOM     38  C   UNL A   1      30.007  28.186  22.984  1.00  0.00    -0.020 A 
ATOM     39  C   UNL A   1      31.031  28.553  22.129  1.00  0.00     0.087 A 
ATOM     40  C   UNL A   1      28.998  29.169  22.835  1.00  0.00     0.003 A 
ATOM     41  N   UNL A   1      30.751  29.803  21.639  1.00  0.00    -0.361 N 
ATOM     42  C   UNL A   1      29.574  30.250  22.180  1.00  0.00     0.046 A 
ATOM     43  C   UNL A   1      27.711  29.288  23.357  1.00  0.00     0.010 A 
ATOM     44  H   UNL A   1      31.308  30.302  20.998  1.00  0.00     0.166 HD
ATOM     45  C   UNL A   1      29.002  31.515  22.185  1.00  0.00     0.026 A 
ATOM     46  C   UNL A   1      27.234  30.571  23.544  1.00  0.00     0.001 A 
ATOM     47  C   UNL A   1      27.889  31.660  23.000  1.00  0.00     0.002 A 
ENDBRANCH  37  38
ENDBRANCH  11  37
ENDBRANCH   8  11
ENDBRANCH   6   7
ENDBRANCH   4   6
ENDBRANCH   3   4
ENDBRANCH   2   3
ENDBRANCH   1   2
BRANCH   1  48
ATOM     48  O   UNL A   1      38.989  21.840  26.423  1.00  0.00    -0.376 OA
BRANCH  48  49
ATOM     49  C   UNL A   1      40.245  21.221  26.162  1.00  0.00     0.188 C 
BRANCH  49  50
ATOM     50  C   UNL A   1      41.120  20.970  27.397  1.00  0.00     0.188 C 
BRANCH  50  51
ATOM     51  O   UNL A   1      42.305  20.212  27.152  1.00  0.00    -0.376 OA
BRANCH  51  52
ATOM     52  C   UNL A   1      42.234  19.131  26.234  1.00  0.00     0.202 C 
BRANCH  52  53
ATOM     53  C   UNL A   1      43.318  19.288  25.171  1.00  0.00     0.261 C 
BRANCH  53  54
ATOM     54  O   UNL A   1      44.505  19.832  25.793  1.00  0.00    -0.460 OA
BRANCH  54  55
ATOM     55  C   UNL A   1      45.409  20.328  24.910  1.00  0.00     0.338 C 
ATOM     56  O   UNL A   1      46.076  19.651  24.145  1.00  0.00    -0.246 OA
BRANCH  55  57
ATOM     57  C   UNL A   1      45.613  21.779  25.194  1.00  0.00     0.060 A 
ATOM     58  C   UNL A   1      46.216  22.528  24.217  1.00  0.00     0.016 A 
ATOM     59  C   UNL A   1      45.429  22.385  26.448  1.00  0.00     0.016 A 
ATOM     60  C   UNL A   1      46.777  23.757  24.595  1.00  0.00     0.010 A 
ATOM     61  C   UNL A   1      46.049  23.633  26.781  1.00  0.00     0.010 A 
ATOM     62  C   UNL A   1      46.870  24.308  25.878  1.00  0.00    -0.014 A 
BRANCH  62  63
ATOM     63  C   UNL A   1      47.837  25.444  26.318  1.00  0.00     0.031 A 
ATOM     64  C   UNL A   1      47.359  26.313  27.433  1.00  0.00     0.074 A 
ATOM     65  C   UNL A   1      48.961  26.109  25.832  1.00  0.00     0.049 A 
ATOM     66  N   UNL A   1      47.873  26.475  28.612  1.00  0.00    -0.248 NA
ATOM     67  C   UNL A   1      46.324  27.275  27.091  1.00  0.00     0.031 C 
ATOM     68  C   UNL A   1      49.943  26.626  26.798  1.00  0.00     0.029 A 
ATOM     69  N   UNL A   1      49.711  26.287  24.653  1.00  0.00    -0.354 N 
ATOM     70  C   UNL A   1      47.269  27.594  29.141  1.00  0.00     0.074 A 
ATOM     71  C   UNL A   1      46.223  27.982  28.207  1.00  0.00     0.031 C 
ATOM     72  C   UNL A   1      51.009  27.135  26.180  1.00  0.00     0.029 A 
ATOM     73  C   UNL A   1      50.809  27.120  24.756  1.00  0.00     0.049 A 
ATOM     74  H   UNL A   1      49.467  25.847  23.807  1.00  0.00     0.167 HD
ATOM     75  C   UNL A   1      47.863  28.624  29.798  1.00  0.00     0.031 A 
ATOM     76  C   UNL A   1      51.531  27.813  23.825  1.00  0.00     0.031 A 
ATOM     77  C   UNL A   1      49.189  29.050  29.387  1.00  0.00     0.049 A 
ATOM     78  C   UNL A   1      51.944  29.165  24.406  1.00  0.00     0.074 A 
ATOM     79  C   UNL A   1      50.469  28.553  29.541  1.00  0.00     0.029 A 
ATOM     80  N   UNL A   1      49.330  30.174  28.571  1.00  0.00    -0.354 N 
ATOM     81  N   UNL A   1      51.972  29.427  25.689  1.00  0.00    -0.248 NA
ATOM     82  C   UNL A   1      52.130  30.385  23.613  1.00  0.00     0.031 C 
ATOM     83  C   UNL A   1      51.346  29.301  28.697  1.00  0.00     0.029 A 
ATOM     84  C   UNL A   1      50.612  30.256  28.009  1.00  0.00     0.049 A 
ATOM     85  H   UNL A   1      48.615  30.830  28.409  1.00  0.00     0.167 HD
ATOM     86  C   UNL A   1      51.678  30.755  25.855  1.00  0.00     0.074 A 
ATOM     87  C   UNL A   1      52.032  31.334  24.565  1.00  0.00     0.031 C 
ATOM     88  C   UNL A   1      50.924  31.216  26.916  1.00  0.00     0.031 A 
BRANCH  75  89
ATOM     89  C   UNL A   1      47.182  28.828  31.124  1.00  0.00    -0.014 A 
ATOM     90  C   UNL A   1      47.674  28.210  32.279  1.00  0.00     0.010 A 
ATOM     91  C   UNL A   1      45.938  29.510  31.224  1.00  0.00     0.010 A 
ATOM     92  C   UNL A   1      46.912  28.193  33.457  1.00  0.00     0.020 A 
ATOM     93  C   UNL A   1      45.175  29.494  32.385  1.00  0.00     0.020 A 
ATOM     94  C   UNL A   1      45.653  28.804  33.488  1.00  0.00     0.054 A 
BRANCH  94  95
ATOM     95  S   UNL A   1      44.608  28.651  34.953  1.00  0.00     0.124 S 
ATOM     96  O   UNL A   1      44.789  29.950  35.597  1.00  0.00    -0.237 OA
ATOM     97  O   UNL A   1      43.290  28.395  34.385  1.00  0.00    -0.237 OA
ATOM     98  O   UNL A   1      45.207  27.526  35.671  1.00  0.00    -0.744 OA
ENDBRANCH  94  95
ENDBRANCH  75  89
BRANCH  76  99
ATOM     99  C   UNL A   1      51.374  27.475  22.368  1.00  0.00    -0.014 A 
ATOM    100  C   UNL A   1      52.486  26.966  21.661  1.00  0.00     0.010 A 
ATOM    101  C   UNL A   1      50.126  27.378  21.733  1.00  0.00     0.010 A 
ATOM    102  C   UNL A   1      52.337  26.252  20.450  1.00  0.00     0.020 A 
ATOM    103  C   UNL A   1      49.961  26.667  20.524  1.00  0.00     0.020 A 
ATOM    104  C   UNL A   1      51.061  26.049  19.919  1.00  0.00     0.054 A 
BRANCH 104 105
ATOM    105  S   UNL A   1      50.748  24.640  18.757  1.00  0.00     0.124 S 
ATOM    106  O   UNL A   1      51.056  25.237  17.462  1.00  0.00    -0.237 OA
ATOM    107  O   UNL A   1      51.681  23.596  19.185  1.00  0.00    -0.237 OA
ATOM    108  O   UNL A   1      49.328  24.334  18.959  1.00  0.00    -0.744 OA
ENDBRANCH 104 105
ENDBRANCH  76  99
BRANCH  88 109
ATOM    109  C   UNL A   1      50.352  32.620  26.938  1.00  0.00    -0.014 A 
ATOM    110  C   UNL A   1      51.089  33.776  27.266  1.00  0.00     0.010 A 
ATOM    111  C   UNL A   1      49.007  32.816  26.560  1.00  0.00     0.010 A 
ATOM    112  C   UNL A   1      50.482  35.035  27.370  1.00  0.00     0.020 A 
ATOM    113  C   UNL A   1      48.407  34.081  26.593  1.00  0.00     0.020 A 
ATOM    114  C   UNL A   1      49.133  35.173  27.061  1.00  0.00     0.054 A 
BRANCH 114 115
ATOM    115  S   UNL A   1      48.317  36.776  27.271  1.00  0.00     0.124 S 
ATOM    116  O   UNL A   1      49.079  37.352  28.376  1.00  0.00    -0.237 OA
ATOM    117  O   UNL A   1      48.508  37.425  25.976  1.00  0.00    -0.237 OA
ATOM    118  O   UNL A   1      46.937  36.411  27.581  1.00  0.00    -0.744 OA
ENDBRANCH 114 115
ENDBRANCH  88 109
ENDBRANCH  62  63
ENDBRANCH  55  57
ENDBRANCH  54  55
ENDBRANCH  53  54
ENDBRANCH  52  53
ENDBRANCH  51  52
ENDBRANCH  50  51
ENDBRANCH  49  50
ENDBRANCH  48  49
ENDBRANCH   1  48
TORSDOF 29
ENDMDL
MODEL 2
REMARK VINA RESULT:     -10.7      1.583      2.224
REMARK SMILES Cc1ccc(S(=O)(=O)n2cc(C(=O)C(=O)N[C@@H](Cc3c[nH]c4ccccc34)C(=O)NCC(=O)OCCOCCOCCOC(=O)c3ccc(-c4c5nc(c(-c6ccc(S(=O)(=O)[O-])cc6)c6ccc([nH]6)c(-c6ccc(S(=O)(=O)[O-])cc6)c6nc(c(-c7ccc(S(=O)(=O)[O-])cc7)c7ccc4[nH]7)C=C6)C=C5)cc3)c3ccccc32)cc1
REMARK SMILES IDX 36 1 35 2 34 3 32 4 33 5 31 6 30 7 28 8 29 9 17 11 16 12
REMARK SMILES IDX 14 13 15 14 12 16 13 17 11 18 9 19 10 20 111 21 106 22
REMARK SMILES IDX 110 23 107 24 109 25 108 26 6 27 7 28 8 29 5 30 1 31 2 32
REMARK SMILES IDX 3 33 113 34 4 35 112 36 18 37 19 38 20 39 27 40 21 41 22 42
REMARK SMILES IDX 26 43 23 45 25 46 24 47 37 48 38 49 39 50 40 51 41 52 42 53
REMARK SMILES IDX 43 54 44 55 45 56 46 57 47 58 105 59 48 60 104 61 49 62
REMARK SMILES IDX 50 63 51 64 98 65 52 66 103 67 97 68 99 69 53 70 102 71
REMARK SMILES IDX 96 72 95 73 54 75 84 76 65 77 83 78 66 79 69 80 82 81 100 82
REMARK SMILES IDX 67 83 68 84 81 86 101 87 70 88 55 89 56 90 64 91 57 92 63 93
REMARK SMILES IDX 58 94 59 95 60 96 61 97 62 98 85 99 86 100 94 101 87 102
REMARK SMILES IDX 93 103 88 104 89 105 90 106 91 107 92 108 71 109 72 110
REMARK SMILES IDX 80 111 73 112 79 113 74 114 75 115 76 116 77 117 78 118
REMARK H PARENT 30 10 16 15 21 44 99 74 69 85
REMARK Flexibility Score: inf
ROOT
ATOM      1  C   UNL A   1      38.328  21.758  25.377  1.00  0.00     0.202 C 
ENDROOT
BRANCH   1   2
ATOM      2  C   UNL A   1      36.880  21.498  25.742  1.00  0.00     0.261 C 
BRANCH   2   3
ATOM      3  O   UNL A   1      35.728  22.459  25.788  1.00  0.00    -0.462 OA
BRANCH   3   4
ATOM      4  C   UNL A   1      34.478  22.660  25.280  1.00  0.00     0.325 C 
ATOM      5  O   UNL A   1      34.022  21.868  24.514  1.00  0.00    -0.250 OA
BRANCH   4   6
ATOM      6  C   UNL A   1      33.895  24.230  25.514  1.00  0.00     0.238 C 
BRANCH   6   7
ATOM      7  N   UNL A   1      32.479  24.605  25.951  1.00  0.00    -0.343 N 
ATOM      8  C   UNL A   1      31.472  25.539  25.809  1.00  0.00     0.243 C 
ATOM      9  O   UNL A   1      30.426  25.166  26.387  1.00  0.00    -0.273 OA
ATOM     10  H   UNL A   1      32.161  23.911  26.573  1.00  0.00     0.164 HD
BRANCH   8  11
ATOM     11  C   UNL A   1      31.303  26.974  24.973  1.00  0.00     0.176 C 
BRANCH  11  12
ATOM     12  N   UNL A   1      32.500  27.832  24.610  1.00  0.00    -0.337 N 
ATOM     13  C   UNL A   1      33.416  28.745  25.152  1.00  0.00     0.293 C 
ATOM     14  O   UNL A   1      34.387  29.075  24.470  1.00  0.00    -0.265 OA
ATOM     15  H   UNL A   1      32.708  27.700  23.656  1.00  0.00     0.164 HD
BRANCH  13  16
ATOM     16  C   UNL A   1      33.305  29.366  26.528  1.00  0.00     0.252 C 
ATOM     17  O   UNL A   1      32.138  29.518  26.905  1.00  0.00    -0.283 OA
BRANCH  16  18
ATOM     18  C   UNL A   1      34.428  29.725  27.473  1.00  0.00     0.054 A 
ATOM     19  N   UNL A   1      36.468  30.127  28.475  1.00  0.00    -0.240 N 
ATOM     20  C   UNL A   1      35.529  29.104  28.116  1.00  0.00     0.117 A 
ATOM     21  C   UNL A   1      35.884  31.332  28.017  1.00  0.00     0.065 A 
ATOM     22  C   UNL A   1      34.527  31.074  27.907  1.00  0.00     0.012 A 
ATOM     23  C   UNL A   1      36.363  32.653  27.969  1.00  0.00     0.028 A 
ATOM     24  C   UNL A   1      33.609  32.129  28.057  1.00  0.00     0.011 A 
ATOM     25  C   UNL A   1      35.444  33.682  28.182  1.00  0.00     0.002 A 
ATOM     26  C   UNL A   1      34.086  33.417  28.291  1.00  0.00     0.001 A 
BRANCH  19  27
ATOM     27  S   UNL A   1      37.295  30.404  30.042  1.00  0.00     0.268 S 
ATOM     28  O   UNL A   1      38.656  29.965  29.768  1.00  0.00    -0.201 OA
ATOM     29  O   UNL A   1      36.448  29.602  30.924  1.00  0.00    -0.201 OA
BRANCH  27  30
ATOM     30  C   UNL A   1      37.465  31.809  31.107  1.00  0.00     0.088 A 
ATOM     31  C   UNL A   1      38.892  34.753  33.983  1.00  0.00     0.044 C 
ATOM     32  C   UNL A   1      38.380  33.800  32.940  1.00  0.00    -0.051 A 
ATOM     33  C   UNL A   1      39.298  32.967  32.324  1.00  0.00     0.005 A 
ATOM     34  C   UNL A   1      37.014  33.647  32.609  1.00  0.00     0.005 A 
ATOM     35  C   UNL A   1      38.845  32.017  31.420  1.00  0.00     0.022 A 
ATOM     36  C   UNL A   1      36.544  32.653  31.695  1.00  0.00     0.022 A 
ENDBRANCH  27  30
ENDBRANCH  19  27
ENDBRANCH  16  18
ENDBRANCH  13  16
ENDBRANCH  11  12
BRANCH  11  37
ATOM     37  C   UNL A   1      30.163  26.925  23.903  1.00  0.00     0.072 C 
BRANCH  37  38
ATOM     38  C   UNL A   1      30.167  28.054  22.917  1.00  0.00    -0.020 A 
ATOM     39  C   UNL A   1      31.210  28.498  22.126  1.00  0.00     0.087 A 
ATOM     40  C   UNL A   1      29.102  28.966  22.716  1.00  0.00     0.003 A 
ATOM     41  N   UNL A   1      30.873  29.731  21.628  1.00  0.00    -0.361 N 
ATOM     42  C   UNL A   1      29.639  30.091  22.102  1.00  0.00     0.046 A 
ATOM     43  C   UNL A   1      27.782  28.990  23.163  1.00  0.00     0.010 A 
ATOM     44  H   UNL A   1      31.430  30.274  21.024  1.00  0.00     0.166 HD
ATOM     45  C   UNL A   1      28.980  31.313  22.082  1.00  0.00     0.026 A 
ATOM     46  C   UNL A   1      27.206  30.236  23.330  1.00  0.00     0.001 A 
ATOM     47  C   UNL A   1      27.815  31.373  22.832  1.00  0.00     0.002 A 
ENDBRANCH  37  38
ENDBRANCH  11  37
ENDBRANCH   8  11
ENDBRANCH   6   7
ENDBRANCH   4   6
ENDBRANCH   3   4
ENDBRANCH   2   3
ENDBRANCH   1   2
BRANCH   1  48
ATOM     48  O   UNL A   1      39.250  21.757  26.427  1.00  0.00    -0.376 OA
BRANCH  48  49
ATOM     49  C   UNL A   1      40.399  20.948  26.192  1.00  0.00     0.188 C 
BRANCH  49  50
ATOM     50  C   UNL A   1      41.159  20.510  27.451  1.00  0.00     0.188 C 
BRANCH  50  51
ATOM     51  O   UNL A   1      42.232  19.595  27.219  1.00  0.00    -0.376 OA
BRANCH  51  52
ATOM     52  C   UNL A   1      42.057  18.589  26.232  1.00  0.00     0.202 C 
BRANCH  52  53
ATOM     53  C   UNL A   1      43.182  18.678  25.204  1.00  0.00     0.261 C 
BRANCH  53  54
ATOM     54  O   UNL A   1      44.356  19.225  25.845  1.00  0.00    -0.460 OA
BRANCH  54  55
ATOM     55  C   UNL A   1      45.220  19.825  24.987  1.00  0.00     0.338 C 
ATOM     56  O   UNL A   1      45.994  19.232  24.253  1.00  0.00    -0.246 OA
BRANCH  55  57
ATOM     57  C   UNL A   1      45.228  21.293  25.260  1.00  0.00     0.060 A 
ATOM     58  C   UNL A   1      46.085  22.061  24.515  1.00  0.00     0.016 A 
ATOM     59  C   UNL A   1      44.590  21.911  26.348  1.00  0.00     0.016 A 
ATOM     60  C   UNL A   1      46.408  23.335  25.008  1.00  0.00     0.010 A 
ATOM     61  C   UNL A   1      44.983  23.205  26.818  1.00  0.00     0.010 A 
ATOM     62  C   UNL A   1      46.023  23.918  26.220  1.00  0.00    -0.014 A 
BRANCH  62  63
ATOM     63  C   UNL A   1      46.711  25.129  26.913  1.00  0.00     0.031 A 
ATOM     64  C   UNL A   1      45.804  26.073  27.629  1.00  0.00     0.074 A 
ATOM     65  C   UNL A   1      47.935  25.793  26.884  1.00  0.00     0.049 A 
ATOM     66  N   UNL A   1      45.769  26.361  28.893  1.00  0.00    -0.248 NA
ATOM     67  C   UNL A   1      45.013  26.956  26.788  1.00  0.00     0.031 C 
ATOM     68  C   UNL A   1      48.414  26.436  28.118  1.00  0.00     0.029 A 
ATOM     69  N   UNL A   1      49.114  25.897  26.121  1.00  0.00    -0.354 N 
ATOM     70  C   UNL A   1      44.997  27.496  29.003  1.00  0.00     0.074 A 
ATOM     71  C   UNL A   1      44.447  27.754  27.682  1.00  0.00     0.031 C 
ATOM     72  C   UNL A   1      49.641  26.932  27.962  1.00  0.00     0.029 A 
ATOM     73  C   UNL A   1      50.065  26.781  26.596  1.00  0.00     0.049 A 
ATOM     74  H   UNL A   1      49.253  25.373  25.299  1.00  0.00     0.167 HD
ATOM     75  C   UNL A   1      45.256  28.604  29.744  1.00  0.00     0.031 A 
ATOM     76  C   UNL A   1      51.114  27.418  25.995  1.00  0.00     0.031 A 
ATOM     77  C   UNL A   1      46.631  29.048  29.893  1.00  0.00     0.049 A 
ATOM     78  C   UNL A   1      51.241  28.833  26.559  1.00  0.00     0.074 A 
ATOM     79  C   UNL A   1      47.724  28.621  30.621  1.00  0.00     0.029 A 
ATOM     80  N   UNL A   1      47.105  30.099  29.106  1.00  0.00    -0.354 N 
ATOM     81  N   UNL A   1      50.721  29.210  27.700  1.00  0.00    -0.248 NA
ATOM     82  C   UNL A   1      51.746  29.984  25.803  1.00  0.00     0.031 C 
ATOM     83  C   UNL A   1      48.877  29.327  30.158  1.00  0.00     0.029 A 
ATOM     84  C   UNL A   1      48.504  30.184  29.134  1.00  0.00     0.049 A 
ATOM     85  H   UNL A   1      46.527  30.708  28.594  1.00  0.00     0.167 HD
ATOM     86  C   UNL A   1      50.384  30.534  27.595  1.00  0.00     0.074 A 
ATOM     87  C   UNL A   1      51.252  31.009  26.525  1.00  0.00     0.031 C 
ATOM     88  C   UNL A   1      49.251  31.055  28.187  1.00  0.00     0.031 A 
BRANCH  75  89
ATOM     89  C   UNL A   1      44.076  28.898  30.631  1.00  0.00    -0.014 A 
ATOM     90  C   UNL A   1      44.267  29.355  31.940  1.00  0.00     0.010 A 
ATOM     91  C   UNL A   1      42.750  28.570  30.237  1.00  0.00     0.010 A 
ATOM     92  C   UNL A   1      43.194  29.392  32.844  1.00  0.00     0.020 A 
ATOM     93  C   UNL A   1      41.684  28.599  31.127  1.00  0.00     0.020 A 
ATOM     94  C   UNL A   1      41.920  28.979  32.439  1.00  0.00     0.054 A 
BRANCH  94  95
ATOM     95  S   UNL A   1      40.575  28.881  33.641  1.00  0.00     0.124 S 
ATOM     96  O   UNL A   1      41.138  28.000  34.662  1.00  0.00    -0.237 OA
ATOM     97  O   UNL A   1      40.386  30.274  34.029  1.00  0.00    -0.237 OA
ATOM     98  O   UNL A   1      39.481  28.296  32.867  1.00  0.00    -0.744 OA
ENDBRANCH  94  95
ENDBRANCH  75  89
BRANCH  76  99
ATOM     99  C   UNL A   1      51.591  26.945  24.648  1.00  0.00    -0.014 A 
ATOM    100  C   UNL A   1      50.859  27.311  23.497  1.00  0.00     0.010 A 
ATOM    101  C   UNL A   1      52.864  26.394  24.436  1.00  0.00     0.010 A 
ATOM    102  C   UNL A   1      51.432  27.274  22.205  1.00  0.00     0.020 A 
ATOM    103  C   UNL A   1      53.451  26.351  23.152  1.00  0.00     0.020 A 
ATOM    104  C   UNL A   1      52.755  26.854  22.047  1.00  0.00     0.054 A 
BRANCH 104 105
ATOM    105  S   UNL A   1      53.727  27.378  20.560  1.00  0.00     0.124 S 
ATOM    106  O   UNL A   1      52.838  27.004  19.465  1.00  0.00    -0.237 OA
ATOM    107  O   UNL A   1      53.913  28.820  20.731  1.00  0.00    -0.237 OA
ATOM    108  O   UNL A   1      54.951  26.574  20.646  1.00  0.00    -0.744 OA
ENDBRANCH 104 105
ENDBRANCH  76  99
BRANCH  88 109
ATOM    109  C   UNL A   1      48.724  32.431  27.826  1.00  0.00    -0.014 A 
ATOM    110  C   UNL A   1      48.007  32.726  26.649  1.00  0.00     0.010 A 
ATOM    111  C   UNL A   1      48.905  33.492  28.736  1.00  0.00     0.010 A 
ATOM    112  C   UNL A   1      47.634  34.036  26.319  1.00  0.00     0.020 A 
ATOM    113  C   UNL A   1      48.475  34.794  28.450  1.00  0.00     0.020 A 
ATOM    114  C   UNL A   1      47.899  35.069  27.213  1.00  0.00     0.054 A 
BRANCH 114 115
ATOM    115  S   UNL A   1      47.498  36.777  26.764  1.00  0.00     0.124 S 
ATOM    116  O   UNL A   1      47.867  37.496  27.981  1.00  0.00    -0.237 OA
ATOM    117  O   UNL A   1      48.351  37.031  25.606  1.00  0.00    -0.237 OA
ATOM    118  O   UNL A   1      46.067  36.721  26.476  1.00  0.00    -0.744 OA
ENDBRANCH 114 115
ENDBRANCH  88 109
ENDBRANCH  62  63
ENDBRANCH  55  57
ENDBRANCH  54  55
ENDBRANCH  53  54
ENDBRANCH  52  53
ENDBRANCH  51  52
ENDBRANCH  50  51
ENDBRANCH  49  50
ENDBRANCH  48  49
ENDBRANCH   1  48
TORSDOF 29
ENDMDL
MODEL 3
REMARK VINA RESULT:     -10.5      3.701      8.101
REMARK SMILES Cc1ccc(S(=O)(=O)n2cc(C(=O)C(=O)N[C@@H](Cc3c[nH]c4ccccc34)C(=O)NCC(=O)OCCOCCOCCOC(=O)c3ccc(-c4c5nc(c(-c6ccc(S(=O)(=O)[O-])cc6)c6ccc([nH]6)c(-c6ccc(S(=O)(=O)[O-])cc6)c6nc(c(-c7ccc(S(=O)(=O)[O-])cc7)c7ccc4[nH]7)C=C6)C=C5)cc3)c3ccccc32)cc1
REMARK SMILES IDX 36 1 35 2 34 3 32 4 33 5 31 6 30 7 28 8 29 9 17 11 16 12
REMARK SMILES IDX 14 13 15 14 12 16 13 17 11 18 9 19 10 20 111 21 106 22
REMARK SMILES IDX 110 23 107 24 109 25 108 26 6 27 7 28 8 29 5 30 1 31 2 32
REMARK SMILES IDX 3 33 113 34 4 35 112 36 18 37 19 38 20 39 27 40 21 41 22 42
REMARK SMILES IDX 26 43 23 45 25 46 24 47 37 48 38 49 39 50 40 51 41 52 42 53
REMARK SMILES IDX 43 54 44 55 45 56 46 57 47 58 105 59 48 60 104 61 49 62
REMARK SMILES IDX 50 63 51 64 98 65 52 66 103 67 97 68 99 69 53 70 102 71
REMARK SMILES IDX 96 72 95 73 54 75 84 76 65 77 83 78 66 79 69 80 82 81 100 82
REMARK SMILES IDX 67 83 68 84 81 86 101 87 70 88 55 89 56 90 64 91 57 92 63 93
REMARK SMILES IDX 58 94 59 95 60 96 61 97 62 98 85 99 86 100 94 101 87 102
REMARK SMILES IDX 93 103 88 104 89 105 90 106 91 107 92 108 71 109 72 110
REMARK SMILES IDX 80 111 73 112 79 113 74 114 75 115 76 116 77 117 78 118
REMARK H PARENT 30 10 16 15 21 44 99 74 69 85
REMARK Flexibility Score: inf
ROOT
ATOM      1  C   UNL A   1      38.330  21.703  25.406  1.00  0.00     0.202 C 
ENDROOT
BRANCH   1   2
ATOM      2  C   UNL A   1      36.885  22.092  25.644  1.00  0.00     0.261 C 
BRANCH   2   3
ATOM      3  O   UNL A   1      36.050  23.114  24.930  1.00  0.00    -0.462 OA
BRANCH   3   4
ATOM      4  C   UNL A   1      34.759  23.399  24.593  1.00  0.00     0.325 C 
ATOM      5  O   UNL A   1      34.160  22.652  23.881  1.00  0.00    -0.250 OA
BRANCH   4   6
ATOM      6  C   UNL A   1      34.306  24.993  24.925  1.00  0.00     0.238 C 
BRANCH   6   7
ATOM      7  N   UNL A   1      33.248  25.433  25.939  1.00  0.00    -0.343 N 
ATOM      8  C   UNL A   1      32.167  26.268  26.140  1.00  0.00     0.243 C 
ATOM      9  O   UNL A   1      31.617  26.035  27.240  1.00  0.00    -0.273 OA
ATOM     10  H   UNL A   1      33.394  24.922  26.767  1.00  0.00     0.164 HD
BRANCH   8  11
ATOM     11  C   UNL A   1      31.381  27.423  25.226  1.00  0.00     0.176 C 
BRANCH  11  12
ATOM     12  N   UNL A   1      31.369  28.885  25.629  1.00  0.00    -0.337 N 
ATOM     13  C   UNL A   1      32.206  29.925  26.058  1.00  0.00     0.293 C 
ATOM     14  O   UNL A   1      31.746  31.067  26.103  1.00  0.00    -0.265 OA
ATOM     15  H   UNL A   1      30.446  29.224  25.567  1.00  0.00     0.164 HD
BRANCH  13  16
ATOM     16  C   UNL A   1      33.652  29.755  26.473  1.00  0.00     0.252 C 
ATOM     17  O   UNL A   1      34.225  28.830  25.887  1.00  0.00    -0.283 OA
BRANCH  16  18
ATOM     18  C   UNL A   1      34.447  30.615  27.428  1.00  0.00     0.054 A 
ATOM     19  N   UNL A   1      35.234  31.808  29.239  1.00  0.00    -0.240 N 
ATOM     20  C   UNL A   1      34.312  31.833  28.141  1.00  0.00     0.117 A 
ATOM     21  C   UNL A   1      35.884  30.555  29.140  1.00  0.00     0.065 A 
ATOM     22  C   UNL A   1      35.733  30.157  27.821  1.00  0.00     0.012 A 
ATOM     23  C   UNL A   1      36.800  29.898  29.980  1.00  0.00     0.028 A 
ATOM     24  C   UNL A   1      36.699  29.316  27.238  1.00  0.00     0.011 A 
ATOM     25  C   UNL A   1      37.787  29.118  29.377  1.00  0.00     0.002 A 
ATOM     26  C   UNL A   1      37.776  28.883  28.009  1.00  0.00     0.001 A 
BRANCH  19  27
ATOM     27  S   UNL A   1      36.403  33.064  29.764  1.00  0.00     0.268 S 
ATOM     28  O   UNL A   1      35.620  34.288  29.673  1.00  0.00    -0.201 OA
ATOM     29  O   UNL A   1      37.479  32.830  28.802  1.00  0.00    -0.201 OA
BRANCH  27  30
ATOM     30  C   UNL A   1      37.420  33.267  31.199  1.00  0.00     0.088 A 
ATOM     31  C   UNL A   1      39.116  33.087  35.207  1.00  0.00     0.044 C 
ATOM     32  C   UNL A   1      38.607  33.134  33.794  1.00  0.00    -0.051 A 
ATOM     33  C   UNL A   1      37.730  32.140  33.394  1.00  0.00     0.005 A 
ATOM     34  C   UNL A   1      38.905  34.170  32.879  1.00  0.00     0.005 A 
ATOM     35  C   UNL A   1      37.175  32.204  32.123  1.00  0.00     0.022 A 
ATOM     36  C   UNL A   1      38.315  34.248  31.578  1.00  0.00     0.022 A 
ENDBRANCH  27  30
ENDBRANCH  19  27
ENDBRANCH  16  18
ENDBRANCH  13  16
ENDBRANCH  11  12
BRANCH  11  37
ATOM     37  C   UNL A   1      31.475  27.150  23.689  1.00  0.00     0.072 C 
BRANCH  37  38
ATOM     38  C   UNL A   1      30.914  28.232  22.816  1.00  0.00    -0.020 A 
ATOM     39  C   UNL A   1      31.598  29.179  22.077  1.00  0.00     0.087 A 
ATOM     40  C   UNL A   1      29.540  28.555  22.699  1.00  0.00     0.003 A 
ATOM     41  N   UNL A   1      30.707  30.150  21.698  1.00  0.00    -0.361 N 
ATOM     42  C   UNL A   1      29.467  29.850  22.198  1.00  0.00     0.046 A 
ATOM     43  C   UNL A   1      28.380  27.923  23.139  1.00  0.00     0.010 A 
ATOM     44  H   UNL A   1      30.924  30.941  21.152  1.00  0.00     0.166 HD
ATOM     45  C   UNL A   1      28.317  30.620  22.293  1.00  0.00     0.026 A 
ATOM     46  C   UNL A   1      27.298  28.736  23.423  1.00  0.00     0.001 A 
ATOM     47  C   UNL A   1      27.288  30.064  23.039  1.00  0.00     0.002 A 
ENDBRANCH  37  38
ENDBRANCH  11  37
ENDBRANCH   8  11
ENDBRANCH   6   7
ENDBRANCH   4   6
ENDBRANCH   3   4
ENDBRANCH   2   3
ENDBRANCH   1   2
BRANCH   1  48
ATOM     48  O   UNL A   1      39.206  21.846  26.487  1.00  0.00    -0.376 OA
BRANCH  48  49
ATOM     49  C   UNL A   1      40.580  21.696  26.146  1.00  0.00     0.188 C 
BRANCH  49  50
ATOM     50  C   UNL A   1      41.483  22.875  26.534  1.00  0.00     0.188 C 
BRANCH  50  51
ATOM     51  O   UNL A   1      42.882  22.586  26.537  1.00  0.00    -0.376 OA
BRANCH  51  52
ATOM     52  C   UNL A   1      43.518  22.320  25.295  1.00  0.00     0.202 C 
BRANCH  52  53
ATOM     53  C   UNL A   1      43.878  23.637  24.611  1.00  0.00     0.261 C 
BRANCH  53  54
ATOM     54  O   UNL A   1      44.193  24.617  25.626  1.00  0.00    -0.460 OA
BRANCH  54  55
ATOM     55  C   UNL A   1      45.521  24.863  25.757  1.00  0.00     0.338 C 
ATOM     56  O   UNL A   1      46.407  24.095  25.419  1.00  0.00    -0.246 OA
BRANCH  55  57
ATOM     57  C   UNL A   1      45.704  26.096  26.579  1.00  0.00     0.060 A 
ATOM     58  C   UNL A   1      44.598  26.586  27.224  1.00  0.00     0.016 A 
ATOM     59  C   UNL A   1      46.854  26.902  26.573  1.00  0.00     0.016 A 
ATOM     60  C   UNL A   1      44.635  27.921  27.654  1.00  0.00     0.010 A 
ATOM     61  C   UNL A   1      46.821  28.268  27.003  1.00  0.00     0.010 A 
ATOM     62  C   UNL A   1      45.643  28.869  27.448  1.00  0.00    -0.014 A 
BRANCH  62  63
ATOM     63  C   UNL A   1      45.487  30.412  27.566  1.00  0.00     0.031 A 
ATOM     64  C   UNL A   1      46.699  31.218  27.236  1.00  0.00     0.074 A 
ATOM     65  C   UNL A   1      44.615  31.334  28.140  1.00  0.00     0.049 A 
ATOM     66  N   UNL A   1      46.862  32.085  26.286  1.00  0.00    -0.248 NA
ATOM     67  C   UNL A   1      47.757  31.211  28.233  1.00  0.00     0.031 C 
ATOM     68  C   UNL A   1      44.439  32.639  27.482  1.00  0.00     0.029 A 
ATOM     69  N   UNL A   1      43.556  31.421  29.065  1.00  0.00    -0.354 N 
ATOM     70  C   UNL A   1      48.013  32.774  26.593  1.00  0.00     0.074 A 
ATOM     71  C   UNL A   1      48.601  32.110  27.745  1.00  0.00     0.031 C 
ATOM     72  C   UNL A   1      43.498  33.363  28.085  1.00  0.00     0.029 A 
ATOM     73  C   UNL A   1      43.028  32.683  29.262  1.00  0.00     0.049 A 
ATOM     74  H   UNL A   1      43.213  30.631  29.543  1.00  0.00     0.167 HD
ATOM     75  C   UNL A   1      48.214  34.117  26.540  1.00  0.00     0.031 A 
ATOM     76  C   UNL A   1      42.298  33.228  30.281  1.00  0.00     0.031 A 
ATOM     77  C   UNL A   1      47.120  35.007  26.885  1.00  0.00     0.049 A 
ATOM     78  C   UNL A   1      42.736  34.676  30.502  1.00  0.00     0.074 A 
ATOM     79  C   UNL A   1      45.958  35.417  26.261  1.00  0.00     0.029 A 
ATOM     80  N   UNL A   1      47.077  35.589  28.153  1.00  0.00    -0.354 N 
ATOM     81  N   UNL A   1      43.377  35.386  29.608  1.00  0.00    -0.248 NA
ATOM     82  C   UNL A   1      42.704  35.362  31.798  1.00  0.00     0.031 C 
ATOM     83  C   UNL A   1      45.160  36.123  27.214  1.00  0.00     0.029 A 
ATOM     84  C   UNL A   1      45.820  36.143  28.433  1.00  0.00     0.049 A 
ATOM     85  H   UNL A   1      47.838  35.608  28.776  1.00  0.00     0.167 HD
ATOM     86  C   UNL A   1      44.199  36.259  30.272  1.00  0.00     0.074 A 
ATOM     87  C   UNL A   1      43.566  36.374  31.580  1.00  0.00     0.031 C 
ATOM     88  C   UNL A   1      45.454  36.591  29.803  1.00  0.00     0.031 A 
BRANCH  75  89
ATOM     89  C   UNL A   1      49.429  34.406  25.701  1.00  0.00    -0.014 A 
ATOM     90  C   UNL A   1      50.475  33.480  25.621  1.00  0.00     0.010 A 
ATOM     91  C   UNL A   1      49.632  35.678  25.099  1.00  0.00     0.010 A 
ATOM     92  C   UNL A   1      51.705  33.843  25.050  1.00  0.00     0.020 A 
ATOM     93  C   UNL A   1      50.847  36.047  24.536  1.00  0.00     0.020 A 
ATOM     94  C   UNL A   1      51.890  35.135  24.546  1.00  0.00     0.054 A 
BRANCH  94  95
ATOM     95  S   UNL A   1      53.517  35.650  23.951  1.00  0.00     0.124 S 
ATOM     96  O   UNL A   1      53.776  34.682  22.887  1.00  0.00    -0.237 OA
ATOM     97  O   UNL A   1      53.284  37.024  23.525  1.00  0.00    -0.237 OA
ATOM     98  O   UNL A   1      54.365  35.499  25.133  1.00  0.00    -0.744 OA
ENDBRANCH  94  95
ENDBRANCH  75  89
BRANCH  76  99
ATOM     99  C   UNL A   1      41.655  32.322  31.295  1.00  0.00    -0.014 A 
ATOM    100  C   UNL A   1      40.706  31.372  30.858  1.00  0.00     0.010 A 
ATOM    101  C   UNL A   1      42.135  32.176  32.606  1.00  0.00     0.010 A 
ATOM    102  C   UNL A   1      40.371  30.239  31.637  1.00  0.00     0.020 A 
ATOM    103  C   UNL A   1      41.811  31.050  33.395  1.00  0.00     0.020 A 
ATOM    104  C   UNL A   1      40.979  30.050  32.880  1.00  0.00     0.054 A 
BRANCH 104 105
ATOM    105  S   UNL A   1      41.083  28.354  33.618  1.00  0.00     0.124 S 
ATOM    106  O   UNL A   1      39.784  27.788  33.269  1.00  0.00    -0.237 OA
ATOM    107  O   UNL A   1      42.222  27.729  32.944  1.00  0.00    -0.237 OA
ATOM    108  O   UNL A   1      41.265  28.611  35.050  1.00  0.00    -0.744 OA
ENDBRANCH 104 105
ENDBRANCH  76  99
BRANCH  88 109
ATOM    109  C   UNL A   1      46.467  37.309  30.675  1.00  0.00    -0.014 A 
ATOM    110  C   UNL A   1      47.053  36.760  31.833  1.00  0.00     0.010 A 
ATOM    111  C   UNL A   1      46.906  38.595  30.295  1.00  0.00     0.010 A 
ATOM    112  C   UNL A   1      47.905  37.508  32.657  1.00  0.00     0.020 A 
ATOM    113  C   UNL A   1      47.811  39.327  31.074  1.00  0.00     0.020 A 
ATOM    114  C   UNL A   1      48.255  38.803  32.284  1.00  0.00     0.054 A 
BRANCH 114 115
ATOM    115  S   UNL A   1      49.287  39.810  33.380  1.00  0.00     0.124 S 
ATOM    116  O   UNL A   1      49.322  38.991  34.589  1.00  0.00    -0.237 OA
ATOM    117  O   UNL A   1      50.552  39.909  32.656  1.00  0.00    -0.237 OA
ATOM    118  O   UNL A   1      48.539  41.060  33.488  1.00  0.00    -0.744 OA
ENDBRANCH 114 115
ENDBRANCH  88 109
ENDBRANCH  62  63
ENDBRANCH  55  57
ENDBRANCH  54  55
ENDBRANCH  53  54
ENDBRANCH  52  53
ENDBRANCH  51  52
ENDBRANCH  50  51
ENDBRANCH  49  50
ENDBRANCH  48  49
ENDBRANCH   1  48
TORSDOF 29
ENDMDL
