MODEL 1
REMARK VINA RESULT:      -9.2      0.000      0.000
REMARK SMILES CCC[C@]1(C(=O)OCCOCCOCCOC(=O)c2ccc(-c3c4nc(c(-c5ccc(S(=O)(=O)[O-])cc5)c5ccc([nH]5)c(-c5ccc(S(=O)(=O)[O-])cc5)c5nc(c(-c6ccc(S(=O)(=O)[O-])cc6)c6ccc3[nH]6)C=C5)C=C4)cc2)CCCN(C(=O)N[C@H]2CCOC2)C1
REMARK SMILES IDX 12 1 11 2 10 3 9 4 8 5 7 6 5 7 6 8 4 9 79 10 91 11 80 12
REMARK SMILES IDX 82 13 81 14 3 15 2 16 1 17 83 18 84 19 85 20 86 22 87 23
REMARK SMILES IDX 90 24 88 25 89 26 13 27 14 28 15 29 16 30 17 31 18 32 19 33
REMARK SMILES IDX 20 34 78 35 21 36 77 37 22 38 23 39 24 40 71 41 25 42 76 43
REMARK SMILES IDX 70 44 72 45 26 46 75 47 69 48 68 49 27 51 57 52 38 53 56 54
REMARK SMILES IDX 39 55 42 56 55 57 73 58 40 59 41 60 54 62 74 63 43 64 28 65
REMARK SMILES IDX 29 66 37 67 30 68 36 69 31 70 32 71 33 72 34 73 35 74 58 75
REMARK SMILES IDX 59 76 67 77 60 78 66 79 61 80 62 81 63 82 64 83 65 84 44 85
REMARK SMILES IDX 45 86 53 87 46 88 52 89 47 90 48 91 49 92 50 93 51 94
REMARK H PARENT 85 21 72 50 42 61
REMARK Flexibility Score: inf
ROOT
ATOM      1  C   UNL A   1      32.975  29.800  27.096  1.00  0.00     0.188 C 
ENDROOT
BRANCH   1   2
ATOM      2  C   UNL A   1      32.478  29.897  25.643  1.00  0.00     0.188 C 
BRANCH   2   3
ATOM      3  O   UNL A   1      31.353  29.138  25.241  1.00  0.00    -0.376 OA
BRANCH   3   4
ATOM      4  C   UNL A   1      31.321  28.609  23.920  1.00  0.00     0.202 C 
BRANCH   4   5
ATOM      5  C   UNL A   1      32.571  27.973  23.270  1.00  0.00     0.261 C 
BRANCH   5   6
ATOM      6  O   UNL A   1      32.681  26.569  23.542  1.00  0.00    -0.463 OA
BRANCH   6   7
ATOM      7  C   UNL A   1      33.379  26.145  24.645  1.00  0.00     0.313 C 
ATOM      8  O   UNL A   1      33.988  26.881  25.405  1.00  0.00    -0.252 OA
BRANCH   7   9
ATOM      9  C   UNL A   1      33.301  24.607  24.733  1.00  0.00     0.086 C 
ATOM     10  C   UNL A   1      33.244  24.343  26.289  1.00  0.00     0.022 C 
ATOM     11  C   UNL A   1      31.991  23.973  24.189  1.00  0.00     0.140 C 
ATOM     12  C   UNL A   1      33.083  22.885  26.675  1.00  0.00     0.023 C 
ATOM     13  N   UNL A   1      31.955  22.524  24.572  1.00  0.00    -0.324 N 
ATOM     14  C   UNL A   1      31.851  22.319  25.995  1.00  0.00     0.121 C 
BRANCH   9  15
ATOM     15  C   UNL A   1      34.522  23.982  23.970  1.00  0.00     0.020 C 
BRANCH  15  16
ATOM     16  C   UNL A   1      35.896  23.911  24.677  1.00  0.00    -0.002 C 
ATOM     17  C   UNL A   1      36.757  22.698  24.366  1.00  0.00     0.004 C 
ENDBRANCH  15  16
ENDBRANCH   9  15
BRANCH  13  18
ATOM     18  C   UNL A   1      32.247  21.582  23.639  1.00  0.00     0.317 C 
ATOM     19  O   UNL A   1      31.930  21.739  22.455  1.00  0.00    -0.249 OA
ATOM     20  N   UNL A   1      32.937  20.454  23.858  1.00  0.00    -0.333 N 
ATOM     21  H   UNL A   1      33.220  20.106  22.982  1.00  0.00     0.165 HD
BRANCH  20  22
ATOM     22  C   UNL A   1      33.443  19.527  24.884  1.00  0.00     0.112 C 
ATOM     23  C   UNL A   1      32.536  18.502  25.524  1.00  0.00     0.056 C 
ATOM     24  C   UNL A   1      34.710  18.777  24.509  1.00  0.00     0.185 C 
ATOM     25  C   UNL A   1      33.197  17.160  25.272  1.00  0.00     0.162 C 
ATOM     26  O   UNL A   1      34.492  17.376  24.706  1.00  0.00    -0.379 OA
ENDBRANCH  20  22
ENDBRANCH  13  18
ENDBRANCH   7   9
ENDBRANCH   6   7
ENDBRANCH   5   6
ENDBRANCH   4   5
ENDBRANCH   3   4
ENDBRANCH   2   3
ENDBRANCH   1   2
BRANCH   1  27
ATOM     27  O   UNL A   1      34.299  30.120  27.449  1.00  0.00    -0.376 OA
BRANCH  27  28
ATOM     28  C   UNL A   1      34.530  31.173  28.368  1.00  0.00     0.202 C 
BRANCH  28  29
ATOM     29  C   UNL A   1      35.935  31.693  28.737  1.00  0.00     0.261 C 
BRANCH  29  30
ATOM     30  O   UNL A   1      36.349  31.581  30.104  1.00  0.00    -0.460 OA
BRANCH  30  31
ATOM     31  C   UNL A   1      36.855  30.376  30.466  1.00  0.00     0.338 C 
ATOM     32  O   UNL A   1      36.248  29.450  30.998  1.00  0.00    -0.246 OA
BRANCH  31  33
ATOM     33  C   UNL A   1      38.215  30.236  29.910  1.00  0.00     0.060 A 
ATOM     34  C   UNL A   1      38.370  29.715  28.615  1.00  0.00     0.016 A 
ATOM     35  C   UNL A   1      39.330  30.606  30.660  1.00  0.00     0.016 A 
ATOM     36  C   UNL A   1      39.643  29.554  28.070  1.00  0.00     0.010 A 
ATOM     37  C   UNL A   1      40.607  30.415  30.124  1.00  0.00     0.010 A 
ATOM     38  C   UNL A   1      40.770  29.867  28.837  1.00  0.00    -0.014 A 
BRANCH  38  39
ATOM     39  C   UNL A   1      42.122  29.469  28.374  1.00  0.00     0.031 A 
ATOM     40  C   UNL A   1      42.357  28.031  27.998  1.00  0.00     0.074 A 
ATOM     41  C   UNL A   1      43.125  30.362  28.294  1.00  0.00     0.049 A 
ATOM     42  N   UNL A   1      43.469  27.434  27.657  1.00  0.00    -0.248 NA
ATOM     43  C   UNL A   1      41.177  27.149  28.013  1.00  0.00     0.031 C 
ATOM     44  C   UNL A   1      43.013  31.792  28.574  1.00  0.00     0.029 A 
ATOM     45  N   UNL A   1      44.446  30.184  27.964  1.00  0.00    -0.354 N 
ATOM     46  C   UNL A   1      43.129  26.106  27.433  1.00  0.00     0.074 A 
ATOM     47  C   UNL A   1      41.712  25.979  27.699  1.00  0.00     0.031 C 
ATOM     48  C   UNL A   1      44.223  32.361  28.422  1.00  0.00     0.029 A 
ATOM     49  C   UNL A   1      45.199  31.329  28.076  1.00  0.00     0.049 A 
ATOM     50  H   UNL A   1      44.819  29.320  27.677  1.00  0.00     0.167 HD
ATOM     51  C   UNL A   1      43.923  25.081  27.041  1.00  0.00     0.031 A 
ATOM     52  C   UNL A   1      46.529  31.516  27.945  1.00  0.00     0.031 A 
ATOM     53  C   UNL A   1      45.336  25.206  26.798  1.00  0.00     0.049 A 
ATOM     54  C   UNL A   1      47.411  30.342  27.598  1.00  0.00     0.074 A 
ATOM     55  C   UNL A   1      46.226  24.230  26.385  1.00  0.00     0.029 A 
ATOM     56  N   UNL A   1      46.068  26.373  26.958  1.00  0.00    -0.354 N 
ATOM     57  N   UNL A   1      47.074  29.095  27.368  1.00  0.00    -0.248 NA
ATOM     58  C   UNL A   1      48.853  30.604  27.489  1.00  0.00     0.031 C 
ATOM     59  C   UNL A   1      47.507  24.791  26.361  1.00  0.00     0.029 A 
ATOM     60  C   UNL A   1      47.405  26.134  26.686  1.00  0.00     0.049 A 
ATOM     61  H   UNL A   1      45.693  27.243  27.226  1.00  0.00     0.167 HD
ATOM     62  C   UNL A   1      48.259  28.431  27.058  1.00  0.00     0.074 A 
ATOM     63  C   UNL A   1      49.317  29.419  27.116  1.00  0.00     0.031 C 
ATOM     64  C   UNL A   1      48.452  27.124  26.751  1.00  0.00     0.031 A 
BRANCH  51  65
ATOM     65  C   UNL A   1      43.288  23.724  26.896  1.00  0.00    -0.014 A 
ATOM     66  C   UNL A   1      42.782  23.279  25.661  1.00  0.00     0.010 A 
ATOM     67  C   UNL A   1      43.225  22.865  28.010  1.00  0.00     0.010 A 
ATOM     68  C   UNL A   1      42.189  22.018  25.552  1.00  0.00     0.020 A 
ATOM     69  C   UNL A   1      42.661  21.591  27.898  1.00  0.00     0.020 A 
ATOM     70  C   UNL A   1      42.131  21.183  26.672  1.00  0.00     0.054 A 
BRANCH  70  71
ATOM     71  S   UNL A   1      41.373  19.545  26.495  1.00  0.00     0.124 S 
ATOM     72  O   UNL A   1      41.454  19.026  27.858  1.00  0.00    -0.237 OA
ATOM     73  O   UNL A   1      40.028  19.865  26.024  1.00  0.00    -0.237 OA
ATOM     74  O   UNL A   1      42.227  18.869  25.522  1.00  0.00    -0.744 OA
ENDBRANCH  70  71
ENDBRANCH  51  65
BRANCH  52  75
ATOM     75  C   UNL A   1      47.117  32.865  28.171  1.00  0.00    -0.014 A 
ATOM     76  C   UNL A   1      47.267  33.772  27.107  1.00  0.00     0.010 A 
ATOM     77  C   UNL A   1      47.535  33.251  29.459  1.00  0.00     0.010 A 
ATOM     78  C   UNL A   1      47.840  35.030  27.323  1.00  0.00     0.020 A 
ATOM     79  C   UNL A   1      48.079  34.518  29.684  1.00  0.00     0.020 A 
ATOM     80  C   UNL A   1      48.237  35.397  28.612  1.00  0.00     0.054 A 
BRANCH  80  81
ATOM     81  S   UNL A   1      48.927  37.055  28.875  1.00  0.00     0.124 S 
ATOM     82  O   UNL A   1      48.102  37.872  27.989  1.00  0.00    -0.237 OA
ATOM     83  O   UNL A   1      48.715  37.260  30.305  1.00  0.00    -0.237 OA
ATOM     84  O   UNL A   1      50.324  36.911  28.473  1.00  0.00    -0.744 OA
ENDBRANCH  80  81
ENDBRANCH  52  75
BRANCH  64  85
ATOM     85  C   UNL A   1      49.855  26.683  26.417  1.00  0.00    -0.014 A 
ATOM     86  C   UNL A   1      50.331  26.689  25.094  1.00  0.00     0.010 A 
ATOM     87  C   UNL A   1      50.731  26.313  27.455  1.00  0.00     0.010 A 
ATOM     88  C   UNL A   1      51.645  26.303  24.813  1.00  0.00     0.020 A 
ATOM     89  C   UNL A   1      52.055  25.958  27.181  1.00  0.00     0.020 A 
ATOM     90  C   UNL A   1      52.500  25.942  25.859  1.00  0.00     0.054 A 
BRANCH  90  91
ATOM     91  S   UNL A   1      54.213  25.488  25.471  1.00  0.00     0.124 S 
ATOM     92  O   UNL A   1      54.355  25.978  24.102  1.00  0.00    -0.237 OA
ATOM     93  O   UNL A   1      54.974  26.218  26.482  1.00  0.00    -0.237 OA
ATOM     94  O   UNL A   1      54.228  24.034  25.616  1.00  0.00    -0.744 OA
ENDBRANCH  90  91
ENDBRANCH  64  85
ENDBRANCH  38  39
ENDBRANCH  31  33
ENDBRANCH  30  31
ENDBRANCH  29  30
ENDBRANCH  28  29
ENDBRANCH  27  28
ENDBRANCH   1  27
TORSDOF 24
ENDMDL
MODEL 2
REMARK VINA RESULT:      -8.6      2.319      8.540
REMARK SMILES CCC[C@]1(C(=O)OCCOCCOCCOC(=O)c2ccc(-c3c4nc(c(-c5ccc(S(=O)(=O)[O-])cc5)c5ccc([nH]5)c(-c5ccc(S(=O)(=O)[O-])cc5)c5nc(c(-c6ccc(S(=O)(=O)[O-])cc6)c6ccc3[nH]6)C=C5)C=C4)cc2)CCCN(C(=O)N[C@H]2CCOC2)C1
REMARK SMILES IDX 12 1 11 2 10 3 9 4 8 5 7 6 5 7 6 8 4 9 79 10 91 11 80 12
REMARK SMILES IDX 82 13 81 14 3 15 2 16 1 17 83 18 84 19 85 20 86 22 87 23
REMARK SMILES IDX 90 24 88 25 89 26 13 27 14 28 15 29 16 30 17 31 18 32 19 33
REMARK SMILES IDX 20 34 78 35 21 36 77 37 22 38 23 39 24 40 71 41 25 42 76 43
REMARK SMILES IDX 70 44 72 45 26 46 75 47 69 48 68 49 27 51 57 52 38 53 56 54
REMARK SMILES IDX 39 55 42 56 55 57 73 58 40 59 41 60 54 62 74 63 43 64 28 65
REMARK SMILES IDX 29 66 37 67 30 68 36 69 31 70 32 71 33 72 34 73 35 74 58 75
REMARK SMILES IDX 59 76 67 77 60 78 66 79 61 80 62 81 63 82 64 83 65 84 44 85
REMARK SMILES IDX 45 86 53 87 46 88 52 89 47 90 48 91 49 92 50 93 51 94
REMARK H PARENT 85 21 72 50 42 61
REMARK Flexibility Score: inf
ROOT
ATOM      1  C   UNL A   1      33.023  30.029  27.536  1.00  0.00     0.188 C 
ENDROOT
BRANCH   1   2
ATOM      2  C   UNL A   1      32.531  30.109  26.079  1.00  0.00     0.188 C 
BRANCH   2   3
ATOM      3  O   UNL A   1      31.441  29.306  25.670  1.00  0.00    -0.376 OA
BRANCH   3   4
ATOM      4  C   UNL A   1      31.393  28.853  24.321  1.00  0.00     0.202 C 
BRANCH   4   5
ATOM      5  C   UNL A   1      32.576  28.093  23.679  1.00  0.00     0.261 C 
BRANCH   5   6
ATOM      6  O   UNL A   1      32.592  26.701  24.025  1.00  0.00    -0.463 OA
BRANCH   6   7
ATOM      7  C   UNL A   1      33.469  26.249  24.979  1.00  0.00     0.313 C 
ATOM      8  O   UNL A   1      34.035  26.961  25.793  1.00  0.00    -0.252 OA
BRANCH   7   9
ATOM      9  C   UNL A   1      33.647  24.726  24.820  1.00  0.00     0.086 C 
ATOM     10  C   UNL A   1      32.899  24.420  23.464  1.00  0.00     0.022 C 
ATOM     11  C   UNL A   1      35.104  24.245  24.571  1.00  0.00     0.140 C 
ATOM     12  C   UNL A   1      32.980  22.974  23.011  1.00  0.00     0.023 C 
ATOM     13  N   UNL A   1      35.080  22.796  24.188  1.00  0.00    -0.324 N 
ATOM     14  C   UNL A   1      34.436  22.558  22.920  1.00  0.00     0.121 C 
BRANCH   9  15
ATOM     15  C   UNL A   1      33.087  24.003  26.097  1.00  0.00     0.020 C 
BRANCH  15  16
ATOM     16  C   UNL A   1      31.746  24.480  26.704  1.00  0.00    -0.002 C 
ATOM     17  C   UNL A   1      30.481  23.924  26.074  1.00  0.00     0.004 C 
ENDBRANCH  15  16
ENDBRANCH   9  15
BRANCH  13  18
ATOM     18  C   UNL A   1      35.426  21.859  25.108  1.00  0.00     0.317 C 
ATOM     19  O   UNL A   1      36.302  22.085  25.949  1.00  0.00    -0.249 OA
ATOM     20  N   UNL A   1      34.845  20.660  25.255  1.00  0.00    -0.333 N 
ATOM     21  H   UNL A   1      35.106  20.312  26.138  1.00  0.00     0.165 HD
BRANCH  20  22
ATOM     22  C   UNL A   1      33.973  19.654  24.627  1.00  0.00     0.112 C 
ATOM     23  C   UNL A   1      34.373  18.197  24.575  1.00  0.00     0.056 C 
ATOM     24  C   UNL A   1      32.528  19.667  25.097  1.00  0.00     0.185 C 
ATOM     25  C   UNL A   1      33.245  17.442  25.251  1.00  0.00     0.162 C 
ATOM     26  O   UNL A   1      32.164  18.344  25.506  1.00  0.00    -0.379 OA
ENDBRANCH  20  22
ENDBRANCH  13  18
ENDBRANCH   7   9
ENDBRANCH   6   7
ENDBRANCH   5   6
ENDBRANCH   4   5
ENDBRANCH   3   4
ENDBRANCH   2   3
ENDBRANCH   1   2
BRANCH   1  27
ATOM     27  O   UNL A   1      34.051  30.861  28.018  1.00  0.00    -0.376 OA
BRANCH  27  28
ATOM     28  C   UNL A   1      33.864  32.264  28.000  1.00  0.00     0.202 C 
BRANCH  28  29
ATOM     29  C   UNL A   1      34.697  33.248  28.849  1.00  0.00     0.261 C 
BRANCH  29  30
ATOM     30  O   UNL A   1      34.189  33.607  30.140  1.00  0.00    -0.460 OA
BRANCH  30  31
ATOM     31  C   UNL A   1      34.642  32.857  31.176  1.00  0.00     0.338 C 
ATOM     32  O   UNL A   1      34.019  32.543  32.187  1.00  0.00    -0.246 OA
BRANCH  31  33
ATOM     33  C   UNL A   1      35.941  32.261  30.809  1.00  0.00     0.060 A 
ATOM     34  C   UNL A   1      36.488  31.265  31.635  1.00  0.00     0.016 A 
ATOM     35  C   UNL A   1      36.620  32.684  29.668  1.00  0.00     0.016 A 
ATOM     36  C   UNL A   1      37.722  30.695  31.325  1.00  0.00     0.010 A 
ATOM     37  C   UNL A   1      37.872  32.134  29.376  1.00  0.00     0.010 A 
ATOM     38  C   UNL A   1      38.439  31.155  30.214  1.00  0.00    -0.014 A 
BRANCH  38  39
ATOM     39  C   UNL A   1      39.850  30.745  30.014  1.00  0.00     0.031 A 
ATOM     40  C   UNL A   1      40.931  31.771  30.222  1.00  0.00     0.074 A 
ATOM     41  C   UNL A   1      40.169  29.490  29.650  1.00  0.00     0.049 A 
ATOM     42  N   UNL A   1      42.219  31.672  30.018  1.00  0.00    -0.248 NA
ATOM     43  C   UNL A   1      40.498  33.086  30.723  1.00  0.00     0.031 C 
ATOM     44  C   UNL A   1      39.222  28.391  29.473  1.00  0.00     0.029 A 
ATOM     45  N   UNL A   1      41.389  28.937  29.348  1.00  0.00    -0.354 N 
ATOM     46  C   UNL A   1      42.749  32.913  30.349  1.00  0.00     0.074 A 
ATOM     47  C   UNL A   1      41.641  33.756  30.745  1.00  0.00     0.031 C 
ATOM     48  C   UNL A   1      39.896  27.296  29.075  1.00  0.00     0.029 A 
ATOM     49  C   UNL A   1      41.313  27.631  28.929  1.00  0.00     0.049 A 
ATOM     50  H   UNL A   1      42.238  29.430  29.424  1.00  0.00     0.167 HD
ATOM     51  C   UNL A   1      44.041  33.317  30.326  1.00  0.00     0.031 A 
ATOM     52  C   UNL A   1      42.270  26.808  28.452  1.00  0.00     0.031 A 
ATOM     53  C   UNL A   1      45.138  32.483  29.911  1.00  0.00     0.049 A 
ATOM     54  C   UNL A   1      43.689  27.307  28.347  1.00  0.00     0.074 A 
ATOM     55  C   UNL A   1      46.485  32.795  29.864  1.00  0.00     0.029 A 
ATOM     56  N   UNL A   1      45.014  31.178  29.457  1.00  0.00    -0.354 N 
ATOM     57  N   UNL A   1      44.181  28.477  28.684  1.00  0.00    -0.248 NA
ATOM     58  C   UNL A   1      44.684  26.372  27.802  1.00  0.00     0.031 C 
ATOM     59  C   UNL A   1      47.168  31.702  29.320  1.00  0.00     0.029 A 
ATOM     60  C   UNL A   1      46.257  30.682  29.097  1.00  0.00     0.049 A 
ATOM     61  H   UNL A   1      44.168  30.677  29.400  1.00  0.00     0.167 HD
ATOM     62  C   UNL A   1      45.547  28.406  28.418  1.00  0.00     0.074 A 
ATOM     63  C   UNL A   1      45.804  27.075  27.907  1.00  0.00     0.031 C 
ATOM     64  C   UNL A   1      46.501  29.356  28.585  1.00  0.00     0.031 A 
BRANCH  51  65
ATOM     65  C   UNL A   1      44.332  34.741  30.718  1.00  0.00    -0.014 A 
ATOM     66  C   UNL A   1      44.558  35.100  32.060  1.00  0.00     0.010 A 
ATOM     67  C   UNL A   1      44.414  35.732  29.723  1.00  0.00     0.010 A 
ATOM     68  C   UNL A   1      44.818  36.430  32.402  1.00  0.00     0.020 A 
ATOM     69  C   UNL A   1      44.704  37.058  30.057  1.00  0.00     0.020 A 
ATOM     70  C   UNL A   1      44.888  37.401  31.398  1.00  0.00     0.054 A 
BRANCH  70  71
ATOM     71  S   UNL A   1      45.247  39.114  31.870  1.00  0.00     0.124 S 
ATOM     72  O   UNL A   1      46.467  38.961  32.659  1.00  0.00    -0.237 OA
ATOM     73  O   UNL A   1      45.413  39.774  30.577  1.00  0.00    -0.237 OA
ATOM     74  O   UNL A   1      44.065  39.522  32.627  1.00  0.00    -0.744 OA
ENDBRANCH  70  71
ENDBRANCH  51  65
BRANCH  52  75
ATOM     75  C   UNL A   1      41.915  25.431  28.008  1.00  0.00    -0.014 A 
ATOM     76  C   UNL A   1      41.256  25.218  26.784  1.00  0.00     0.010 A 
ATOM     77  C   UNL A   1      42.235  24.321  28.812  1.00  0.00     0.010 A 
ATOM     78  C   UNL A   1      40.907  23.924  26.382  1.00  0.00     0.020 A 
ATOM     79  C   UNL A   1      41.916  23.024  28.399  1.00  0.00     0.020 A 
ATOM     80  C   UNL A   1      41.245  22.835  27.191  1.00  0.00     0.054 A 
BRANCH  80  81
ATOM     81  S   UNL A   1      40.830  21.162  26.621  1.00  0.00     0.124 S 
ATOM     82  O   UNL A   1      41.950  20.855  25.737  1.00  0.00    -0.237 OA
ATOM     83  O   UNL A   1      40.783  20.408  27.871  1.00  0.00    -0.237 OA
ATOM     84  O   UNL A   1      39.539  21.338  25.958  1.00  0.00    -0.744 OA
ENDBRANCH  80  81
ENDBRANCH  52  75
BRANCH  64  85
ATOM     85  C   UNL A   1      47.924  28.987  28.246  1.00  0.00    -0.014 A 
ATOM     86  C   UNL A   1      48.774  28.396  29.197  1.00  0.00     0.010 A 
ATOM     87  C   UNL A   1      48.397  29.182  26.935  1.00  0.00     0.010 A 
ATOM     88  C   UNL A   1      50.080  28.036  28.851  1.00  0.00     0.020 A 
ATOM     89  C   UNL A   1      49.690  28.794  26.576  1.00  0.00     0.020 A 
ATOM     90  C   UNL A   1      50.530  28.236  27.541  1.00  0.00     0.054 A 
BRANCH  90  91
ATOM     91  S   UNL A   1      52.214  27.719  27.107  1.00  0.00     0.124 S 
ATOM     92  O   UNL A   1      52.261  26.359  27.638  1.00  0.00    -0.237 OA
ATOM     93  O   UNL A   1      52.216  27.825  25.651  1.00  0.00    -0.237 OA
ATOM     94  O   UNL A   1      53.063  28.687  27.799  1.00  0.00    -0.744 OA
ENDBRANCH  90  91
ENDBRANCH  64  85
ENDBRANCH  38  39
ENDBRANCH  31  33
ENDBRANCH  30  31
ENDBRANCH  29  30
ENDBRANCH  28  29
ENDBRANCH  27  28
ENDBRANCH   1  27
TORSDOF 24
ENDMDL
MODEL 3
REMARK VINA RESULT:      -8.5      6.108     15.320
REMARK SMILES CCC[C@]1(C(=O)OCCOCCOCCOC(=O)c2ccc(-c3c4nc(c(-c5ccc(S(=O)(=O)[O-])cc5)c5ccc([nH]5)c(-c5ccc(S(=O)(=O)[O-])cc5)c5nc(c(-c6ccc(S(=O)(=O)[O-])cc6)c6ccc3[nH]6)C=C5)C=C4)cc2)CCCN(C(=O)N[C@H]2CCOC2)C1
REMARK SMILES IDX 12 1 11 2 10 3 9 4 8 5 7 6 5 7 6 8 4 9 79 10 91 11 80 12
REMARK SMILES IDX 82 13 81 14 3 15 2 16 1 17 83 18 84 19 85 20 86 22 87 23
REMARK SMILES IDX 90 24 88 25 89 26 13 27 14 28 15 29 16 30 17 31 18 32 19 33
REMARK SMILES IDX 20 34 78 35 21 36 77 37 22 38 23 39 24 40 71 41 25 42 76 43
REMARK SMILES IDX 70 44 72 45 26 46 75 47 69 48 68 49 27 51 57 52 38 53 56 54
REMARK SMILES IDX 39 55 42 56 55 57 73 58 40 59 41 60 54 62 74 63 43 64 28 65
REMARK SMILES IDX 29 66 37 67 30 68 36 69 31 70 32 71 33 72 34 73 35 74 58 75
REMARK SMILES IDX 59 76 67 77 60 78 66 79 61 80 62 81 63 82 64 83 65 84 44 85
REMARK SMILES IDX 45 86 53 87 46 88 52 89 47 90 48 91 49 92 50 93 51 94
REMARK H PARENT 85 21 72 50 42 61
REMARK Flexibility Score: inf
ROOT
ATOM      1  C   UNL A   1      44.443  39.392  26.492  1.00  0.00     0.188 C 
ENDROOT
BRANCH   1   2
ATOM      2  C   UNL A   1      43.709  40.597  27.108  1.00  0.00     0.188 C 
BRANCH   2   3
ATOM      3  O   UNL A   1      42.732  41.279  26.345  1.00  0.00    -0.376 OA
BRANCH   3   4
ATOM      4  C   UNL A   1      43.145  41.992  25.184  1.00  0.00     0.202 C 
BRANCH   4   5
ATOM      5  C   UNL A   1      42.257  42.068  23.922  1.00  0.00     0.261 C 
BRANCH   5   6
ATOM      6  O   UNL A   1      43.019  42.052  22.707  1.00  0.00    -0.463 OA
BRANCH   6   7
ATOM      7  C   UNL A   1      43.084  43.183  21.932  1.00  0.00     0.313 C 
ATOM      8  O   UNL A   1      42.117  43.848  21.594  1.00  0.00    -0.252 OA
BRANCH   7   9
ATOM      9  C   UNL A   1      44.551  43.440  21.534  1.00  0.00     0.086 C 
ATOM     10  C   UNL A   1      44.825  44.888  22.101  1.00  0.00     0.022 C 
ATOM     11  C   UNL A   1      45.603  42.544  22.244  1.00  0.00     0.140 C 
ATOM     12  C   UNL A   1      46.248  45.379  21.916  1.00  0.00     0.023 C 
ATOM     13  N   UNL A   1      46.973  43.078  21.952  1.00  0.00    -0.324 N 
ATOM     14  C   UNL A   1      47.209  44.378  22.529  1.00  0.00     0.121 C 
BRANCH   9  15
ATOM     15  C   UNL A   1      44.704  43.267  19.981  1.00  0.00     0.020 C 
BRANCH  15  16
ATOM     16  C   UNL A   1      43.962  44.243  19.037  1.00  0.00    -0.002 C 
ATOM     17  C   UNL A   1      44.830  45.126  18.157  1.00  0.00     0.004 C 
ENDBRANCH  15  16
ENDBRANCH   9  15
BRANCH  13  18
ATOM     18  C   UNL A   1      47.750  42.450  21.031  1.00  0.00     0.317 C 
ATOM     19  O   UNL A   1      47.712  41.222  20.899  1.00  0.00    -0.249 OA
ATOM     20  N   UNL A   1      48.560  43.055  20.151  1.00  0.00    -0.333 N 
ATOM     21  H   UNL A   1      48.783  42.396  19.455  1.00  0.00     0.165 HD
BRANCH  20  22
ATOM     22  C   UNL A   1      49.249  44.309  19.808  1.00  0.00     0.112 C 
ATOM     23  C   UNL A   1      50.742  44.341  19.578  1.00  0.00     0.056 C 
ATOM     24  C   UNL A   1      48.640  45.086  18.654  1.00  0.00     0.185 C 
ATOM     25  C   UNL A   1      50.927  44.909  18.184  1.00  0.00     0.162 C 
ATOM     26  O   UNL A   1      49.665  45.370  17.695  1.00  0.00    -0.379 OA
ENDBRANCH  20  22
ENDBRANCH  13  18
ENDBRANCH   7   9
ENDBRANCH   6   7
ENDBRANCH   5   6
ENDBRANCH   4   5
ENDBRANCH   3   4
ENDBRANCH   2   3
ENDBRANCH   1   2
BRANCH   1  27
ATOM     27  O   UNL A   1      45.771  39.488  26.035  1.00  0.00    -0.376 OA
BRANCH  27  28
ATOM     28  C   UNL A   1      46.756  40.031  26.896  1.00  0.00     0.202 C 
BRANCH  28  29
ATOM     29  C   UNL A   1      47.399  39.249  28.060  1.00  0.00     0.261 C 
BRANCH  29  30
ATOM     30  O   UNL A   1      47.566  37.835  27.900  1.00  0.00    -0.460 OA
BRANCH  30  31
ATOM     31  C   UNL A   1      47.973  37.165  29.007  1.00  0.00     0.338 C 
ATOM     32  O   UNL A   1      48.343  37.654  30.071  1.00  0.00    -0.246 OA
BRANCH  31  33
ATOM     33  C   UNL A   1      47.685  35.727  28.836  1.00  0.00     0.060 A 
ATOM     34  C   UNL A   1      47.069  35.295  27.650  1.00  0.00     0.016 A 
ATOM     35  C   UNL A   1      48.010  34.814  29.837  1.00  0.00     0.016 A 
ATOM     36  C   UNL A   1      46.769  33.946  27.466  1.00  0.00     0.010 A 
ATOM     37  C   UNL A   1      47.678  33.466  29.664  1.00  0.00     0.010 A 
ATOM     38  C   UNL A   1      47.037  33.030  28.490  1.00  0.00    -0.014 A 
BRANCH  38  39
ATOM     39  C   UNL A   1      46.499  31.649  28.416  1.00  0.00     0.031 A 
ATOM     40  C   UNL A   1      47.353  30.579  27.791  1.00  0.00     0.074 A 
ATOM     41  C   UNL A   1      45.275  31.350  28.886  1.00  0.00     0.049 A 
ATOM     42  N   UNL A   1      47.062  29.332  27.533  1.00  0.00    -0.248 NA
ATOM     43  C   UNL A   1      48.717  30.974  27.402  1.00  0.00     0.031 C 
ATOM     44  C   UNL A   1      44.375  32.281  29.563  1.00  0.00     0.029 A 
ATOM     45  N   UNL A   1      44.575  30.169  28.848  1.00  0.00    -0.354 N 
ATOM     46  C   UNL A   1      48.197  28.796  26.938  1.00  0.00     0.074 A 
ATOM     47  C   UNL A   1      49.174  29.860  26.851  1.00  0.00     0.031 C 
ATOM     48  C   UNL A   1      43.230  31.639  29.862  1.00  0.00     0.029 A 
ATOM     49  C   UNL A   1      43.303  30.267  29.359  1.00  0.00     0.049 A 
ATOM     50  H   UNL A   1      44.948  29.332  28.487  1.00  0.00     0.167 HD
ATOM     51  C   UNL A   1      48.409  27.531  26.501  1.00  0.00     0.031 A 
ATOM     52  C   UNL A   1      42.301  29.364  29.390  1.00  0.00     0.031 A 
ATOM     53  C   UNL A   1      47.428  26.481  26.568  1.00  0.00     0.049 A 
ATOM     54  C   UNL A   1      42.528  27.988  28.814  1.00  0.00     0.074 A 
ATOM     55  C   UNL A   1      47.550  25.163  26.165  1.00  0.00     0.029 A 
ATOM     56  N   UNL A   1      46.139  26.630  27.059  1.00  0.00    -0.354 N 
ATOM     57  N   UNL A   1      43.614  27.487  28.273  1.00  0.00    -0.248 NA
ATOM     58  C   UNL A   1      41.393  27.054  28.858  1.00  0.00     0.031 C 
ATOM     59  C   UNL A   1      46.316  24.534  26.349  1.00  0.00     0.029 A 
ATOM     60  C   UNL A   1      45.445  25.438  26.936  1.00  0.00     0.049 A 
ATOM     61  H   UNL A   1      45.772  27.461  27.438  1.00  0.00     0.167 HD
ATOM     62  C   UNL A   1      43.300  26.171  27.939  1.00  0.00     0.074 A 
ATOM     63  C   UNL A   1      41.930  25.951  28.354  1.00  0.00     0.031 C 
ATOM     64  C   UNL A   1      44.079  25.230  27.347  1.00  0.00     0.031 A 
BRANCH  51  65
ATOM     65  C   UNL A   1      49.741  27.228  25.868  1.00  0.00    -0.014 A 
ATOM     66  C   UNL A   1      50.806  26.697  26.619  1.00  0.00     0.010 A 
ATOM     67  C   UNL A   1      49.921  27.449  24.489  1.00  0.00     0.010 A 
ATOM     68  C   UNL A   1      52.036  26.431  26.012  1.00  0.00     0.020 A 
ATOM     69  C   UNL A   1      51.140  27.155  23.872  1.00  0.00     0.020 A 
ATOM     70  C   UNL A   1      52.196  26.664  24.642  1.00  0.00     0.054 A 
BRANCH  70  71
ATOM     71  S   UNL A   1      53.798  26.291  23.879  1.00  0.00     0.124 S 
ATOM     72  O   UNL A   1      54.193  25.075  24.585  1.00  0.00    -0.237 OA
ATOM     73  O   UNL A   1      53.447  26.113  22.471  1.00  0.00    -0.237 OA
ATOM     74  O   UNL A   1      54.607  27.471  24.172  1.00  0.00    -0.744 OA
ENDBRANCH  70  71
ENDBRANCH  51  65
BRANCH  52  75
ATOM     75  C   UNL A   1      40.978  29.738  29.961  1.00  0.00    -0.014 A 
ATOM     76  C   UNL A   1      40.740  29.649  31.344  1.00  0.00     0.010 A 
ATOM     77  C   UNL A   1      39.942  30.185  29.119  1.00  0.00     0.010 A 
ATOM     78  C   UNL A   1      39.488  29.983  31.872  1.00  0.00     0.020 A 
ATOM     79  C   UNL A   1      38.699  30.549  29.646  1.00  0.00     0.020 A 
ATOM     80  C   UNL A   1      38.478  30.436  31.019  1.00  0.00     0.054 A 
BRANCH  80  81
ATOM     81  S   UNL A   1      36.879  30.913  31.735  1.00  0.00     0.124 S 
ATOM     82  O   UNL A   1      37.286  31.596  32.959  1.00  0.00    -0.237 OA
ATOM     83  O   UNL A   1      36.310  31.764  30.693  1.00  0.00    -0.237 OA
ATOM     84  O   UNL A   1      36.197  29.636  31.929  1.00  0.00    -0.744 OA
ENDBRANCH  80  81
ENDBRANCH  52  75
BRANCH  64  85
ATOM     85  C   UNL A   1      43.484  23.860  27.139  1.00  0.00    -0.014 A 
ATOM     86  C   UNL A   1      43.260  22.986  28.217  1.00  0.00     0.010 A 
ATOM     87  C   UNL A   1      43.088  23.465  25.847  1.00  0.00     0.010 A 
ATOM     88  C   UNL A   1      42.681  21.731  28.003  1.00  0.00     0.020 A 
ATOM     89  C   UNL A   1      42.480  22.226  25.633  1.00  0.00     0.020 A 
ATOM     90  C   UNL A   1      42.293  21.360  26.711  1.00  0.00     0.054 A 
BRANCH  90  91
ATOM     91  S   UNL A   1      41.503  19.745  26.468  1.00  0.00     0.124 S 
ATOM     92  O   UNL A   1      41.926  19.016  27.660  1.00  0.00    -0.237 OA
ATOM     93  O   UNL A   1      40.085  20.088  26.410  1.00  0.00    -0.237 OA
ATOM     94  O   UNL A   1      42.074  19.266  25.211  1.00  0.00    -0.744 OA
ENDBRANCH  90  91
ENDBRANCH  64  85
ENDBRANCH  38  39
ENDBRANCH  31  33
ENDBRANCH  30  31
ENDBRANCH  29  30
ENDBRANCH  28  29
ENDBRANCH  27  28
ENDBRANCH   1  27
TORSDOF 24
ENDMDL
