MODEL 1
REMARK VINA RESULT:     -10.6      0.000      0.000
REMARK SMILES Cc1ccnc(C(=O)c2[nH]c3ccc(C(C)(C)C)cc3c2CC(=O)OCCOCCOCCOC(=O)c2ccc(-c3c4nc(c(-c5ccc(S(=O)(=O)[O-])cc5)c5ccc([nH]5)c(-c5ccc(S(=O)(=O)[O-])cc5)c5nc(c(-c6ccc(S(=O)(=O)[O-])cc6)c6ccc3[nH]6)C=C5)C=C4)cc2)c1
REMARK SMILES IDX 29 1 28 2 27 3 26 4 25 5 23 6 24 7 22 8 21 9 9 10 10 11
REMARK SMILES IDX 11 12 20 14 12 15 19 16 13 17 14 18 7 19 8 20 6 21 1 22 2 23
REMARK SMILES IDX 3 24 97 25 4 26 5 27 15 28 16 29 17 30 18 31 30 32 31 33
REMARK SMILES IDX 32 34 33 35 34 36 35 37 36 38 37 39 38 40 96 41 39 42 95 43
REMARK SMILES IDX 40 44 41 45 42 46 89 47 43 48 94 49 88 50 90 51 44 52 93 53
REMARK SMILES IDX 87 54 86 55 45 57 75 58 56 59 74 60 57 61 60 62 73 63 91 64
REMARK SMILES IDX 58 65 59 66 72 68 92 69 61 70 46 71 47 72 55 73 48 74 54 75
REMARK SMILES IDX 49 76 50 77 51 78 52 79 53 80 76 81 77 82 85 83 78 84 84 85
REMARK SMILES IDX 79 86 80 87 81 88 82 89 83 90 62 91 63 92 71 93 64 94 70 95
REMARK SMILES IDX 65 96 66 97 67 98 68 99 69 100
REMARK H PARENT 10 13 90 56 60 67
REMARK Flexibility Score: inf
ROOT
ATOM      1  C   UNL A   1      33.599  31.813  27.846  1.00  0.00     0.188 C 
ENDROOT
BRANCH   1   2
ATOM      2  O   UNL A   1      33.142  30.651  27.163  1.00  0.00    -0.376 OA
BRANCH   2   3
ATOM      3  C   UNL A   1      32.068  30.799  26.244  1.00  0.00     0.202 C 
BRANCH   3   4
ATOM      4  C   UNL A   1      31.562  29.512  25.589  1.00  0.00     0.261 C 
BRANCH   4   5
ATOM      5  O   UNL A   1      32.307  28.353  26.023  1.00  0.00    -0.463 OA
BRANCH   5   6
ATOM      6  C   UNL A   1      31.638  27.500  26.839  1.00  0.00     0.310 C 
ATOM      7  O   UNL A   1      31.230  27.823  27.953  1.00  0.00    -0.252 OA
BRANCH   6   8
ATOM      8  C   UNL A   1      31.320  26.135  26.254  1.00  0.00     0.161 C 
BRANCH   8   9
ATOM      9  C   UNL A   1      31.580  25.853  24.790  1.00  0.00     0.000 A 
ATOM     10  C   UNL A   1      30.769  26.163  23.691  1.00  0.00     0.093 A 
ATOM     11  N   UNL A   1      31.436  25.741  22.561  1.00  0.00    -0.352 N 
ATOM     12  C   UNL A   1      32.396  24.827  22.914  1.00  0.00     0.046 A 
ATOM     13  H   UNL A   1      31.253  26.047  21.644  1.00  0.00     0.167 HD
ATOM     14  C   UNL A   1      32.528  24.899  24.295  1.00  0.00     0.004 A 
ATOM     15  C   UNL A   1      33.113  23.922  22.130  1.00  0.00     0.027 A 
ATOM     16  C   UNL A   1      33.399  23.999  24.931  1.00  0.00     0.015 A 
ATOM     17  C   UNL A   1      33.899  22.975  22.802  1.00  0.00     0.006 A 
ATOM     18  C   UNL A   1      34.026  22.968  24.200  1.00  0.00    -0.042 A 
BRANCH  10  19
ATOM     19  C   UNL A   1      29.460  26.787  23.684  1.00  0.00     0.227 C 
ATOM     20  O   UNL A   1      28.464  26.232  24.143  1.00  0.00    -0.285 OA
BRANCH  19  21
ATOM     21  C   UNL A   1      29.278  28.120  23.047  1.00  0.00     0.113 A 
ATOM     22  C   UNL A   1      27.370  31.332  23.610  1.00  0.00     0.044 C 
ATOM     23  C   UNL A   1      28.347  30.321  23.089  1.00  0.00    -0.047 A 
ATOM     24  C   UNL A   1      29.386  30.721  22.243  1.00  0.00     0.023 A 
ATOM     25  C   UNL A   1      28.304  28.991  23.519  1.00  0.00     0.036 A 
ATOM     26  C   UNL A   1      30.275  29.764  21.784  1.00  0.00     0.112 A 
ATOM     27  N   UNL A   1      30.220  28.463  22.138  1.00  0.00    -0.253 NA
ENDBRANCH  19  21
ENDBRANCH  10  19
BRANCH  18  28
ATOM     28  C   UNL A   1      34.722  21.839  24.976  1.00  0.00    -0.013 C 
ATOM     29  C   UNL A   1      34.669  22.137  26.487  1.00  0.00     0.016 C 
ATOM     30  C   UNL A   1      33.985  20.508  24.687  1.00  0.00     0.016 C 
ATOM     31  C   UNL A   1      36.199  21.630  24.586  1.00  0.00     0.016 C 
ENDBRANCH  18  28
ENDBRANCH   8   9
ENDBRANCH   6   8
ENDBRANCH   5   6
ENDBRANCH   4   5
ENDBRANCH   3   4
ENDBRANCH   2   3
ENDBRANCH   1   2
BRANCH   1  32
ATOM     32  C   UNL A   1      34.853  31.710  28.742  1.00  0.00     0.188 C 
BRANCH  32  33
ATOM     33  O   UNL A   1      35.136  32.748  29.672  1.00  0.00    -0.376 OA
BRANCH  33  34
ATOM     34  C   UNL A   1      35.079  32.411  31.051  1.00  0.00     0.202 C 
BRANCH  34  35
ATOM     35  C   UNL A   1      36.436  32.330  31.744  1.00  0.00     0.261 C 
BRANCH  35  36
ATOM     36  O   UNL A   1      36.684  31.006  32.256  1.00  0.00    -0.460 OA
BRANCH  36  37
ATOM     37  C   UNL A   1      37.043  30.110  31.306  1.00  0.00     0.338 C 
ATOM     38  O   UNL A   1      36.361  29.186  30.895  1.00  0.00    -0.246 OA
BRANCH  37  39
ATOM     39  C   UNL A   1      38.403  30.365  30.784  1.00  0.00     0.060 A 
ATOM     40  C   UNL A   1      38.611  30.569  29.425  1.00  0.00     0.016 A 
ATOM     41  C   UNL A   1      39.496  30.104  31.607  1.00  0.00     0.016 A 
ATOM     42  C   UNL A   1      39.867  30.324  28.862  1.00  0.00     0.010 A 
ATOM     43  C   UNL A   1      40.778  29.968  31.052  1.00  0.00     0.010 A 
ATOM     44  C   UNL A   1      40.968  29.988  29.660  1.00  0.00    -0.014 A 
BRANCH  44  45
ATOM     45  C   UNL A   1      42.264  29.556  29.043  1.00  0.00     0.031 A 
ATOM     46  C   UNL A   1      42.447  28.126  28.565  1.00  0.00     0.074 A 
ATOM     47  C   UNL A   1      43.268  30.437  28.838  1.00  0.00     0.049 A 
ATOM     48  N   UNL A   1      43.531  27.527  28.133  1.00  0.00    -0.248 NA
ATOM     49  C   UNL A   1      41.257  27.257  28.565  1.00  0.00     0.031 C 
ATOM     50  C   UNL A   1      43.223  31.867  29.148  1.00  0.00     0.029 A 
ATOM     51  N   UNL A   1      44.525  30.259  28.305  1.00  0.00    -0.354 N 
ATOM     52  C   UNL A   1      43.163  26.214  27.849  1.00  0.00     0.074 A 
ATOM     53  C   UNL A   1      41.756  26.097  28.162  1.00  0.00     0.031 C 
ATOM     54  C   UNL A   1      44.373  32.440  28.764  1.00  0.00     0.029 A 
ATOM     55  C   UNL A   1      45.283  31.408  28.285  1.00  0.00     0.049 A 
ATOM     56  H   UNL A   1      44.850  29.392  27.971  1.00  0.00     0.167 HD
ATOM     57  C   UNL A   1      43.922  25.194  27.378  1.00  0.00     0.031 A 
ATOM     58  C   UNL A   1      46.580  31.610  27.979  1.00  0.00     0.031 A 
ATOM     59  C   UNL A   1      45.326  25.300  27.070  1.00  0.00     0.049 A 
ATOM     60  C   UNL A   1      47.433  30.436  27.582  1.00  0.00     0.074 A 
ATOM     61  C   UNL A   1      46.191  24.307  26.639  1.00  0.00     0.029 A 
ATOM     62  N   UNL A   1      46.072  26.464  27.156  1.00  0.00    -0.354 N 
ATOM     63  N   UNL A   1      47.084  29.185  27.400  1.00  0.00    -0.248 NA
ATOM     64  C   UNL A   1      48.862  30.702  27.369  1.00  0.00     0.031 C 
ATOM     65  C   UNL A   1      47.472  24.859  26.521  1.00  0.00     0.029 A 
ATOM     66  C   UNL A   1      47.390  26.210  26.811  1.00  0.00     0.049 A 
ATOM     67  H   UNL A   1      45.718  27.344  27.422  1.00  0.00     0.167 HD
ATOM     68  C   UNL A   1      48.249  28.518  27.041  1.00  0.00     0.074 A 
ATOM     69  C   UNL A   1      49.303  29.510  26.995  1.00  0.00     0.031 C 
ATOM     70  C   UNL A   1      48.435  27.199  26.783  1.00  0.00     0.031 A 
BRANCH  57  71
ATOM     71  C   UNL A   1      43.271  23.844  27.208  1.00  0.00    -0.014 A 
ATOM     72  C   UNL A   1      42.858  23.382  25.946  1.00  0.00     0.010 A 
ATOM     73  C   UNL A   1      43.147  22.992  28.321  1.00  0.00     0.010 A 
ATOM     74  C   UNL A   1      42.320  22.098  25.805  1.00  0.00     0.020 A 
ATOM     75  C   UNL A   1      42.632  21.700  28.180  1.00  0.00     0.020 A 
ATOM     76  C   UNL A   1      42.213  21.264  26.922  1.00  0.00     0.054 A 
BRANCH  76  77
ATOM     77  S   UNL A   1      41.557  19.586  26.699  1.00  0.00     0.124 S 
ATOM     78  O   UNL A   1      42.759  18.770  26.846  1.00  0.00    -0.237 OA
ATOM     79  O   UNL A   1      40.586  19.476  27.785  1.00  0.00    -0.237 OA
ATOM     80  O   UNL A   1      40.984  19.612  25.355  1.00  0.00    -0.744 OA
ENDBRANCH  76  77
ENDBRANCH  57  71
BRANCH  58  81
ATOM     81  C   UNL A   1      47.186  32.966  28.133  1.00  0.00    -0.014 A 
ATOM     82  C   UNL A   1      47.215  33.877  27.063  1.00  0.00     0.010 A 
ATOM     83  C   UNL A   1      47.774  33.337  29.358  1.00  0.00     0.010 A 
ATOM     84  C   UNL A   1      47.845  35.119  27.207  1.00  0.00     0.020 A 
ATOM     85  C   UNL A   1      48.366  34.591  29.519  1.00  0.00     0.020 A 
ATOM     86  C   UNL A   1      48.415  35.468  28.435  1.00  0.00     0.054 A 
BRANCH  86  87
ATOM     87  S   UNL A   1      49.205  37.091  28.613  1.00  0.00     0.124 S 
ATOM     88  O   UNL A   1      49.520  37.120  30.037  1.00  0.00    -0.237 OA
ATOM     89  O   UNL A   1      50.350  36.988  27.712  1.00  0.00    -0.237 OA
ATOM     90  O   UNL A   1      48.165  38.024  28.182  1.00  0.00    -0.744 OA
ENDBRANCH  86  87
ENDBRANCH  58  81
BRANCH  70  91
ATOM     91  C   UNL A   1      49.826  26.771  26.395  1.00  0.00    -0.014 A 
ATOM     92  C   UNL A   1      50.265  26.834  25.059  1.00  0.00     0.010 A 
ATOM     93  C   UNL A   1      50.702  26.281  27.382  1.00  0.00     0.010 A 
ATOM     94  C   UNL A   1      51.528  26.349  24.708  1.00  0.00     0.020 A 
ATOM     95  C   UNL A   1      51.977  25.826  27.039  1.00  0.00     0.020 A 
ATOM     96  C   UNL A   1      52.371  25.837  25.698  1.00  0.00     0.054 A 
BRANCH  96  97
ATOM     97  S   UNL A   1      53.996  25.193  25.218  1.00  0.00     0.124 S 
ATOM     98  O   UNL A   1      54.740  25.283  26.472  1.00  0.00    -0.237 OA
ATOM     99  O   UNL A   1      53.687  23.838  24.766  1.00  0.00    -0.237 OA
ATOM    100  O   UNL A   1      54.435  26.109  24.168  1.00  0.00    -0.744 OA
ENDBRANCH  96  97
ENDBRANCH  70  91
ENDBRANCH  44  45
ENDBRANCH  37  39
ENDBRANCH  36  37
ENDBRANCH  35  36
ENDBRANCH  34  35
ENDBRANCH  33  34
ENDBRANCH  32  33
ENDBRANCH   1  32
TORSDOF 24
ENDMDL
MODEL 2
REMARK VINA RESULT:      -9.7      2.255      8.597
REMARK SMILES Cc1ccnc(C(=O)c2[nH]c3ccc(C(C)(C)C)cc3c2CC(=O)OCCOCCOCCOC(=O)c2ccc(-c3c4nc(c(-c5ccc(S(=O)(=O)[O-])cc5)c5ccc([nH]5)c(-c5ccc(S(=O)(=O)[O-])cc5)c5nc(c(-c6ccc(S(=O)(=O)[O-])cc6)c6ccc3[nH]6)C=C5)C=C4)cc2)c1
REMARK SMILES IDX 29 1 28 2 27 3 26 4 25 5 23 6 24 7 22 8 21 9 9 10 10 11
REMARK SMILES IDX 11 12 20 14 12 15 19 16 13 17 14 18 7 19 8 20 6 21 1 22 2 23
REMARK SMILES IDX 3 24 97 25 4 26 5 27 15 28 16 29 17 30 18 31 30 32 31 33
REMARK SMILES IDX 32 34 33 35 34 36 35 37 36 38 37 39 38 40 96 41 39 42 95 43
REMARK SMILES IDX 40 44 41 45 42 46 89 47 43 48 94 49 88 50 90 51 44 52 93 53
REMARK SMILES IDX 87 54 86 55 45 57 75 58 56 59 74 60 57 61 60 62 73 63 91 64
REMARK SMILES IDX 58 65 59 66 72 68 92 69 61 70 46 71 47 72 55 73 48 74 54 75
REMARK SMILES IDX 49 76 50 77 51 78 52 79 53 80 76 81 77 82 85 83 78 84 84 85
REMARK SMILES IDX 79 86 80 87 81 88 82 89 83 90 62 91 63 92 71 93 64 94 70 95
REMARK SMILES IDX 65 96 66 97 67 98 68 99 69 100
REMARK H PARENT 10 13 90 56 60 67
REMARK Flexibility Score: inf
ROOT
ATOM      1  C   UNL A   1      38.211  22.695  25.772  1.00  0.00     0.188 C 
ENDROOT
BRANCH   1   2
ATOM      2  O   UNL A   1      36.840  22.834  26.127  1.00  0.00    -0.376 OA
BRANCH   2   3
ATOM      3  C   UNL A   1      35.897  23.020  25.081  1.00  0.00     0.202 C 
BRANCH   3   4
ATOM      4  C   UNL A   1      35.155  24.358  25.076  1.00  0.00     0.261 C 
BRANCH   4   5
ATOM      5  O   UNL A   1      34.067  24.379  26.026  1.00  0.00    -0.463 OA
BRANCH   5   6
ATOM      6  C   UNL A   1      33.178  25.393  25.874  1.00  0.00     0.310 C 
ATOM      7  O   UNL A   1      32.051  25.374  26.365  1.00  0.00    -0.252 OA
BRANCH   6   8
ATOM      8  C   UNL A   1      33.693  26.621  25.143  1.00  0.00     0.161 C 
BRANCH   8   9
ATOM      9  C   UNL A   1      33.025  27.964  25.345  1.00  0.00     0.000 A 
ATOM     10  C   UNL A   1      32.132  28.625  24.492  1.00  0.00     0.093 A 
ATOM     11  N   UNL A   1      31.769  29.800  25.115  1.00  0.00    -0.352 N 
ATOM     12  C   UNL A   1      32.687  30.104  26.087  1.00  0.00     0.046 A 
ATOM     13  H   UNL A   1      30.974  30.338  24.896  1.00  0.00     0.167 HD
ATOM     14  C   UNL A   1      33.462  28.966  26.273  1.00  0.00     0.004 A 
ATOM     15  C   UNL A   1      32.917  31.298  26.773  1.00  0.00     0.027 A 
ATOM     16  C   UNL A   1      34.543  29.033  27.167  1.00  0.00     0.015 A 
ATOM     17  C   UNL A   1      34.059  31.361  27.583  1.00  0.00     0.006 A 
ATOM     18  C   UNL A   1      34.908  30.258  27.764  1.00  0.00    -0.042 A 
BRANCH  10  19
ATOM     19  C   UNL A   1      31.661  28.211  23.185  1.00  0.00     0.227 C 
ATOM     20  O   UNL A   1      32.343  27.527  22.426  1.00  0.00    -0.285 OA
BRANCH  19  21
ATOM     21  C   UNL A   1      30.332  28.672  22.696  1.00  0.00     0.113 A 
ATOM     22  C   UNL A   1      26.667  28.232  23.503  1.00  0.00     0.044 C 
ATOM     23  C   UNL A   1      27.955  28.747  22.932  1.00  0.00    -0.047 A 
ATOM     24  C   UNL A   1      27.972  29.942  22.206  1.00  0.00     0.023 A 
ATOM     25  C   UNL A   1      29.168  28.107  23.202  1.00  0.00     0.036 A 
ATOM     26  C   UNL A   1      29.178  30.394  21.698  1.00  0.00     0.112 A 
ATOM     27  N   UNL A   1      30.354  29.762  21.895  1.00  0.00    -0.253 NA
ENDBRANCH  19  21
ENDBRANCH  10  19
BRANCH  18  28
ATOM     28  C   UNL A   1      36.260  30.347  28.489  1.00  0.00    -0.013 C 
ATOM     29  C   UNL A   1      36.216  29.501  29.776  1.00  0.00     0.016 C 
ATOM     30  C   UNL A   1      37.364  29.801  27.551  1.00  0.00     0.016 C 
ATOM     31  C   UNL A   1      36.669  31.782  28.878  1.00  0.00     0.016 C 
ENDBRANCH  18  28
ENDBRANCH   8   9
ENDBRANCH   6   8
ENDBRANCH   5   6
ENDBRANCH   4   5
ENDBRANCH   3   4
ENDBRANCH   2   3
ENDBRANCH   1   2
BRANCH   1  32
ATOM     32  C   UNL A   1      38.815  21.278  25.653  1.00  0.00     0.188 C 
BRANCH  32  33
ATOM     33  O   UNL A   1      40.149  21.047  26.087  1.00  0.00    -0.376 OA
BRANCH  33  34
ATOM     34  C   UNL A   1      40.456  19.743  26.561  1.00  0.00     0.202 C 
BRANCH  34  35
ATOM     35  C   UNL A   1      41.887  19.287  26.290  1.00  0.00     0.261 C 
BRANCH  35  36
ATOM     36  O   UNL A   1      42.381  19.822  25.047  1.00  0.00    -0.460 OA
BRANCH  36  37
ATOM     37  C   UNL A   1      43.602  20.399  25.147  1.00  0.00     0.338 C 
ATOM     38  O   UNL A   1      44.656  19.924  24.758  1.00  0.00    -0.246 OA
BRANCH  37  39
ATOM     39  C   UNL A   1      43.542  21.724  25.802  1.00  0.00     0.060 A 
ATOM     40  C   UNL A   1      43.305  22.871  25.055  1.00  0.00     0.016 A 
ATOM     41  C   UNL A   1      44.016  21.848  27.106  1.00  0.00     0.016 A 
ATOM     42  C   UNL A   1      43.719  24.119  25.533  1.00  0.00     0.010 A 
ATOM     43  C   UNL A   1      44.326  23.114  27.624  1.00  0.00     0.010 A 
ATOM     44  C   UNL A   1      44.266  24.261  26.814  1.00  0.00    -0.014 A 
BRANCH  44  45
ATOM     45  C   UNL A   1      44.869  25.561  27.255  1.00  0.00     0.031 A 
ATOM     46  C   UNL A   1      44.101  26.487  28.181  1.00  0.00     0.074 A 
ATOM     47  C   UNL A   1      46.125  25.905  26.896  1.00  0.00     0.049 A 
ATOM     48  N   UNL A   1      44.392  27.709  28.562  1.00  0.00    -0.248 NA
ATOM     49  C   UNL A   1      42.847  25.975  28.761  1.00  0.00     0.031 C 
ATOM     50  C   UNL A   1      47.035  25.088  26.091  1.00  0.00     0.029 A 
ATOM     51  N   UNL A   1      46.862  27.035  27.173  1.00  0.00    -0.354 N 
ATOM     52  C   UNL A   1      43.348  28.118  29.388  1.00  0.00     0.074 A 
ATOM     53  C   UNL A   1      42.409  27.019  29.451  1.00  0.00     0.031 C 
ATOM     54  C   UNL A   1      48.213  25.718  25.977  1.00  0.00     0.029 A 
ATOM     55  C   UNL A   1      48.113  27.032  26.599  1.00  0.00     0.049 A 
ATOM     56  H   UNL A   1      46.524  27.774  27.728  1.00  0.00     0.167 HD
ATOM     57  C   UNL A   1      43.177  29.299  30.030  1.00  0.00     0.031 A 
ATOM     58  C   UNL A   1      49.057  27.992  26.521  1.00  0.00     0.031 A 
ATOM     59  C   UNL A   1      44.103  30.402  29.968  1.00  0.00     0.049 A 
ATOM     60  C   UNL A   1      48.786  29.338  27.135  1.00  0.00     0.074 A 
ATOM     61  C   UNL A   1      43.989  31.658  30.542  1.00  0.00     0.029 A 
ATOM     62  N   UNL A   1      45.314  30.384  29.295  1.00  0.00    -0.354 N 
ATOM     63  N   UNL A   1      47.754  29.733  27.841  1.00  0.00    -0.248 NA
ATOM     64  C   UNL A   1      49.803  30.376  26.921  1.00  0.00     0.031 C 
ATOM     65  C   UNL A   1      45.103  32.416  30.168  1.00  0.00     0.029 A 
ATOM     66  C   UNL A   1      45.943  31.612  29.418  1.00  0.00     0.049 A 
ATOM     67  H   UNL A   1      45.675  29.611  28.803  1.00  0.00     0.167 HD
ATOM     68  C   UNL A   1      48.004  31.061  28.164  1.00  0.00     0.074 A 
ATOM     69  C   UNL A   1      49.300  31.391  27.609  1.00  0.00     0.031 C 
ATOM     70  C   UNL A   1      47.226  31.936  28.850  1.00  0.00     0.031 A 
BRANCH  57  71
ATOM     71  C   UNL A   1      41.912  29.497  30.828  1.00  0.00    -0.014 A 
ATOM     72  C   UNL A   1      40.700  29.846  30.207  1.00  0.00     0.010 A 
ATOM     73  C   UNL A   1      41.922  29.246  32.213  1.00  0.00     0.010 A 
ATOM     74  C   UNL A   1      39.526  29.956  30.961  1.00  0.00     0.020 A 
ATOM     75  C   UNL A   1      40.747  29.332  32.965  1.00  0.00     0.020 A 
ATOM     76  C   UNL A   1      39.556  29.696  32.335  1.00  0.00     0.054 A 
BRANCH  76  77
ATOM     77  S   UNL A   1      38.007  29.798  33.276  1.00  0.00     0.124 S 
ATOM     78  O   UNL A   1      38.495  29.978  34.640  1.00  0.00    -0.237 OA
ATOM     79  O   UNL A   1      37.351  30.961  32.685  1.00  0.00    -0.237 OA
ATOM     80  O   UNL A   1      37.354  28.518  33.013  1.00  0.00    -0.744 OA
ENDBRANCH  76  77
ENDBRANCH  57  71
BRANCH  58  81
ATOM     81  C   UNL A   1      50.309  27.753  25.746  1.00  0.00    -0.014 A 
ATOM     82  C   UNL A   1      50.305  27.742  24.340  1.00  0.00     0.010 A 
ATOM     83  C   UNL A   1      51.517  27.497  26.424  1.00  0.00     0.010 A 
ATOM     84  C   UNL A   1      51.477  27.452  23.630  1.00  0.00     0.020 A 
ATOM     85  C   UNL A   1      52.697  27.249  25.719  1.00  0.00     0.020 A 
ATOM     86  C   UNL A   1      52.665  27.208  24.326  1.00  0.00     0.054 A 
BRANCH  86  87
ATOM     87  S   UNL A   1      54.179  26.859  23.391  1.00  0.00     0.124 S 
ATOM     88  O   UNL A   1      53.647  26.362  22.127  1.00  0.00    -0.237 OA
ATOM     89  O   UNL A   1      54.828  28.167  23.335  1.00  0.00    -0.237 OA
ATOM     90  O   UNL A   1      54.867  25.867  24.215  1.00  0.00    -0.744 OA
ENDBRANCH  86  87
ENDBRANCH  58  81
BRANCH  70  91
ATOM     91  C   UNL A   1      47.781  33.320  29.061  1.00  0.00    -0.014 A 
ATOM     92  C   UNL A   1      47.515  34.361  28.153  1.00  0.00     0.010 A 
ATOM     93  C   UNL A   1      48.597  33.577  30.178  1.00  0.00     0.010 A 
ATOM     94  C   UNL A   1      48.111  35.614  28.320  1.00  0.00     0.020 A 
ATOM     95  C   UNL A   1      49.169  34.838  30.367  1.00  0.00     0.020 A 
ATOM     96  C   UNL A   1      48.944  35.840  29.420  1.00  0.00     0.054 A 
BRANCH  96  97
ATOM     97  S   UNL A   1      49.726  37.466  29.607  1.00  0.00     0.124 S 
ATOM     98  O   UNL A   1      50.027  37.817  28.221  1.00  0.00    -0.237 OA
ATOM     99  O   UNL A   1      48.676  38.258  30.243  1.00  0.00    -0.237 OA
ATOM    100  O   UNL A   1      50.890  37.196  30.447  1.00  0.00    -0.744 OA
ENDBRANCH  96  97
ENDBRANCH  70  91
ENDBRANCH  44  45
ENDBRANCH  37  39
ENDBRANCH  36  37
ENDBRANCH  35  36
ENDBRANCH  34  35
ENDBRANCH  33  34
ENDBRANCH  32  33
ENDBRANCH   1  32
TORSDOF 24
ENDMDL
MODEL 3
REMARK VINA RESULT:      -9.7      2.270      8.736
REMARK SMILES Cc1ccnc(C(=O)c2[nH]c3ccc(C(C)(C)C)cc3c2CC(=O)OCCOCCOCCOC(=O)c2ccc(-c3c4nc(c(-c5ccc(S(=O)(=O)[O-])cc5)c5ccc([nH]5)c(-c5ccc(S(=O)(=O)[O-])cc5)c5nc(c(-c6ccc(S(=O)(=O)[O-])cc6)c6ccc3[nH]6)C=C5)C=C4)cc2)c1
REMARK SMILES IDX 29 1 28 2 27 3 26 4 25 5 23 6 24 7 22 8 21 9 9 10 10 11
REMARK SMILES IDX 11 12 20 14 12 15 19 16 13 17 14 18 7 19 8 20 6 21 1 22 2 23
REMARK SMILES IDX 3 24 97 25 4 26 5 27 15 28 16 29 17 30 18 31 30 32 31 33
REMARK SMILES IDX 32 34 33 35 34 36 35 37 36 38 37 39 38 40 96 41 39 42 95 43
REMARK SMILES IDX 40 44 41 45 42 46 89 47 43 48 94 49 88 50 90 51 44 52 93 53
REMARK SMILES IDX 87 54 86 55 45 57 75 58 56 59 74 60 57 61 60 62 73 63 91 64
REMARK SMILES IDX 58 65 59 66 72 68 92 69 61 70 46 71 47 72 55 73 48 74 54 75
REMARK SMILES IDX 49 76 50 77 51 78 52 79 53 80 76 81 77 82 85 83 78 84 84 85
REMARK SMILES IDX 79 86 80 87 81 88 82 89 83 90 62 91 63 92 71 93 64 94 70 95
REMARK SMILES IDX 65 96 66 97 67 98 68 99 69 100
REMARK H PARENT 10 13 90 56 60 67
REMARK Flexibility Score: inf
ROOT
ATOM      1  C   UNL A   1      35.101  22.441  26.037  1.00  0.00     0.188 C 
ENDROOT
BRANCH   1   2
ATOM      2  O   UNL A   1      33.678  22.452  25.994  1.00  0.00    -0.376 OA
BRANCH   2   3
ATOM      3  C   UNL A   1      33.049  22.186  24.749  1.00  0.00     0.202 C 
BRANCH   3   4
ATOM      4  C   UNL A   1      32.291  23.354  24.116  1.00  0.00     0.261 C 
BRANCH   4   5
ATOM      5  O   UNL A   1      33.079  24.564  24.092  1.00  0.00    -0.463 OA
BRANCH   5   6
ATOM      6  C   UNL A   1      32.772  25.481  25.044  1.00  0.00     0.310 C 
ATOM      7  O   UNL A   1      31.955  25.268  25.938  1.00  0.00    -0.252 OA
BRANCH   6   8
ATOM      8  C   UNL A   1      33.579  26.767  25.012  1.00  0.00     0.161 C 
BRANCH   8   9
ATOM      9  C   UNL A   1      32.900  28.099  25.241  1.00  0.00     0.000 A 
ATOM     10  C   UNL A   1      32.007  28.773  24.398  1.00  0.00     0.093 A 
ATOM     11  N   UNL A   1      31.631  29.930  25.046  1.00  0.00    -0.352 N 
ATOM     12  C   UNL A   1      32.542  30.218  26.030  1.00  0.00     0.046 A 
ATOM     13  H   UNL A   1      30.834  30.467  24.835  1.00  0.00     0.167 HD
ATOM     14  C   UNL A   1      33.325  29.082  26.194  1.00  0.00     0.004 A 
ATOM     15  C   UNL A   1      32.758  31.398  26.744  1.00  0.00     0.027 A 
ATOM     16  C   UNL A   1      34.400  29.137  27.096  1.00  0.00     0.015 A 
ATOM     17  C   UNL A   1      33.895  31.452  27.562  1.00  0.00     0.006 A 
ATOM     18  C   UNL A   1      34.751  30.351  27.723  1.00  0.00    -0.042 A 
BRANCH  10  19
ATOM     19  C   UNL A   1      31.547  28.385  23.079  1.00  0.00     0.227 C 
ATOM     20  O   UNL A   1      32.266  27.792  22.279  1.00  0.00    -0.285 OA
BRANCH  19  21
ATOM     21  C   UNL A   1      30.179  28.765  22.631  1.00  0.00     0.113 A 
ATOM     22  C   UNL A   1      26.574  28.169  23.596  1.00  0.00     0.044 C 
ATOM     23  C   UNL A   1      27.811  28.729  22.959  1.00  0.00    -0.047 A 
ATOM     24  C   UNL A   1      27.740  29.901  22.199  1.00  0.00     0.023 A 
ATOM     25  C   UNL A   1      29.065  28.158  23.199  1.00  0.00     0.036 A 
ATOM     26  C   UNL A   1      28.901  30.396  21.630  1.00  0.00     0.112 A 
ATOM     27  N   UNL A   1      30.114  29.829  21.798  1.00  0.00    -0.253 NA
ENDBRANCH  19  21
ENDBRANCH  10  19
BRANCH  18  28
ATOM     28  C   UNL A   1      36.098  30.433  28.458  1.00  0.00    -0.013 C 
ATOM     29  C   UNL A   1      37.248  30.161  27.468  1.00  0.00     0.016 C 
ATOM     30  C   UNL A   1      36.256  31.854  29.051  1.00  0.00     0.016 C 
ATOM     31  C   UNL A   1      36.234  29.438  29.628  1.00  0.00     0.016 C 
ENDBRANCH  18  28
ENDBRANCH   8   9
ENDBRANCH   6   8
ENDBRANCH   5   6
ENDBRANCH   4   5
ENDBRANCH   3   4
ENDBRANCH   2   3
ENDBRANCH   1   2
BRANCH   1  32
ATOM     32  C   UNL A   1      35.856  21.197  25.518  1.00  0.00     0.188 C 
BRANCH  32  33
ATOM     33  O   UNL A   1      37.034  21.367  24.740  1.00  0.00    -0.376 OA
BRANCH  33  34
ATOM     34  C   UNL A   1      38.230  20.792  25.247  1.00  0.00     0.202 C 
BRANCH  34  35
ATOM     35  C   UNL A   1      39.105  21.747  26.053  1.00  0.00     0.261 C 
BRANCH  35  36
ATOM     36  O   UNL A   1      39.979  21.029  26.947  1.00  0.00    -0.460 OA
BRANCH  36  37
ATOM     37  C   UNL A   1      41.131  20.614  26.370  1.00  0.00     0.338 C 
ATOM     38  O   UNL A   1      41.302  19.557  25.785  1.00  0.00    -0.246 OA
BRANCH  37  39
ATOM     39  C   UNL A   1      42.218  21.606  26.517  1.00  0.00     0.060 A 
ATOM     40  C   UNL A   1      42.876  21.756  27.732  1.00  0.00     0.016 A 
ATOM     41  C   UNL A   1      42.372  22.581  25.535  1.00  0.00     0.016 A 
ATOM     42  C   UNL A   1      43.523  22.958  28.036  1.00  0.00     0.010 A 
ATOM     43  C   UNL A   1      43.117  23.739  25.805  1.00  0.00     0.010 A 
ATOM     44  C   UNL A   1      43.629  23.986  27.090  1.00  0.00    -0.014 A 
BRANCH  44  45
ATOM     45  C   UNL A   1      44.164  25.333  27.472  1.00  0.00     0.031 A 
ATOM     46  C   UNL A   1      45.554  25.759  27.035  1.00  0.00     0.074 A 
ATOM     47  C   UNL A   1      43.403  26.219  28.151  1.00  0.00     0.049 A 
ATOM     48  N   UNL A   1      46.244  26.821  27.378  1.00  0.00    -0.248 NA
ATOM     49  C   UNL A   1      46.261  24.883  26.084  1.00  0.00     0.031 C 
ATOM     50  C   UNL A   1      42.014  26.009  28.564  1.00  0.00     0.029 A 
ATOM     51  N   UNL A   1      43.689  27.486  28.607  1.00  0.00    -0.354 N 
ATOM     52  C   UNL A   1      47.467  26.720  26.719  1.00  0.00     0.074 A 
ATOM     53  C   UNL A   1      47.433  25.491  25.959  1.00  0.00     0.031 C 
ATOM     54  C   UNL A   1      41.558  27.116  29.169  1.00  0.00     0.029 A 
ATOM     55  C   UNL A   1      42.649  28.074  29.292  1.00  0.00     0.049 A 
ATOM     56  H   UNL A   1      44.555  27.929  28.458  1.00  0.00     0.167 HD
ATOM     57  C   UNL A   1      48.526  27.566  26.747  1.00  0.00     0.031 A 
ATOM     58  C   UNL A   1      42.586  29.223  29.995  1.00  0.00     0.031 A 
ATOM     59  C   UNL A   1      48.572  28.789  27.507  1.00  0.00     0.049 A 
ATOM     60  C   UNL A   1      43.817  30.079  30.115  1.00  0.00     0.074 A 
ATOM     61  C   UNL A   1      49.623  29.683  27.639  1.00  0.00     0.029 A 
ATOM     62  N   UNL A   1      47.526  29.295  28.261  1.00  0.00    -0.354 N 
ATOM     63  N   UNL A   1      44.991  29.923  29.551  1.00  0.00    -0.248 NA
ATOM     64  C   UNL A   1      43.716  31.258  30.985  1.00  0.00     0.031 C 
ATOM     65  C   UNL A   1      49.230  30.698  28.519  1.00  0.00     0.029 A 
ATOM     66  C   UNL A   1      47.913  30.473  28.880  1.00  0.00     0.049 A 
ATOM     67  H   UNL A   1      46.637  28.879  28.344  1.00  0.00     0.167 HD
ATOM     68  C   UNL A   1      45.764  30.990  29.992  1.00  0.00     0.074 A 
ATOM     69  C   UNL A   1      44.915  31.804  30.836  1.00  0.00     0.031 C 
ATOM     70  C   UNL A   1      47.067  31.268  29.730  1.00  0.00     0.031 A 
BRANCH  57  71
ATOM     71  C   UNL A   1      49.761  27.182  25.969  1.00  0.00    -0.014 A 
ATOM     72  C   UNL A   1      49.919  27.540  24.619  1.00  0.00     0.010 A 
ATOM     73  C   UNL A   1      50.815  26.522  26.629  1.00  0.00     0.010 A 
ATOM     74  C   UNL A   1      51.103  27.232  23.940  1.00  0.00     0.020 A 
ATOM     75  C   UNL A   1      52.009  26.233  25.960  1.00  0.00     0.020 A 
ATOM     76  C   UNL A   1      52.142  26.582  24.615  1.00  0.00     0.054 A 
BRANCH  76  77
ATOM     77  S   UNL A   1      53.684  26.240  23.722  1.00  0.00     0.124 S 
ATOM     78  O   UNL A   1      53.190  25.873  22.398  1.00  0.00    -0.237 OA
ATOM     79  O   UNL A   1      54.386  27.519  23.797  1.00  0.00    -0.237 OA
ATOM     80  O   UNL A   1      54.294  25.153  24.483  1.00  0.00    -0.744 OA
ENDBRANCH  76  77
ENDBRANCH  57  71
BRANCH  58  81
ATOM     81  C   UNL A   1      41.339  29.585  30.731  1.00  0.00    -0.014 A 
ATOM     82  C   UNL A   1      40.386  30.452  30.168  1.00  0.00     0.010 A 
ATOM     83  C   UNL A   1      41.119  29.086  32.029  1.00  0.00     0.010 A 
ATOM     84  C   UNL A   1      39.253  30.831  30.898  1.00  0.00     0.020 A 
ATOM     85  C   UNL A   1      39.970  29.429  32.745  1.00  0.00     0.020 A 
ATOM     86  C   UNL A   1      39.054  30.316  32.182  1.00  0.00     0.054 A 
BRANCH  86  87
ATOM     87  S   UNL A   1      37.569  30.798  33.106  1.00  0.00     0.124 S 
ATOM     88  O   UNL A   1      37.090  31.941  32.335  1.00  0.00    -0.237 OA
ATOM     89  O   UNL A   1      36.745  29.595  33.035  1.00  0.00    -0.237 OA
ATOM     90  O   UNL A   1      38.084  31.112  34.437  1.00  0.00    -0.744 OA
ENDBRANCH  86  87
ENDBRANCH  58  81
BRANCH  70  91
ATOM     91  C   UNL A   1      47.631  32.523  30.342  1.00  0.00    -0.014 A 
ATOM     92  C   UNL A   1      47.527  33.766  29.688  1.00  0.00     0.010 A 
ATOM     93  C   UNL A   1      48.290  32.455  31.582  1.00  0.00     0.010 A 
ATOM     94  C   UNL A   1      48.133  34.901  30.231  1.00  0.00     0.020 A 
ATOM     95  C   UNL A   1      48.870  33.595  32.144  1.00  0.00     0.020 A 
ATOM     96  C   UNL A   1      48.812  34.806  31.449  1.00  0.00     0.054 A 
BRANCH  96  97
ATOM     97  S   UNL A   1      49.611  36.287  32.125  1.00  0.00     0.124 S 
ATOM     98  O   UNL A   1      48.822  37.358  31.522  1.00  0.00    -0.237 OA
ATOM     99  O   UNL A   1      49.442  36.116  33.567  1.00  0.00    -0.237 OA
ATOM    100  O   UNL A   1      50.989  36.185  31.649  1.00  0.00    -0.744 OA
ENDBRANCH  96  97
ENDBRANCH  70  91
ENDBRANCH  44  45
ENDBRANCH  37  39
ENDBRANCH  36  37
ENDBRANCH  35  36
ENDBRANCH  34  35
ENDBRANCH  33  34
ENDBRANCH  32  33
ENDBRANCH   1  32
TORSDOF 24
ENDMDL
