MODEL 1
REMARK VINA RESULT:     -10.6      0.000      0.000
REMARK SMILES Cc1ccc(S(=O)(=O)Nc2cc(C(=O)OCCOCCOCCOC(=O)c3ccc(-c4c5nc(c(-c6ccc(S(=O)(=O)[O-])cc6)c6ccc([nH]6)c(-c6ccc(S(=O)(=O)[O-])cc6)c6nc(c(-c7ccc(S(=O)(=O)[O-])cc7)c7ccc4[nH]7)C=C6)C=C5)cc3)ccc2C)c(Br)c1
REMARK SMILES IDX 19 1 18 2 17 3 16 4 15 5 13 6 14 7 12 8 10 9 11 10 89 11
REMARK SMILES IDX 88 12 90 13 87 14 9 15 6 17 7 18 8 19 5 20 1 21 2 22 3 23
REMARK SMILES IDX 93 24 4 25 91 26 92 27 20 28 21 29 22 30 23 31 24 32 25 33
REMARK SMILES IDX 26 34 27 35 28 36 86 37 29 38 85 39 30 40 31 41 32 42 79 43
REMARK SMILES IDX 33 44 84 45 78 46 80 47 34 48 83 49 77 50 76 51 35 53 65 54
REMARK SMILES IDX 46 55 64 56 47 57 50 58 63 59 81 60 48 61 49 62 62 64 82 65
REMARK SMILES IDX 51 66 36 67 37 68 45 69 38 70 44 71 39 72 40 73 41 74 42 75
REMARK SMILES IDX 43 76 66 77 67 78 75 79 68 80 74 81 69 82 70 83 71 84 72 85
REMARK SMILES IDX 73 86 52 87 53 88 61 89 54 90 60 91 55 92 56 93 57 94 58 95
REMARK SMILES IDX 59 96
REMARK H PARENT 9 16 80 52 50 63
REMARK Flexibility Score: inf
ROOT
ATOM      1  C   UNL A   1      34.886  31.885  27.794  1.00  0.00     0.188 C 
ENDROOT
BRANCH   1   2
ATOM      2  O   UNL A   1      33.492  31.585  27.551  1.00  0.00    -0.376 OA
BRANCH   2   3
ATOM      3  C   UNL A   1      32.821  30.345  27.204  1.00  0.00     0.202 C 
BRANCH   3   4
ATOM      4  C   UNL A   1      33.315  28.666  26.798  1.00  0.00     0.261 C 
BRANCH   4   5
ATOM      5  O   UNL A   1      32.796  27.490  25.628  1.00  0.00    -0.460 OA
BRANCH   5   6
ATOM      6  C   UNL A   1      33.352  26.401  24.865  1.00  0.00     0.338 C 
ATOM      7  O   UNL A   1      33.911  26.441  23.760  1.00  0.00    -0.246 OA
BRANCH   6   8
ATOM      8  C   UNL A   1      33.306  24.976  25.214  1.00  0.00     0.062 A 
ATOM      9  C   UNL A   1      34.692  23.281  26.162  1.00  0.00     0.053 A 
ATOM     10  C   UNL A   1      34.502  24.290  25.208  1.00  0.00     0.042 A 
ATOM     11  C   UNL A   1      33.643  22.806  26.985  1.00  0.00    -0.027 A 
ATOM     12  C   UNL A   1      32.436  23.493  26.984  1.00  0.00     0.006 A 
ATOM     13  C   UNL A   1      33.803  21.673  27.963  1.00  0.00     0.046 C 
ATOM     14  C   UNL A   1      32.290  24.589  26.141  1.00  0.00     0.016 A 
BRANCH   9  15
ATOM     15  N   UNL A   1      36.012  22.779  26.414  1.00  0.00    -0.279 N 
ATOM     16  H   UNL A   1      36.357  22.717  27.334  1.00  0.00     0.180 HD
BRANCH  15  17
ATOM     17  S   UNL A   1      36.989  22.284  25.077  1.00  0.00     0.263 S 
ATOM     18  O   UNL A   1      37.162  23.555  24.358  1.00  0.00    -0.201 OA
ATOM     19  O   UNL A   1      36.323  21.180  24.471  1.00  0.00    -0.201 OA
BRANCH  17  20
ATOM     20  C   UNL A   1      38.600  21.763  25.616  1.00  0.00     0.101 A 
ATOM     21  C   UNL A   1      41.744  19.965  27.890  1.00  0.00     0.044 C 
ATOM     22  C   UNL A   1      40.755  20.655  27.008  1.00  0.00    -0.050 A 
ATOM     23  C   UNL A   1      40.144  19.940  25.982  1.00  0.00     0.005 A 
ATOM     24  C   UNL A   1      40.417  22.000  27.198  1.00  0.00     0.020 A 
ATOM     25  C   UNL A   1      39.091  20.504  25.268  1.00  0.00     0.024 A 
ATOM     26  C   UNL A   1      39.341  22.557  26.496  1.00  0.00     0.038 A 
ATOM     27  Br  UNL A   1      39.042  24.421  26.703  1.00  0.00    -0.049 Br
ENDBRANCH  17  20
ENDBRANCH  15  17
ENDBRANCH   9  15
ENDBRANCH   6   8
ENDBRANCH   5   6
ENDBRANCH   4   5
ENDBRANCH   3   4
ENDBRANCH   2   3
ENDBRANCH   1   2
BRANCH   1  28
ATOM     28  C   UNL A   1      35.356  33.142  28.493  1.00  0.00     0.188 C 
BRANCH  28  29
ATOM     29  O   UNL A   1      34.482  33.396  29.564  1.00  0.00    -0.376 OA
BRANCH  29  30
ATOM     30  C   UNL A   1      35.062  33.565  30.828  1.00  0.00     0.202 C 
BRANCH  30  31
ATOM     31  C   UNL A   1      35.128  32.286  31.677  1.00  0.00     0.261 C 
BRANCH  31  32
ATOM     32  O   UNL A   1      36.382  31.564  31.538  1.00  0.00    -0.460 OA
BRANCH  32  33
ATOM     33  C   UNL A   1      36.376  30.300  30.964  1.00  0.00     0.338 C 
ATOM     34  O   UNL A   1      35.401  29.857  30.388  1.00  0.00    -0.246 OA
BRANCH  33  35
ATOM     35  C   UNL A   1      37.755  29.687  31.005  1.00  0.00     0.060 A 
ATOM     36  C   UNL A   1      38.936  30.113  31.630  1.00  0.00     0.016 A 
ATOM     37  C   UNL A   1      37.932  28.699  30.120  1.00  0.00     0.016 A 
ATOM     38  C   UNL A   1      40.296  29.715  31.163  1.00  0.00     0.010 A 
ATOM     39  C   UNL A   1      39.198  28.642  29.543  1.00  0.00     0.010 A 
ATOM     40  C   UNL A   1      40.514  28.976  29.996  1.00  0.00    -0.014 A 
BRANCH  40  41
ATOM     41  C   UNL A   1      42.018  28.564  29.177  1.00  0.00     0.031 A 
ATOM     42  C   UNL A   1      42.654  27.078  28.478  1.00  0.00     0.074 A 
ATOM     43  C   UNL A   1      42.845  29.592  28.875  1.00  0.00     0.049 A 
ATOM     44  N   UNL A   1      43.508  27.003  27.463  1.00  0.00    -0.248 NA
ATOM     45  C   UNL A   1      42.255  25.634  28.718  1.00  0.00     0.031 C 
ATOM     46  C   UNL A   1      43.950  29.656  27.909  1.00  0.00     0.029 A 
ATOM     47  N   UNL A   1      42.864  30.862  29.442  1.00  0.00    -0.354 N 
ATOM     48  C   UNL A   1      43.616  25.667  27.052  1.00  0.00     0.074 A 
ATOM     49  C   UNL A   1      42.460  25.042  27.553  1.00  0.00     0.031 C 
ATOM     50  C   UNL A   1      44.712  30.725  28.175  1.00  0.00     0.029 A 
ATOM     51  C   UNL A   1      44.194  31.295  29.395  1.00  0.00     0.049 A 
ATOM     52  H   UNL A   1      42.094  31.358  29.806  1.00  0.00     0.167 HD
ATOM     53  C   UNL A   1      44.736  24.976  26.671  1.00  0.00     0.031 A 
ATOM     54  C   UNL A   1      44.863  31.401  30.569  1.00  0.00     0.031 A 
ATOM     55  C   UNL A   1      45.903  25.814  26.840  1.00  0.00     0.049 A 
ATOM     56  C   UNL A   1      45.983  30.384  30.639  1.00  0.00     0.074 A 
ATOM     57  C   UNL A   1      46.355  26.925  26.154  1.00  0.00     0.029 A 
ATOM     58  N   UNL A   1      46.504  25.862  28.095  1.00  0.00    -0.354 N 
ATOM     59  N   UNL A   1      46.087  29.290  29.916  1.00  0.00    -0.248 NA
ATOM     60  C   UNL A   1      47.157  30.627  31.461  1.00  0.00     0.031 C 
ATOM     61  C   UNL A   1      47.062  27.739  27.088  1.00  0.00     0.029 A 
ATOM     62  C   UNL A   1      47.113  27.095  28.319  1.00  0.00     0.049 A 
ATOM     63  H   UNL A   1      46.499  25.120  28.741  1.00  0.00     0.167 HD
ATOM     64  C   UNL A   1      47.295  28.684  30.161  1.00  0.00     0.074 A 
ATOM     65  C   UNL A   1      47.941  29.605  31.087  1.00  0.00     0.031 C 
ATOM     66  C   UNL A   1      47.697  27.481  29.623  1.00  0.00     0.031 A 
BRANCH  53  67
ATOM     67  C   UNL A   1      44.717  23.488  26.222  1.00  0.00    -0.014 A 
ATOM     68  C   UNL A   1      45.862  22.685  26.341  1.00  0.00     0.010 A 
ATOM     69  C   UNL A   1      43.626  22.835  25.593  1.00  0.00     0.010 A 
ATOM     70  C   UNL A   1      45.944  21.391  25.751  1.00  0.00     0.020 A 
ATOM     71  C   UNL A   1      43.706  21.593  24.936  1.00  0.00     0.020 A 
ATOM     72  C   UNL A   1      44.883  20.878  24.999  1.00  0.00     0.054 A 
BRANCH  72  73
ATOM     73  S   UNL A   1      45.038  19.299  24.112  1.00  0.00     0.124 S 
ATOM     74  O   UNL A   1      46.487  19.152  23.989  1.00  0.00    -0.237 OA
ATOM     75  O   UNL A   1      44.384  18.358  25.015  1.00  0.00    -0.237 OA
ATOM     76  O   UNL A   1      44.341  19.532  22.848  1.00  0.00    -0.744 OA
ENDBRANCH  72  73
ENDBRANCH  53  67
BRANCH  54  77
ATOM     77  C   UNL A   1      43.997  32.021  31.635  1.00  0.00    -0.014 A 
ATOM     78  C   UNL A   1      43.522  33.332  31.344  1.00  0.00     0.010 A 
ATOM     79  C   UNL A   1      43.299  31.284  32.607  1.00  0.00     0.010 A 
ATOM     80  C   UNL A   1      42.304  33.806  31.844  1.00  0.00     0.020 A 
ATOM     81  C   UNL A   1      42.098  31.791  33.167  1.00  0.00     0.020 A 
ATOM     82  C   UNL A   1      41.576  33.015  32.722  1.00  0.00     0.054 A 
BRANCH  82  83
ATOM     83  S   UNL A   1      39.867  33.537  33.088  1.00  0.00     0.124 S 
ATOM     84  O   UNL A   1      40.062  34.780  33.825  1.00  0.00    -0.237 OA
ATOM     85  O   UNL A   1      39.304  33.691  31.744  1.00  0.00    -0.237 OA
ATOM     86  O   UNL A   1      39.332  32.424  33.868  1.00  0.00    -0.744 OA
ENDBRANCH  82  83
ENDBRANCH  54  77
BRANCH  66  87
ATOM     87  C   UNL A   1      48.744  26.599  30.315  1.00  0.00    -0.014 A 
ATOM     88  C   UNL A   1      50.113  26.617  29.983  1.00  0.00     0.010 A 
ATOM     89  C   UNL A   1      48.410  25.798  31.432  1.00  0.00     0.010 A 
ATOM     90  C   UNL A   1      51.061  25.806  30.611  1.00  0.00     0.020 A 
ATOM     91  C   UNL A   1      49.368  25.044  32.134  1.00  0.00     0.020 A 
ATOM     92  C   UNL A   1      50.682  25.016  31.684  1.00  0.00     0.054 A 
BRANCH  92  93
ATOM     93  S   UNL A   1      51.945  24.000  32.482  1.00  0.00     0.124 S 
ATOM     94  O   UNL A   1      53.159  24.452  31.807  1.00  0.00    -0.237 OA
ATOM     95  O   UNL A   1      51.831  24.390  33.886  1.00  0.00    -0.237 OA
ATOM     96  O   UNL A   1      51.530  22.633  32.183  1.00  0.00    -0.744 OA
ENDBRANCH  92  93
ENDBRANCH  66  87
ENDBRANCH  40  41
ENDBRANCH  33  35
ENDBRANCH  32  33
ENDBRANCH  31  32
ENDBRANCH  30  31
ENDBRANCH  29  30
ENDBRANCH  28  29
ENDBRANCH   1  28
TORSDOF 23
ENDMDL
MODEL 2
REMARK VINA RESULT:      -9.9      6.795     12.289
REMARK SMILES Cc1ccc(S(=O)(=O)Nc2cc(C(=O)OCCOCCOCCOC(=O)c3ccc(-c4c5nc(c(-c6ccc(S(=O)(=O)[O-])cc6)c6ccc([nH]6)c(-c6ccc(S(=O)(=O)[O-])cc6)c6nc(c(-c7ccc(S(=O)(=O)[O-])cc7)c7ccc4[nH]7)C=C6)C=C5)cc3)ccc2C)c(Br)c1
REMARK SMILES IDX 19 1 18 2 17 3 16 4 15 5 13 6 14 7 12 8 10 9 11 10 89 11
REMARK SMILES IDX 88 12 90 13 87 14 9 15 6 17 7 18 8 19 5 20 1 21 2 22 3 23
REMARK SMILES IDX 93 24 4 25 91 26 92 27 20 28 21 29 22 30 23 31 24 32 25 33
REMARK SMILES IDX 26 34 27 35 28 36 86 37 29 38 85 39 30 40 31 41 32 42 79 43
REMARK SMILES IDX 33 44 84 45 78 46 80 47 34 48 83 49 77 50 76 51 35 53 65 54
REMARK SMILES IDX 46 55 64 56 47 57 50 58 63 59 81 60 48 61 49 62 62 64 82 65
REMARK SMILES IDX 51 66 36 67 37 68 45 69 38 70 44 71 39 72 40 73 41 74 42 75
REMARK SMILES IDX 43 76 66 77 67 78 75 79 68 80 74 81 69 82 70 83 71 84 72 85
REMARK SMILES IDX 73 86 52 87 53 88 61 89 54 90 60 91 55 92 56 93 57 94 58 95
REMARK SMILES IDX 59 96
REMARK H PARENT 9 16 80 52 50 63
REMARK Flexibility Score: inf
ROOT
ATOM      1  C   UNL A   1      33.826  34.961  30.877  1.00  0.00     0.188 C 
ENDROOT
BRANCH   1   2
ATOM      2  O   UNL A   1      33.914  33.519  30.816  1.00  0.00    -0.376 OA
BRANCH   2   3
ATOM      3  C   UNL A   1      34.547  32.634  29.856  1.00  0.00     0.202 C 
BRANCH   3   4
ATOM      4  C   UNL A   1      34.164  31.999  28.219  1.00  0.00     0.261 C 
BRANCH   4   5
ATOM      5  O   UNL A   1      33.368  30.575  27.617  1.00  0.00    -0.460 OA
BRANCH   5   6
ATOM      6  C   UNL A   1      33.586  29.547  26.630  1.00  0.00     0.338 C 
ATOM      7  O   UNL A   1      34.408  28.621  26.652  1.00  0.00    -0.246 OA
BRANCH   6   8
ATOM      8  C   UNL A   1      32.911  29.424  25.333  1.00  0.00     0.062 A 
ATOM      9  C   UNL A   1      32.117  27.742  23.838  1.00  0.00     0.053 A 
ATOM     10  C   UNL A   1      33.161  28.282  24.602  1.00  0.00     0.042 A 
ATOM     11  C   UNL A   1      30.896  28.427  23.627  1.00  0.00    -0.027 A 
ATOM     12  C   UNL A   1      30.649  29.582  24.359  1.00  0.00     0.006 A 
ATOM     13  C   UNL A   1      29.791  27.903  22.751  1.00  0.00     0.046 C 
ATOM     14  C   UNL A   1      31.628  30.045  25.231  1.00  0.00     0.016 A 
BRANCH   9  15
ATOM     15  N   UNL A   1      32.220  26.401  23.340  1.00  0.00    -0.279 N 
ATOM     16  H   UNL A   1      32.688  26.216  22.494  1.00  0.00     0.180 HD
BRANCH  15  17
ATOM     17  S   UNL A   1      31.509  25.113  24.247  1.00  0.00     0.263 S 
ATOM     18  O   UNL A   1      30.233  24.931  23.541  1.00  0.00    -0.201 OA
ATOM     19  O   UNL A   1      31.544  25.511  25.615  1.00  0.00    -0.201 OA
BRANCH  17  20
ATOM     20  C   UNL A   1      32.433  23.608  24.059  1.00  0.00     0.101 A 
ATOM     21  C   UNL A   1      33.912  19.640  24.663  1.00  0.00     0.044 C 
ATOM     22  C   UNL A   1      33.503  21.041  24.344  1.00  0.00    -0.050 A 
ATOM     23  C   UNL A   1      32.423  21.258  23.493  1.00  0.00     0.005 A 
ATOM     24  C   UNL A   1      34.171  22.142  24.892  1.00  0.00     0.020 A 
ATOM     25  C   UNL A   1      31.909  22.541  23.328  1.00  0.00     0.024 A 
ATOM     26  C   UNL A   1      33.639  23.429  24.744  1.00  0.00     0.038 A 
ATOM     27  Br  UNL A   1      34.681  24.879  25.392  1.00  0.00    -0.049 Br
ENDBRANCH  17  20
ENDBRANCH  15  17
ENDBRANCH   9  15
ENDBRANCH   6   8
ENDBRANCH   5   6
ENDBRANCH   4   5
ENDBRANCH   3   4
ENDBRANCH   2   3
ENDBRANCH   1   2
BRANCH   1  28
ATOM     28  C   UNL A   1      33.814  35.739  32.176  1.00  0.00     0.188 C 
BRANCH  28  29
ATOM     29  O   UNL A   1      34.291  34.893  33.192  1.00  0.00    -0.376 OA
BRANCH  29  30
ATOM     30  C   UNL A   1      35.670  34.907  33.432  1.00  0.00     0.202 C 
BRANCH  30  31
ATOM     31  C   UNL A   1      36.154  33.852  34.439  1.00  0.00     0.261 C 
BRANCH  31  32
ATOM     32  O   UNL A   1      36.966  34.405  35.510  1.00  0.00    -0.460 OA
BRANCH  32  33
ATOM     33  C   UNL A   1      37.701  33.546  36.316  1.00  0.00     0.338 C 
ATOM     34  O   UNL A   1      37.178  32.657  36.959  1.00  0.00    -0.246 OA
BRANCH  33  35
ATOM     35  C   UNL A   1      39.183  33.765  36.122  1.00  0.00     0.060 A 
ATOM     36  C   UNL A   1      40.105  34.537  36.845  1.00  0.00     0.016 A 
ATOM     37  C   UNL A   1      39.641  33.334  34.941  1.00  0.00     0.016 A 
ATOM     38  C   UNL A   1      41.365  35.070  36.253  1.00  0.00     0.010 A 
ATOM     39  C   UNL A   1      40.635  34.124  34.369  1.00  0.00     0.010 A 
ATOM     40  C   UNL A   1      41.682  34.944  34.896  1.00  0.00    -0.014 A 
BRANCH  40  41
ATOM     41  C   UNL A   1      43.004  35.646  33.969  1.00  0.00     0.031 A 
ATOM     42  C   UNL A   1      43.757  37.238  33.937  1.00  0.00     0.074 A 
ATOM     43  C   UNL A   1      43.717  34.796  33.192  1.00  0.00     0.049 A 
ATOM     44  N   UNL A   1      45.021  37.491  33.617  1.00  0.00    -0.248 NA
ATOM     45  C   UNL A   1      43.236  38.577  34.424  1.00  0.00     0.031 C 
ATOM     46  C   UNL A   1      45.055  34.958  32.606  1.00  0.00     0.029 A 
ATOM     47  N   UNL A   1      43.334  33.542  32.731  1.00  0.00    -0.354 N 
ATOM     48  C   UNL A   1      45.309  38.831  33.910  1.00  0.00     0.074 A 
ATOM     49  C   UNL A   1      44.320  39.219  34.830  1.00  0.00     0.031 C 
ATOM     50  C   UNL A   1      45.230  34.046  31.640  1.00  0.00     0.029 A 
ATOM     51  C   UNL A   1      43.966  33.366  31.495  1.00  0.00     0.049 A 
ATOM     52  H   UNL A   1      42.735  32.904  33.183  1.00  0.00     0.167 HD
ATOM     53  C   UNL A   1      46.050  39.726  33.184  1.00  0.00     0.031 A 
ATOM     54  C   UNL A   1      43.189  33.365  30.384  1.00  0.00     0.031 A 
ATOM     55  C   UNL A   1      46.459  39.118  31.936  1.00  0.00     0.049 A 
ATOM     56  C   UNL A   1      43.489  34.572  29.520  1.00  0.00     0.074 A 
ATOM     57  C   UNL A   1      47.373  38.125  31.644  1.00  0.00     0.029 A 
ATOM     58  N   UNL A   1      45.574  39.159  30.862  1.00  0.00    -0.354 N 
ATOM     59  N   UNL A   1      44.082  35.680  29.910  1.00  0.00    -0.248 NA
ATOM     60  C   UNL A   1      43.251  34.537  28.087  1.00  0.00     0.031 C 
ATOM     61  C   UNL A   1      46.897  37.440  30.487  1.00  0.00     0.029 A 
ATOM     62  C   UNL A   1      45.740  38.058  30.025  1.00  0.00     0.049 A 
ATOM     63  H   UNL A   1      44.915  39.875  30.713  1.00  0.00     0.167 HD
ATOM     64  C   UNL A   1      44.300  36.496  28.827  1.00  0.00     0.074 A 
ATOM     65  C   UNL A   1      43.816  35.694  27.711  1.00  0.00     0.031 C 
ATOM     66  C   UNL A   1      44.837  37.763  28.891  1.00  0.00     0.031 A 
BRANCH  53  67
ATOM     67  C   UNL A   1      46.306  41.192  33.631  1.00  0.00    -0.014 A 
ATOM     68  C   UNL A   1      47.466  41.537  34.344  1.00  0.00     0.010 A 
ATOM     69  C   UNL A   1      45.402  42.273  33.458  1.00  0.00     0.010 A 
ATOM     70  C   UNL A   1      47.632  42.815  34.948  1.00  0.00     0.020 A 
ATOM     71  C   UNL A   1      45.506  43.517  34.108  1.00  0.00     0.020 A 
ATOM     72  C   UNL A   1      46.621  43.778  34.876  1.00  0.00     0.054 A 
BRANCH  72  73
ATOM     73  S   UNL A   1      46.758  45.352  35.776  1.00  0.00     0.124 S 
ATOM     74  O   UNL A   1      46.408  44.962  37.140  1.00  0.00    -0.237 OA
ATOM     75  O   UNL A   1      48.153  45.722  35.565  1.00  0.00    -0.237 OA
ATOM     76  O   UNL A   1      45.781  46.221  35.121  1.00  0.00    -0.744 OA
ENDBRANCH  72  73
ENDBRANCH  53  67
BRANCH  54  77
ATOM     77  C   UNL A   1      41.925  32.574  30.606  1.00  0.00    -0.014 A 
ATOM     78  C   UNL A   1      40.715  33.282  30.356  1.00  0.00     0.010 A 
ATOM     79  C   UNL A   1      41.864  31.170  30.592  1.00  0.00     0.010 A 
ATOM     80  C   UNL A   1      39.555  32.634  29.918  1.00  0.00     0.020 A 
ATOM     81  C   UNL A   1      40.669  30.507  30.214  1.00  0.00     0.020 A 
ATOM     82  C   UNL A   1      39.550  31.250  29.809  1.00  0.00     0.054 A 
BRANCH  82  83
ATOM     83  S   UNL A   1      38.137  30.490  28.941  1.00  0.00     0.124 S 
ATOM     84  O   UNL A   1      38.788  29.623  27.966  1.00  0.00    -0.237 OA
ATOM     85  O   UNL A   1      37.450  29.796  30.033  1.00  0.00    -0.237 OA
ATOM     86  O   UNL A   1      37.426  31.637  28.382  1.00  0.00    -0.744 OA
ENDBRANCH  82  83
ENDBRANCH  54  77
BRANCH  66  87
ATOM     87  C   UNL A   1      44.557  38.811  27.807  1.00  0.00    -0.014 A 
ATOM     88  C   UNL A   1      43.329  39.492  27.688  1.00  0.00     0.010 A 
ATOM     89  C   UNL A   1      45.574  39.256  26.931  1.00  0.00     0.010 A 
ATOM     90  C   UNL A   1      43.075  40.440  26.694  1.00  0.00     0.020 A 
ATOM     91  C   UNL A   1      45.363  40.274  25.983  1.00  0.00     0.020 A 
ATOM     92  C   UNL A   1      44.095  40.824  25.839  1.00  0.00     0.054 A 
BRANCH  92  93
ATOM     93  S   UNL A   1      43.731  42.071  24.583  1.00  0.00     0.124 S 
ATOM     94  O   UNL A   1      44.813  41.852  23.627  1.00  0.00    -0.237 OA
ATOM     95  O   UNL A   1      42.401  41.679  24.118  1.00  0.00    -0.237 OA
ATOM     96  O   UNL A   1      43.783  43.330  25.318  1.00  0.00    -0.744 OA
ENDBRANCH  92  93
ENDBRANCH  66  87
ENDBRANCH  40  41
ENDBRANCH  33  35
ENDBRANCH  32  33
ENDBRANCH  31  32
ENDBRANCH  30  31
ENDBRANCH  29  30
ENDBRANCH  28  29
ENDBRANCH   1  28
TORSDOF 23
ENDMDL
MODEL 3
REMARK VINA RESULT:      -9.9      2.265      4.072
REMARK SMILES Cc1ccc(S(=O)(=O)Nc2cc(C(=O)OCCOCCOCCOC(=O)c3ccc(-c4c5nc(c(-c6ccc(S(=O)(=O)[O-])cc6)c6ccc([nH]6)c(-c6ccc(S(=O)(=O)[O-])cc6)c6nc(c(-c7ccc(S(=O)(=O)[O-])cc7)c7ccc4[nH]7)C=C6)C=C5)cc3)ccc2C)c(Br)c1
REMARK SMILES IDX 19 1 18 2 17 3 16 4 15 5 13 6 14 7 12 8 10 9 11 10 89 11
REMARK SMILES IDX 88 12 90 13 87 14 9 15 6 17 7 18 8 19 5 20 1 21 2 22 3 23
REMARK SMILES IDX 93 24 4 25 91 26 92 27 20 28 21 29 22 30 23 31 24 32 25 33
REMARK SMILES IDX 26 34 27 35 28 36 86 37 29 38 85 39 30 40 31 41 32 42 79 43
REMARK SMILES IDX 33 44 84 45 78 46 80 47 34 48 83 49 77 50 76 51 35 53 65 54
REMARK SMILES IDX 46 55 64 56 47 57 50 58 63 59 81 60 48 61 49 62 62 64 82 65
REMARK SMILES IDX 51 66 36 67 37 68 45 69 38 70 44 71 39 72 40 73 41 74 42 75
REMARK SMILES IDX 43 76 66 77 67 78 75 79 68 80 74 81 69 82 70 83 71 84 72 85
REMARK SMILES IDX 73 86 52 87 53 88 61 89 54 90 60 91 55 92 56 93 57 94 58 95
REMARK SMILES IDX 59 96
REMARK H PARENT 9 16 80 52 50 63
REMARK Flexibility Score: inf
ROOT
ATOM      1  C   UNL A   1      37.906  29.120  31.060  1.00  0.00     0.188 C 
ENDROOT
BRANCH   1   2
ATOM      2  O   UNL A   1      37.334  29.489  29.785  1.00  0.00    -0.376 OA
BRANCH   2   3
ATOM      3  C   UNL A   1      37.738  29.183  28.424  1.00  0.00     0.202 C 
BRANCH   3   4
ATOM      4  C   UNL A   1      39.211  28.547  27.614  1.00  0.00     0.261 C 
BRANCH   4   5
ATOM      5  O   UNL A   1      40.060  27.031  27.638  1.00  0.00    -0.460 OA
BRANCH   5   6
ATOM      6  C   UNL A   1      40.376  25.951  26.739  1.00  0.00     0.338 C 
ATOM      7  O   UNL A   1      40.691  26.012  25.542  1.00  0.00    -0.246 OA
BRANCH   6   8
ATOM      8  C   UNL A   1      40.319  24.515  27.041  1.00  0.00     0.062 A 
ATOM      9  C   UNL A   1      39.010  22.589  26.523  1.00  0.00     0.053 A 
ATOM     10  C   UNL A   1      39.081  23.912  26.983  1.00  0.00     0.042 A 
ATOM     11  C   UNL A   1      40.161  21.794  26.315  1.00  0.00    -0.027 A 
ATOM     12  C   UNL A   1      41.409  22.403  26.381  1.00  0.00     0.006 A 
ATOM     13  C   UNL A   1      40.108  20.350  25.894  1.00  0.00     0.046 C 
ATOM     14  C   UNL A   1      41.478  23.754  26.696  1.00  0.00     0.016 A 
BRANCH   9  15
ATOM     15  N   UNL A   1      37.744  22.039  26.131  1.00  0.00    -0.279 N 
ATOM     16  H   UNL A   1      37.508  21.112  26.362  1.00  0.00     0.180 HD
BRANCH  15  17
ATOM     17  S   UNL A   1      36.638  23.031  25.247  1.00  0.00     0.263 S 
ATOM     18  O   UNL A   1      37.328  23.155  23.955  1.00  0.00    -0.201 OA
ATOM     19  O   UNL A   1      36.380  24.175  26.056  1.00  0.00    -0.201 OA
BRANCH  17  20
ATOM     20  C   UNL A   1      35.109  22.179  24.946  1.00  0.00     0.101 A 
ATOM     21  C   UNL A   1      32.162  19.589  23.242  1.00  0.00     0.044 C 
ATOM     22  C   UNL A   1      33.080  20.547  23.928  1.00  0.00    -0.050 A 
ATOM     23  C   UNL A   1      33.894  20.090  24.961  1.00  0.00     0.005 A 
ATOM     24  C   UNL A   1      33.153  21.892  23.548  1.00  0.00     0.020 A 
ATOM     25  C   UNL A   1      34.884  20.913  25.489  1.00  0.00     0.024 A 
ATOM     26  C   UNL A   1      34.166  22.712  24.063  1.00  0.00     0.038 A 
ATOM     27  Br  UNL A   1      34.105  24.555  23.609  1.00  0.00    -0.049 Br
ENDBRANCH  17  20
ENDBRANCH  15  17
ENDBRANCH   9  15
ENDBRANCH   6   8
ENDBRANCH   5   6
ENDBRANCH   4   5
ENDBRANCH   3   4
ENDBRANCH   2   3
ENDBRANCH   1   2
BRANCH   1  28
ATOM     28  C   UNL A   1      37.299  29.515  32.389  1.00  0.00     0.188 C 
BRANCH  28  29
ATOM     29  O   UNL A   1      36.165  30.304  32.130  1.00  0.00    -0.376 OA
BRANCH  29  30
ATOM     30  C   UNL A   1      36.218  31.642  32.540  1.00  0.00     0.202 C 
BRANCH  30  31
ATOM     31  C   UNL A   1      37.412  31.985  33.447  1.00  0.00     0.261 C 
BRANCH  31  32
ATOM     32  O   UNL A   1      37.945  33.318  33.219  1.00  0.00    -0.460 OA
BRANCH  32  33
ATOM     33  C   UNL A   1      38.819  33.527  32.161  1.00  0.00     0.338 C 
ATOM     34  O   UNL A   1      38.896  34.596  31.587  1.00  0.00    -0.246 OA
BRANCH  33  35
ATOM     35  C   UNL A   1      39.732  32.339  31.979  1.00  0.00     0.060 A 
ATOM     36  C   UNL A   1      40.648  31.735  32.854  1.00  0.00     0.016 A 
ATOM     37  C   UNL A   1      39.850  31.938  30.707  1.00  0.00     0.016 A 
ATOM     38  C   UNL A   1      41.822  30.943  32.389  1.00  0.00     0.010 A 
ATOM     39  C   UNL A   1      41.116  31.490  30.343  1.00  0.00     0.010 A 
ATOM     40  C   UNL A   1      42.177  30.828  31.040  1.00  0.00    -0.014 A 
BRANCH  40  41
ATOM     41  C   UNL A   1      43.603  30.108  30.298  1.00  0.00     0.031 A 
ATOM     42  C   UNL A   1      43.886  28.622  29.397  1.00  0.00     0.074 A 
ATOM     43  C   UNL A   1      44.720  30.872  30.268  1.00  0.00     0.049 A 
ATOM     44  N   UNL A   1      44.818  28.446  28.466  1.00  0.00    -0.248 NA
ATOM     45  C   UNL A   1      43.067  27.347  29.329  1.00  0.00     0.031 C 
ATOM     46  C   UNL A   1      45.923  30.744  29.433  1.00  0.00     0.029 A 
ATOM     47  N   UNL A   1      45.016  31.977  31.059  1.00  0.00    -0.354 N 
ATOM     48  C   UNL A   1      44.602  27.217  27.827  1.00  0.00     0.074 A 
ATOM     49  C   UNL A   1      43.258  26.903  28.097  1.00  0.00     0.031 C 
ATOM     50  C   UNL A   1      46.910  31.480  29.961  1.00  0.00     0.029 A 
ATOM     51  C   UNL A   1      46.407  31.990  31.213  1.00  0.00     0.049 A 
ATOM     52  H   UNL A   1      44.375  32.621  31.437  1.00  0.00     0.167 HD
ATOM     53  C   UNL A   1      45.523  26.286  27.427  1.00  0.00     0.031 A 
ATOM     54  C   UNL A   1      46.907  31.711  32.442  1.00  0.00     0.031 A 
ATOM     55  C   UNL A   1      46.844  26.698  27.853  1.00  0.00     0.049 A 
ATOM     56  C   UNL A   1      47.674  30.404  32.423  1.00  0.00     0.074 A 
ATOM     57  C   UNL A   1      47.682  27.710  27.427  1.00  0.00     0.029 A 
ATOM     58  N   UNL A   1      47.251  26.372  29.144  1.00  0.00    -0.354 N 
ATOM     59  N   UNL A   1      47.566  29.452  31.522  1.00  0.00    -0.248 NA
ATOM     60  C   UNL A   1      48.740  30.155  33.378  1.00  0.00     0.031 C 
ATOM     61  C   UNL A   1      48.452  28.122  28.555  1.00  0.00     0.029 A 
ATOM     62  C   UNL A   1      48.145  27.315  29.646  1.00  0.00     0.049 A 
ATOM     63  H   UNL A   1      46.946  25.578  29.638  1.00  0.00     0.167 HD
ATOM     64  C   UNL A   1      48.507  28.480  31.759  1.00  0.00     0.074 A 
ATOM     65  C   UNL A   1      49.250  29.013  32.893  1.00  0.00     0.031 C 
ATOM     66  C   UNL A   1      48.625  27.307  31.046  1.00  0.00     0.031 A 
BRANCH  53  67
ATOM     67  C   UNL A   1      45.148  24.959  26.711  1.00  0.00    -0.014 A 
ATOM     68  C   UNL A   1      45.371  23.718  27.330  1.00  0.00     0.010 A 
ATOM     69  C   UNL A   1      44.650  24.853  25.387  1.00  0.00     0.010 A 
ATOM     70  C   UNL A   1      45.239  22.487  26.627  1.00  0.00     0.020 A 
ATOM     71  C   UNL A   1      44.585  23.658  24.648  1.00  0.00     0.020 A 
ATOM     72  C   UNL A   1      44.904  22.469  25.270  1.00  0.00     0.054 A 
BRANCH  72  73
ATOM     73  S   UNL A   1      44.887  20.915  24.327  1.00  0.00     0.124 S 
ATOM     74  O   UNL A   1      44.584  21.374  22.974  1.00  0.00    -0.237 OA
ATOM     75  O   UNL A   1      46.237  20.401  24.530  1.00  0.00    -0.237 OA
ATOM     76  O   UNL A   1      43.824  20.131  24.956  1.00  0.00    -0.744 OA
ENDBRANCH  72  73
ENDBRANCH  53  67
BRANCH  54  77
ATOM     77  C   UNL A   1      46.110  32.396  33.522  1.00  0.00    -0.014 A 
ATOM     78  C   UNL A   1      45.988  33.808  33.383  1.00  0.00     0.010 A 
ATOM     79  C   UNL A   1      45.165  31.745  34.333  1.00  0.00     0.010 A 
ATOM     80  C   UNL A   1      44.874  34.506  33.859  1.00  0.00     0.020 A 
ATOM     81  C   UNL A   1      44.068  32.464  34.874  1.00  0.00     0.020 A 
ATOM     82  C   UNL A   1      43.896  33.822  34.568  1.00  0.00     0.054 A 
BRANCH  82  83
ATOM     83  S   UNL A   1      42.331  34.702  34.885  1.00  0.00     0.124 S 
ATOM     84  O   UNL A   1      41.546  33.710  35.611  1.00  0.00    -0.237 OA
ATOM     85  O   UNL A   1      42.783  35.845  35.683  1.00  0.00    -0.237 OA
ATOM     86  O   UNL A   1      41.846  35.026  33.547  1.00  0.00    -0.744 OA
ENDBRANCH  82  83
ENDBRANCH  54  77
BRANCH  66  87
ATOM     87  C   UNL A   1      49.272  26.057  31.655  1.00  0.00    -0.014 A 
ATOM     88  C   UNL A   1      50.494  25.521  31.204  1.00  0.00     0.010 A 
ATOM     89  C   UNL A   1      48.735  25.435  32.806  1.00  0.00     0.010 A 
ATOM     90  C   UNL A   1      51.075  24.377  31.756  1.00  0.00     0.020 A 
ATOM     91  C   UNL A   1      49.355  24.338  33.431  1.00  0.00     0.020 A 
ATOM     92  C   UNL A   1      50.499  23.785  32.867  1.00  0.00     0.054 A 
BRANCH  92  93
ATOM     93  S   UNL A   1      51.296  22.321  33.564  1.00  0.00     0.124 S 
ATOM     94  O   UNL A   1      51.814  21.666  32.364  1.00  0.00    -0.237 OA
ATOM     95  O   UNL A   1      52.309  22.896  34.446  1.00  0.00    -0.237 OA
ATOM     96  O   UNL A   1      50.208  21.624  34.242  1.00  0.00    -0.744 OA
ENDBRANCH  92  93
ENDBRANCH  66  87
ENDBRANCH  40  41
ENDBRANCH  33  35
ENDBRANCH  32  33
ENDBRANCH  31  32
ENDBRANCH  30  31
ENDBRANCH  29  30
ENDBRANCH  28  29
ENDBRANCH   1  28
TORSDOF 23
ENDMDL
