MODEL 1
REMARK VINA RESULT:     -10.8      0.000      0.000
REMARK SMILES O=C(OCCOCCOCCOC(=O)c1cc(-c2ccn(C(F)F)c(=O)c2)ccc1O)c1ccc(-c2c3nc(c(-c4ccc(S(=O)(=O)[O-])cc4)c4ccc([nH]4)c(-c4ccc(S(=O)(=O)[O-])cc4)c4nc(c(-c5ccc(S(=O)(=O)[O-])cc5)c5ccc2[nH]5)C=C4)C=C3)cc1
REMARK SMILES IDX 7 1 6 2 5 3 4 4 3 5 2 6 1 7 32 8 33 9 91 10 34 11 90 12
REMARK SMILES IDX 35 13 36 14 37 15 84 16 38 17 89 18 83 19 85 20 39 21 88 22
REMARK SMILES IDX 82 23 81 24 40 26 70 27 51 28 69 29 52 30 55 31 68 32 86 33
REMARK SMILES IDX 53 34 54 35 67 37 87 38 56 39 41 40 42 41 50 42 43 43 49 44
REMARK SMILES IDX 44 45 45 46 46 47 47 48 48 49 71 50 72 51 80 52 73 53 79 54
REMARK SMILES IDX 74 55 75 56 76 57 77 58 78 59 57 60 58 61 66 62 59 63 65 64
REMARK SMILES IDX 60 65 61 66 62 67 63 68 64 69 8 70 9 71 10 72 11 73 12 74
REMARK SMILES IDX 13 75 14 76 15 77 16 78 30 79 17 80 29 81 28 82 31 83 18 85
REMARK SMILES IDX 19 86 27 87 20 88 25 89 21 90 26 91 22 92 23 93 24 94
REMARK H PARENT 85 25 55 36 31 84
REMARK Flexibility Score: inf
ROOT
ATOM      1  C   UNL A   1      37.770  23.666  25.830  1.00  0.00     0.188 C 
ENDROOT
BRANCH   1   2
ATOM      2  O   UNL A   1      38.671  23.667  26.946  1.00  0.00    -0.376 OA
BRANCH   2   3
ATOM      3  C   UNL A   1      39.759  22.750  26.811  1.00  0.00     0.202 C 
BRANCH   3   4
ATOM      4  C   UNL A   1      41.111  23.429  26.567  1.00  0.00     0.261 C 
BRANCH   4   5
ATOM      5  O   UNL A   1      40.988  24.547  25.680  1.00  0.00    -0.460 OA
BRANCH   5   6
ATOM      6  C   UNL A   1      41.453  25.808  25.863  1.00  0.00     0.338 C 
ATOM      7  O   UNL A   1      42.082  26.324  24.940  1.00  0.00    -0.246 OA
BRANCH   6   8
ATOM      8  C   UNL A   1      41.236  26.623  27.105  1.00  0.00     0.060 A 
ATOM      9  C   UNL A   1      42.117  27.696  27.306  1.00  0.00     0.016 A 
ATOM     10  C   UNL A   1      40.295  26.373  28.108  1.00  0.00     0.016 A 
ATOM     11  C   UNL A   1      42.056  28.481  28.466  1.00  0.00     0.010 A 
ATOM     12  C   UNL A   1      40.190  27.190  29.238  1.00  0.00     0.010 A 
ATOM     13  C   UNL A   1      41.081  28.243  29.439  1.00  0.00    -0.014 A 
BRANCH  13  14
ATOM     14  C   UNL A   1      40.890  29.161  30.586  1.00  0.00     0.031 A 
ATOM     15  C   UNL A   1      41.675  29.041  31.859  1.00  0.00     0.074 A 
ATOM     16  C   UNL A   1      39.889  30.056  30.506  1.00  0.00     0.049 A 
ATOM     17  N   UNL A   1      41.665  29.838  32.899  1.00  0.00    -0.248 NA
ATOM     18  C   UNL A   1      42.568  27.882  32.006  1.00  0.00     0.031 C 
ATOM     19  C   UNL A   1      38.992  30.206  29.360  1.00  0.00     0.029 A 
ATOM     20  N   UNL A   1      39.434  30.977  31.414  1.00  0.00    -0.354 N 
ATOM     21  C   UNL A   1      42.590  29.312  33.790  1.00  0.00     0.074 A 
ATOM     22  C   UNL A   1      43.064  28.076  33.222  1.00  0.00     0.031 C 
ATOM     23  C   UNL A   1      38.090  31.155  29.634  1.00  0.00     0.029 A 
ATOM     24  C   UNL A   1      38.324  31.659  30.984  1.00  0.00     0.049 A 
ATOM     25  H   UNL A   1      39.860  31.132  32.287  1.00  0.00     0.167 HD
ATOM     26  C   UNL A   1      43.025  29.834  34.961  1.00  0.00     0.031 A 
ATOM     27  C   UNL A   1      37.558  32.577  31.603  1.00  0.00     0.031 A 
ATOM     28  C   UNL A   1      42.461  31.008  35.564  1.00  0.00     0.049 A 
ATOM     29  C   UNL A   1      37.941  33.044  32.971  1.00  0.00     0.074 A 
ATOM     30  C   UNL A   1      42.881  31.678  36.699  1.00  0.00     0.029 A 
ATOM     31  N   UNL A   1      41.309  31.638  35.124  1.00  0.00    -0.354 N 
ATOM     32  N   UNL A   1      38.980  32.692  33.689  1.00  0.00    -0.248 NA
ATOM     33  C   UNL A   1      37.068  34.033  33.614  1.00  0.00     0.031 C 
ATOM     34  C   UNL A   1      41.922  32.649  37.001  1.00  0.00     0.029 A 
ATOM     35  C   UNL A   1      40.942  32.624  36.019  1.00  0.00     0.049 A 
ATOM     36  H   UNL A   1      40.824  31.416  34.296  1.00  0.00     0.167 HD
ATOM     37  C   UNL A   1      38.892  33.419  34.868  1.00  0.00     0.074 A 
ATOM     38  C   UNL A   1      37.700  34.237  34.765  1.00  0.00     0.031 C 
ATOM     39  C   UNL A   1      39.734  33.408  35.930  1.00  0.00     0.031 A 
BRANCH  26  40
ATOM     40  C   UNL A   1      44.179  29.172  35.661  1.00  0.00    -0.014 A 
ATOM     41  C   UNL A   1      45.495  29.351  35.204  1.00  0.00     0.010 A 
ATOM     42  C   UNL A   1      43.932  28.254  36.700  1.00  0.00     0.010 A 
ATOM     43  C   UNL A   1      46.547  28.626  35.772  1.00  0.00     0.020 A 
ATOM     44  C   UNL A   1      44.983  27.536  37.278  1.00  0.00     0.020 A 
ATOM     45  C   UNL A   1      46.283  27.719  36.803  1.00  0.00     0.054 A 
BRANCH  45  46
ATOM     46  S   UNL A   1      47.660  26.799  37.544  1.00  0.00     0.124 S 
ATOM     47  O   UNL A   1      48.756  27.085  36.626  1.00  0.00    -0.237 OA
ATOM     48  O   UNL A   1      47.761  27.402  38.871  1.00  0.00    -0.237 OA
ATOM     49  O   UNL A   1      47.176  25.418  37.538  1.00  0.00    -0.744 OA
ENDBRANCH  45  46
ENDBRANCH  26  40
BRANCH  27  50
ATOM     50  C   UNL A   1      36.381  33.091  30.858  1.00  0.00    -0.014 A 
ATOM     51  C   UNL A   1      36.561  33.685  29.592  1.00  0.00     0.010 A 
ATOM     52  C   UNL A   1      35.148  33.231  31.516  1.00  0.00     0.010 A 
ATOM     53  C   UNL A   1      35.564  34.496  29.045  1.00  0.00     0.020 A 
ATOM     54  C   UNL A   1      34.140  34.024  30.959  1.00  0.00     0.020 A 
ATOM     55  C   UNL A   1      34.374  34.688  29.752  1.00  0.00     0.054 A 
BRANCH  55  56
ATOM     56  S   UNL A   1      33.167  35.883  29.114  1.00  0.00     0.124 S 
ATOM     57  O   UNL A   1      32.532  36.351  30.343  1.00  0.00    -0.237 OA
ATOM     58  O   UNL A   1      34.013  36.860  28.433  1.00  0.00    -0.237 OA
ATOM     59  O   UNL A   1      32.321  35.078  28.239  1.00  0.00    -0.744 OA
ENDBRANCH  55  56
ENDBRANCH  27  50
BRANCH  39  60
ATOM     60  C   UNL A   1      39.393  34.258  37.119  1.00  0.00    -0.014 A 
ATOM     61  C   UNL A   1      39.768  35.613  37.146  1.00  0.00     0.010 A 
ATOM     62  C   UNL A   1      38.860  33.665  38.276  1.00  0.00     0.010 A 
ATOM     63  C   UNL A   1      39.671  36.347  38.329  1.00  0.00     0.020 A 
ATOM     64  C   UNL A   1      38.738  34.404  39.455  1.00  0.00     0.020 A 
ATOM     65  C   UNL A   1      39.174  35.731  39.480  1.00  0.00     0.054 A 
BRANCH  65  66
ATOM     66  S   UNL A   1      39.127  36.678  41.026  1.00  0.00     0.124 S 
ATOM     67  O   UNL A   1      40.469  36.463  41.558  1.00  0.00    -0.237 OA
ATOM     68  O   UNL A   1      38.841  38.034  40.565  1.00  0.00    -0.237 OA
ATOM     69  O   UNL A   1      38.047  36.044  41.781  1.00  0.00    -0.744 OA
ENDBRANCH  65  66
ENDBRANCH  39  60
ENDBRANCH  13  14
ENDBRANCH   6   8
ENDBRANCH   5   6
ENDBRANCH   4   5
ENDBRANCH   3   4
ENDBRANCH   2   3
ENDBRANCH   1   2
BRANCH   1  70
ATOM     70  C   UNL A   1      37.260  22.250  25.557  1.00  0.00     0.188 C 
BRANCH  70  71
ATOM     71  O   UNL A   1      35.860  22.064  25.783  1.00  0.00    -0.376 OA
BRANCH  71  72
ATOM     72  C   UNL A   1      35.260  20.918  25.188  1.00  0.00     0.202 C 
BRANCH  72  73
ATOM     73  C   UNL A   1      33.864  21.081  24.571  1.00  0.00     0.261 C 
BRANCH  73  74
ATOM     74  O   UNL A   1      33.314  22.407  24.560  1.00  0.00    -0.460 OA
BRANCH  74  75
ATOM     75  C   UNL A   1      32.126  22.491  23.905  1.00  0.00     0.342 C 
ATOM     76  O   UNL A   1      31.764  21.827  22.948  1.00  0.00    -0.246 OA
BRANCH  75  77
ATOM     77  C   UNL A   1      31.291  23.554  24.482  1.00  0.00     0.102 A 
ATOM     78  C   UNL A   1      30.839  24.626  23.691  1.00  0.00     0.028 A 
ATOM     79  C   UNL A   1      31.098  23.557  25.866  1.00  0.00     0.130 A 
ATOM     80  C   UNL A   1      30.188  25.715  24.296  1.00  0.00    -0.017 A 
ATOM     81  C   UNL A   1      30.484  24.642  26.473  1.00  0.00     0.048 A 
ATOM     82  C   UNL A   1      30.020  25.702  25.692  1.00  0.00     0.012 A 
BRANCH  79  83
ATOM     83  O   UNL A   1      31.495  22.491  26.622  1.00  0.00    -0.507 OA
ATOM     84  H   UNL A   1      31.628  21.655  26.219  1.00  0.00     0.293 HD
ENDBRANCH  79  83
BRANCH  80  85
ATOM     85  C   UNL A   1      29.663  26.889  23.546  1.00  0.00    -0.011 A 
ATOM     86  C   UNL A   1      30.528  27.771  22.777  1.00  0.00     0.027 A 
ATOM     87  C   UNL A   1      28.366  27.225  23.658  1.00  0.00     0.080 A 
ATOM     88  C   UNL A   1      30.083  28.941  22.305  1.00  0.00     0.095 A 
ATOM     89  C   UNL A   1      27.840  28.508  23.101  1.00  0.00     0.255 A 
ATOM     90  N   UNL A   1      28.771  29.327  22.487  1.00  0.00    -0.258 N 
ATOM     91  O   UNL A   1      26.651  28.775  23.241  1.00  0.00    -0.269 OA
BRANCH  90  92
ATOM     92  C   UNL A   1      28.323  30.629  22.062  1.00  0.00     0.451 C 
ATOM     93  F   UNL A   1      29.341  31.524  22.045  1.00  0.00    -0.185 F 
ATOM     94  F   UNL A   1      27.787  30.579  20.818  1.00  0.00    -0.185 F 
ENDBRANCH  90  92
ENDBRANCH  80  85
ENDBRANCH  75  77
ENDBRANCH  74  75
ENDBRANCH  73  74
ENDBRANCH  72  73
ENDBRANCH  71  72
ENDBRANCH  70  71
ENDBRANCH   1  70
TORSDOF 23
ENDMDL
MODEL 2
REMARK VINA RESULT:     -10.7      2.502      8.465
REMARK SMILES O=C(OCCOCCOCCOC(=O)c1cc(-c2ccn(C(F)F)c(=O)c2)ccc1O)c1ccc(-c2c3nc(c(-c4ccc(S(=O)(=O)[O-])cc4)c4ccc([nH]4)c(-c4ccc(S(=O)(=O)[O-])cc4)c4nc(c(-c5ccc(S(=O)(=O)[O-])cc5)c5ccc2[nH]5)C=C4)C=C3)cc1
REMARK SMILES IDX 7 1 6 2 5 3 4 4 3 5 2 6 1 7 32 8 33 9 91 10 34 11 90 12
REMARK SMILES IDX 35 13 36 14 37 15 84 16 38 17 89 18 83 19 85 20 39 21 88 22
REMARK SMILES IDX 82 23 81 24 40 26 70 27 51 28 69 29 52 30 55 31 68 32 86 33
REMARK SMILES IDX 53 34 54 35 67 37 87 38 56 39 41 40 42 41 50 42 43 43 49 44
REMARK SMILES IDX 44 45 45 46 46 47 47 48 48 49 71 50 72 51 80 52 73 53 79 54
REMARK SMILES IDX 74 55 75 56 76 57 77 58 78 59 57 60 58 61 66 62 59 63 65 64
REMARK SMILES IDX 60 65 61 66 62 67 63 68 64 69 8 70 9 71 10 72 11 73 12 74
REMARK SMILES IDX 13 75 14 76 15 77 16 78 30 79 17 80 29 81 28 82 31 83 18 85
REMARK SMILES IDX 19 86 27 87 20 88 25 89 21 90 26 91 22 92 23 93 24 94
REMARK H PARENT 85 25 55 36 31 84
REMARK Flexibility Score: inf
ROOT
ATOM      1  C   UNL A   1      35.556  23.129  26.513  1.00  0.00     0.188 C 
ENDROOT
BRANCH   1   2
ATOM      2  O   UNL A   1      36.534  22.369  25.790  1.00  0.00    -0.376 OA
BRANCH   2   3
ATOM      3  C   UNL A   1      37.878  22.804  26.005  1.00  0.00     0.202 C 
BRANCH   3   4
ATOM      4  C   UNL A   1      37.999  24.295  26.338  1.00  0.00     0.261 C 
BRANCH   4   5
ATOM      5  O   UNL A   1      39.214  24.582  27.041  1.00  0.00    -0.460 OA
BRANCH   5   6
ATOM      6  C   UNL A   1      39.815  25.786  27.205  1.00  0.00     0.338 C 
ATOM      7  O   UNL A   1      40.374  26.282  26.227  1.00  0.00    -0.246 OA
BRANCH   6   8
ATOM      8  C   UNL A   1      39.827  26.565  28.488  1.00  0.00     0.060 A 
ATOM      9  C   UNL A   1      40.889  27.465  28.659  1.00  0.00     0.016 A 
ATOM     10  C   UNL A   1      38.930  26.425  29.551  1.00  0.00     0.016 A 
ATOM     11  C   UNL A   1      41.043  28.191  29.848  1.00  0.00     0.010 A 
ATOM     12  C   UNL A   1      39.044  27.192  30.715  1.00  0.00     0.010 A 
ATOM     13  C   UNL A   1      40.112  28.071  30.885  1.00  0.00    -0.014 A 
BRANCH  13  14
ATOM     14  C   UNL A   1      40.161  28.952  32.075  1.00  0.00     0.031 A 
ATOM     15  C   UNL A   1      39.240  30.123  32.255  1.00  0.00     0.074 A 
ATOM     16  C   UNL A   1      41.154  28.747  32.960  1.00  0.00     0.049 A 
ATOM     17  N   UNL A   1      39.123  30.914  33.293  1.00  0.00    -0.248 NA
ATOM     18  C   UNL A   1      38.352  30.472  31.137  1.00  0.00     0.031 C 
ATOM     19  C   UNL A   1      42.171  27.702  32.846  1.00  0.00     0.029 A 
ATOM     20  N   UNL A   1      41.492  29.425  34.101  1.00  0.00    -0.354 N 
ATOM     21  C   UNL A   1      38.111  31.809  32.977  1.00  0.00     0.074 A 
ATOM     22  C   UNL A   1      37.719  31.537  31.618  1.00  0.00     0.031 C 
ATOM     23  C   UNL A   1      43.025  27.811  33.870  1.00  0.00     0.029 A 
ATOM     24  C   UNL A   1      42.635  28.951  34.695  1.00  0.00     0.049 A 
ATOM     25  H   UNL A   1      40.969  30.178  34.459  1.00  0.00     0.167 HD
ATOM     26  C   UNL A   1      37.541  32.751  33.765  1.00  0.00     0.031 A 
ATOM     27  C   UNL A   1      43.314  29.385  35.773  1.00  0.00     0.031 A 
ATOM     28  C   UNL A   1      38.019  33.083  35.077  1.00  0.00     0.049 A 
ATOM     29  C   UNL A   1      42.775  30.536  36.561  1.00  0.00     0.074 A 
ATOM     30  C   UNL A   1      37.466  33.952  36.000  1.00  0.00     0.029 A 
ATOM     31  N   UNL A   1      39.205  32.616  35.619  1.00  0.00    -0.354 N 
ATOM     32  N   UNL A   1      41.666  31.209  36.363  1.00  0.00    -0.248 NA
ATOM     33  C   UNL A   1      43.558  30.986  37.718  1.00  0.00     0.031 C 
ATOM     34  C   UNL A   1      38.373  34.089  37.055  1.00  0.00     0.029 A 
ATOM     35  C   UNL A   1      39.457  33.257  36.817  1.00  0.00     0.049 A 
ATOM     36  H   UNL A   1      39.782  31.930  35.212  1.00  0.00     0.167 HD
ATOM     37  C   UNL A   1      41.612  32.159  37.373  1.00  0.00     0.074 A 
ATOM     38  C   UNL A   1      42.798  31.972  38.185  1.00  0.00     0.031 C 
ATOM     39  C   UNL A   1      40.657  33.092  37.601  1.00  0.00     0.031 A 
BRANCH  26  40
ATOM     40  C   UNL A   1      36.325  33.475  33.259  1.00  0.00    -0.014 A 
ATOM     41  C   UNL A   1      36.452  34.669  32.528  1.00  0.00     0.010 A 
ATOM     42  C   UNL A   1      35.042  33.033  33.634  1.00  0.00     0.010 A 
ATOM     43  C   UNL A   1      35.318  35.409  32.179  1.00  0.00     0.020 A 
ATOM     44  C   UNL A   1      33.906  33.765  33.277  1.00  0.00     0.020 A 
ATOM     45  C   UNL A   1      34.052  34.954  32.561  1.00  0.00     0.054 A 
BRANCH  45  46
ATOM     46  S   UNL A   1      32.588  35.915  32.086  1.00  0.00     0.124 S 
ATOM     47  O   UNL A   1      32.768  37.150  32.840  1.00  0.00    -0.237 OA
ATOM     48  O   UNL A   1      32.740  36.021  30.637  1.00  0.00    -0.237 OA
ATOM     49  O   UNL A   1      31.480  35.066  32.521  1.00  0.00    -0.744 OA
ENDBRANCH  45  46
ENDBRANCH  26  40
BRANCH  27  50
ATOM     50  C   UNL A   1      44.561  28.660  36.126  1.00  0.00    -0.014 A 
ATOM     51  C   UNL A   1      45.759  28.960  35.445  1.00  0.00     0.010 A 
ATOM     52  C   UNL A   1      44.494  27.510  36.929  1.00  0.00     0.010 A 
ATOM     53  C   UNL A   1      46.832  28.068  35.481  1.00  0.00     0.020 A 
ATOM     54  C   UNL A   1      45.576  26.626  36.984  1.00  0.00     0.020 A 
ATOM     55  C   UNL A   1      46.718  26.888  36.222  1.00  0.00     0.054 A 
BRANCH  55  56
ATOM     56  S   UNL A   1      48.048  25.660  36.111  1.00  0.00     0.124 S 
ATOM     57  O   UNL A   1      48.941  26.091  37.184  1.00  0.00    -0.237 OA
ATOM     58  O   UNL A   1      47.344  24.403  36.348  1.00  0.00    -0.237 OA
ATOM     59  O   UNL A   1      48.564  25.836  34.757  1.00  0.00    -0.744 OA
ENDBRANCH  55  56
ENDBRANCH  27  50
BRANCH  39  60
ATOM     60  C   UNL A   1      40.852  34.048  38.743  1.00  0.00    -0.014 A 
ATOM     61  C   UNL A   1      40.290  33.764  40.000  1.00  0.00     0.010 A 
ATOM     62  C   UNL A   1      41.440  35.304  38.515  1.00  0.00     0.010 A 
ATOM     63  C   UNL A   1      40.259  34.743  40.994  1.00  0.00     0.020 A 
ATOM     64  C   UNL A   1      41.434  36.277  39.516  1.00  0.00     0.020 A 
ATOM     65  C   UNL A   1      40.815  36.000  40.738  1.00  0.00     0.054 A 
BRANCH  65  66
ATOM     66  S   UNL A   1      40.699  37.283  42.013  1.00  0.00     0.124 S 
ATOM     67  O   UNL A   1      39.261  37.339  42.262  1.00  0.00    -0.237 OA
ATOM     68  O   UNL A   1      41.505  36.733  43.099  1.00  0.00    -0.237 OA
ATOM     69  O   UNL A   1      41.266  38.463  41.363  1.00  0.00    -0.744 OA
ENDBRANCH  65  66
ENDBRANCH  39  60
ENDBRANCH  13  14
ENDBRANCH   6   8
ENDBRANCH   5   6
ENDBRANCH   4   5
ENDBRANCH   3   4
ENDBRANCH   2   3
ENDBRANCH   1   2
BRANCH   1  70
ATOM     70  C   UNL A   1      34.272  22.315  26.688  1.00  0.00     0.188 C 
BRANCH  70  71
ATOM     71  O   UNL A   1      34.265  21.053  26.016  1.00  0.00    -0.376 OA
BRANCH  71  72
ATOM     72  C   UNL A   1      33.458  20.951  24.848  1.00  0.00     0.202 C 
BRANCH  72  73
ATOM     73  C   UNL A   1      33.676  21.987  23.736  1.00  0.00     0.261 C 
BRANCH  73  74
ATOM     74  O   UNL A   1      32.850  23.160  23.775  1.00  0.00    -0.460 OA
BRANCH  74  75
ATOM     75  C   UNL A   1      33.497  24.287  23.377  1.00  0.00     0.342 C 
ATOM     76  O   UNL A   1      34.568  24.356  22.798  1.00  0.00    -0.246 OA
BRANCH  75  77
ATOM     77  C   UNL A   1      32.741  25.484  23.774  1.00  0.00     0.102 A 
ATOM     78  C   UNL A   1      33.295  26.424  24.662  1.00  0.00     0.028 A 
ATOM     79  C   UNL A   1      31.405  25.577  23.378  1.00  0.00     0.130 A 
ATOM     80  C   UNL A   1      32.498  27.469  25.161  1.00  0.00    -0.017 A 
ATOM     81  C   UNL A   1      30.604  26.587  23.889  1.00  0.00     0.048 A 
ATOM     82  C   UNL A   1      31.151  27.531  24.758  1.00  0.00     0.012 A 
BRANCH  79  83
ATOM     83  O   UNL A   1      30.887  24.691  22.477  1.00  0.00    -0.507 OA
ATOM     84  H   UNL A   1      30.496  25.004  21.684  1.00  0.00     0.293 HD
ENDBRANCH  79  83
BRANCH  80  85
ATOM     85  C   UNL A   1      32.992  28.518  26.093  1.00  0.00    -0.011 A 
ATOM     86  C   UNL A   1      32.186  29.673  26.462  1.00  0.00     0.027 A 
ATOM     87  C   UNL A   1      34.260  28.472  26.536  1.00  0.00     0.080 A 
ATOM     88  C   UNL A   1      32.722  30.715  27.108  1.00  0.00     0.095 A 
ATOM     89  C   UNL A   1      34.865  29.607  27.297  1.00  0.00     0.255 A 
ATOM     90  N   UNL A   1      34.046  30.705  27.496  1.00  0.00    -0.258 N 
ATOM     91  O   UNL A   1      36.030  29.522  27.669  1.00  0.00    -0.269 OA
BRANCH  90  92
ATOM     92  C   UNL A   1      34.641  31.867  28.105  1.00  0.00     0.451 C 
ATOM     93  F   UNL A   1      33.910  32.984  27.865  1.00  0.00    -0.185 F 
ATOM     94  F   UNL A   1      34.746  31.716  29.448  1.00  0.00    -0.185 F 
ENDBRANCH  90  92
ENDBRANCH  80  85
ENDBRANCH  75  77
ENDBRANCH  74  75
ENDBRANCH  73  74
ENDBRANCH  72  73
ENDBRANCH  71  72
ENDBRANCH  70  71
ENDBRANCH   1  70
TORSDOF 23
ENDMDL
MODEL 3
REMARK VINA RESULT:     -10.6      5.685      8.113
REMARK SMILES O=C(OCCOCCOCCOC(=O)c1cc(-c2ccn(C(F)F)c(=O)c2)ccc1O)c1ccc(-c2c3nc(c(-c4ccc(S(=O)(=O)[O-])cc4)c4ccc([nH]4)c(-c4ccc(S(=O)(=O)[O-])cc4)c4nc(c(-c5ccc(S(=O)(=O)[O-])cc5)c5ccc2[nH]5)C=C4)C=C3)cc1
REMARK SMILES IDX 7 1 6 2 5 3 4 4 3 5 2 6 1 7 32 8 33 9 91 10 34 11 90 12
REMARK SMILES IDX 35 13 36 14 37 15 84 16 38 17 89 18 83 19 85 20 39 21 88 22
REMARK SMILES IDX 82 23 81 24 40 26 70 27 51 28 69 29 52 30 55 31 68 32 86 33
REMARK SMILES IDX 53 34 54 35 67 37 87 38 56 39 41 40 42 41 50 42 43 43 49 44
REMARK SMILES IDX 44 45 45 46 46 47 47 48 48 49 71 50 72 51 80 52 73 53 79 54
REMARK SMILES IDX 74 55 75 56 76 57 77 58 78 59 57 60 58 61 66 62 59 63 65 64
REMARK SMILES IDX 60 65 61 66 62 67 63 68 64 69 8 70 9 71 10 72 11 73 12 74
REMARK SMILES IDX 13 75 14 76 15 77 16 78 30 79 17 80 29 81 28 82 31 83 18 85
REMARK SMILES IDX 19 86 27 87 20 88 25 89 21 90 26 91 22 92 23 93 24 94
REMARK H PARENT 85 25 55 36 31 84
REMARK Flexibility Score: inf
ROOT
ATOM      1  C   UNL A   1      36.087  21.634  25.591  1.00  0.00     0.188 C 
ENDROOT
BRANCH   1   2
ATOM      2  O   UNL A   1      36.972  21.205  24.546  1.00  0.00    -0.376 OA
BRANCH   2   3
ATOM      3  C   UNL A   1      37.824  20.121  24.920  1.00  0.00     0.202 C 
BRANCH   3   4
ATOM      4  C   UNL A   1      38.934  20.516  25.900  1.00  0.00     0.261 C 
BRANCH   4   5
ATOM      5  O   UNL A   1      39.963  19.521  25.961  1.00  0.00    -0.460 OA
BRANCH   5   6
ATOM      6  C   UNL A   1      41.296  19.712  26.121  1.00  0.00     0.338 C 
ATOM      7  O   UNL A   1      42.035  18.744  25.952  1.00  0.00    -0.246 OA
BRANCH   6   8
ATOM      8  C   UNL A   1      41.931  21.027  26.471  1.00  0.00     0.060 A 
ATOM      9  C   UNL A   1      42.262  21.863  25.394  1.00  0.00     0.016 A 
ATOM     10  C   UNL A   1      42.288  21.461  27.750  1.00  0.00     0.016 A 
ATOM     11  C   UNL A   1      42.925  23.081  25.596  1.00  0.00     0.010 A 
ATOM     12  C   UNL A   1      42.894  22.703  27.963  1.00  0.00     0.010 A 
ATOM     13  C   UNL A   1      43.236  23.520  26.886  1.00  0.00    -0.014 A 
BRANCH  13  14
ATOM     14  C   UNL A   1      43.781  24.875  27.133  1.00  0.00     0.031 A 
ATOM     15  C   UNL A   1      45.252  25.176  27.100  1.00  0.00     0.074 A 
ATOM     16  C   UNL A   1      42.918  25.834  27.515  1.00  0.00     0.049 A 
ATOM     17  N   UNL A   1      45.847  26.338  27.209  1.00  0.00    -0.248 NA
ATOM     18  C   UNL A   1      46.178  24.045  26.946  1.00  0.00     0.031 C 
ATOM     19  C   UNL A   1      41.476  25.641  27.678  1.00  0.00     0.029 A 
ATOM     20  N   UNL A   1      43.126  27.140  27.870  1.00  0.00    -0.354 N 
ATOM     21  C   UNL A   1      47.204  26.084  27.076  1.00  0.00     0.074 A 
ATOM     22  C   UNL A   1      47.357  24.654  26.985  1.00  0.00     0.031 C 
ATOM     23  C   UNL A   1      40.930  26.784  28.108  1.00  0.00     0.029 A 
ATOM     24  C   UNL A   1      41.984  27.780  28.280  1.00  0.00     0.049 A 
ATOM     25  H   UNL A   1      44.008  27.577  27.835  1.00  0.00     0.167 HD
ATOM     26  C   UNL A   1      48.225  26.969  27.004  1.00  0.00     0.031 A 
ATOM     27  C   UNL A   1      41.793  29.022  28.761  1.00  0.00     0.031 A 
ATOM     28  C   UNL A   1      48.068  28.381  27.208  1.00  0.00     0.049 A 
ATOM     29  C   UNL A   1      42.954  29.962  28.838  1.00  0.00     0.074 A 
ATOM     30  C   UNL A   1      49.012  29.382  27.069  1.00  0.00     0.029 A 
ATOM     31  N   UNL A   1      46.907  28.980  27.670  1.00  0.00    -0.354 N 
ATOM     32  N   UNL A   1      44.194  29.754  28.466  1.00  0.00    -0.248 NA
ATOM     33  C   UNL A   1      42.702  31.301  29.385  1.00  0.00     0.031 C 
ATOM     34  C   UNL A   1      48.450  30.569  27.547  1.00  0.00     0.029 A 
ATOM     35  C   UNL A   1      47.138  30.319  27.922  1.00  0.00     0.049 A 
ATOM     36  H   UNL A   1      46.046  28.520  27.799  1.00  0.00     0.167 HD
ATOM     37  C   UNL A   1      44.873  30.936  28.726  1.00  0.00     0.074 A 
ATOM     38  C   UNL A   1      43.904  31.859  29.283  1.00  0.00     0.031 C 
ATOM     39  C   UNL A   1      46.180  31.222  28.511  1.00  0.00     0.031 A 
BRANCH  26  40
ATOM     40  C   UNL A   1      49.599  26.460  26.665  1.00  0.00    -0.014 A 
ATOM     41  C   UNL A   1      50.533  26.186  27.678  1.00  0.00     0.010 A 
ATOM     42  C   UNL A   1      50.005  26.388  25.319  1.00  0.00     0.010 A 
ATOM     43  C   UNL A   1      51.850  25.845  27.353  1.00  0.00     0.020 A 
ATOM     44  C   UNL A   1      51.318  26.037  24.991  1.00  0.00     0.020 A 
ATOM     45  C   UNL A   1      52.235  25.779  26.011  1.00  0.00     0.054 A 
BRANCH  45  46
ATOM     46  S   UNL A   1      53.942  25.318  25.603  1.00  0.00     0.124 S 
ATOM     47  O   UNL A   1      53.752  24.273  24.603  1.00  0.00    -0.237 OA
ATOM     48  O   UNL A   1      54.498  26.577  25.114  1.00  0.00    -0.237 OA
ATOM     49  O   UNL A   1      54.480  24.872  26.887  1.00  0.00    -0.744 OA
ENDBRANCH  45  46
ENDBRANCH  26  40
BRANCH  27  50
ATOM     50  C   UNL A   1      40.411  29.389  29.163  1.00  0.00    -0.014 A 
ATOM     51  C   UNL A   1      39.395  29.453  28.188  1.00  0.00     0.010 A 
ATOM     52  C   UNL A   1      40.177  29.926  30.440  1.00  0.00     0.010 A 
ATOM     53  C   UNL A   1      38.208  30.140  28.452  1.00  0.00     0.020 A 
ATOM     54  C   UNL A   1      38.979  30.594  30.713  1.00  0.00     0.020 A 
ATOM     55  C   UNL A   1      38.025  30.737  29.702  1.00  0.00     0.054 A 
BRANCH  55  56
ATOM     56  S   UNL A   1      36.559  31.773  29.965  1.00  0.00     0.124 S 
ATOM     57  O   UNL A   1      35.846  31.607  28.701  1.00  0.00    -0.237 OA
ATOM     58  O   UNL A   1      35.931  31.151  31.127  1.00  0.00    -0.237 OA
ATOM     59  O   UNL A   1      37.118  33.101  30.198  1.00  0.00    -0.744 OA
ENDBRANCH  55  56
ENDBRANCH  27  50
BRANCH  39  60
ATOM     60  C   UNL A   1      46.692  32.571  28.926  1.00  0.00    -0.014 A 
ATOM     61  C   UNL A   1      46.721  33.627  27.998  1.00  0.00     0.010 A 
ATOM     62  C   UNL A   1      47.306  32.734  30.179  1.00  0.00     0.010 A 
ATOM     63  C   UNL A   1      47.407  34.806  28.294  1.00  0.00     0.020 A 
ATOM     64  C   UNL A   1      47.971  33.922  30.489  1.00  0.00     0.020 A 
ATOM     65  C   UNL A   1      48.044  34.937  29.531  1.00  0.00     0.054 A 
BRANCH  65  66
ATOM     66  S   UNL A   1      48.994  36.444  29.869  1.00  0.00     0.124 S 
ATOM     67  O   UNL A   1      49.605  36.138  31.160  1.00  0.00    -0.237 OA
ATOM     68  O   UNL A   1      49.914  36.506  28.737  1.00  0.00    -0.237 OA
ATOM     69  O   UNL A   1      47.975  37.492  29.892  1.00  0.00    -0.744 OA
ENDBRANCH  65  66
ENDBRANCH  39  60
ENDBRANCH  13  14
ENDBRANCH   6   8
ENDBRANCH   5   6
ENDBRANCH   4   5
ENDBRANCH   3   4
ENDBRANCH   2   3
ENDBRANCH   1   2
BRANCH   1  70
ATOM     70  C   UNL A   1      34.696  21.028  25.393  1.00  0.00     0.188 C 
BRANCH  70  71
ATOM     71  O   UNL A   1      33.844  21.761  24.509  1.00  0.00    -0.376 OA
BRANCH  71  72
ATOM     72  C   UNL A   1      32.441  21.614  24.699  1.00  0.00     0.202 C 
BRANCH  72  73
ATOM     73  C   UNL A   1      31.544  22.812  24.357  1.00  0.00     0.261 C 
BRANCH  73  74
ATOM     74  O   UNL A   1      30.647  23.261  25.385  1.00  0.00    -0.460 OA
BRANCH  74  75
ATOM     75  C   UNL A   1      31.281  23.864  26.426  1.00  0.00     0.342 C 
ATOM     76  O   UNL A   1      31.329  23.478  27.582  1.00  0.00    -0.246 OA
BRANCH  75  77
ATOM     77  C   UNL A   1      31.908  25.120  25.991  1.00  0.00     0.102 A 
ATOM     78  C   UNL A   1      31.130  26.173  25.476  1.00  0.00     0.028 A 
ATOM     79  C   UNL A   1      33.303  25.177  25.950  1.00  0.00     0.130 A 
ATOM     80  C   UNL A   1      31.759  27.296  24.911  1.00  0.00    -0.017 A 
ATOM     81  C   UNL A   1      33.931  26.267  25.367  1.00  0.00     0.048 A 
ATOM     82  C   UNL A   1      33.165  27.322  24.867  1.00  0.00     0.012 A 
BRANCH  79  83
ATOM     83  O   UNL A   1      34.053  24.175  26.497  1.00  0.00    -0.507 OA
ATOM     84  H   UNL A   1      33.834  23.834  27.342  1.00  0.00     0.293 HD
ENDBRANCH  79  83
BRANCH  80  85
ATOM     85  C   UNL A   1      31.027  28.465  24.351  1.00  0.00    -0.011 A 
ATOM     86  C   UNL A   1      31.166  29.805  24.901  1.00  0.00     0.027 A 
ATOM     87  C   UNL A   1      30.122  28.278  23.375  1.00  0.00     0.080 A 
ATOM     88  C   UNL A   1      30.335  30.791  24.543  1.00  0.00     0.095 A 
ATOM     89  C   UNL A   1      29.213  29.379  22.931  1.00  0.00     0.255 A 
ATOM     90  N   UNL A   1      29.352  30.583  23.598  1.00  0.00    -0.258 N 
ATOM     91  O   UNL A   1      28.395  29.155  22.044  1.00  0.00    -0.269 OA
BRANCH  90  92
ATOM     92  C   UNL A   1      28.401  31.620  23.288  1.00  0.00     0.451 C 
ATOM     93  F   UNL A   1      27.226  31.428  23.938  1.00  0.00    -0.185 F 
ATOM     94  F   UNL A   1      28.878  32.840  23.633  1.00  0.00    -0.185 F 
ENDBRANCH  90  92
ENDBRANCH  80  85
ENDBRANCH  75  77
ENDBRANCH  74  75
ENDBRANCH  73  74
ENDBRANCH  72  73
ENDBRANCH  71  72
ENDBRANCH  70  71
ENDBRANCH   1  70
TORSDOF 23
ENDMDL
