MODEL 1
REMARK VINA RESULT:     -10.6      0.000      0.000
REMARK SMILES CC(C)(Cn1ccc2ccc([N+](=O)[O-])cc21)C(=O)OCCOCCOCCOC(=O)c1ccc(-c2c3nc(c(-c4ccc(S(=O)(=O)[O-])cc4)c4ccc([nH]4)c(-c4ccc(S(=O)(=O)[O-])cc4)c4nc(c(-c5ccc(S(=O)(=O)[O-])cc5)c5ccc2[nH]5)C=C4)C=C3)cc1
REMARK SMILES IDX 23 1 22 2 21 3 20 4 19 5 17 6 18 7 2 8 1 9 3 10 4 11 5 12
REMARK SMILES IDX 6 13 16 14 7 15 8 16 15 17 9 18 11 19 10 20 12 21 13 22
REMARK SMILES IDX 14 23 24 24 25 25 26 26 27 27 28 28 29 29 30 30 31 31 32 32
REMARK SMILES IDX 90 33 33 34 89 35 34 36 35 37 36 38 83 39 37 40 88 41 82 42
REMARK SMILES IDX 84 43 38 44 87 45 81 46 80 47 39 49 69 50 50 51 68 52 51 53
REMARK SMILES IDX 54 54 67 55 85 56 52 57 53 58 66 60 86 61 55 62 40 63 41 64
REMARK SMILES IDX 49 65 42 66 48 67 43 68 44 69 45 70 46 71 47 72 70 73 71 74
REMARK SMILES IDX 79 75 72 76 78 77 73 78 74 79 75 80 76 81 77 82 56 83 57 84
REMARK SMILES IDX 65 85 58 86 64 87 59 88 60 89 61 90 62 91 63 92
REMARK H PARENT 84 48 54 59
REMARK Flexibility Score: inf
ROOT
ATOM      1  C   UNL A   1      34.195  34.695  28.409  1.00  0.00     0.188 C 
ENDROOT
BRANCH   1   2
ATOM      2  O   UNL A   1      33.822  33.584  27.621  1.00  0.00    -0.376 OA
BRANCH   2   3
ATOM      3  C   UNL A   1      34.068  32.295  28.166  1.00  0.00     0.202 C 
BRANCH   3   4
ATOM      4  C   UNL A   1      33.998  31.096  27.210  1.00  0.00     0.261 C 
BRANCH   4   5
ATOM      5  O   UNL A   1      32.933  30.128  27.511  1.00  0.00    -0.463 OA
BRANCH   5   6
ATOM      6  C   UNL A   1      32.236  29.744  26.412  1.00  0.00     0.313 C 
ATOM      7  O   UNL A   1      31.550  30.565  25.797  1.00  0.00    -0.252 OA
BRANCH   6   8
ATOM      8  C   UNL A   1      32.344  28.273  25.866  1.00  0.00     0.080 C 
ATOM      9  C   UNL A   1      31.439  27.459  26.762  1.00  0.00     0.025 C 
ATOM     10  C   UNL A   1      33.831  27.967  26.231  1.00  0.00     0.025 C 
BRANCH   8  11
ATOM     11  C   UNL A   1      32.162  27.736  24.400  1.00  0.00     0.140 C 
BRANCH  11  12
ATOM     12  N   UNL A   1      31.836  26.334  24.046  1.00  0.00    -0.346 N 
ATOM     13  C   UNL A   1      30.523  25.970  23.811  1.00  0.00     0.087 A 
ATOM     14  C   UNL A   1      32.654  25.234  23.695  1.00  0.00     0.055 A 
ATOM     15  C   UNL A   1      30.466  24.641  23.488  1.00  0.00     0.028 A 
ATOM     16  C   UNL A   1      31.789  24.148  23.454  1.00  0.00     0.000 A 
ATOM     17  C   UNL A   1      34.063  25.018  23.620  1.00  0.00     0.112 A 
ATOM     18  C   UNL A   1      32.301  22.844  23.254  1.00  0.00     0.017 A 
ATOM     19  C   UNL A   1      34.542  23.688  23.474  1.00  0.00     0.271 A 
ATOM     20  C   UNL A   1      33.672  22.609  23.312  1.00  0.00     0.086 A 
BRANCH  19  21
ATOM     21  N   UNL A   1      35.985  23.398  23.591  1.00  0.00     0.062 N 
ATOM     22  O   UNL A   1      36.531  22.808  22.652  1.00  0.00    -0.258 OA
ATOM     23  O   UNL A   1      36.576  23.816  24.599  1.00  0.00    -0.258 OA
ENDBRANCH  19  21
ENDBRANCH  11  12
ENDBRANCH   8  11
ENDBRANCH   6   8
ENDBRANCH   5   6
ENDBRANCH   4   5
ENDBRANCH   3   4
ENDBRANCH   2   3
ENDBRANCH   1   2
BRANCH   1  24
ATOM     24  C   UNL A   1      33.096  35.356  29.257  1.00  0.00     0.188 C 
BRANCH  24  25
ATOM     25  O   UNL A   1      33.475  36.146  30.371  1.00  0.00    -0.376 OA
BRANCH  25  26
ATOM     26  C   UNL A   1      33.471  35.470  31.626  1.00  0.00     0.202 C 
BRANCH  26  27
ATOM     27  C   UNL A   1      34.839  35.144  32.267  1.00  0.00     0.261 C 
BRANCH  27  28
ATOM     28  O   UNL A   1      35.588  34.159  31.506  1.00  0.00    -0.460 OA
BRANCH  28  29
ATOM     29  C   UNL A   1      35.313  32.844  31.789  1.00  0.00     0.338 C 
ATOM     30  O   UNL A   1      34.231  32.317  31.712  1.00  0.00    -0.246 OA
BRANCH  29  31
ATOM     31  C   UNL A   1      36.612  32.087  31.755  1.00  0.00     0.060 A 
ATOM     32  C   UNL A   1      37.896  32.627  31.881  1.00  0.00     0.016 A 
ATOM     33  C   UNL A   1      36.489  30.767  31.342  1.00  0.00     0.016 A 
ATOM     34  C   UNL A   1      39.035  31.868  31.481  1.00  0.00     0.010 A 
ATOM     35  C   UNL A   1      37.600  30.062  30.885  1.00  0.00     0.010 A 
ATOM     36  C   UNL A   1      38.893  30.599  30.900  1.00  0.00    -0.014 A 
BRANCH  36  37
ATOM     37  C   UNL A   1      39.989  29.612  30.665  1.00  0.00     0.031 A 
ATOM     38  C   UNL A   1      40.655  29.261  31.933  1.00  0.00     0.074 A 
ATOM     39  C   UNL A   1      40.389  28.905  29.566  1.00  0.00     0.049 A 
ATOM     40  N   UNL A   1      41.865  29.615  32.198  1.00  0.00    -0.248 NA
ATOM     41  C   UNL A   1      39.953  28.635  33.056  1.00  0.00     0.031 C 
ATOM     42  C   UNL A   1      40.070  29.135  28.158  1.00  0.00     0.029 A 
ATOM     43  N   UNL A   1      41.118  27.720  29.488  1.00  0.00    -0.354 N 
ATOM     44  C   UNL A   1      42.171  29.020  33.400  1.00  0.00     0.074 A 
ATOM     45  C   UNL A   1      40.924  28.583  33.971  1.00  0.00     0.031 C 
ATOM     46  C   UNL A   1      40.367  28.037  27.416  1.00  0.00     0.029 A 
ATOM     47  C   UNL A   1      41.007  27.030  28.266  1.00  0.00     0.049 A 
ATOM     48  H   UNL A   1      41.671  27.389  30.234  1.00  0.00     0.167 HD
ATOM     49  C   UNL A   1      43.459  28.709  33.682  1.00  0.00     0.031 A 
ATOM     50  C   UNL A   1      41.787  26.045  27.734  1.00  0.00     0.031 A 
ATOM     51  C   UNL A   1      44.371  29.339  32.755  1.00  0.00     0.049 A 
ATOM     52  C   UNL A   1      43.162  26.316  28.180  1.00  0.00     0.074 A 
ATOM     53  C   UNL A   1      44.745  30.641  32.498  1.00  0.00     0.029 A 
ATOM     54  N   UNL A   1      44.673  28.599  31.637  1.00  0.00    -0.354 N 
ATOM     55  N   UNL A   1      43.850  27.339  27.766  1.00  0.00    -0.248 NA
ATOM     56  C   UNL A   1      43.730  25.584  29.303  1.00  0.00     0.031 C 
ATOM     57  C   UNL A   1      45.079  30.695  31.116  1.00  0.00     0.029 A 
ATOM     58  C   UNL A   1      44.962  29.419  30.569  1.00  0.00     0.049 A 
ATOM     59  H   UNL A   1      44.680  27.615  31.604  1.00  0.00     0.167 HD
ATOM     60  C   UNL A   1      44.617  27.666  28.861  1.00  0.00     0.074 A 
ATOM     61  C   UNL A   1      44.672  26.456  29.669  1.00  0.00     0.031 C 
ATOM     62  C   UNL A   1      44.838  28.969  29.192  1.00  0.00     0.031 A 
BRANCH  49  63
ATOM     63  C   UNL A   1      43.850  27.542  34.533  1.00  0.00    -0.014 A 
ATOM     64  C   UNL A   1      43.602  26.204  34.161  1.00  0.00     0.010 A 
ATOM     65  C   UNL A   1      44.692  27.764  35.636  1.00  0.00     0.010 A 
ATOM     66  C   UNL A   1      44.124  25.132  34.884  1.00  0.00     0.020 A 
ATOM     67  C   UNL A   1      45.253  26.695  36.344  1.00  0.00     0.020 A 
ATOM     68  C   UNL A   1      44.952  25.386  35.971  1.00  0.00     0.054 A 
BRANCH  68  69
ATOM     69  S   UNL A   1      45.665  23.975  36.847  1.00  0.00     0.124 S 
ATOM     70  O   UNL A   1      45.280  22.861  35.986  1.00  0.00    -0.237 OA
ATOM     71  O   UNL A   1      47.088  24.302  36.861  1.00  0.00    -0.237 OA
ATOM     72  O   UNL A   1      45.006  24.013  38.151  1.00  0.00    -0.744 OA
ENDBRANCH  68  69
ENDBRANCH  49  63
BRANCH  50  73
ATOM     73  C   UNL A   1      41.443  24.706  27.158  1.00  0.00    -0.014 A 
ATOM     74  C   UNL A   1      40.344  23.952  27.607  1.00  0.00     0.010 A 
ATOM     75  C   UNL A   1      42.377  24.046  26.321  1.00  0.00     0.010 A 
ATOM     76  C   UNL A   1      40.237  22.575  27.317  1.00  0.00     0.020 A 
ATOM     77  C   UNL A   1      42.281  22.672  26.033  1.00  0.00     0.020 A 
ATOM     78  C   UNL A   1      41.229  21.933  26.567  1.00  0.00     0.054 A 
BRANCH  78  79
ATOM     79  S   UNL A   1      41.169  20.122  26.375  1.00  0.00     0.124 S 
ATOM     80  O   UNL A   1      41.374  19.659  27.744  1.00  0.00    -0.237 OA
ATOM     81  O   UNL A   1      39.829  19.904  25.834  1.00  0.00    -0.237 OA
ATOM     82  O   UNL A   1      42.262  19.831  25.450  1.00  0.00    -0.744 OA
ENDBRANCH  78  79
ENDBRANCH  50  73
BRANCH  62  83
ATOM     83  C   UNL A   1      44.721  30.019  28.104  1.00  0.00    -0.014 A 
ATOM     84  C   UNL A   1      45.911  30.569  27.598  1.00  0.00     0.010 A 
ATOM     85  C   UNL A   1      43.504  30.558  27.650  1.00  0.00     0.010 A 
ATOM     86  C   UNL A   1      45.889  31.663  26.728  1.00  0.00     0.020 A 
ATOM     87  C   UNL A   1      43.468  31.639  26.755  1.00  0.00     0.020 A 
ATOM     88  C   UNL A   1      44.667  32.205  26.327  1.00  0.00     0.054 A 
BRANCH  88  89
ATOM     89  S   UNL A   1      44.685  33.675  25.267  1.00  0.00     0.124 S 
ATOM     90  O   UNL A   1      44.354  33.117  23.958  1.00  0.00    -0.237 OA
ATOM     91  O   UNL A   1      43.651  34.517  25.864  1.00  0.00    -0.237 OA
ATOM     92  O   UNL A   1      46.047  34.190  25.392  1.00  0.00    -0.744 OA
ENDBRANCH  88  89
ENDBRANCH  62  83
ENDBRANCH  36  37
ENDBRANCH  29  31
ENDBRANCH  28  29
ENDBRANCH  27  28
ENDBRANCH  26  27
ENDBRANCH  25  26
ENDBRANCH  24  25
ENDBRANCH   1  24
TORSDOF 23
ENDMDL
MODEL 2
REMARK VINA RESULT:      -9.2      4.165      6.456
REMARK SMILES CC(C)(Cn1ccc2ccc([N+](=O)[O-])cc21)C(=O)OCCOCCOCCOC(=O)c1ccc(-c2c3nc(c(-c4ccc(S(=O)(=O)[O-])cc4)c4ccc([nH]4)c(-c4ccc(S(=O)(=O)[O-])cc4)c4nc(c(-c5ccc(S(=O)(=O)[O-])cc5)c5ccc2[nH]5)C=C4)C=C3)cc1
REMARK SMILES IDX 23 1 22 2 21 3 20 4 19 5 17 6 18 7 2 8 1 9 3 10 4 11 5 12
REMARK SMILES IDX 6 13 16 14 7 15 8 16 15 17 9 18 11 19 10 20 12 21 13 22
REMARK SMILES IDX 14 23 24 24 25 25 26 26 27 27 28 28 29 29 30 30 31 31 32 32
REMARK SMILES IDX 90 33 33 34 89 35 34 36 35 37 36 38 83 39 37 40 88 41 82 42
REMARK SMILES IDX 84 43 38 44 87 45 81 46 80 47 39 49 69 50 50 51 68 52 51 53
REMARK SMILES IDX 54 54 67 55 85 56 52 57 53 58 66 60 86 61 55 62 40 63 41 64
REMARK SMILES IDX 49 65 42 66 48 67 43 68 44 69 45 70 46 71 47 72 70 73 71 74
REMARK SMILES IDX 79 75 72 76 78 77 73 78 74 79 75 80 76 81 77 82 56 83 57 84
REMARK SMILES IDX 65 85 58 86 64 87 59 88 60 89 61 90 62 91 63 92
REMARK H PARENT 84 48 54 59
REMARK Flexibility Score: inf
ROOT
ATOM      1  C   UNL A   1      36.756  32.690  34.370  1.00  0.00     0.188 C 
ENDROOT
BRANCH   1   2
ATOM      2  O   UNL A   1      35.514  32.750  33.699  1.00  0.00    -0.376 OA
BRANCH   2   3
ATOM      3  C   UNL A   1      34.919  34.033  33.556  1.00  0.00     0.202 C 
BRANCH   3   4
ATOM      4  C   UNL A   1      34.607  34.515  32.133  1.00  0.00     0.261 C 
BRANCH   4   5
ATOM      5  O   UNL A   1      34.604  33.458  31.111  1.00  0.00    -0.463 OA
BRANCH   5   6
ATOM      6  C   UNL A   1      34.113  33.873  29.916  1.00  0.00     0.313 C 
ATOM      7  O   UNL A   1      33.151  34.645  29.879  1.00  0.00    -0.252 OA
BRANCH   6   8
ATOM      8  C   UNL A   1      34.799  33.437  28.569  1.00  0.00     0.080 C 
ATOM      9  C   UNL A   1      34.766  34.673  27.700  1.00  0.00     0.025 C 
ATOM     10  C   UNL A   1      33.732  32.421  28.051  1.00  0.00     0.025 C 
BRANCH   8  11
ATOM     11  C   UNL A   1      36.184  32.734  28.336  1.00  0.00     0.140 C 
BRANCH  11  12
ATOM     12  N   UNL A   1      37.362  32.866  29.228  1.00  0.00    -0.346 N 
ATOM     13  C   UNL A   1      38.087  34.043  29.242  1.00  0.00     0.087 A 
ATOM     14  C   UNL A   1      37.844  32.053  30.280  1.00  0.00     0.055 A 
ATOM     15  C   UNL A   1      39.111  33.940  30.145  1.00  0.00     0.028 A 
ATOM     16  C   UNL A   1      39.005  32.681  30.776  1.00  0.00     0.000 A 
ATOM     17  C   UNL A   1      37.457  30.795  30.832  1.00  0.00     0.112 A 
ATOM     18  C   UNL A   1      39.835  32.030  31.720  1.00  0.00     0.017 A 
ATOM     19  C   UNL A   1      38.342  30.145  31.736  1.00  0.00     0.271 A 
ATOM     20  C   UNL A   1      39.527  30.746  32.160  1.00  0.00     0.086 A 
BRANCH  19  21
ATOM     21  N   UNL A   1      38.074  28.761  32.175  1.00  0.00     0.062 N 
ATOM     22  O   UNL A   1      38.802  27.866  31.731  1.00  0.00    -0.258 OA
ATOM     23  O   UNL A   1      37.173  28.587  33.009  1.00  0.00    -0.258 OA
ENDBRANCH  19  21
ENDBRANCH  11  12
ENDBRANCH   8  11
ENDBRANCH   6   8
ENDBRANCH   5   6
ENDBRANCH   4   5
ENDBRANCH   3   4
ENDBRANCH   2   3
ENDBRANCH   1   2
BRANCH   1  24
ATOM     24  C   UNL A   1      37.698  33.895  34.214  1.00  0.00     0.188 C 
BRANCH  24  25
ATOM     25  O   UNL A   1      39.053  33.757  34.602  1.00  0.00    -0.376 OA
BRANCH  25  26
ATOM     26  C   UNL A   1      39.272  33.604  36.003  1.00  0.00     0.202 C 
BRANCH  26  27
ATOM     27  C   UNL A   1      39.348  32.166  36.562  1.00  0.00     0.261 C 
BRANCH  27  28
ATOM     28  O   UNL A   1      39.963  31.239  35.628  1.00  0.00    -0.460 OA
BRANCH  28  29
ATOM     29  C   UNL A   1      41.249  30.855  35.920  1.00  0.00     0.338 C 
ATOM     30  O   UNL A   1      41.782  30.938  36.999  1.00  0.00    -0.246 OA
BRANCH  29  31
ATOM     31  C   UNL A   1      41.705  29.920  34.835  1.00  0.00     0.060 A 
ATOM     32  C   UNL A   1      41.210  28.638  34.576  1.00  0.00     0.016 A 
ATOM     33  C   UNL A   1      42.873  30.318  34.197  1.00  0.00     0.016 A 
ATOM     34  C   UNL A   1      41.956  27.732  33.766  1.00  0.00     0.010 A 
ATOM     35  C   UNL A   1      43.629  29.402  33.469  1.00  0.00     0.010 A 
ATOM     36  C   UNL A   1      43.220  28.078  33.266  1.00  0.00    -0.014 A 
BRANCH  36  37
ATOM     37  C   UNL A   1      43.987  27.334  32.222  1.00  0.00     0.031 A 
ATOM     38  C   UNL A   1      45.247  26.807  32.777  1.00  0.00     0.074 A 
ATOM     39  C   UNL A   1      43.694  26.954  30.943  1.00  0.00     0.049 A 
ATOM     40  N   UNL A   1      46.399  27.261  32.424  1.00  0.00    -0.248 NA
ATOM     41  C   UNL A   1      45.292  25.853  33.888  1.00  0.00     0.031 C 
ATOM     42  C   UNL A   1      42.641  27.445  30.055  1.00  0.00     0.029 A 
ATOM     43  N   UNL A   1      44.244  25.932  30.171  1.00  0.00    -0.354 N 
ATOM     44  C   UNL A   1      47.323  26.462  33.059  1.00  0.00     0.074 A 
ATOM     45  C   UNL A   1      46.608  25.737  34.076  1.00  0.00     0.031 C 
ATOM     46  C   UNL A   1      42.461  26.593  29.012  1.00  0.00     0.029 A 
ATOM     47  C   UNL A   1      43.460  25.524  29.075  1.00  0.00     0.049 A 
ATOM     48  H   UNL A   1      45.117  25.525  30.377  1.00  0.00     0.167 HD
ATOM     49  C   UNL A   1      48.545  26.283  32.501  1.00  0.00     0.031 A 
ATOM     50  C   UNL A   1      43.799  24.803  27.967  1.00  0.00     0.031 A 
ATOM     51  C   UNL A   1      48.784  27.226  31.433  1.00  0.00     0.049 A 
ATOM     52  C   UNL A   1      45.189  25.161  27.646  1.00  0.00     0.074 A 
ATOM     53  C   UNL A   1      48.959  28.592  31.370  1.00  0.00     0.029 A 
ATOM     54  N   UNL A   1      48.399  26.805  30.183  1.00  0.00    -0.354 N 
ATOM     55  N   UNL A   1      45.534  26.337  27.214  1.00  0.00    -0.248 NA
ATOM     56  C   UNL A   1      46.284  24.284  28.039  1.00  0.00     0.031 C 
ATOM     57  C   UNL A   1      48.459  29.001  30.101  1.00  0.00     0.029 A 
ATOM     58  C   UNL A   1      48.045  27.875  29.392  1.00  0.00     0.049 A 
ATOM     59  H   UNL A   1      48.379  25.864  29.893  1.00  0.00     0.167 HD
ATOM     60  C   UNL A   1      46.786  26.516  27.755  1.00  0.00     0.074 A 
ATOM     61  C   UNL A   1      47.276  25.177  28.049  1.00  0.00     0.031 C 
ATOM     62  C   UNL A   1      47.165  27.730  28.243  1.00  0.00     0.031 A 
BRANCH  49  63
ATOM     63  C   UNL A   1      49.336  25.023  32.658  1.00  0.00    -0.014 A 
ATOM     64  C   UNL A   1      50.691  24.914  32.279  1.00  0.00     0.010 A 
ATOM     65  C   UNL A   1      48.787  23.972  33.413  1.00  0.00     0.010 A 
ATOM     66  C   UNL A   1      51.453  23.789  32.590  1.00  0.00     0.020 A 
ATOM     67  C   UNL A   1      49.555  22.857  33.765  1.00  0.00     0.020 A 
ATOM     68  C   UNL A   1      50.878  22.766  33.337  1.00  0.00     0.054 A 
BRANCH  68  69
ATOM     69  S   UNL A   1      51.912  21.351  33.780  1.00  0.00     0.124 S 
ATOM     70  O   UNL A   1      50.914  20.369  34.196  1.00  0.00    -0.237 OA
ATOM     71  O   UNL A   1      52.600  21.061  32.525  1.00  0.00    -0.237 OA
ATOM     72  O   UNL A   1      52.762  21.869  34.850  1.00  0.00    -0.744 OA
ENDBRANCH  68  69
ENDBRANCH  49  63
BRANCH  50  73
ATOM     73  C   UNL A   1      43.180  23.591  27.341  1.00  0.00    -0.014 A 
ATOM     74  C   UNL A   1      42.102  22.906  27.930  1.00  0.00     0.010 A 
ATOM     75  C   UNL A   1      43.839  22.949  26.264  1.00  0.00     0.010 A 
ATOM     76  C   UNL A   1      41.765  21.595  27.529  1.00  0.00     0.020 A 
ATOM     77  C   UNL A   1      43.514  21.640  25.862  1.00  0.00     0.020 A 
ATOM     78  C   UNL A   1      42.500  20.954  26.526  1.00  0.00     0.054 A 
BRANCH  78  79
ATOM     79  S   UNL A   1      42.172  19.198  26.165  1.00  0.00     0.124 S 
ATOM     80  O   UNL A   1      40.723  19.186  25.983  1.00  0.00    -0.237 OA
ATOM     81  O   UNL A   1      42.957  18.969  24.955  1.00  0.00    -0.237 OA
ATOM     82  O   UNL A   1      42.654  18.499  27.354  1.00  0.00    -0.744 OA
ENDBRANCH  78  79
ENDBRANCH  50  73
BRANCH  62  83
ATOM     83  C   UNL A   1      46.466  28.969  27.717  1.00  0.00    -0.014 A 
ATOM     84  C   UNL A   1      47.107  29.699  26.702  1.00  0.00     0.010 A 
ATOM     85  C   UNL A   1      45.278  29.498  28.255  1.00  0.00     0.010 A 
ATOM     86  C   UNL A   1      46.622  30.942  26.288  1.00  0.00     0.020 A 
ATOM     87  C   UNL A   1      44.766  30.733  27.829  1.00  0.00     0.020 A 
ATOM     88  C   UNL A   1      45.464  31.463  26.869  1.00  0.00     0.054 A 
BRANCH  88  89
ATOM     89  S   UNL A   1      44.917  33.116  26.365  1.00  0.00     0.124 S 
ATOM     90  O   UNL A   1      43.833  32.813  25.434  1.00  0.00    -0.237 OA
ATOM     91  O   UNL A   1      44.501  33.718  27.630  1.00  0.00    -0.237 OA
ATOM     92  O   UNL A   1      46.104  33.716  25.758  1.00  0.00    -0.744 OA
ENDBRANCH  88  89
ENDBRANCH  62  83
ENDBRANCH  36  37
ENDBRANCH  29  31
ENDBRANCH  28  29
ENDBRANCH  27  28
ENDBRANCH  26  27
ENDBRANCH  25  26
ENDBRANCH  24  25
ENDBRANCH   1  24
TORSDOF 23
ENDMDL
MODEL 3
REMARK VINA RESULT:      -8.9      1.799      2.442
REMARK SMILES CC(C)(Cn1ccc2ccc([N+](=O)[O-])cc21)C(=O)OCCOCCOCCOC(=O)c1ccc(-c2c3nc(c(-c4ccc(S(=O)(=O)[O-])cc4)c4ccc([nH]4)c(-c4ccc(S(=O)(=O)[O-])cc4)c4nc(c(-c5ccc(S(=O)(=O)[O-])cc5)c5ccc2[nH]5)C=C4)C=C3)cc1
REMARK SMILES IDX 23 1 22 2 21 3 20 4 19 5 17 6 18 7 2 8 1 9 3 10 4 11 5 12
REMARK SMILES IDX 6 13 16 14 7 15 8 16 15 17 9 18 11 19 10 20 12 21 13 22
REMARK SMILES IDX 14 23 24 24 25 25 26 26 27 27 28 28 29 29 30 30 31 31 32 32
REMARK SMILES IDX 90 33 33 34 89 35 34 36 35 37 36 38 83 39 37 40 88 41 82 42
REMARK SMILES IDX 84 43 38 44 87 45 81 46 80 47 39 49 69 50 50 51 68 52 51 53
REMARK SMILES IDX 54 54 67 55 85 56 52 57 53 58 66 60 86 61 55 62 40 63 41 64
REMARK SMILES IDX 49 65 42 66 48 67 43 68 44 69 45 70 46 71 47 72 70 73 71 74
REMARK SMILES IDX 79 75 72 76 78 77 73 78 74 79 75 80 76 81 77 82 56 83 57 84
REMARK SMILES IDX 65 85 58 86 64 87 59 88 60 89 61 90 62 91 63 92
REMARK H PARENT 84 48 54 59
REMARK Flexibility Score: inf
ROOT
ATOM      1  C   UNL A   1      33.513  34.083  29.234  1.00  0.00     0.188 C 
ENDROOT
BRANCH   1   2
ATOM      2  O   UNL A   1      32.531  34.478  28.299  1.00  0.00    -0.376 OA
BRANCH   2   3
ATOM      3  C   UNL A   1      32.240  33.569  27.246  1.00  0.00     0.202 C 
BRANCH   3   4
ATOM      4  C   UNL A   1      32.050  32.091  27.617  1.00  0.00     0.261 C 
BRANCH   4   5
ATOM      5  O   UNL A   1      32.078  31.161  26.478  1.00  0.00    -0.463 OA
BRANCH   5   6
ATOM      6  C   UNL A   1      33.049  30.220  26.582  1.00  0.00     0.313 C 
ATOM      7  O   UNL A   1      34.129  30.504  27.107  1.00  0.00    -0.252 OA
BRANCH   6   8
ATOM      8  C   UNL A   1      32.794  28.744  26.102  1.00  0.00     0.080 C 
ATOM      9  C   UNL A   1      34.025  27.979  26.530  1.00  0.00     0.025 C 
ATOM     10  C   UNL A   1      32.839  28.961  24.557  1.00  0.00     0.025 C 
BRANCH   8  11
ATOM     11  C   UNL A   1      31.552  27.814  26.351  1.00  0.00     0.140 C 
BRANCH  11  12
ATOM     12  N   UNL A   1      31.134  26.702  25.464  1.00  0.00    -0.346 N 
ATOM     13  C   UNL A   1      30.141  26.907  24.524  1.00  0.00     0.087 A 
ATOM     14  C   UNL A   1      31.692  25.424  25.226  1.00  0.00     0.055 A 
ATOM     15  C   UNL A   1      29.936  25.754  23.815  1.00  0.00     0.028 A 
ATOM     16  C   UNL A   1      30.868  24.796  24.271  1.00  0.00     0.000 A 
ATOM     17  C   UNL A   1      32.785  24.691  25.777  1.00  0.00     0.112 A 
ATOM     18  C   UNL A   1      31.047  23.430  23.945  1.00  0.00     0.017 A 
ATOM     19  C   UNL A   1      32.901  23.307  25.471  1.00  0.00     0.271 A 
ATOM     20  C   UNL A   1      32.031  22.678  24.581  1.00  0.00     0.086 A 
BRANCH  19  21
ATOM     21  N   UNL A   1      33.895  22.470  26.172  1.00  0.00     0.062 N 
ATOM     22  O   UNL A   1      33.618  21.278  26.353  1.00  0.00    -0.258 OA
ATOM     23  O   UNL A   1      34.974  22.997  26.485  1.00  0.00    -0.258 OA
ENDBRANCH  19  21
ENDBRANCH  11  12
ENDBRANCH   8  11
ENDBRANCH   6   8
ENDBRANCH   5   6
ENDBRANCH   4   5
ENDBRANCH   3   4
ENDBRANCH   2   3
ENDBRANCH   1   2
BRANCH   1  24
ATOM     24  C   UNL A   1      33.697  34.969  30.476  1.00  0.00     0.188 C 
BRANCH  24  25
ATOM     25  O   UNL A   1      34.483  34.485  31.551  1.00  0.00    -0.376 OA
BRANCH  25  26
ATOM     26  C   UNL A   1      34.571  33.065  31.648  1.00  0.00     0.202 C 
BRANCH  26  27
ATOM     27  C   UNL A   1      35.977  32.444  31.803  1.00  0.00     0.261 C 
BRANCH  27  28
ATOM     28  O   UNL A   1      37.004  33.222  31.132  1.00  0.00    -0.460 OA
BRANCH  28  29
ATOM     29  C   UNL A   1      37.049  33.107  29.765  1.00  0.00     0.338 C 
ATOM     30  O   UNL A   1      36.600  33.901  28.975  1.00  0.00    -0.246 OA
BRANCH  29  31
ATOM     31  C   UNL A   1      38.118  32.107  29.423  1.00  0.00     0.060 A 
ATOM     32  C   UNL A   1      37.938  30.883  28.770  1.00  0.00     0.016 A 
ATOM     33  C   UNL A   1      39.345  32.360  30.023  1.00  0.00     0.016 A 
ATOM     34  C   UNL A   1      38.955  29.885  28.824  1.00  0.00     0.010 A 
ATOM     35  C   UNL A   1      40.300  31.352  30.134  1.00  0.00     0.010 A 
ATOM     36  C   UNL A   1      40.121  30.078  29.579  1.00  0.00    -0.014 A 
BRANCH  36  37
ATOM     37  C   UNL A   1      41.352  29.234  29.527  1.00  0.00     0.031 A 
ATOM     38  C   UNL A   1      41.741  28.796  30.880  1.00  0.00     0.074 A 
ATOM     39  C   UNL A   1      42.079  28.707  28.497  1.00  0.00     0.049 A 
ATOM     40  N   UNL A   1      42.805  29.227  31.465  1.00  0.00    -0.248 NA
ATOM     41  C   UNL A   1      40.878  27.975  31.732  1.00  0.00     0.031 C 
ATOM     42  C   UNL A   1      42.072  29.075  27.082  1.00  0.00     0.029 A 
ATOM     43  N   UNL A   1      42.944  27.614  28.488  1.00  0.00    -0.354 N 
ATOM     44  C   UNL A   1      42.891  28.522  32.644  1.00  0.00     0.074 A 
ATOM     45  C   UNL A   1      41.607  27.904  32.847  1.00  0.00     0.031 C 
ATOM     46  C   UNL A   1      42.664  28.108  26.335  1.00  0.00     0.029 A 
ATOM     47  C   UNL A   1      43.205  27.070  27.216  1.00  0.00     0.049 A 
ATOM     48  H   UNL A   1      43.343  27.248  29.311  1.00  0.00     0.167 HD
ATOM     49  C   UNL A   1      44.106  28.302  33.202  1.00  0.00     0.031 A 
ATOM     50  C   UNL A   1      44.200  26.235  26.800  1.00  0.00     0.031 A 
ATOM     51  C   UNL A   1      45.126  29.122  32.592  1.00  0.00     0.049 A 
ATOM     52  C   UNL A   1      45.390  26.578  27.592  1.00  0.00     0.074 A 
ATOM     53  C   UNL A   1      45.390  30.475  32.559  1.00  0.00     0.029 A 
ATOM     54  N   UNL A   1      45.767  28.555  31.516  1.00  0.00    -0.354 N 
ATOM     55  N   UNL A   1      46.027  27.703  27.460  1.00  0.00    -0.248 NA
ATOM     56  C   UNL A   1      45.764  25.771  28.746  1.00  0.00     0.031 C 
ATOM     57  C   UNL A   1      46.028  30.728  31.312  1.00  0.00     0.029 A 
ATOM     58  C   UNL A   1      46.196  29.522  30.634  1.00  0.00     0.049 A 
ATOM     59  H   UNL A   1      45.900  27.588  31.392  1.00  0.00     0.167 HD
ATOM     60  C   UNL A   1      46.473  27.965  28.735  1.00  0.00     0.074 A 
ATOM     61  C   UNL A   1      46.483  26.676  29.413  1.00  0.00     0.031 C 
ATOM     62  C   UNL A   1      46.452  29.233  29.232  1.00  0.00     0.031 A 
BRANCH  49  63
ATOM     63  C   UNL A   1      44.425  27.082  34.007  1.00  0.00    -0.014 A 
ATOM     64  C   UNL A   1      44.468  25.785  33.453  1.00  0.00     0.010 A 
ATOM     65  C   UNL A   1      44.919  27.246  35.313  1.00  0.00     0.010 A 
ATOM     66  C   UNL A   1      44.932  24.690  34.180  1.00  0.00     0.020 A 
ATOM     67  C   UNL A   1      45.424  26.160  36.037  1.00  0.00     0.020 A 
ATOM     68  C   UNL A   1      45.412  24.887  35.470  1.00  0.00     0.054 A 
BRANCH  68  69
ATOM     69  S   UNL A   1      46.067  23.458  36.363  1.00  0.00     0.124 S 
ATOM     70  O   UNL A   1      47.479  23.809  36.495  1.00  0.00    -0.237 OA
ATOM     71  O   UNL A   1      45.292  23.479  37.600  1.00  0.00    -0.237 OA
ATOM     72  O   UNL A   1      45.783  22.337  35.469  1.00  0.00    -0.744 OA
ENDBRANCH  68  69
ENDBRANCH  49  63
BRANCH  50  73
ATOM     73  C   UNL A   1      44.164  24.949  26.032  1.00  0.00    -0.014 A 
ATOM     74  C   UNL A   1      43.242  23.926  26.319  1.00  0.00     0.010 A 
ATOM     75  C   UNL A   1      45.234  24.625  25.163  1.00  0.00     0.010 A 
ATOM     76  C   UNL A   1      43.440  22.612  25.842  1.00  0.00     0.020 A 
ATOM     77  C   UNL A   1      45.441  23.317  24.687  1.00  0.00     0.020 A 
ATOM     78  C   UNL A   1      44.561  22.306  25.064  1.00  0.00     0.054 A 
BRANCH  78  79
ATOM     79  S   UNL A   1      44.895  20.569  24.626  1.00  0.00     0.124 S 
ATOM     80  O   UNL A   1      44.001  19.847  25.527  1.00  0.00    -0.237 OA
ATOM     81  O   UNL A   1      44.533  20.520  23.212  1.00  0.00    -0.237 OA
ATOM     82  O   UNL A   1      46.321  20.405  24.903  1.00  0.00    -0.744 OA
ENDBRANCH  78  79
ENDBRANCH  50  73
BRANCH  62  83
ATOM     83  C   UNL A   1      46.467  30.392  28.254  1.00  0.00    -0.014 A 
ATOM     84  C   UNL A   1      47.708  30.980  27.959  1.00  0.00     0.010 A 
ATOM     85  C   UNL A   1      45.312  30.988  27.713  1.00  0.00     0.010 A 
ATOM     86  C   UNL A   1      47.789  32.158  27.211  1.00  0.00     0.020 A 
ATOM     87  C   UNL A   1      45.384  32.156  26.939  1.00  0.00     0.020 A 
ATOM     88  C   UNL A   1      46.624  32.752  26.722  1.00  0.00     0.054 A 
BRANCH  88  89
ATOM     89  S   UNL A   1      46.768  34.324  25.832  1.00  0.00     0.124 S 
ATOM     90  O   UNL A   1      46.692  35.301  26.917  1.00  0.00    -0.237 OA
ATOM     91  O   UNL A   1      48.074  34.212  25.187  1.00  0.00    -0.237 OA
ATOM     92  O   UNL A   1      45.627  34.325  24.919  1.00  0.00    -0.744 OA
ENDBRANCH  88  89
ENDBRANCH  62  83
ENDBRANCH  36  37
ENDBRANCH  29  31
ENDBRANCH  28  29
ENDBRANCH  27  28
ENDBRANCH  26  27
ENDBRANCH  25  26
ENDBRANCH  24  25
ENDBRANCH   1  24
TORSDOF 23
ENDMDL
