MODEL 1
REMARK VINA RESULT:     -10.3      0.000      0.000
REMARK SMILES Cc1c(CC(=O)OCCOCCOCCOC(=O)c2ccc(-c3c4nc(c(-c5ccc(S(=O)(=O)[O-])cc5)c5ccc([nH]5)c(-c5ccc(S(=O)(=O)[O-])cc5)c5nc(c(-c6ccc(S(=O)(=O)[O-])cc6)c6ccc3[nH]6)C=C5)C=C4)cc2)cc(-c2ccccc2)cc1-c1ccccc1
REMARK SMILES IDX 12 1 11 2 10 3 9 4 8 5 7 6 5 7 6 8 4 9 3 10 1 11 2 12 88 13
REMARK SMILES IDX 79 14 87 15 80 16 89 17 90 18 94 19 91 20 93 21 92 22 81 23
REMARK SMILES IDX 82 24 86 25 83 26 85 27 84 28 13 29 14 30 15 31 16 32 17 33
REMARK SMILES IDX 18 34 19 35 20 36 78 37 21 38 77 39 22 40 23 41 24 42 71 43
REMARK SMILES IDX 25 44 76 45 70 46 72 47 26 48 75 49 69 50 68 51 27 53 57 54
REMARK SMILES IDX 38 55 56 56 39 57 42 58 55 59 73 60 40 61 41 62 54 64 74 65
REMARK SMILES IDX 43 66 28 67 29 68 37 69 30 70 36 71 31 72 32 73 33 74 34 75
REMARK SMILES IDX 35 76 58 77 59 78 67 79 60 80 66 81 61 82 62 83 63 84 64 85
REMARK SMILES IDX 65 86 44 87 45 88 53 89 46 90 52 91 47 92 48 93 49 94 50 95
REMARK SMILES IDX 51 96
REMARK H PARENT 72 52 42 63
REMARK Flexibility Score: inf
ROOT
ATOM      1  C   UNL A   1      47.469  27.576  24.133  1.00  0.00     0.188 C 
ENDROOT
BRANCH   1   2
ATOM      2  C   UNL A   1      46.418  28.051  25.148  1.00  0.00     0.188 C 
BRANCH   2   3
ATOM      3  O   UNL A   1      44.992  27.823  25.020  1.00  0.00    -0.376 OA
BRANCH   3   4
ATOM      4  C   UNL A   1      44.291  26.627  25.417  1.00  0.00     0.202 C 
BRANCH   4   5
ATOM      5  C   UNL A   1      43.127  26.491  26.672  1.00  0.00     0.261 C 
BRANCH   5   6
ATOM      6  O   UNL A   1      41.424  26.530  26.632  1.00  0.00    -0.463 OA
BRANCH   6   7
ATOM      7  C   UNL A   1      40.284  26.592  27.505  1.00  0.00     0.310 C 
ATOM      8  O   UNL A   1      39.422  27.466  27.643  1.00  0.00    -0.252 OA
BRANCH   7   9
ATOM      9  C   UNL A   1      39.896  25.458  28.375  1.00  0.00     0.158 C 
BRANCH   9  10
ATOM     10  C   UNL A   1      39.744  24.205  27.643  1.00  0.00    -0.033 A 
ATOM     11  C   UNL A   1      42.041  23.388  28.345  1.00  0.00     0.045 C 
ATOM     12  C   UNL A   1      40.765  23.256  27.531  1.00  0.00    -0.039 A 
ATOM     13  C   UNL A   1      40.519  22.168  26.681  1.00  0.00    -0.015 A 
ATOM     14  C   UNL A   1      38.522  24.078  27.011  1.00  0.00     0.013 A 
ATOM     15  C   UNL A   1      39.298  22.099  25.957  1.00  0.00     0.017 A 
ATOM     16  C   UNL A   1      38.289  23.047  26.134  1.00  0.00    -0.017 A 
BRANCH  13  17
ATOM     17  C   UNL A   1      41.521  21.113  26.536  1.00  0.00    -0.018 A 
ATOM     18  C   UNL A   1      41.341  19.870  27.155  1.00  0.00     0.009 A 
ATOM     19  C   UNL A   1      42.628  21.306  25.694  1.00  0.00     0.009 A 
ATOM     20  C   UNL A   1      42.266  18.847  26.954  1.00  0.00     0.001 A 
ATOM     21  C   UNL A   1      43.545  20.279  25.485  1.00  0.00     0.001 A 
ATOM     22  C   UNL A   1      43.367  19.054  26.123  1.00  0.00     0.000 A 
ENDBRANCH  13  17
BRANCH  16  23
ATOM     23  C   UNL A   1      37.017  23.121  25.431  1.00  0.00    -0.018 A 
ATOM     24  C   UNL A   1      36.954  22.777  24.074  1.00  0.00     0.009 A 
ATOM     25  C   UNL A   1      35.945  23.828  26.005  1.00  0.00     0.009 A 
ATOM     26  C   UNL A   1      35.837  23.121  23.313  1.00  0.00     0.001 A 
ATOM     27  C   UNL A   1      34.836  24.178  25.241  1.00  0.00     0.001 A 
ATOM     28  C   UNL A   1      34.781  23.821  23.896  1.00  0.00     0.000 A 
ENDBRANCH  16  23
ENDBRANCH   9  10
ENDBRANCH   7   9
ENDBRANCH   6   7
ENDBRANCH   5   6
ENDBRANCH   4   5
ENDBRANCH   3   4
ENDBRANCH   2   3
ENDBRANCH   1   2
BRANCH   1  29
ATOM     29  O   UNL A   1      47.442  26.165  23.980  1.00  0.00    -0.376 OA
BRANCH  29  30
ATOM     30  C   UNL A   1      47.912  25.412  25.093  1.00  0.00     0.202 C 
BRANCH  30  31
ATOM     31  C   UNL A   1      49.348  25.762  25.563  1.00  0.00     0.261 C 
BRANCH  31  32
ATOM     32  O   UNL A   1      49.393  26.142  26.960  1.00  0.00    -0.460 OA
BRANCH  32  33
ATOM     33  C   UNL A   1      49.452  25.141  27.927  1.00  0.00     0.338 C 
ATOM     34  O   UNL A   1      49.997  24.095  27.735  1.00  0.00    -0.246 OA
BRANCH  33  35
ATOM     35  C   UNL A   1      48.859  25.661  29.229  1.00  0.00     0.060 A 
ATOM     36  C   UNL A   1      49.269  25.540  30.568  1.00  0.00     0.016 A 
ATOM     37  C   UNL A   1      47.653  26.240  29.091  1.00  0.00     0.016 A 
ATOM     38  C   UNL A   1      48.374  25.843  31.719  1.00  0.00     0.010 A 
ATOM     39  C   UNL A   1      46.814  26.264  30.195  1.00  0.00     0.010 A 
ATOM     40  C   UNL A   1      47.026  26.185  31.565  1.00  0.00    -0.014 A 
BRANCH  40  41
ATOM     41  C   UNL A   1      45.784  26.282  32.606  1.00  0.00     0.031 A 
ATOM     42  C   UNL A   1      44.786  27.503  33.203  1.00  0.00     0.074 A 
ATOM     43  C   UNL A   1      45.460  25.083  33.133  1.00  0.00     0.049 A 
ATOM     44  N   UNL A   1      44.272  27.490  34.424  1.00  0.00    -0.248 NA
ATOM     45  C   UNL A   1      44.382  28.848  32.626  1.00  0.00     0.031 C 
ATOM     46  C   UNL A   1      44.299  24.716  33.930  1.00  0.00     0.029 A 
ATOM     47  N   UNL A   1      46.257  23.950  33.156  1.00  0.00    -0.354 N 
ATOM     48  C   UNL A   1      43.480  28.638  34.588  1.00  0.00     0.074 A 
ATOM     49  C   UNL A   1      43.917  29.554  33.634  1.00  0.00     0.031 C 
ATOM     50  C   UNL A   1      44.569  23.566  34.569  1.00  0.00     0.029 A 
ATOM     51  C   UNL A   1      45.953  23.219  34.300  1.00  0.00     0.049 A 
ATOM     52  H   UNL A   1      46.925  23.702  32.476  1.00  0.00     0.167 HD
ATOM     53  C   UNL A   1      42.368  28.733  35.367  1.00  0.00     0.031 A 
ATOM     54  C   UNL A   1      46.946  23.032  35.217  1.00  0.00     0.031 A 
ATOM     55  C   UNL A   1      42.355  27.626  36.292  1.00  0.00     0.049 A 
ATOM     56  C   UNL A   1      46.689  23.798  36.505  1.00  0.00     0.074 A 
ATOM     57  C   UNL A   1      41.641  26.456  36.441  1.00  0.00     0.029 A 
ATOM     58  N   UNL A   1      43.499  27.477  37.054  1.00  0.00    -0.354 N 
ATOM     59  N   UNL A   1      45.557  24.381  36.811  1.00  0.00    -0.248 NA
ATOM     60  C   UNL A   1      47.711  24.019  37.529  1.00  0.00     0.031 C 
ATOM     61  C   UNL A   1      42.431  25.575  37.255  1.00  0.00     0.029 A 
ATOM     62  C   UNL A   1      43.580  26.241  37.647  1.00  0.00     0.049 A 
ATOM     63  H   UNL A   1      44.181  28.180  37.159  1.00  0.00     0.167 HD
ATOM     64  C   UNL A   1      45.716  25.127  37.948  1.00  0.00     0.074 A 
ATOM     65  C   UNL A   1      47.068  24.830  38.389  1.00  0.00     0.031 C 
ATOM     66  C   UNL A   1      44.773  25.985  38.435  1.00  0.00     0.031 A 
BRANCH  53  67
ATOM     67  C   UNL A   1      41.253  29.785  35.150  1.00  0.00    -0.014 A 
ATOM     68  C   UNL A   1      41.075  30.833  36.071  1.00  0.00     0.010 A 
ATOM     69  C   UNL A   1      40.272  29.754  34.120  1.00  0.00     0.010 A 
ATOM     70  C   UNL A   1      39.982  31.738  35.992  1.00  0.00     0.020 A 
ATOM     71  C   UNL A   1      39.200  30.654  34.007  1.00  0.00     0.020 A 
ATOM     72  C   UNL A   1      39.043  31.634  34.964  1.00  0.00     0.054 A 
BRANCH  72  73
ATOM     73  S   UNL A   1      37.592  32.723  34.905  1.00  0.00     0.124 S 
ATOM     74  O   UNL A   1      36.745  32.063  33.916  1.00  0.00    -0.237 OA
ATOM     75  O   UNL A   1      37.110  32.687  36.281  1.00  0.00    -0.237 OA
ATOM     76  O   UNL A   1      38.138  34.012  34.478  1.00  0.00    -0.744 OA
ENDBRANCH  72  73
ENDBRANCH  53  67
BRANCH  54  77
ATOM     77  C   UNL A   1      48.261  22.698  34.557  1.00  0.00    -0.014 A 
ATOM     78  C   UNL A   1      49.217  23.747  34.518  1.00  0.00     0.010 A 
ATOM     79  C   UNL A   1      48.725  21.389  34.340  1.00  0.00     0.010 A 
ATOM     80  C   UNL A   1      50.589  23.491  34.437  1.00  0.00     0.020 A 
ATOM     81  C   UNL A   1      50.111  21.128  34.219  1.00  0.00     0.020 A 
ATOM     82  C   UNL A   1      51.031  22.177  34.332  1.00  0.00     0.054 A 
BRANCH  82  83
ATOM     83  S   UNL A   1      52.816  21.880  34.561  1.00  0.00     0.124 S 
ATOM     84  O   UNL A   1      52.859  20.462  34.904  1.00  0.00    -0.237 OA
ATOM     85  O   UNL A   1      53.336  22.220  33.236  1.00  0.00    -0.237 OA
ATOM     86  O   UNL A   1      53.175  22.797  35.639  1.00  0.00    -0.744 OA
ENDBRANCH  82  83
ENDBRANCH  54  77
BRANCH  66  87
ATOM     87  C   UNL A   1      44.967  26.746  39.719  1.00  0.00    -0.014 A 
ATOM     88  C   UNL A   1      44.324  26.336  40.897  1.00  0.00     0.010 A 
ATOM     89  C   UNL A   1      45.667  27.975  39.754  1.00  0.00     0.010 A 
ATOM     90  C   UNL A   1      44.409  27.100  42.067  1.00  0.00     0.020 A 
ATOM     91  C   UNL A   1      45.737  28.756  40.907  1.00  0.00     0.020 A 
ATOM     92  C   UNL A   1      45.119  28.304  42.064  1.00  0.00     0.054 A 
BRANCH  92  93
ATOM     93  S   UNL A   1      45.177  29.305  43.568  1.00  0.00     0.124 S 
ATOM     94  O   UNL A   1      46.568  29.751  43.607  1.00  0.00    -0.237 OA
ATOM     95  O   UNL A   1      44.193  30.344  43.274  1.00  0.00    -0.237 OA
ATOM     96  O   UNL A   1      44.801  28.369  44.625  1.00  0.00    -0.744 OA
ENDBRANCH  92  93
ENDBRANCH  66  87
ENDBRANCH  40  41
ENDBRANCH  33  35
ENDBRANCH  32  33
ENDBRANCH  31  32
ENDBRANCH  30  31
ENDBRANCH  29  30
ENDBRANCH   1  29
TORSDOF 23
ENDMDL
MODEL 2
REMARK VINA RESULT:      -9.8      5.195      9.359
REMARK SMILES Cc1c(CC(=O)OCCOCCOCCOC(=O)c2ccc(-c3c4nc(c(-c5ccc(S(=O)(=O)[O-])cc5)c5ccc([nH]5)c(-c5ccc(S(=O)(=O)[O-])cc5)c5nc(c(-c6ccc(S(=O)(=O)[O-])cc6)c6ccc3[nH]6)C=C5)C=C4)cc2)cc(-c2ccccc2)cc1-c1ccccc1
REMARK SMILES IDX 12 1 11 2 10 3 9 4 8 5 7 6 5 7 6 8 4 9 3 10 1 11 2 12 88 13
REMARK SMILES IDX 79 14 87 15 80 16 89 17 90 18 94 19 91 20 93 21 92 22 81 23
REMARK SMILES IDX 82 24 86 25 83 26 85 27 84 28 13 29 14 30 15 31 16 32 17 33
REMARK SMILES IDX 18 34 19 35 20 36 78 37 21 38 77 39 22 40 23 41 24 42 71 43
REMARK SMILES IDX 25 44 76 45 70 46 72 47 26 48 75 49 69 50 68 51 27 53 57 54
REMARK SMILES IDX 38 55 56 56 39 57 42 58 55 59 73 60 40 61 41 62 54 64 74 65
REMARK SMILES IDX 43 66 28 67 29 68 37 69 30 70 36 71 31 72 32 73 33 74 34 75
REMARK SMILES IDX 35 76 58 77 59 78 67 79 60 80 66 81 61 82 62 83 63 84 64 85
REMARK SMILES IDX 65 86 44 87 45 88 53 89 46 90 52 91 47 92 48 93 49 94 50 95
REMARK SMILES IDX 51 96
REMARK H PARENT 72 52 42 63
REMARK Flexibility Score: inf
ROOT
ATOM      1  C   UNL A   1      40.399  26.980  26.629  1.00  0.00     0.188 C 
ENDROOT
BRANCH   1   2
ATOM      2  C   UNL A   1      40.211  28.334  27.330  1.00  0.00     0.188 C 
BRANCH   2   3
ATOM      3  O   UNL A   1      39.136  28.637  28.255  1.00  0.00    -0.376 OA
BRANCH   3   4
ATOM      4  C   UNL A   1      37.731  28.417  28.016  1.00  0.00     0.202 C 
BRANCH   4   5
ATOM      5  C   UNL A   1      36.494  29.608  28.019  1.00  0.00     0.261 C 
BRANCH   5   6
ATOM      6  O   UNL A   1      34.803  29.471  27.854  1.00  0.00    -0.463 OA
BRANCH   6   7
ATOM      7  C   UNL A   1      33.805  28.738  27.125  1.00  0.00     0.310 C 
ATOM      8  O   UNL A   1      32.716  28.281  27.487  1.00  0.00    -0.252 OA
BRANCH   7   9
ATOM      9  C   UNL A   1      33.915  28.495  25.668  1.00  0.00     0.158 C 
BRANCH   9  10
ATOM     10  C   UNL A   1      32.863  27.624  25.155  1.00  0.00    -0.033 A 
ATOM     11  C   UNL A   1      34.177  25.526  25.709  1.00  0.00     0.045 C 
ATOM     12  C   UNL A   1      32.993  26.235  25.073  1.00  0.00    -0.039 A 
ATOM     13  C   UNL A   1      31.955  25.545  24.428  1.00  0.00    -0.015 A 
ATOM     14  C   UNL A   1      31.756  28.308  24.690  1.00  0.00     0.013 A 
ATOM     15  C   UNL A   1      30.870  26.268  23.865  1.00  0.00     0.017 A 
ATOM     16  C   UNL A   1      30.759  27.653  24.009  1.00  0.00    -0.017 A 
BRANCH  13  17
ATOM     17  C   UNL A   1      31.996  24.087  24.332  1.00  0.00    -0.018 A 
ATOM     18  C   UNL A   1      32.628  23.461  23.251  1.00  0.00     0.009 A 
ATOM     19  C   UNL A   1      31.482  23.298  25.374  1.00  0.00     0.009 A 
ATOM     20  C   UNL A   1      32.723  22.072  23.202  1.00  0.00     0.001 A 
ATOM     21  C   UNL A   1      31.588  21.911  25.330  1.00  0.00     0.001 A 
ATOM     22  C   UNL A   1      32.200  21.299  24.239  1.00  0.00     0.000 A 
ENDBRANCH  13  17
BRANCH  16  23
ATOM     23  C   UNL A   1      29.731  28.517  23.450  1.00  0.00    -0.018 A 
ATOM     24  C   UNL A   1      29.953  29.898  23.372  1.00  0.00     0.009 A 
ATOM     25  C   UNL A   1      28.422  28.028  23.294  1.00  0.00     0.009 A 
ATOM     26  C   UNL A   1      28.892  30.768  23.129  1.00  0.00     0.001 A 
ATOM     27  C   UNL A   1      27.362  28.899  23.060  1.00  0.00     0.001 A 
ATOM     28  C   UNL A   1      27.598  30.269  22.975  1.00  0.00     0.000 A 
ENDBRANCH  16  23
ENDBRANCH   9  10
ENDBRANCH   7   9
ENDBRANCH   6   7
ENDBRANCH   5   6
ENDBRANCH   4   5
ENDBRANCH   3   4
ENDBRANCH   2   3
ENDBRANCH   1   2
BRANCH   1  29
ATOM     29  O   UNL A   1      39.661  25.954  27.276  1.00  0.00    -0.376 OA
BRANCH  29  30
ATOM     30  C   UNL A   1      39.623  24.701  26.602  1.00  0.00     0.202 C 
BRANCH  30  31
ATOM     31  C   UNL A   1      39.973  23.472  27.481  1.00  0.00     0.261 C 
BRANCH  31  32
ATOM     32  O   UNL A   1      40.631  22.424  26.727  1.00  0.00    -0.460 OA
BRANCH  32  33
ATOM     33  C   UNL A   1      41.933  22.635  26.279  1.00  0.00     0.338 C 
ATOM     34  O   UNL A   1      42.293  22.318  25.184  1.00  0.00    -0.246 OA
BRANCH  33  35
ATOM     35  C   UNL A   1      42.706  23.425  27.325  1.00  0.00     0.060 A 
ATOM     36  C   UNL A   1      43.017  23.158  28.670  1.00  0.00     0.016 A 
ATOM     37  C   UNL A   1      43.054  24.662  26.933  1.00  0.00     0.016 A 
ATOM     38  C   UNL A   1      43.501  24.206  29.611  1.00  0.00     0.010 A 
ATOM     39  C   UNL A   1      43.268  25.619  27.913  1.00  0.00     0.010 A 
ATOM     40  C   UNL A   1      43.600  25.557  29.260  1.00  0.00    -0.014 A 
BRANCH  40  41
ATOM     41  C   UNL A   1      43.811  26.913  30.129  1.00  0.00     0.031 A 
ATOM     42  C   UNL A   1      42.815  28.034  30.898  1.00  0.00     0.074 A 
ATOM     43  C   UNL A   1      45.114  27.230  30.279  1.00  0.00     0.049 A 
ATOM     44  N   UNL A   1      43.122  29.318  31.017  1.00  0.00    -0.248 NA
ATOM     45  C   UNL A   1      41.409  27.919  31.457  1.00  0.00     0.031 C 
ATOM     46  C   UNL A   1      45.720  28.231  31.143  1.00  0.00     0.029 A 
ATOM     47  N   UNL A   1      46.170  26.763  29.512  1.00  0.00    -0.354 N 
ATOM     48  C   UNL A   1      42.092  29.961  31.722  1.00  0.00     0.074 A 
ATOM     49  C   UNL A   1      40.967  29.150  31.594  1.00  0.00     0.031 C 
ATOM     50  C   UNL A   1      46.958  28.488  30.694  1.00  0.00     0.029 A 
ATOM     51  C   UNL A   1      47.147  27.752  29.456  1.00  0.00     0.049 A 
ATOM     52  H   UNL A   1      46.222  25.878  29.082  1.00  0.00     0.167 HD
ATOM     53  C   UNL A   1      42.239  31.034  32.545  1.00  0.00     0.031 A 
ATOM     54  C   UNL A   1      47.458  28.269  28.232  1.00  0.00     0.031 A 
ATOM     55  C   UNL A   1      43.517  31.650  32.279  1.00  0.00     0.049 A 
ATOM     56  C   UNL A   1      47.003  29.712  28.087  1.00  0.00     0.074 A 
ATOM     57  C   UNL A   1      44.737  31.738  32.914  1.00  0.00     0.029 A 
ATOM     58  N   UNL A   1      43.747  31.986  30.958  1.00  0.00    -0.354 N 
ATOM     59  N   UNL A   1      46.576  30.461  29.072  1.00  0.00    -0.248 NA
ATOM     60  C   UNL A   1      46.938  30.411  26.802  1.00  0.00     0.031 C 
ATOM     61  C   UNL A   1      45.717  32.064  31.916  1.00  0.00     0.029 A 
ATOM     62  C   UNL A   1      45.073  32.237  30.702  1.00  0.00     0.049 A 
ATOM     63  H   UNL A   1      43.039  32.039  30.276  1.00  0.00     0.167 HD
ATOM     64  C   UNL A   1      46.081  31.636  28.576  1.00  0.00     0.074 A 
ATOM     65  C   UNL A   1      46.373  31.580  27.154  1.00  0.00     0.031 C 
ATOM     66  C   UNL A   1      45.411  32.559  29.326  1.00  0.00     0.031 A 
BRANCH  53  67
ATOM     67  C   UNL A   1      41.243  31.396  33.674  1.00  0.00    -0.014 A 
ATOM     68  C   UNL A   1      41.602  31.217  35.022  1.00  0.00     0.010 A 
ATOM     69  C   UNL A   1      39.898  31.821  33.489  1.00  0.00     0.010 A 
ATOM     70  C   UNL A   1      40.677  31.401  36.086  1.00  0.00     0.020 A 
ATOM     71  C   UNL A   1      38.976  32.035  34.527  1.00  0.00     0.020 A 
ATOM     72  C   UNL A   1      39.364  31.799  35.829  1.00  0.00     0.054 A 
BRANCH  72  73
ATOM     73  S   UNL A   1      38.149  31.946  37.169  1.00  0.00     0.124 S 
ATOM     74  O   UNL A   1      37.658  30.577  37.298  1.00  0.00    -0.237 OA
ATOM     75  O   UNL A   1      38.956  32.439  38.279  1.00  0.00    -0.237 OA
ATOM     76  O   UNL A   1      37.167  32.900  36.650  1.00  0.00    -0.744 OA
ENDBRANCH  72  73
ENDBRANCH  53  67
BRANCH  54  77
ATOM     77  C   UNL A   1      47.555  27.193  27.179  1.00  0.00    -0.014 A 
ATOM     78  C   UNL A   1      47.944  25.908  27.641  1.00  0.00     0.010 A 
ATOM     79  C   UNL A   1      46.948  27.270  25.913  1.00  0.00     0.010 A 
ATOM     80  C   UNL A   1      47.592  24.741  26.957  1.00  0.00     0.020 A 
ATOM     81  C   UNL A   1      46.624  26.093  25.198  1.00  0.00     0.020 A 
ATOM     82  C   UNL A   1      46.894  24.839  25.758  1.00  0.00     0.054 A 
BRANCH  82  83
ATOM     83  S   UNL A   1      46.181  23.302  25.084  1.00  0.00     0.124 S 
ATOM     84  O   UNL A   1      47.285  22.762  24.295  1.00  0.00    -0.237 OA
ATOM     85  O   UNL A   1      45.870  22.567  26.310  1.00  0.00    -0.237 OA
ATOM     86  O   UNL A   1      45.032  23.772  24.315  1.00  0.00    -0.744 OA
ENDBRANCH  82  83
ENDBRANCH  54  77
BRANCH  66  87
ATOM     87  C   UNL A   1      44.929  33.865  28.752  1.00  0.00    -0.014 A 
ATOM     88  C   UNL A   1      45.567  35.070  29.084  1.00  0.00     0.010 A 
ATOM     89  C   UNL A   1      43.739  33.946  27.993  1.00  0.00     0.010 A 
ATOM     90  C   UNL A   1      45.059  36.298  28.644  1.00  0.00     0.020 A 
ATOM     91  C   UNL A   1      43.210  35.166  27.572  1.00  0.00     0.020 A 
ATOM     92  C   UNL A   1      43.885  36.337  27.887  1.00  0.00     0.054 A 
BRANCH  92  93
ATOM     93  S   UNL A   1      43.213  37.934  27.371  1.00  0.00     0.124 S 
ATOM     94  O   UNL A   1      44.335  38.542  26.659  1.00  0.00    -0.237 OA
ATOM     95  O   UNL A   1      42.086  37.528  26.536  1.00  0.00    -0.237 OA
ATOM     96  O   UNL A   1      42.857  38.585  28.630  1.00  0.00    -0.744 OA
ENDBRANCH  92  93
ENDBRANCH  66  87
ENDBRANCH  40  41
ENDBRANCH  33  35
ENDBRANCH  32  33
ENDBRANCH  31  32
ENDBRANCH  30  31
ENDBRANCH  29  30
ENDBRANCH   1  29
TORSDOF 23
ENDMDL
MODEL 3
REMARK VINA RESULT:      -9.4      7.707     13.550
REMARK SMILES Cc1c(CC(=O)OCCOCCOCCOC(=O)c2ccc(-c3c4nc(c(-c5ccc(S(=O)(=O)[O-])cc5)c5ccc([nH]5)c(-c5ccc(S(=O)(=O)[O-])cc5)c5nc(c(-c6ccc(S(=O)(=O)[O-])cc6)c6ccc3[nH]6)C=C5)C=C4)cc2)cc(-c2ccccc2)cc1-c1ccccc1
REMARK SMILES IDX 12 1 11 2 10 3 9 4 8 5 7 6 5 7 6 8 4 9 3 10 1 11 2 12 88 13
REMARK SMILES IDX 79 14 87 15 80 16 89 17 90 18 94 19 91 20 93 21 92 22 81 23
REMARK SMILES IDX 82 24 86 25 83 26 85 27 84 28 13 29 14 30 15 31 16 32 17 33
REMARK SMILES IDX 18 34 19 35 20 36 78 37 21 38 77 39 22 40 23 41 24 42 71 43
REMARK SMILES IDX 25 44 76 45 70 46 72 47 26 48 75 49 69 50 68 51 27 53 57 54
REMARK SMILES IDX 38 55 56 56 39 57 42 58 55 59 73 60 40 61 41 62 54 64 74 65
REMARK SMILES IDX 43 66 28 67 29 68 37 69 30 70 36 71 31 72 32 73 33 74 34 75
REMARK SMILES IDX 35 76 58 77 59 78 67 79 60 80 66 81 61 82 62 83 63 84 64 85
REMARK SMILES IDX 65 86 44 87 45 88 53 89 46 90 52 91 47 92 48 93 49 94 50 95
REMARK SMILES IDX 51 96
REMARK H PARENT 72 52 42 63
REMARK Flexibility Score: inf
ROOT
ATOM      1  C   UNL A   1      37.780  31.091  29.761  1.00  0.00     0.188 C 
ENDROOT
BRANCH   1   2
ATOM      2  C   UNL A   1      36.696  31.929  29.066  1.00  0.00     0.188 C 
BRANCH   2   3
ATOM      3  O   UNL A   1      35.287  31.584  29.034  1.00  0.00    -0.376 OA
BRANCH   3   4
ATOM      4  C   UNL A   1      34.243  32.365  28.420  1.00  0.00     0.202 C 
BRANCH   4   5
ATOM      5  C   UNL A   1      33.048  31.796  27.326  1.00  0.00     0.261 C 
BRANCH   5   6
ATOM      6  O   UNL A   1      32.904  30.317  26.491  1.00  0.00    -0.463 OA
BRANCH   6   7
ATOM      7  C   UNL A   1      33.215  28.921  26.623  1.00  0.00     0.310 C 
ATOM      8  O   UNL A   1      33.059  28.147  27.574  1.00  0.00    -0.252 OA
BRANCH   7   9
ATOM      9  C   UNL A   1      33.726  28.118  25.489  1.00  0.00     0.158 C 
BRANCH   9  10
ATOM     10  C   UNL A   1      32.724  27.216  24.932  1.00  0.00    -0.033 A 
ATOM     11  C   UNL A   1      34.045  25.156  25.602  1.00  0.00     0.045 C 
ATOM     12  C   UNL A   1      32.887  25.828  24.884  1.00  0.00    -0.039 A 
ATOM     13  C   UNL A   1      31.903  25.105  24.194  1.00  0.00    -0.015 A 
ATOM     14  C   UNL A   1      31.633  27.868  24.391  1.00  0.00     0.013 A 
ATOM     15  C   UNL A   1      30.838  25.795  23.554  1.00  0.00     0.017 A 
ATOM     16  C   UNL A   1      30.691  27.179  23.665  1.00  0.00    -0.017 A 
BRANCH  13  17
ATOM     17  C   UNL A   1      31.979  23.646  24.128  1.00  0.00    -0.018 A 
ATOM     18  C   UNL A   1      32.465  23.009  22.980  1.00  0.00     0.009 A 
ATOM     19  C   UNL A   1      31.650  22.873  25.253  1.00  0.00     0.009 A 
ATOM     20  C   UNL A   1      32.600  21.623  22.952  1.00  0.00     0.001 A 
ATOM     21  C   UNL A   1      31.796  21.489  25.228  1.00  0.00     0.001 A 
ATOM     22  C   UNL A   1      32.261  20.865  24.074  1.00  0.00     0.000 A 
ENDBRANCH  13  17
BRANCH  16  23
ATOM     23  C   UNL A   1      29.680  28.011  23.031  1.00  0.00    -0.018 A 
ATOM     24  C   UNL A   1      30.067  29.165  22.338  1.00  0.00     0.009 A 
ATOM     25  C   UNL A   1      28.327  27.846  23.378  1.00  0.00     0.009 A 
ATOM     26  C   UNL A   1      29.119  30.125  21.987  1.00  0.00     0.001 A 
ATOM     27  C   UNL A   1      27.384  28.810  23.035  1.00  0.00     0.001 A 
ATOM     28  C   UNL A   1      27.780  29.948  22.336  1.00  0.00     0.000 A 
ENDBRANCH  16  23
ENDBRANCH   9  10
ENDBRANCH   7   9
ENDBRANCH   6   7
ENDBRANCH   5   6
ENDBRANCH   4   5
ENDBRANCH   3   4
ENDBRANCH   2   3
ENDBRANCH   1   2
BRANCH   1  29
ATOM     29  O   UNL A   1      37.752  29.741  29.325  1.00  0.00    -0.376 OA
BRANCH  29  30
ATOM     30  C   UNL A   1      38.264  29.501  28.019  1.00  0.00     0.202 C 
BRANCH  30  31
ATOM     31  C   UNL A   1      39.443  28.495  27.950  1.00  0.00     0.261 C 
BRANCH  31  32
ATOM     32  O   UNL A   1      40.663  29.108  27.466  1.00  0.00    -0.460 OA
BRANCH  32  33
ATOM     33  C   UNL A   1      41.574  29.614  28.390  1.00  0.00     0.338 C 
ATOM     34  O   UNL A   1      41.248  30.349  29.275  1.00  0.00    -0.246 OA
BRANCH  33  35
ATOM     35  C   UNL A   1      42.936  28.976  28.159  1.00  0.00     0.060 A 
ATOM     36  C   UNL A   1      43.670  28.026  28.890  1.00  0.00     0.016 A 
ATOM     37  C   UNL A   1      43.624  29.506  27.132  1.00  0.00     0.016 A 
ATOM     38  C   UNL A   1      45.122  27.779  28.667  1.00  0.00     0.010 A 
ATOM     39  C   UNL A   1      45.006  29.399  27.152  1.00  0.00     0.010 A 
ATOM     40  C   UNL A   1      45.894  28.534  27.777  1.00  0.00    -0.014 A 
BRANCH  40  41
ATOM     41  C   UNL A   1      47.496  28.679  27.550  1.00  0.00     0.031 A 
ATOM     42  C   UNL A   1      48.613  29.941  27.513  1.00  0.00     0.074 A 
ATOM     43  C   UNL A   1      48.094  27.488  27.335  1.00  0.00     0.049 A 
ATOM     44  N   UNL A   1      49.697  29.929  26.752  1.00  0.00    -0.248 NA
ATOM     45  C   UNL A   1      48.599  31.319  28.148  1.00  0.00     0.031 C 
ATOM     46  C   UNL A   1      49.513  27.170  27.294  1.00  0.00     0.029 A 
ATOM     47  N   UNL A   1      47.473  26.311  26.949  1.00  0.00    -0.354 N 
ATOM     48  C   UNL A   1      50.414  31.116  26.976  1.00  0.00     0.074 A 
ATOM     49  C   UNL A   1      49.503  32.027  27.507  1.00  0.00     0.031 C 
ATOM     50  C   UNL A   1      49.666  25.993  26.668  1.00  0.00     0.029 A 
ATOM     51  C   UNL A   1      48.365  25.573  26.178  1.00  0.00     0.049 A 
ATOM     52  H   UNL A   1      46.555  26.041  27.183  1.00  0.00     0.167 HD
ATOM     53  C   UNL A   1      51.765  31.257  26.902  1.00  0.00     0.031 A 
ATOM     54  C   UNL A   1      48.020  25.308  24.884  1.00  0.00     0.031 A 
ATOM     55  C   UNL A   1      52.308  30.132  26.181  1.00  0.00     0.049 A 
ATOM     56  C   UNL A   1      48.895  26.058  23.894  1.00  0.00     0.074 A 
ATOM     57  C   UNL A   1      53.034  29.001  26.492  1.00  0.00     0.029 A 
ATOM     58  N   UNL A   1      51.751  29.901  24.938  1.00  0.00    -0.354 N 
ATOM     59  N   UNL A   1      49.994  26.698  24.205  1.00  0.00    -0.248 NA
ATOM     60  C   UNL A   1      48.568  26.197  22.473  1.00  0.00     0.031 C 
ATOM     61  C   UNL A   1      52.831  28.058  25.428  1.00  0.00     0.029 A 
ATOM     62  C   UNL A   1      52.043  28.649  24.454  1.00  0.00     0.049 A 
ATOM     63  H   UNL A   1      51.205  30.560  24.452  1.00  0.00     0.167 HD
ATOM     64  C   UNL A   1      50.437  27.407  23.122  1.00  0.00     0.074 A 
ATOM     65  C   UNL A   1      49.539  27.024  22.046  1.00  0.00     0.031 C 
ATOM     66  C   UNL A   1      51.463  28.307  23.167  1.00  0.00     0.031 A 
BRANCH  53  67
ATOM     67  C   UNL A   1      52.554  32.376  27.625  1.00  0.00    -0.014 A 
ATOM     68  C   UNL A   1      52.749  33.623  27.005  1.00  0.00     0.010 A 
ATOM     69  C   UNL A   1      53.224  32.245  28.873  1.00  0.00     0.010 A 
ATOM     70  C   UNL A   1      53.582  34.629  27.565  1.00  0.00     0.020 A 
ATOM     71  C   UNL A   1      54.030  33.236  29.458  1.00  0.00     0.020 A 
ATOM     72  C   UNL A   1      54.228  34.423  28.786  1.00  0.00     0.054 A 
BRANCH  72  73
ATOM     73  S   UNL A   1      55.367  35.662  29.465  1.00  0.00     0.124 S 
ATOM     74  O   UNL A   1      55.346  36.702  28.441  1.00  0.00    -0.237 OA
ATOM     75  O   UNL A   1      54.742  36.007  30.737  1.00  0.00    -0.237 OA
ATOM     76  O   UNL A   1      56.638  34.944  29.579  1.00  0.00    -0.744 OA
ENDBRANCH  72  73
ENDBRANCH  53  67
BRANCH  54  77
ATOM     77  C   UNL A   1      46.569  24.915  24.762  1.00  0.00    -0.014 A 
ATOM     78  C   UNL A   1      46.314  23.524  24.632  1.00  0.00     0.010 A 
ATOM     79  C   UNL A   1      45.493  25.739  25.137  1.00  0.00     0.010 A 
ATOM     80  C   UNL A   1      45.096  22.959  25.021  1.00  0.00     0.020 A 
ATOM     81  C   UNL A   1      44.245  25.175  25.495  1.00  0.00     0.020 A 
ATOM     82  C   UNL A   1      44.082  23.785  25.492  1.00  0.00     0.054 A 
BRANCH  82  83
ATOM     83  S   UNL A   1      42.652  22.976  26.286  1.00  0.00     0.124 S 
ATOM     84  O   UNL A   1      43.186  22.603  27.593  1.00  0.00    -0.237 OA
ATOM     85  O   UNL A   1      41.675  24.064  26.295  1.00  0.00    -0.237 OA
ATOM     86  O   UNL A   1      42.355  21.863  25.389  1.00  0.00    -0.744 OA
ENDBRANCH  82  83
ENDBRANCH  54  77
BRANCH  66  87
ATOM     87  C   UNL A   1      51.955  29.027  21.939  1.00  0.00    -0.014 A 
ATOM     88  C   UNL A   1      51.151  29.983  21.301  1.00  0.00     0.010 A 
ATOM     89  C   UNL A   1      53.163  28.660  21.301  1.00  0.00     0.010 A 
ATOM     90  C   UNL A   1      51.555  30.574  20.098  1.00  0.00     0.020 A 
ATOM     91  C   UNL A   1      53.562  29.225  20.091  1.00  0.00     0.020 A 
ATOM     92  C   UNL A   1      52.761  30.194  19.503  1.00  0.00     0.054 A 
BRANCH  92  93
ATOM     93  S   UNL A   1      53.243  30.929  17.923  1.00  0.00     0.124 S 
ATOM     94  O   UNL A   1      52.736  32.295  18.034  1.00  0.00    -0.237 OA
ATOM     95  O   UNL A   1      54.697  30.794  17.962  1.00  0.00    -0.237 OA
ATOM     96  O   UNL A   1      52.564  30.099  16.931  1.00  0.00    -0.744 OA
ENDBRANCH  92  93
ENDBRANCH  66  87
ENDBRANCH  40  41
ENDBRANCH  33  35
ENDBRANCH  32  33
ENDBRANCH  31  32
ENDBRANCH  30  31
ENDBRANCH  29  30
ENDBRANCH   1  29
TORSDOF 23
ENDMDL
