MODEL 1
REMARK VINA RESULT:     -10.6      0.000      0.000
REMARK SMILES COc1cccc([C@@H]2CC(c3cccc(C)c3)=NN2C(=O)CCC(=O)OCCOCCOCCOC(=O)c2ccc(-c3c4nc(c(-c5ccc(S(=O)(=O)[O-])cc5)c5ccc([nH]5)c(-c5ccc(S(=O)(=O)[O-])cc5)c5nc(c(-c6ccc(S(=O)(=O)[O-])cc6)c6ccc3[nH]6)C=C5)C=C4)cc2)c1
REMARK SMILES IDX 30 1 29 2 28 3 27 4 26 5 24 6 25 7 23 8 22 9 20 10 21 11
REMARK SMILES IDX 19 12 8 13 9 14 10 15 18 16 7 17 3 18 4 19 98 20 5 21 6 22
REMARK SMILES IDX 2 23 1 24 11 25 12 26 17 27 13 28 15 29 14 30 16 31 31 32
REMARK SMILES IDX 32 33 33 34 34 35 35 36 36 37 37 38 38 39 39 40 97 41 40 42
REMARK SMILES IDX 96 43 41 44 42 45 43 46 90 47 44 48 95 49 89 50 91 51 45 52
REMARK SMILES IDX 94 53 88 54 87 55 46 57 76 58 57 59 75 60 58 61 61 62 74 63
REMARK SMILES IDX 92 64 59 65 60 66 73 68 93 69 62 70 47 71 48 72 56 73 49 74
REMARK SMILES IDX 55 75 50 76 51 77 52 78 53 79 54 80 77 81 78 82 86 83 79 84
REMARK SMILES IDX 85 85 80 86 81 87 82 88 83 89 84 90 63 91 64 92 72 93 65 94
REMARK SMILES IDX 71 95 66 96 67 97 68 98 69 99 70 100
REMARK H PARENT 91 56 61 67
REMARK Flexibility Score: inf
ROOT
ATOM      1  C   UNL A   1      33.563  24.315  25.537  1.00  0.00     0.188 C 
ENDROOT
BRANCH   1   2
ATOM      2  O   UNL A   1      33.098  25.574  24.945  1.00  0.00    -0.376 OA
BRANCH   2   3
ATOM      3  C   UNL A   1      31.948  26.029  24.148  1.00  0.00     0.202 C 
BRANCH   3   4
ATOM      4  C   UNL A   1      30.763  26.946  24.565  1.00  0.00     0.261 C 
BRANCH   4   5
ATOM      5  O   UNL A   1      31.134  27.947  25.475  1.00  0.00    -0.463 OA
BRANCH   5   6
ATOM      6  C   UNL A   1      31.158  29.154  24.889  1.00  0.00     0.306 C 
ATOM      7  O   UNL A   1      30.658  29.409  23.803  1.00  0.00    -0.252 OA
BRANCH   6   8
ATOM      8  C   UNL A   1      31.759  30.167  25.807  1.00  0.00     0.132 C 
BRANCH   8   9
ATOM      9  C   UNL A   1      32.544  29.691  27.057  1.00  0.00     0.114 C 
BRANCH   9  10
ATOM     10  C   UNL A   1      34.146  29.464  27.126  1.00  0.00     0.243 C 
ATOM     11  O   UNL A   1      34.468  28.652  26.221  1.00  0.00    -0.273 OA
BRANCH  10  12
ATOM     12  N   UNL A   1      35.217  30.109  27.914  1.00  0.00    -0.225 N 
ATOM     13  C   UNL A   1      35.798  31.241  29.197  1.00  0.00     0.147 C 
ATOM     14  C   UNL A   1      37.196  30.602  29.462  1.00  0.00     0.091 C 
ATOM     15  C   UNL A   1      37.349  29.619  28.332  1.00  0.00     0.071 C 
ATOM     16  N   UNL A   1      36.348  29.392  27.565  1.00  0.00    -0.174 NA
BRANCH  13  17
ATOM     17  C   UNL A   1      35.537  33.010  29.504  1.00  0.00    -0.019 A 
ATOM     18  C   UNL A   1      34.113  34.431  30.879  1.00  0.00     0.119 A 
ATOM     19  C   UNL A   1      33.532  35.075  29.780  1.00  0.00     0.046 A 
ATOM     20  C   UNL A   1      35.171  33.459  30.773  1.00  0.00     0.052 A 
ATOM     21  C   UNL A   1      34.200  35.027  28.616  1.00  0.00     0.004 A 
ATOM     22  C   UNL A   1      35.215  34.088  28.559  1.00  0.00     0.006 A 
BRANCH  18  23
ATOM     23  O   UNL A   1      33.444  34.790  32.004  1.00  0.00    -0.497 OA
ATOM     24  C   UNL A   1      33.803  36.002  32.605  1.00  0.00     0.278 C 
ENDBRANCH  18  23
ENDBRANCH  13  17
BRANCH  15  25
ATOM     25  C   UNL A   1      38.509  28.733  28.128  1.00  0.00    -0.002 A 
ATOM     26  C   UNL A   1      38.867  27.809  29.111  1.00  0.00     0.010 A 
ATOM     27  C   UNL A   1      39.429  29.088  27.132  1.00  0.00     0.013 A 
ATOM     28  C   UNL A   1      40.100  27.152  29.024  1.00  0.00     0.001 A 
ATOM     29  C   UNL A   1      40.672  28.447  27.048  1.00  0.00    -0.050 A 
ATOM     30  C   UNL A   1      40.987  27.455  27.986  1.00  0.00     0.003 A 
ATOM     31  C   UNL A   1      41.666  28.826  25.989  1.00  0.00     0.044 C 
ENDBRANCH  15  25
ENDBRANCH  10  12
ENDBRANCH   9  10
ENDBRANCH   8   9
ENDBRANCH   6   8
ENDBRANCH   5   6
ENDBRANCH   4   5
ENDBRANCH   3   4
ENDBRANCH   2   3
ENDBRANCH   1   2
BRANCH   1  32
ATOM     32  C   UNL A   1      35.098  23.273  25.825  1.00  0.00     0.188 C 
BRANCH  32  33
ATOM     33  O   UNL A   1      35.182  21.701  25.993  1.00  0.00    -0.376 OA
BRANCH  33  34
ATOM     34  C   UNL A   1      35.907  20.563  25.253  1.00  0.00     0.202 C 
BRANCH  34  35
ATOM     35  C   UNL A   1      37.613  20.141  25.032  1.00  0.00     0.261 C 
BRANCH  35  36
ATOM     36  O   UNL A   1      38.812  20.974  25.445  1.00  0.00    -0.460 OA
BRANCH  36  37
ATOM     37  C   UNL A   1      40.062  20.540  25.846  1.00  0.00     0.338 C 
ATOM     38  O   UNL A   1      40.415  19.393  25.793  1.00  0.00    -0.246 OA
BRANCH  37  39
ATOM     39  C   UNL A   1      41.062  21.696  26.176  1.00  0.00     0.060 A 
ATOM     40  C   UNL A   1      42.308  21.338  26.709  1.00  0.00     0.016 A 
ATOM     41  C   UNL A   1      40.859  23.081  26.029  1.00  0.00     0.016 A 
ATOM     42  C   UNL A   1      43.379  22.275  26.855  1.00  0.00     0.010 A 
ATOM     43  C   UNL A   1      41.914  24.046  26.297  1.00  0.00     0.010 A 
ATOM     44  C   UNL A   1      43.221  23.660  26.661  1.00  0.00    -0.014 A 
BRANCH  44  45
ATOM     45  C   UNL A   1      44.342  24.630  27.088  1.00  0.00     0.031 A 
ATOM     46  C   UNL A   1      44.247  25.219  28.493  1.00  0.00     0.074 A 
ATOM     47  C   UNL A   1      45.464  24.968  26.390  1.00  0.00     0.049 A 
ATOM     48  N   UNL A   1      45.034  26.070  29.110  1.00  0.00    -0.248 NA
ATOM     49  C   UNL A   1      43.140  24.734  29.330  1.00  0.00     0.031 C 
ATOM     50  C   UNL A   1      45.926  24.365  25.144  1.00  0.00     0.029 A 
ATOM     51  N   UNL A   1      46.461  25.909  26.647  1.00  0.00    -0.354 N 
ATOM     52  C   UNL A   1      44.529  26.187  30.403  1.00  0.00     0.074 A 
ATOM     53  C   UNL A   1      43.393  25.304  30.493  1.00  0.00     0.031 C 
ATOM     54  C   UNL A   1      47.043  24.981  24.709  1.00  0.00     0.029 A 
ATOM     55  C   UNL A   1      47.404  26.050  25.636  1.00  0.00     0.049 A 
ATOM     56  H   UNL A   1      46.495  26.433  27.480  1.00  0.00     0.167 HD
ATOM     57  C   UNL A   1      44.920  26.984  31.428  1.00  0.00     0.031 A 
ATOM     58  C   UNL A   1      48.421  26.931  25.453  1.00  0.00     0.031 A 
ATOM     59  C   UNL A   1      45.954  27.973  31.343  1.00  0.00     0.049 A 
ATOM     60  C   UNL A   1      48.703  27.976  26.514  1.00  0.00     0.074 A 
ATOM     61  C   UNL A   1      46.324  28.912  32.289  1.00  0.00     0.029 A 
ATOM     62  N   UNL A   1      46.762  28.175  30.237  1.00  0.00    -0.354 N 
ATOM     63  N   UNL A   1      48.153  28.112  27.698  1.00  0.00    -0.248 NA
ATOM     64  C   UNL A   1      49.739  28.984  26.223  1.00  0.00     0.031 C 
ATOM     65  C   UNL A   1      47.311  29.729  31.728  1.00  0.00     0.029 A 
ATOM     66  C   UNL A   1      47.608  29.247  30.464  1.00  0.00     0.049 A 
ATOM     67  H   UNL A   1      46.737  27.639  29.412  1.00  0.00     0.167 HD
ATOM     68  C   UNL A   1      48.798  29.192  28.298  1.00  0.00     0.074 A 
ATOM     69  C   UNL A   1      49.784  29.672  27.356  1.00  0.00     0.031 C 
ATOM     70  C   UNL A   1      48.592  29.727  29.528  1.00  0.00     0.031 A 
BRANCH  57  71
ATOM     71  C   UNL A   1      44.101  26.894  32.689  1.00  0.00    -0.014 A 
ATOM     72  C   UNL A   1      42.894  27.602  32.832  1.00  0.00     0.010 A 
ATOM     73  C   UNL A   1      44.591  26.143  33.773  1.00  0.00     0.010 A 
ATOM     74  C   UNL A   1      42.220  27.605  34.057  1.00  0.00     0.020 A 
ATOM     75  C   UNL A   1      43.904  26.120  34.988  1.00  0.00     0.020 A 
ATOM     76  C   UNL A   1      42.735  26.869  35.129  1.00  0.00     0.054 A 
BRANCH  76  77
ATOM     77  S   UNL A   1      41.854  26.906  36.714  1.00  0.00     0.124 S 
ATOM     78  O   UNL A   1      41.332  28.270  36.737  1.00  0.00    -0.237 OA
ATOM     79  O   UNL A   1      40.854  25.854  36.548  1.00  0.00    -0.237 OA
ATOM     80  O   UNL A   1      42.897  26.622  37.697  1.00  0.00    -0.744 OA
ENDBRANCH  76  77
ENDBRANCH  57  71
BRANCH  58  81
ATOM     81  C   UNL A   1      49.232  26.950  24.179  1.00  0.00    -0.014 A 
ATOM     82  C   UNL A   1      50.627  26.747  24.177  1.00  0.00     0.010 A 
ATOM     83  C   UNL A   1      48.611  27.261  22.953  1.00  0.00     0.010 A 
ATOM     84  C   UNL A   1      51.375  26.855  22.991  1.00  0.00     0.020 A 
ATOM     85  C   UNL A   1      49.347  27.344  21.762  1.00  0.00     0.020 A 
ATOM     86  C   UNL A   1      50.728  27.146  21.787  1.00  0.00     0.054 A 
BRANCH  86  87
ATOM     87  S   UNL A   1      51.699  27.220  20.249  1.00  0.00     0.124 S 
ATOM     88  O   UNL A   1      52.027  28.639  20.158  1.00  0.00    -0.237 OA
ATOM     89  O   UNL A   1      52.820  26.329  20.542  1.00  0.00    -0.237 OA
ATOM     90  O   UNL A   1      50.772  26.727  19.234  1.00  0.00    -0.744 OA
ENDBRANCH  86  87
ENDBRANCH  58  81
BRANCH  70  91
ATOM     91  C   UNL A   1      49.467  30.872  29.968  1.00  0.00    -0.014 A 
ATOM     92  C   UNL A   1      50.618  30.663  30.746  1.00  0.00     0.010 A 
ATOM     93  C   UNL A   1      49.177  32.171  29.510  1.00  0.00     0.010 A 
ATOM     94  C   UNL A   1      51.451  31.738  31.077  1.00  0.00     0.020 A 
ATOM     95  C   UNL A   1      50.022  33.242  29.813  1.00  0.00     0.020 A 
ATOM     96  C   UNL A   1      51.149  33.019  30.606  1.00  0.00     0.054 A 
BRANCH  96  97
ATOM     97  S   UNL A   1      52.275  34.386  31.001  1.00  0.00     0.124 S 
ATOM     98  O   UNL A   1      51.345  35.488  31.237  1.00  0.00    -0.237 OA
ATOM     99  O   UNL A   1      52.978  33.891  32.183  1.00  0.00    -0.237 OA
ATOM    100  O   UNL A   1      53.100  34.515  29.802  1.00  0.00    -0.744 OA
ENDBRANCH  96  97
ENDBRANCH  70  91
ENDBRANCH  44  45
ENDBRANCH  37  39
ENDBRANCH  36  37
ENDBRANCH  35  36
ENDBRANCH  34  35
ENDBRANCH  33  34
ENDBRANCH  32  33
ENDBRANCH   1  32
TORSDOF 26
ENDMDL
MODEL 2
REMARK VINA RESULT:      -9.6      6.641     12.330
REMARK SMILES COc1cccc([C@@H]2CC(c3cccc(C)c3)=NN2C(=O)CCC(=O)OCCOCCOCCOC(=O)c2ccc(-c3c4nc(c(-c5ccc(S(=O)(=O)[O-])cc5)c5ccc([nH]5)c(-c5ccc(S(=O)(=O)[O-])cc5)c5nc(c(-c6ccc(S(=O)(=O)[O-])cc6)c6ccc3[nH]6)C=C5)C=C4)cc2)c1
REMARK SMILES IDX 30 1 29 2 28 3 27 4 26 5 24 6 25 7 23 8 22 9 20 10 21 11
REMARK SMILES IDX 19 12 8 13 9 14 10 15 18 16 7 17 3 18 4 19 98 20 5 21 6 22
REMARK SMILES IDX 2 23 1 24 11 25 12 26 17 27 13 28 15 29 14 30 16 31 31 32
REMARK SMILES IDX 32 33 33 34 34 35 35 36 36 37 37 38 38 39 39 40 97 41 40 42
REMARK SMILES IDX 96 43 41 44 42 45 43 46 90 47 44 48 95 49 89 50 91 51 45 52
REMARK SMILES IDX 94 53 88 54 87 55 46 57 76 58 57 59 75 60 58 61 61 62 74 63
REMARK SMILES IDX 92 64 59 65 60 66 73 68 93 69 62 70 47 71 48 72 56 73 49 74
REMARK SMILES IDX 55 75 50 76 51 77 52 78 53 79 54 80 77 81 78 82 86 83 79 84
REMARK SMILES IDX 85 85 80 86 81 87 82 88 83 89 84 90 63 91 64 92 72 93 65 94
REMARK SMILES IDX 71 95 66 96 67 97 68 98 69 99 70 100
REMARK H PARENT 91 56 61 67
REMARK Flexibility Score: inf
ROOT
ATOM      1  C   UNL A   1      37.449  29.051  28.625  1.00  0.00     0.188 C 
ENDROOT
BRANCH   1   2
ATOM      2  O   UNL A   1      38.872  28.957  28.281  1.00  0.00    -0.376 OA
BRANCH   2   3
ATOM      3  C   UNL A   1      39.756  27.988  27.614  1.00  0.00     0.202 C 
BRANCH   3   4
ATOM      4  C   UNL A   1      39.957  26.473  27.908  1.00  0.00     0.261 C 
BRANCH   4   5
ATOM      5  O   UNL A   1      39.607  25.651  26.826  1.00  0.00    -0.463 OA
BRANCH   5   6
ATOM      6  C   UNL A   1      39.411  24.384  27.221  1.00  0.00     0.306 C 
ATOM      7  O   UNL A   1      39.573  23.979  28.364  1.00  0.00    -0.252 OA
BRANCH   6   8
ATOM      8  C   UNL A   1      38.840  23.572  26.105  1.00  0.00     0.132 C 
BRANCH   8   9
ATOM      9  C   UNL A   1      37.337  23.718  25.750  1.00  0.00     0.114 C 
BRANCH   9  10
ATOM     10  C   UNL A   1      36.277  22.498  25.646  1.00  0.00     0.243 C 
ATOM     11  O   UNL A   1      36.885  21.426  25.900  1.00  0.00    -0.273 OA
BRANCH  10  12
ATOM     12  N   UNL A   1      34.812  22.457  25.461  1.00  0.00    -0.225 N 
ATOM     13  C   UNL A   1      33.211  21.624  25.556  1.00  0.00     0.147 C 
ATOM     14  C   UNL A   1      32.289  22.882  25.575  1.00  0.00     0.091 C 
ATOM     15  C   UNL A   1      33.230  24.006  25.229  1.00  0.00     0.071 C 
ATOM     16  N   UNL A   1      34.487  23.770  25.171  1.00  0.00    -0.174 NA
BRANCH  13  17
ATOM     17  C   UNL A   1      32.586  20.052  24.896  1.00  0.00    -0.019 A 
ATOM     18  C   UNL A   1      33.266  17.714  24.811  1.00  0.00     0.119 A 
ATOM     19  C   UNL A   1      33.306  17.678  23.412  1.00  0.00     0.046 A 
ATOM     20  C   UNL A   1      32.832  18.858  25.572  1.00  0.00     0.052 A 
ATOM     21  C   UNL A   1      32.614  18.622  22.752  1.00  0.00     0.004 A 
ATOM     22  C   UNL A   1      32.207  19.698  23.522  1.00  0.00     0.006 A 
BRANCH  18  23
ATOM     23  O   UNL A   1      33.798  16.564  25.297  1.00  0.00    -0.497 OA
ATOM     24  C   UNL A   1      32.905  15.575  25.726  1.00  0.00     0.278 C 
ENDBRANCH  18  23
ENDBRANCH  13  17
BRANCH  15  25
ATOM     25  C   UNL A   1      32.852  25.428  25.130  1.00  0.00    -0.002 A 
ATOM     26  C   UNL A   1      33.337  26.211  24.081  1.00  0.00     0.010 A 
ATOM     27  C   UNL A   1      32.322  26.039  26.275  1.00  0.00     0.013 A 
ATOM     28  C   UNL A   1      33.180  27.600  24.129  1.00  0.00     0.001 A 
ATOM     29  C   UNL A   1      32.176  27.432  26.336  1.00  0.00    -0.050 A 
ATOM     30  C   UNL A   1      32.583  28.204  25.240  1.00  0.00     0.003 A 
ATOM     31  C   UNL A   1      31.617  28.095  27.560  1.00  0.00     0.044 C 
ENDBRANCH  15  25
ENDBRANCH  10  12
ENDBRANCH   9  10
ENDBRANCH   8   9
ENDBRANCH   6   8
ENDBRANCH   5   6
ENDBRANCH   4   5
ENDBRANCH   3   4
ENDBRANCH   2   3
ENDBRANCH   1   2
BRANCH   1  32
ATOM     32  C   UNL A   1      35.749  29.354  27.889  1.00  0.00     0.188 C 
BRANCH  32  33
ATOM     33  O   UNL A   1      35.126  30.734  27.429  1.00  0.00    -0.376 OA
BRANCH  33  34
ATOM     34  C   UNL A   1      34.791  32.065  28.126  1.00  0.00     0.202 C 
BRANCH  34  35
ATOM     35  C   UNL A   1      35.715  33.540  28.452  1.00  0.00     0.261 C 
BRANCH  35  36
ATOM     36  O   UNL A   1      35.860  34.238  29.791  1.00  0.00    -0.460 OA
BRANCH  36  37
ATOM     37  C   UNL A   1      35.256  33.923  30.994  1.00  0.00     0.338 C 
ATOM     38  O   UNL A   1      34.066  33.857  31.142  1.00  0.00    -0.246 OA
BRANCH  37  39
ATOM     39  C   UNL A   1      36.251  33.450  32.103  1.00  0.00     0.060 A 
ATOM     40  C   UNL A   1      37.622  33.583  31.839  1.00  0.00     0.016 A 
ATOM     41  C   UNL A   1      35.944  32.871  33.349  1.00  0.00     0.016 A 
ATOM     42  C   UNL A   1      38.621  33.386  32.844  1.00  0.00     0.010 A 
ATOM     43  C   UNL A   1      36.974  32.555  34.326  1.00  0.00     0.010 A 
ATOM     44  C   UNL A   1      38.336  32.860  34.119  1.00  0.00    -0.014 A 
BRANCH  44  45
ATOM     45  C   UNL A   1      39.488  32.433  35.050  1.00  0.00     0.031 A 
ATOM     46  C   UNL A   1      39.894  33.418  36.144  1.00  0.00     0.074 A 
ATOM     47  C   UNL A   1      40.143  31.236  35.073  1.00  0.00     0.049 A 
ATOM     48  N   UNL A   1      40.835  33.332  37.056  1.00  0.00    -0.248 NA
ATOM     49  C   UNL A   1      39.085  34.641  36.252  1.00  0.00     0.031 C 
ATOM     50  C   UNL A   1      39.791  30.040  34.316  1.00  0.00     0.029 A 
ATOM     51  N   UNL A   1      41.257  30.808  35.797  1.00  0.00    -0.354 N 
ATOM     52  C   UNL A   1      40.702  34.468  37.849  1.00  0.00     0.074 A 
ATOM     53  C   UNL A   1      39.577  35.211  37.336  1.00  0.00     0.031 C 
ATOM     54  C   UNL A   1      40.688  29.059  34.543  1.00  0.00     0.029 A 
ATOM     55  C   UNL A   1      41.712  29.538  35.468  1.00  0.00     0.049 A 
ATOM     56  H   UNL A   1      41.687  31.364  36.487  1.00  0.00     0.167 HD
ATOM     57  C   UNL A   1      41.458  34.908  38.884  1.00  0.00     0.031 A 
ATOM     58  C   UNL A   1      42.817  28.839  35.839  1.00  0.00     0.031 A 
ATOM     59  C   UNL A   1      42.662  34.277  39.341  1.00  0.00     0.049 A 
ATOM     60  C   UNL A   1      43.784  29.448  36.833  1.00  0.00     0.074 A 
ATOM     61  C   UNL A   1      43.559  34.727  40.293  1.00  0.00     0.029 A 
ATOM     62  N   UNL A   1      43.155  33.078  38.856  1.00  0.00    -0.354 N 
ATOM     63  N   UNL A   1      43.670  30.566  37.511  1.00  0.00    -0.248 NA
ATOM     64  C   UNL A   1      45.027  28.707  37.119  1.00  0.00     0.031 C 
ATOM     65  C   UNL A   1      44.633  33.832  40.335  1.00  0.00     0.029 A 
ATOM     66  C   UNL A   1      44.362  32.788  39.466  1.00  0.00     0.049 A 
ATOM     67  H   UNL A   1      42.714  32.517  38.178  1.00  0.00     0.167 HD
ATOM     68  C   UNL A   1      44.802  30.642  38.320  1.00  0.00     0.074 A 
ATOM     69  C   UNL A   1      45.589  29.457  38.058  1.00  0.00     0.031 C 
ATOM     70  C   UNL A   1      45.147  31.608  39.208  1.00  0.00     0.031 A 
BRANCH  57  71
ATOM     71  C   UNL A   1      41.056  36.229  39.488  1.00  0.00    -0.014 A 
ATOM     72  C   UNL A   1      41.706  37.426  39.134  1.00  0.00     0.010 A 
ATOM     73  C   UNL A   1      40.057  36.255  40.478  1.00  0.00     0.010 A 
ATOM     74  C   UNL A   1      41.402  38.616  39.802  1.00  0.00     0.020 A 
ATOM     75  C   UNL A   1      39.730  37.448  41.125  1.00  0.00     0.020 A 
ATOM     76  C   UNL A   1      40.421  38.616  40.799  1.00  0.00     0.054 A 
BRANCH  76  77
ATOM     77  S   UNL A   1      40.060  40.168  41.665  1.00  0.00     0.124 S 
ATOM     78  O   UNL A   1      39.122  39.728  42.695  1.00  0.00    -0.237 OA
ATOM     79  O   UNL A   1      41.376  40.579  42.147  1.00  0.00    -0.237 OA
ATOM     80  O   UNL A   1      39.486  41.020  40.625  1.00  0.00    -0.744 OA
ENDBRANCH  76  77
ENDBRANCH  57  71
BRANCH  58  81
ATOM     81  C   UNL A   1      43.150  27.501  35.223  1.00  0.00    -0.014 A 
ATOM     82  C   UNL A   1      42.866  26.285  35.879  1.00  0.00     0.010 A 
ATOM     83  C   UNL A   1      43.840  27.442  33.996  1.00  0.00     0.010 A 
ATOM     84  C   UNL A   1      43.263  25.054  35.327  1.00  0.00     0.020 A 
ATOM     85  C   UNL A   1      44.216  26.215  33.428  1.00  0.00     0.020 A 
ATOM     86  C   UNL A   1      43.931  25.026  34.099  1.00  0.00     0.054 A 
BRANCH  86  87
ATOM     87  S   UNL A   1      44.382  23.422  33.368  1.00  0.00     0.124 S 
ATOM     88  O   UNL A   1      44.416  23.729  31.942  1.00  0.00    -0.237 OA
ATOM     89  O   UNL A   1      45.677  23.147  33.987  1.00  0.00    -0.237 OA
ATOM     90  O   UNL A   1      43.299  22.536  33.789  1.00  0.00    -0.744 OA
ENDBRANCH  86  87
ENDBRANCH  58  81
BRANCH  70  91
ATOM     91  C   UNL A   1      46.412  31.427  40.008  1.00  0.00    -0.014 A 
ATOM     92  C   UNL A   1      47.660  31.844  39.517  1.00  0.00     0.010 A 
ATOM     93  C   UNL A   1      46.328  30.914  41.316  1.00  0.00     0.010 A 
ATOM     94  C   UNL A   1      48.806  31.730  40.312  1.00  0.00     0.020 A 
ATOM     95  C   UNL A   1      47.464  30.826  42.124  1.00  0.00     0.020 A 
ATOM     96  C   UNL A   1      48.699  31.225  41.612  1.00  0.00     0.054 A 
BRANCH  96  97
ATOM     97  S   UNL A   1      50.190  31.140  42.643  1.00  0.00     0.124 S 
ATOM     98  O   UNL A   1      50.657  29.779  42.392  1.00  0.00    -0.237 OA
ATOM     99  O   UNL A   1      51.024  32.204  42.089  1.00  0.00    -0.237 OA
ATOM    100  O   UNL A   1      49.692  31.387  43.995  1.00  0.00    -0.744 OA
ENDBRANCH  96  97
ENDBRANCH  70  91
ENDBRANCH  44  45
ENDBRANCH  37  39
ENDBRANCH  36  37
ENDBRANCH  35  36
ENDBRANCH  34  35
ENDBRANCH  33  34
ENDBRANCH  32  33
ENDBRANCH   1  32
TORSDOF 26
ENDMDL
MODEL 3
REMARK VINA RESULT:      -9.6      6.990     13.224
REMARK SMILES COc1cccc([C@@H]2CC(c3cccc(C)c3)=NN2C(=O)CCC(=O)OCCOCCOCCOC(=O)c2ccc(-c3c4nc(c(-c5ccc(S(=O)(=O)[O-])cc5)c5ccc([nH]5)c(-c5ccc(S(=O)(=O)[O-])cc5)c5nc(c(-c6ccc(S(=O)(=O)[O-])cc6)c6ccc3[nH]6)C=C5)C=C4)cc2)c1
REMARK SMILES IDX 30 1 29 2 28 3 27 4 26 5 24 6 25 7 23 8 22 9 20 10 21 11
REMARK SMILES IDX 19 12 8 13 9 14 10 15 18 16 7 17 3 18 4 19 98 20 5 21 6 22
REMARK SMILES IDX 2 23 1 24 11 25 12 26 17 27 13 28 15 29 14 30 16 31 31 32
REMARK SMILES IDX 32 33 33 34 34 35 35 36 36 37 37 38 38 39 39 40 97 41 40 42
REMARK SMILES IDX 96 43 41 44 42 45 43 46 90 47 44 48 95 49 89 50 91 51 45 52
REMARK SMILES IDX 94 53 88 54 87 55 46 57 76 58 57 59 75 60 58 61 61 62 74 63
REMARK SMILES IDX 92 64 59 65 60 66 73 68 93 69 62 70 47 71 48 72 56 73 49 74
REMARK SMILES IDX 55 75 50 76 51 77 52 78 53 79 54 80 77 81 78 82 86 83 79 84
REMARK SMILES IDX 85 85 80 86 81 87 82 88 83 89 84 90 63 91 64 92 72 93 65 94
REMARK SMILES IDX 71 95 66 96 67 97 68 98 69 99 70 100
REMARK H PARENT 91 56 61 67
REMARK Flexibility Score: inf
ROOT
ATOM      1  C   UNL A   1      38.422  28.557  28.986  1.00  0.00     0.188 C 
ENDROOT
BRANCH   1   2
ATOM      2  O   UNL A   1      39.324  27.762  28.146  1.00  0.00    -0.376 OA
BRANCH   2   3
ATOM      3  C   UNL A   1      39.832  26.382  28.119  1.00  0.00     0.202 C 
BRANCH   3   4
ATOM      4  C   UNL A   1      39.112  25.076  27.674  1.00  0.00     0.261 C 
BRANCH   4   5
ATOM      5  O   UNL A   1      39.962  24.176  27.014  1.00  0.00    -0.463 OA
BRANCH   5   6
ATOM      6  C   UNL A   1      39.289  23.099  26.581  1.00  0.00     0.306 C 
ATOM      7  O   UNL A   1      39.636  21.942  26.766  1.00  0.00    -0.252 OA
BRANCH   6   8
ATOM      8  C   UNL A   1      37.992  23.508  25.963  1.00  0.00     0.132 C 
BRANCH   8   9
ATOM      9  C   UNL A   1      36.886  22.443  25.741  1.00  0.00     0.114 C 
BRANCH   9  10
ATOM     10  C   UNL A   1      35.842  22.422  24.504  1.00  0.00     0.243 C 
ATOM     11  O   UNL A   1      36.498  22.500  23.433  1.00  0.00    -0.273 OA
BRANCH  10  12
ATOM     12  N   UNL A   1      34.383  22.201  24.426  1.00  0.00    -0.225 N 
ATOM     13  C   UNL A   1      32.896  21.219  24.727  1.00  0.00     0.147 C 
ATOM     14  C   UNL A   1      31.838  22.364  24.664  1.00  0.00     0.091 C 
ATOM     15  C   UNL A   1      32.623  23.532  24.127  1.00  0.00     0.071 C 
ATOM     16  N   UNL A   1      33.894  23.427  24.010  1.00  0.00    -0.174 NA
BRANCH  13  17
ATOM     17  C   UNL A   1      32.420  19.521  24.298  1.00  0.00    -0.019 A 
ATOM     18  C   UNL A   1      32.994  17.246  24.957  1.00  0.00     0.119 A 
ATOM     19  C   UNL A   1      33.433  16.885  23.677  1.00  0.00     0.046 A 
ATOM     20  C   UNL A   1      32.410  18.524  25.274  1.00  0.00     0.052 A 
ATOM     21  C   UNL A   1      33.000  17.629  22.646  1.00  0.00     0.004 A 
ATOM     22  C   UNL A   1      32.437  18.844  22.994  1.00  0.00     0.006 A 
BRANCH  18  23
ATOM     23  O   UNL A   1      33.315  16.257  25.828  1.00  0.00    -0.497 OA
ATOM     24  C   UNL A   1      32.964  14.949  25.471  1.00  0.00     0.278 C 
ENDBRANCH  18  23
ENDBRANCH  13  17
BRANCH  15  25
ATOM     25  C   UNL A   1      32.080  24.882  23.891  1.00  0.00    -0.002 A 
ATOM     26  C   UNL A   1      32.901  26.002  24.024  1.00  0.00     0.010 A 
ATOM     27  C   UNL A   1      30.686  25.030  23.898  1.00  0.00     0.013 A 
ATOM     28  C   UNL A   1      32.329  27.279  24.042  1.00  0.00     0.001 A 
ATOM     29  C   UNL A   1      30.105  26.305  23.933  1.00  0.00    -0.050 A 
ATOM     30  C   UNL A   1      30.940  27.429  23.975  1.00  0.00     0.003 A 
ATOM     31  C   UNL A   1      28.614  26.473  23.949  1.00  0.00     0.044 C 
ENDBRANCH  15  25
ENDBRANCH  10  12
ENDBRANCH   9  10
ENDBRANCH   8   9
ENDBRANCH   6   8
ENDBRANCH   5   6
ENDBRANCH   4   5
ENDBRANCH   3   4
ENDBRANCH   2   3
ENDBRANCH   1   2
BRANCH   1  32
ATOM     32  C   UNL A   1      36.966  29.741  28.917  1.00  0.00     0.188 C 
BRANCH  32  33
ATOM     33  O   UNL A   1      36.927  31.191  28.284  1.00  0.00    -0.376 OA
BRANCH  33  34
ATOM     34  C   UNL A   1      36.100  32.465  28.529  1.00  0.00     0.202 C 
BRANCH  34  35
ATOM     35  C   UNL A   1      34.869  32.913  29.722  1.00  0.00     0.261 C 
BRANCH  35  36
ATOM     36  O   UNL A   1      34.919  34.095  30.673  1.00  0.00    -0.460 OA
BRANCH  36  37
ATOM     37  C   UNL A   1      34.548  34.142  32.004  1.00  0.00     0.338 C 
ATOM     38  O   UNL A   1      33.445  34.438  32.376  1.00  0.00    -0.246 OA
BRANCH  37  39
ATOM     39  C   UNL A   1      35.623  33.572  32.985  1.00  0.00     0.060 A 
ATOM     40  C   UNL A   1      36.241  34.475  33.861  1.00  0.00     0.016 A 
ATOM     41  C   UNL A   1      36.080  32.244  33.088  1.00  0.00     0.016 A 
ATOM     42  C   UNL A   1      37.078  34.050  34.941  1.00  0.00     0.010 A 
ATOM     43  C   UNL A   1      37.029  31.835  34.112  1.00  0.00     0.010 A 
ATOM     44  C   UNL A   1      37.507  32.719  35.103  1.00  0.00    -0.014 A 
BRANCH  44  45
ATOM     45  C   UNL A   1      38.610  32.385  36.127  1.00  0.00     0.031 A 
ATOM     46  C   UNL A   1      38.231  32.476  37.603  1.00  0.00     0.074 A 
ATOM     47  C   UNL A   1      39.872  31.933  35.877  1.00  0.00     0.049 A 
ATOM     48  N   UNL A   1      38.956  32.268  38.679  1.00  0.00    -0.248 NA
ATOM     49  C   UNL A   1      36.825  32.791  37.898  1.00  0.00     0.031 C 
ATOM     50  C   UNL A   1      40.406  31.520  34.584  1.00  0.00     0.029 A 
ATOM     51  N   UNL A   1      40.958  31.713  36.726  1.00  0.00    -0.354 N 
ATOM     52  C   UNL A   1      38.084  32.399  39.756  1.00  0.00     0.074 A 
ATOM     53  C   UNL A   1      36.777  32.672  39.211  1.00  0.00     0.031 C 
ATOM     54  C   UNL A   1      41.706  31.180  34.698  1.00  0.00     0.029 A 
ATOM     55  C   UNL A   1      42.135  31.349  36.084  1.00  0.00     0.049 A 
ATOM     56  H   UNL A   1      40.895  31.809  37.704  1.00  0.00     0.167 HD
ATOM     57  C   UNL A   1      38.325  32.352  41.090  1.00  0.00     0.031 A 
ATOM     58  C   UNL A   1      43.407  31.186  36.532  1.00  0.00     0.031 A 
ATOM     59  C   UNL A   1      39.625  32.220  41.679  1.00  0.00     0.049 A 
ATOM     60  C   UNL A   1      43.706  31.365  38.006  1.00  0.00     0.074 A 
ATOM     61  C   UNL A   1      39.974  32.297  43.016  1.00  0.00     0.029 A 
ATOM     62  N   UNL A   1      40.796  32.017  40.968  1.00  0.00    -0.354 N 
ATOM     63  N   UNL A   1      42.868  31.568  38.996  1.00  0.00    -0.248 NA
ATOM     64  C   UNL A   1      45.116  31.294  38.431  1.00  0.00     0.031 C 
ATOM     65  C   UNL A   1      41.367  32.209  43.107  1.00  0.00     0.029 A 
ATOM     66  C   UNL A   1      41.874  31.999  41.835  1.00  0.00     0.049 A 
ATOM     67  H   UNL A   1      40.852  31.905  39.991  1.00  0.00     0.167 HD
ATOM     68  C   UNL A   1      43.643  31.613  40.153  1.00  0.00     0.074 A 
ATOM     69  C   UNL A   1      45.017  31.411  39.749  1.00  0.00     0.031 C 
ATOM     70  C   UNL A   1      43.243  31.797  41.436  1.00  0.00     0.031 A 
BRANCH  57  71
ATOM     71  C   UNL A   1      37.140  32.594  41.989  1.00  0.00    -0.014 A 
ATOM     72  C   UNL A   1      36.847  33.878  42.485  1.00  0.00     0.010 A 
ATOM     73  C   UNL A   1      36.354  31.502  42.398  1.00  0.00     0.010 A 
ATOM     74  C   UNL A   1      35.821  34.054  43.418  1.00  0.00     0.020 A 
ATOM     75  C   UNL A   1      35.310  31.680  43.307  1.00  0.00     0.020 A 
ATOM     76  C   UNL A   1      35.065  32.951  43.828  1.00  0.00     0.054 A 
BRANCH  76  77
ATOM     77  S   UNL A   1      33.754  33.202  45.056  1.00  0.00     0.124 S 
ATOM     78  O   UNL A   1      33.799  34.649  45.254  1.00  0.00    -0.237 OA
ATOM     79  O   UNL A   1      32.569  32.699  44.366  1.00  0.00    -0.237 OA
ATOM     80  O   UNL A   1      34.192  32.404  46.199  1.00  0.00    -0.744 OA
ENDBRANCH  76  77
ENDBRANCH  57  71
BRANCH  58  81
ATOM     81  C   UNL A   1      44.550  30.909  35.585  1.00  0.00    -0.014 A 
ATOM     82  C   UNL A   1      44.988  29.598  35.305  1.00  0.00     0.010 A 
ATOM     83  C   UNL A   1      45.270  31.978  35.016  1.00  0.00     0.010 A 
ATOM     84  C   UNL A   1      46.109  29.366  34.489  1.00  0.00     0.020 A 
ATOM     85  C   UNL A   1      46.373  31.753  34.180  1.00  0.00     0.020 A 
ATOM     86  C   UNL A   1      46.792  30.447  33.924  1.00  0.00     0.054 A 
BRANCH  86  87
ATOM     87  S   UNL A   1      48.203  30.130  32.818  1.00  0.00     0.124 S 
ATOM     88  O   UNL A   1      47.626  30.376  31.501  1.00  0.00    -0.237 OA
ATOM     89  O   UNL A   1      49.186  31.110  33.272  1.00  0.00    -0.237 OA
ATOM     90  O   UNL A   1      48.549  28.738  33.097  1.00  0.00    -0.744 OA
ENDBRANCH  86  87
ENDBRANCH  58  81
BRANCH  70  91
ATOM     91  C   UNL A   1      44.283  31.750  42.525  1.00  0.00    -0.014 A 
ATOM     92  C   UNL A   1      44.919  32.915  42.987  1.00  0.00     0.010 A 
ATOM     93  C   UNL A   1      44.557  30.524  43.160  1.00  0.00     0.010 A 
ATOM     94  C   UNL A   1      45.827  32.850  44.050  1.00  0.00     0.020 A 
ATOM     95  C   UNL A   1      45.441  30.459  44.240  1.00  0.00     0.020 A 
ATOM     96  C   UNL A   1      46.080  31.622  44.671  1.00  0.00     0.054 A 
BRANCH  96  97
ATOM     97  S   UNL A   1      47.218  31.573  46.083  1.00  0.00     0.124 S 
ATOM     98  O   UNL A   1      48.417  32.198  45.529  1.00  0.00    -0.237 OA
ATOM     99  O   UNL A   1      46.510  32.356  47.093  1.00  0.00    -0.237 OA
ATOM    100  O   UNL A   1      47.341  30.148  46.382  1.00  0.00    -0.744 OA
ENDBRANCH  96  97
ENDBRANCH  70  91
ENDBRANCH  44  45
ENDBRANCH  37  39
ENDBRANCH  36  37
ENDBRANCH  35  36
ENDBRANCH  34  35
ENDBRANCH  33  34
ENDBRANCH  32  33
ENDBRANCH   1  32
TORSDOF 26
ENDMDL
