MODEL 1
REMARK VINA RESULT:     -10.0      0.000      0.000
REMARK SMILES Cc1cc(NC(=O)[C@@H]2[C@@H](C(=O)OCCOCCOCCOC(=O)c3ccc(-c4c5nc(c(-c6ccc(S(=O)(=O)[O-])cc6)c6ccc([nH]6)c(-c6ccc(S(=O)(=O)[O-])cc6)c6nc(c(-c7ccc(S(=O)(=O)[O-])cc7)c7ccc4[nH]7)C=C6)C=C5)cc3)C2(C)C)on1
REMARK SMILES IDX 17 1 16 2 15 3 14 4 13 5 12 6 10 7 11 8 9 9 8 10 84 11 85 12
REMARK SMILES IDX 86 13 6 14 5 15 7 17 4 18 1 19 2 20 3 21 88 22 87 23 18 24
REMARK SMILES IDX 19 25 20 26 21 27 22 28 23 29 24 30 25 31 83 32 26 33 82 34
REMARK SMILES IDX 27 35 28 36 29 37 76 38 30 39 81 40 75 41 77 42 31 43 80 44
REMARK SMILES IDX 74 45 73 46 32 48 62 49 43 50 61 51 44 52 47 53 60 54 78 55
REMARK SMILES IDX 45 56 46 57 59 59 79 60 48 61 33 62 34 63 42 64 35 65 41 66
REMARK SMILES IDX 36 67 37 68 38 69 39 70 40 71 63 72 64 73 72 74 65 75 71 76
REMARK SMILES IDX 66 77 67 78 68 79 69 80 70 81 49 82 50 83 58 84 51 85 57 86
REMARK SMILES IDX 52 87 53 88 54 89 55 90 56 91
REMARK H PARENT 5 16 77 47 47 58
REMARK Flexibility Score: inf
ROOT
ATOM      1  C   UNL A   1      33.853  29.152  26.372  1.00  0.00     0.188 C 
ENDROOT
BRANCH   1   2
ATOM      2  C   UNL A   1      32.999  28.189  25.527  1.00  0.00     0.188 C 
BRANCH   2   3
ATOM      3  O   UNL A   1      33.125  26.790  25.766  1.00  0.00    -0.376 OA
BRANCH   3   4
ATOM      4  C   UNL A   1      32.347  25.888  24.979  1.00  0.00     0.202 C 
BRANCH   4   5
ATOM      5  C   UNL A   1      33.054  25.188  23.815  1.00  0.00     0.261 C 
BRANCH   5   6
ATOM      6  O   UNL A   1      33.067  23.770  24.034  1.00  0.00    -0.463 OA
BRANCH   6   7
ATOM      7  C   UNL A   1      34.020  23.087  23.362  1.00  0.00     0.310 C 
ATOM      8  O   UNL A   1      34.448  23.360  22.251  1.00  0.00    -0.252 OA
BRANCH   7   9
ATOM      9  C   UNL A   1      34.619  22.002  24.183  1.00  0.00     0.118 C 
ATOM     10  C   UNL A   1      34.595  22.200  25.670  1.00  0.00     0.100 C 
ATOM     11  C   UNL A   1      35.940  22.081  24.977  1.00  0.00    -0.009 C 
ATOM     12  C   UNL A   1      36.781  23.340  24.921  1.00  0.00     0.013 C 
ATOM     13  C   UNL A   1      36.806  20.849  25.090  1.00  0.00     0.013 C 
BRANCH  10  14
ATOM     14  C   UNL A   1      33.831  21.343  26.610  1.00  0.00     0.231 C 
ATOM     15  N   UNL A   1      33.407  20.051  26.474  1.00  0.00    -0.294 N 
ATOM     16  H   UNL A   1      33.172  19.631  27.333  1.00  0.00     0.173 HD
ATOM     17  O   UNL A   1      33.644  21.824  27.733  1.00  0.00    -0.274 OA
BRANCH  15  18
ATOM     18  C   UNL A   1      33.240  19.217  25.411  1.00  0.00     0.231 A 
ATOM     19  C   UNL A   1      33.990  16.829  22.754  1.00  0.00     0.070 C 
ATOM     20  C   UNL A   1      33.457  17.767  23.767  1.00  0.00     0.083 A 
ATOM     21  C   UNL A   1      34.119  18.296  24.896  1.00  0.00     0.096 A 
ATOM     22  N   UNL A   1      32.219  18.266  23.659  1.00  0.00    -0.083 NA
ATOM     23  O   UNL A   1      32.083  19.153  24.715  1.00  0.00    -0.338 OA
ENDBRANCH  15  18
ENDBRANCH  10  14
ENDBRANCH   7   9
ENDBRANCH   6   7
ENDBRANCH   5   6
ENDBRANCH   4   5
ENDBRANCH   3   4
ENDBRANCH   2   3
ENDBRANCH   1   2
BRANCH   1  24
ATOM     24  O   UNL A   1      33.159  29.991  27.261  1.00  0.00    -0.376 OA
BRANCH  24  25
ATOM     25  C   UNL A   1      33.631  31.284  27.583  1.00  0.00     0.202 C 
BRANCH  25  26
ATOM     26  C   UNL A   1      32.822  32.593  27.530  1.00  0.00     0.261 C 
BRANCH  26  27
ATOM     27  O   UNL A   1      33.520  33.832  27.610  1.00  0.00    -0.460 OA
BRANCH  27  28
ATOM     28  C   UNL A   1      33.479  34.481  28.798  1.00  0.00     0.338 C 
ATOM     29  O   UNL A   1      32.578  35.173  29.234  1.00  0.00    -0.246 OA
BRANCH  28  30
ATOM     30  C   UNL A   1      34.668  34.044  29.556  1.00  0.00     0.060 A 
ATOM     31  C   UNL A   1      35.944  34.281  29.026  1.00  0.00     0.016 A 
ATOM     32  C   UNL A   1      34.515  33.453  30.812  1.00  0.00     0.016 A 
ATOM     33  C   UNL A   1      37.076  33.930  29.763  1.00  0.00     0.010 A 
ATOM     34  C   UNL A   1      35.648  33.082  31.535  1.00  0.00     0.010 A 
ATOM     35  C   UNL A   1      36.932  33.309  31.010  1.00  0.00    -0.014 A 
BRANCH  35  36
ATOM     36  C   UNL A   1      38.108  32.785  31.740  1.00  0.00     0.031 A 
ATOM     37  C   UNL A   1      38.842  31.603  31.178  1.00  0.00     0.074 A 
ATOM     38  C   UNL A   1      38.484  33.323  32.914  1.00  0.00     0.049 A 
ATOM     39  N   UNL A   1      39.823  30.915  31.698  1.00  0.00    -0.248 NA
ATOM     40  C   UNL A   1      38.406  31.134  29.852  1.00  0.00     0.031 C 
ATOM     41  C   UNL A   1      37.883  34.501  33.537  1.00  0.00     0.029 A 
ATOM     42  N   UNL A   1      39.454  32.928  33.801  1.00  0.00    -0.354 N 
ATOM     43  C   UNL A   1      40.117  29.922  30.771  1.00  0.00     0.074 A 
ATOM     44  C   UNL A   1      39.201  30.091  29.663  1.00  0.00     0.031 C 
ATOM     45  C   UNL A   1      38.491  34.727  34.715  1.00  0.00     0.029 A 
ATOM     46  C   UNL A   1      39.490  33.685  34.947  1.00  0.00     0.049 A 
ATOM     47  H   UNL A   1      40.065  32.175  33.632  1.00  0.00     0.167 HD
ATOM     48  C   UNL A   1      41.060  28.953  30.842  1.00  0.00     0.031 A 
ATOM     49  C   UNL A   1      40.223  33.533  36.068  1.00  0.00     0.031 A 
ATOM     50  C   UNL A   1      41.945  28.771  31.959  1.00  0.00     0.049 A 
ATOM     51  C   UNL A   1      41.181  32.376  36.173  1.00  0.00     0.074 A 
ATOM     52  C   UNL A   1      42.961  27.843  32.110  1.00  0.00     0.029 A 
ATOM     53  N   UNL A   1      41.903  29.513  33.130  1.00  0.00    -0.354 N 
ATOM     54  N   UNL A   1      41.481  31.470  35.274  1.00  0.00    -0.248 NA
ATOM     55  C   UNL A   1      41.888  32.213  37.453  1.00  0.00     0.031 C 
ATOM     56  C   UNL A   1      43.490  27.983  33.398  1.00  0.00     0.029 A 
ATOM     57  C   UNL A   1      42.841  29.034  34.028  1.00  0.00     0.049 A 
ATOM     58  H   UNL A   1      41.297  30.269  33.297  1.00  0.00     0.167 HD
ATOM     59  C   UNL A   1      42.422  30.638  35.873  1.00  0.00     0.074 A 
ATOM     60  C   UNL A   1      42.650  31.155  37.206  1.00  0.00     0.031 C 
ATOM     61  C   UNL A   1      43.044  29.547  35.360  1.00  0.00     0.031 A 
BRANCH  48  62
ATOM     62  C   UNL A   1      41.135  27.984  29.695  1.00  0.00    -0.014 A 
ATOM     63  C   UNL A   1      40.214  26.930  29.567  1.00  0.00     0.010 A 
ATOM     64  C   UNL A   1      42.146  28.135  28.728  1.00  0.00     0.010 A 
ATOM     65  C   UNL A   1      40.331  26.014  28.519  1.00  0.00     0.020 A 
ATOM     66  C   UNL A   1      42.252  27.235  27.665  1.00  0.00     0.020 A 
ATOM     67  C   UNL A   1      41.356  26.168  27.579  1.00  0.00     0.054 A 
BRANCH  67  68
ATOM     68  S   UNL A   1      41.493  24.960  26.233  1.00  0.00     0.124 S 
ATOM     69  O   UNL A   1      42.654  24.177  26.648  1.00  0.00    -0.237 OA
ATOM     70  O   UNL A   1      40.211  24.262  26.296  1.00  0.00    -0.237 OA
ATOM     71  O   UNL A   1      41.690  25.786  25.045  1.00  0.00    -0.744 OA
ENDBRANCH  67  68
ENDBRANCH  48  62
BRANCH  49  72
ATOM     72  C   UNL A   1      40.059  34.490  37.195  1.00  0.00    -0.014 A 
ATOM     73  C   UNL A   1      40.808  35.678  37.231  1.00  0.00     0.010 A 
ATOM     74  C   UNL A   1      39.141  34.227  38.229  1.00  0.00     0.010 A 
ATOM     75  C   UNL A   1      40.645  36.587  38.281  1.00  0.00     0.020 A 
ATOM     76  C   UNL A   1      38.959  35.143  39.269  1.00  0.00     0.020 A 
ATOM     77  C   UNL A   1      39.717  36.315  39.291  1.00  0.00     0.054 A 
BRANCH  77  78
ATOM     78  S   UNL A   1      39.474  37.540  40.607  1.00  0.00     0.124 S 
ATOM     79  O   UNL A   1      38.312  38.280  40.123  1.00  0.00    -0.237 OA
ATOM     80  O   UNL A   1      39.246  36.702  41.781  1.00  0.00    -0.237 OA
ATOM     81  O   UNL A   1      40.731  38.285  40.618  1.00  0.00    -0.744 OA
ENDBRANCH  77  78
ENDBRANCH  49  72
BRANCH  61  82
ATOM     82  C   UNL A   1      44.037  28.834  36.239  1.00  0.00    -0.014 A 
ATOM     83  C   UNL A   1      45.331  29.349  36.432  1.00  0.00     0.010 A 
ATOM     84  C   UNL A   1      43.646  27.679  36.940  1.00  0.00     0.010 A 
ATOM     85  C   UNL A   1      46.222  28.713  37.301  1.00  0.00     0.020 A 
ATOM     86  C   UNL A   1      44.527  27.053  37.827  1.00  0.00     0.020 A 
ATOM     87  C   UNL A   1      45.813  27.570  37.996  1.00  0.00     0.054 A 
BRANCH  87  88
ATOM     88  S   UNL A   1      46.963  26.802  39.168  1.00  0.00     0.124 S 
ATOM     89  O   UNL A   1      46.098  26.537  40.315  1.00  0.00    -0.237 OA
ATOM     90  O   UNL A   1      47.424  25.622  38.442  1.00  0.00    -0.237 OA
ATOM     91  O   UNL A   1      47.980  27.830  39.381  1.00  0.00    -0.744 OA
ENDBRANCH  87  88
ENDBRANCH  61  82
ENDBRANCH  35  36
ENDBRANCH  28  30
ENDBRANCH  27  28
ENDBRANCH  26  27
ENDBRANCH  25  26
ENDBRANCH  24  25
ENDBRANCH   1  24
TORSDOF 22
ENDMDL
MODEL 2
REMARK VINA RESULT:      -9.6      2.426      8.871
REMARK SMILES Cc1cc(NC(=O)[C@@H]2[C@@H](C(=O)OCCOCCOCCOC(=O)c3ccc(-c4c5nc(c(-c6ccc(S(=O)(=O)[O-])cc6)c6ccc([nH]6)c(-c6ccc(S(=O)(=O)[O-])cc6)c6nc(c(-c7ccc(S(=O)(=O)[O-])cc7)c7ccc4[nH]7)C=C6)C=C5)cc3)C2(C)C)on1
REMARK SMILES IDX 17 1 16 2 15 3 14 4 13 5 12 6 10 7 11 8 9 9 8 10 84 11 85 12
REMARK SMILES IDX 86 13 6 14 5 15 7 17 4 18 1 19 2 20 3 21 88 22 87 23 18 24
REMARK SMILES IDX 19 25 20 26 21 27 22 28 23 29 24 30 25 31 83 32 26 33 82 34
REMARK SMILES IDX 27 35 28 36 29 37 76 38 30 39 81 40 75 41 77 42 31 43 80 44
REMARK SMILES IDX 74 45 73 46 32 48 62 49 43 50 61 51 44 52 47 53 60 54 78 55
REMARK SMILES IDX 45 56 46 57 59 59 79 60 48 61 33 62 34 63 42 64 35 65 41 66
REMARK SMILES IDX 36 67 37 68 38 69 39 70 40 71 63 72 64 73 72 74 65 75 71 76
REMARK SMILES IDX 66 77 67 78 68 79 69 80 70 81 49 82 50 83 58 84 51 85 57 86
REMARK SMILES IDX 52 87 53 88 54 89 55 90 56 91
REMARK H PARENT 5 16 77 47 47 58
REMARK Flexibility Score: inf
ROOT
ATOM      1  C   UNL A   1      38.193  20.811  25.136  1.00  0.00     0.188 C 
ENDROOT
BRANCH   1   2
ATOM      2  C   UNL A   1      36.677  21.011  24.952  1.00  0.00     0.188 C 
BRANCH   2   3
ATOM      3  O   UNL A   1      35.987  21.827  25.894  1.00  0.00    -0.376 OA
BRANCH   3   4
ATOM      4  C   UNL A   1      34.564  21.921  25.805  1.00  0.00     0.202 C 
BRANCH   4   5
ATOM      5  C   UNL A   1      33.902  21.329  24.557  1.00  0.00     0.261 C 
BRANCH   5   6
ATOM      6  O   UNL A   1      33.746  22.347  23.558  1.00  0.00    -0.463 OA
BRANCH   6   7
ATOM      7  C   UNL A   1      32.571  22.332  22.892  1.00  0.00     0.310 C 
ATOM      8  O   UNL A   1      31.992  21.337  22.483  1.00  0.00    -0.252 OA
BRANCH   7   9
ATOM      9  C   UNL A   1      31.953  23.682  22.807  1.00  0.00     0.118 C 
ATOM     10  C   UNL A   1      32.702  24.799  23.471  1.00  0.00     0.100 C 
ATOM     11  C   UNL A   1      31.309  24.466  23.970  1.00  0.00    -0.009 C 
ATOM     12  C   UNL A   1      31.221  23.838  25.346  1.00  0.00     0.013 C 
ATOM     13  C   UNL A   1      30.113  25.345  23.691  1.00  0.00     0.013 C 
BRANCH  10  14
ATOM     14  C   UNL A   1      33.298  25.948  22.743  1.00  0.00     0.231 C 
ATOM     15  N   UNL A   1      33.421  27.256  23.117  1.00  0.00    -0.294 N 
ATOM     16  H   UNL A   1      34.090  27.746  22.587  1.00  0.00     0.173 HD
ATOM     17  O   UNL A   1      33.875  25.664  21.688  1.00  0.00    -0.274 OA
BRANCH  15  18
ATOM     18  C   UNL A   1      32.820  28.031  24.061  1.00  0.00     0.231 A 
ATOM     19  C   UNL A   1      31.796  29.318  27.320  1.00  0.00     0.070 C 
ATOM     20  C   UNL A   1      32.101  28.989  25.909  1.00  0.00     0.083 A 
ATOM     21  C   UNL A   1      33.037  28.054  25.417  1.00  0.00     0.096 A 
ATOM     22  N   UNL A   1      31.425  29.566  24.908  1.00  0.00    -0.083 NA
ATOM     23  O   UNL A   1      31.907  28.977  23.749  1.00  0.00    -0.338 OA
ENDBRANCH  15  18
ENDBRANCH  10  14
ENDBRANCH   7   9
ENDBRANCH   6   7
ENDBRANCH   5   6
ENDBRANCH   4   5
ENDBRANCH   3   4
ENDBRANCH   2   3
ENDBRANCH   1   2
BRANCH   1  24
ATOM     24  O   UNL A   1      38.873  21.799  25.870  1.00  0.00    -0.376 OA
BRANCH  24  25
ATOM     25  C   UNL A   1      40.094  21.528  26.527  1.00  0.00     0.202 C 
BRANCH  25  26
ATOM     26  C   UNL A   1      41.413  22.306  26.366  1.00  0.00     0.261 C 
BRANCH  26  27
ATOM     27  O   UNL A   1      41.650  23.431  27.208  1.00  0.00    -0.460 OA
BRANCH  27  28
ATOM     28  C   UNL A   1      41.905  24.610  26.595  1.00  0.00     0.338 C 
ATOM     29  O   UNL A   1      42.112  24.801  25.412  1.00  0.00    -0.246 OA
BRANCH  28  30
ATOM     30  C   UNL A   1      41.706  25.663  27.612  1.00  0.00     0.060 A 
ATOM     31  C   UNL A   1      42.607  26.734  27.676  1.00  0.00     0.016 A 
ATOM     32  C   UNL A   1      40.596  25.612  28.458  1.00  0.00     0.016 A 
ATOM     33  C   UNL A   1      42.392  27.767  28.590  1.00  0.00     0.010 A 
ATOM     34  C   UNL A   1      40.397  26.634  29.386  1.00  0.00     0.010 A 
ATOM     35  C   UNL A   1      41.299  27.710  29.463  1.00  0.00    -0.014 A 
BRANCH  35  36
ATOM     36  C   UNL A   1      41.136  28.706  30.545  1.00  0.00     0.031 A 
ATOM     37  C   UNL A   1      42.015  28.611  31.757  1.00  0.00     0.074 A 
ATOM     38  C   UNL A   1      40.181  29.650  30.470  1.00  0.00     0.049 A 
ATOM     39  N   UNL A   1      41.975  29.304  32.864  1.00  0.00    -0.248 NA
ATOM     40  C   UNL A   1      43.081  27.596  31.713  1.00  0.00     0.031 C 
ATOM     41  C   UNL A   1      39.299  29.875  29.325  1.00  0.00     0.029 A 
ATOM     42  N   UNL A   1      39.783  30.585  31.393  1.00  0.00    -0.354 N 
ATOM     43  C   UNL A   1      42.999  28.802  33.657  1.00  0.00     0.074 A 
ATOM     44  C   UNL A   1      43.635  27.739  32.908  1.00  0.00     0.031 C 
ATOM     45  C   UNL A   1      38.453  30.877  29.620  1.00  0.00     0.029 A 
ATOM     46  C   UNL A   1      38.704  31.333  30.986  1.00  0.00     0.049 A 
ATOM     47  H   UNL A   1      40.228  30.708  32.262  1.00  0.00     0.167 HD
ATOM     48  C   UNL A   1      43.371  29.188  34.900  1.00  0.00     0.031 A 
ATOM     49  C   UNL A   1      37.983  32.256  31.653  1.00  0.00     0.031 A 
ATOM     50  C   UNL A   1      42.717  30.223  35.652  1.00  0.00     0.049 A 
ATOM     51  C   UNL A   1      38.341  32.583  33.079  1.00  0.00     0.074 A 
ATOM     52  C   UNL A   1      43.043  30.714  36.904  1.00  0.00     0.029 A 
ATOM     53  N   UNL A   1      41.585  30.907  35.234  1.00  0.00    -0.354 N 
ATOM     54  N   UNL A   1      39.338  32.133  33.802  1.00  0.00    -0.248 NA
ATOM     55  C   UNL A   1      37.465  33.532  33.782  1.00  0.00     0.031 C 
ATOM     56  C   UNL A   1      42.069  31.651  37.270  1.00  0.00     0.029 A 
ATOM     57  C   UNL A   1      41.169  31.782  36.224  1.00  0.00     0.049 A 
ATOM     58  H   UNL A   1      41.143  30.789  34.364  1.00  0.00     0.167 HD
ATOM     59  C   UNL A   1      39.218  32.756  35.041  1.00  0.00     0.074 A 
ATOM     60  C   UNL A   1      38.060  33.621  34.965  1.00  0.00     0.031 C 
ATOM     61  C   UNL A   1      40.002  32.624  36.141  1.00  0.00     0.031 A 
BRANCH  48  62
ATOM     62  C   UNL A   1      44.509  28.440  35.539  1.00  0.00    -0.014 A 
ATOM     63  C   UNL A   1      45.843  28.844  35.355  1.00  0.00     0.010 A 
ATOM     64  C   UNL A   1      44.235  27.314  36.338  1.00  0.00     0.010 A 
ATOM     65  C   UNL A   1      46.887  28.107  35.920  1.00  0.00     0.020 A 
ATOM     66  C   UNL A   1      45.275  26.589  36.923  1.00  0.00     0.020 A 
ATOM     67  C   UNL A   1      46.596  26.978  36.693  1.00  0.00     0.054 A 
BRANCH  67  68
ATOM     68  S   UNL A   1      47.969  26.033  37.407  1.00  0.00     0.124 S 
ATOM     69  O   UNL A   1      47.551  24.657  37.153  1.00  0.00    -0.237 OA
ATOM     70  O   UNL A   1      49.116  26.494  36.628  1.00  0.00    -0.237 OA
ATOM     71  O   UNL A   1      47.973  26.434  38.811  1.00  0.00    -0.744 OA
ENDBRANCH  67  68
ENDBRANCH  48  62
BRANCH  49  72
ATOM     72  C   UNL A   1      36.830  32.917  30.987  1.00  0.00    -0.014 A 
ATOM     73  C   UNL A   1      37.044  33.944  30.052  1.00  0.00     0.010 A 
ATOM     74  C   UNL A   1      35.512  32.513  31.271  1.00  0.00     0.010 A 
ATOM     75  C   UNL A   1      35.962  34.556  29.412  1.00  0.00     0.020 A 
ATOM     76  C   UNL A   1      34.429  33.109  30.618  1.00  0.00     0.020 A 
ATOM     77  C   UNL A   1      34.661  34.131  29.696  1.00  0.00     0.054 A 
BRANCH  77  78
ATOM     78  S   UNL A   1      33.278  34.895  28.805  1.00  0.00     0.124 S 
ATOM     79  O   UNL A   1      32.815  33.797  27.963  1.00  0.00    -0.237 OA
ATOM     80  O   UNL A   1      32.379  35.284  29.889  1.00  0.00    -0.237 OA
ATOM     81  O   UNL A   1      33.902  36.009  28.094  1.00  0.00    -0.744 OA
ENDBRANCH  77  78
ENDBRANCH  49  72
BRANCH  61  82
ATOM     82  C   UNL A   1      39.640  33.437  37.356  1.00  0.00    -0.014 A 
ATOM     83  C   UNL A   1      39.013  32.840  38.463  1.00  0.00     0.010 A 
ATOM     84  C   UNL A   1      40.001  34.796  37.419  1.00  0.00     0.010 A 
ATOM     85  C   UNL A   1      38.740  33.592  39.610  1.00  0.00     0.020 A 
ATOM     86  C   UNL A   1      39.751  35.544  38.573  1.00  0.00     0.020 A 
ATOM     87  C   UNL A   1      39.114  34.939  39.659  1.00  0.00     0.054 A 
BRANCH  87  88
ATOM     88  S   UNL A   1      38.811  35.875  41.182  1.00  0.00     0.124 S 
ATOM     89  O   UNL A   1      38.796  37.252  40.695  1.00  0.00    -0.237 OA
ATOM     90  O   UNL A   1      37.522  35.353  41.630  1.00  0.00    -0.237 OA
ATOM     91  O   UNL A   1      39.945  35.528  42.034  1.00  0.00    -0.744 OA
ENDBRANCH  87  88
ENDBRANCH  61  82
ENDBRANCH  35  36
ENDBRANCH  28  30
ENDBRANCH  27  28
ENDBRANCH  26  27
ENDBRANCH  25  26
ENDBRANCH  24  25
ENDBRANCH   1  24
TORSDOF 22
ENDMDL
MODEL 3
REMARK VINA RESULT:      -9.5      1.894      8.314
REMARK SMILES Cc1cc(NC(=O)[C@@H]2[C@@H](C(=O)OCCOCCOCCOC(=O)c3ccc(-c4c5nc(c(-c6ccc(S(=O)(=O)[O-])cc6)c6ccc([nH]6)c(-c6ccc(S(=O)(=O)[O-])cc6)c6nc(c(-c7ccc(S(=O)(=O)[O-])cc7)c7ccc4[nH]7)C=C6)C=C5)cc3)C2(C)C)on1
REMARK SMILES IDX 17 1 16 2 15 3 14 4 13 5 12 6 10 7 11 8 9 9 8 10 84 11 85 12
REMARK SMILES IDX 86 13 6 14 5 15 7 17 4 18 1 19 2 20 3 21 88 22 87 23 18 24
REMARK SMILES IDX 19 25 20 26 21 27 22 28 23 29 24 30 25 31 83 32 26 33 82 34
REMARK SMILES IDX 27 35 28 36 29 37 76 38 30 39 81 40 75 41 77 42 31 43 80 44
REMARK SMILES IDX 74 45 73 46 32 48 62 49 43 50 61 51 44 52 47 53 60 54 78 55
REMARK SMILES IDX 45 56 46 57 59 59 79 60 48 61 33 62 34 63 42 64 35 65 41 66
REMARK SMILES IDX 36 67 37 68 38 69 39 70 40 71 63 72 64 73 72 74 65 75 71 76
REMARK SMILES IDX 66 77 67 78 68 79 69 80 70 81 49 82 50 83 58 84 51 85 57 86
REMARK SMILES IDX 52 87 53 88 54 89 55 90 56 91
REMARK H PARENT 5 16 77 47 47 58
REMARK Flexibility Score: inf
ROOT
ATOM      1  C   UNL A   1      39.109  21.323  25.502  1.00  0.00     0.188 C 
ENDROOT
BRANCH   1   2
ATOM      2  C   UNL A   1      37.654  20.836  25.367  1.00  0.00     0.188 C 
BRANCH   2   3
ATOM      3  O   UNL A   1      36.609  21.708  25.789  1.00  0.00    -0.376 OA
BRANCH   3   4
ATOM      4  C   UNL A   1      36.076  22.642  24.849  1.00  0.00     0.202 C 
BRANCH   4   5
ATOM      5  C   UNL A   1      35.928  24.093  25.314  1.00  0.00     0.261 C 
BRANCH   5   6
ATOM      6  O   UNL A   1      34.638  24.283  25.913  1.00  0.00    -0.463 OA
BRANCH   6   7
ATOM      7  C   UNL A   1      33.829  25.164  25.282  1.00  0.00     0.310 C 
ATOM      8  O   UNL A   1      34.146  26.278  24.896  1.00  0.00    -0.252 OA
BRANCH   7   9
ATOM      9  C   UNL A   1      32.495  24.582  24.974  1.00  0.00     0.118 C 
ATOM     10  C   UNL A   1      32.460  23.109  24.691  1.00  0.00     0.100 C 
ATOM     11  C   UNL A   1      32.020  24.066  23.600  1.00  0.00    -0.009 C 
ATOM     12  C   UNL A   1      32.933  24.177  22.395  1.00  0.00     0.013 C 
ATOM     13  C   UNL A   1      30.572  24.242  23.208  1.00  0.00     0.013 C 
BRANCH  10  14
ATOM     14  C   UNL A   1      31.763  22.115  25.546  1.00  0.00     0.231 C 
ATOM     15  N   UNL A   1      32.042  20.796  25.764  1.00  0.00    -0.294 N 
ATOM     16  H   UNL A   1      31.608  20.440  26.573  1.00  0.00     0.173 HD
ATOM     17  O   UNL A   1      30.862  22.570  26.259  1.00  0.00    -0.274 OA
BRANCH  15  18
ATOM     18  C   UNL A   1      32.789  19.865  25.109  1.00  0.00     0.231 A 
ATOM     19  C   UNL A   1      33.681  17.077  22.928  1.00  0.00     0.070 C 
ATOM     20  C   UNL A   1      33.556  18.237  23.839  1.00  0.00     0.083 A 
ATOM     21  C   UNL A   1      32.415  19.030  24.085  1.00  0.00     0.096 A 
ATOM     22  N   UNL A   1      34.586  18.630  24.599  1.00  0.00    -0.083 NA
ATOM     23  O   UNL A   1      34.101  19.674  25.371  1.00  0.00    -0.338 OA
ENDBRANCH  15  18
ENDBRANCH  10  14
ENDBRANCH   7   9
ENDBRANCH   6   7
ENDBRANCH   5   6
ENDBRANCH   4   5
ENDBRANCH   3   4
ENDBRANCH   2   3
ENDBRANCH   1   2
BRANCH   1  24
ATOM     24  O   UNL A   1      39.322  22.445  26.322  1.00  0.00    -0.376 OA
BRANCH  24  25
ATOM     25  C   UNL A   1      40.582  22.712  26.903  1.00  0.00     0.202 C 
BRANCH  25  26
ATOM     26  C   UNL A   1      41.832  23.239  26.176  1.00  0.00     0.261 C 
BRANCH  26  27
ATOM     27  O   UNL A   1      42.482  24.399  26.686  1.00  0.00    -0.460 OA
BRANCH  27  28
ATOM     28  C   UNL A   1      41.974  25.598  26.315  1.00  0.00     0.338 C 
ATOM     29  O   UNL A   1      41.628  25.943  25.201  1.00  0.00    -0.246 OA
BRANCH  28  30
ATOM     30  C   UNL A   1      41.745  26.360  27.560  1.00  0.00     0.060 A 
ATOM     31  C   UNL A   1      40.620  26.070  28.343  1.00  0.00     0.016 A 
ATOM     32  C   UNL A   1      42.676  27.315  27.972  1.00  0.00     0.016 A 
ATOM     33  C   UNL A   1      40.428  26.739  29.553  1.00  0.00     0.010 A 
ATOM     34  C   UNL A   1      42.469  27.998  29.170  1.00  0.00     0.010 A 
ATOM     35  C   UNL A   1      41.339  27.721  29.960  1.00  0.00    -0.014 A 
BRANCH  35  36
ATOM     36  C   UNL A   1      41.078  28.554  31.155  1.00  0.00     0.031 A 
ATOM     37  C   UNL A   1      39.989  29.584  31.096  1.00  0.00     0.074 A 
ATOM     38  C   UNL A   1      41.837  28.428  32.259  1.00  0.00     0.049 A 
ATOM     39  N   UNL A   1      39.660  30.491  31.977  1.00  0.00    -0.248 NA
ATOM     40  C   UNL A   1      39.163  29.593  29.877  1.00  0.00     0.031 C 
ATOM     41  C   UNL A   1      42.889  27.433  32.455  1.00  0.00     0.029 A 
ATOM     42  N   UNL A   1      41.846  29.164  33.417  1.00  0.00    -0.354 N 
ATOM     43  C   UNL A   1      38.597  31.189  31.417  1.00  0.00     0.074 A 
ATOM     44  C   UNL A   1      38.346  30.608  30.115  1.00  0.00     0.031 C 
ATOM     45  C   UNL A   1      43.453  27.629  33.660  1.00  0.00     0.029 A 
ATOM     46  C   UNL A   1      42.831  28.788  34.298  1.00  0.00     0.049 A 
ATOM     47  H   UNL A   1      41.207  29.891  33.600  1.00  0.00     0.167 HD
ATOM     48  C   UNL A   1      37.900  32.226  31.938  1.00  0.00     0.031 A 
ATOM     49  C   UNL A   1      43.208  29.338  35.469  1.00  0.00     0.031 A 
ATOM     50  C   UNL A   1      38.174  32.819  33.218  1.00  0.00     0.049 A 
ATOM     51  C   UNL A   1      42.495  30.565  35.973  1.00  0.00     0.074 A 
ATOM     52  C   UNL A   1      37.499  33.848  33.852  1.00  0.00     0.029 A 
ATOM     53  N   UNL A   1      39.224  32.457  34.048  1.00  0.00    -0.354 N 
ATOM     54  N   UNL A   1      41.464  31.190  35.455  1.00  0.00    -0.248 NA
ATOM     55  C   UNL A   1      43.008  31.170  37.211  1.00  0.00     0.031 C 
ATOM     56  C   UNL A   1      38.182  34.150  35.037  1.00  0.00     0.029 A 
ATOM     57  C   UNL A   1      39.247  33.273  35.166  1.00  0.00     0.049 A 
ATOM     58  H   UNL A   1      39.859  31.727  33.869  1.00  0.00     0.167 HD
ATOM     59  C   UNL A   1      41.196  32.253  36.313  1.00  0.00     0.074 A 
ATOM     60  C   UNL A   1      42.164  32.179  37.387  1.00  0.00     0.031 C 
ATOM     61  C   UNL A   1      40.229  33.200  36.219  1.00  0.00     0.031 A 
BRANCH  48  62
ATOM     62  C   UNL A   1      36.808  32.814  31.088  1.00  0.00    -0.014 A 
ATOM     63  C   UNL A   1      35.471  32.402  31.228  1.00  0.00     0.010 A 
ATOM     64  C   UNL A   1      37.127  33.798  30.135  1.00  0.00     0.010 A 
ATOM     65  C   UNL A   1      34.480  32.928  30.396  1.00  0.00     0.020 A 
ATOM     66  C   UNL A   1      36.135  34.343  29.317  1.00  0.00     0.020 A 
ATOM     67  C   UNL A   1      34.821  33.889  29.439  1.00  0.00     0.054 A 
BRANCH  67  68
ATOM     68  S   UNL A   1      33.517  34.550  28.364  1.00  0.00     0.124 S 
ATOM     69  O   UNL A   1      34.266  35.480  27.522  1.00  0.00    -0.237 OA
ATOM     70  O   UNL A   1      33.021  33.353  27.688  1.00  0.00    -0.237 OA
ATOM     71  O   UNL A   1      32.579  35.169  29.296  1.00  0.00    -0.744 OA
ENDBRANCH  67  68
ENDBRANCH  48  62
BRANCH  49  72
ATOM     72  C   UNL A   1      44.337  28.746  36.235  1.00  0.00    -0.014 A 
ATOM     73  C   UNL A   1      44.104  27.711  37.157  1.00  0.00     0.010 A 
ATOM     74  C   UNL A   1      45.654  29.202  36.036  1.00  0.00     0.010 A 
ATOM     75  C   UNL A   1      45.165  27.142  37.867  1.00  0.00     0.020 A 
ATOM     76  C   UNL A   1      46.720  28.621  36.728  1.00  0.00     0.020 A 
ATOM     77  C   UNL A   1      46.468  27.598  37.644  1.00  0.00     0.054 A 
BRANCH  77  78
ATOM     78  S   UNL A   1      47.836  26.799  38.527  1.00  0.00     0.124 S 
ATOM     79  O   UNL A   1      47.807  25.448  37.976  1.00  0.00    -0.237 OA
ATOM     80  O   UNL A   1      48.983  27.616  38.138  1.00  0.00    -0.237 OA
ATOM     81  O   UNL A   1      47.449  26.911  39.932  1.00  0.00    -0.744 OA
ENDBRANCH  77  78
ENDBRANCH  49  72
BRANCH  61  82
ATOM     82  C   UNL A   1      40.163  34.237  37.308  1.00  0.00    -0.014 A 
ATOM     83  C   UNL A   1      40.895  35.433  37.212  1.00  0.00     0.010 A 
ATOM     84  C   UNL A   1      39.300  34.046  38.403  1.00  0.00     0.010 A 
ATOM     85  C   UNL A   1      40.776  36.416  38.199  1.00  0.00     0.020 A 
ATOM     86  C   UNL A   1      39.160  35.037  39.379  1.00  0.00     0.020 A 
ATOM     87  C   UNL A   1      39.906  36.213  39.275  1.00  0.00     0.054 A 
BRANCH  87  88
ATOM     88  S   UNL A   1      39.717  37.530  40.507  1.00  0.00     0.124 S 
ATOM     89  O   UNL A   1      40.222  36.889  41.718  1.00  0.00    -0.237 OA
ATOM     90  O   UNL A   1      40.552  38.599  39.967  1.00  0.00    -0.237 OA
ATOM     91  O   UNL A   1      38.282  37.807  40.501  1.00  0.00    -0.744 OA
ENDBRANCH  87  88
ENDBRANCH  61  82
ENDBRANCH  35  36
ENDBRANCH  28  30
ENDBRANCH  27  28
ENDBRANCH  26  27
ENDBRANCH  25  26
ENDBRANCH  24  25
ENDBRANCH   1  24
TORSDOF 22
ENDMDL
