MODEL 1
REMARK VINA RESULT:      -9.9      0.000      0.000
REMARK SMILES [NH3+][C@]1(C(=O)OCCOCCOCCOC(=O)c2ccc(-c3c4nc(c(-c5ccc(S(=O)(=O)[O-])cc5)c5ccc([nH]5)c(-c5ccc(S(=O)(=O)[O-])cc5)c5nc(c(-c6ccc(S(=O)(=O)[O-])cc6)c6ccc3[nH]6)C=C5)C=C4)cc2)CC[C@@H](Sc2ccc(Cl)c(Cl)c2)C1
REMARK SMILES IDX 10 1 9 2 8 3 7 4 6 5 5 6 3 7 4 8 2 9 77 10 89 11 78 12 79 13
REMARK SMILES IDX 1 14 80 18 81 19 82 20 88 21 83 22 86 23 84 24 87 25 85 26
REMARK SMILES IDX 11 27 12 28 13 29 14 30 15 31 16 32 17 33 18 34 76 35 19 36
REMARK SMILES IDX 75 37 20 38 21 39 22 40 69 41 23 42 74 43 68 44 70 45 24 46
REMARK SMILES IDX 73 47 67 48 66 49 25 51 55 52 36 53 54 54 37 55 40 56 53 57
REMARK SMILES IDX 71 58 38 59 39 60 52 62 72 63 41 64 26 65 27 66 35 67 28 68
REMARK SMILES IDX 34 69 29 70 30 71 31 72 32 73 33 74 56 75 57 76 65 77 58 78
REMARK SMILES IDX 64 79 59 80 60 81 61 82 62 83 63 84 42 85 43 86 51 87 44 88
REMARK SMILES IDX 50 89 45 90 46 91 47 92 48 93 49 94
REMARK H PARENT 1 15 1 16 1 17 70 50 40 61
REMARK Flexibility Score: inf
ROOT
ATOM      1  C   UNL A   1      38.191  22.778  26.119  1.00  0.00     0.188 C 
ENDROOT
BRANCH   1   2
ATOM      2  C   UNL A   1      37.022  22.705  25.150  1.00  0.00     0.188 C 
BRANCH   2   3
ATOM      3  O   UNL A   1      35.760  23.019  25.725  1.00  0.00    -0.376 OA
BRANCH   3   4
ATOM      4  C   UNL A   1      35.132  21.887  26.326  1.00  0.00     0.202 C 
BRANCH   4   5
ATOM      5  C   UNL A   1      34.768  20.657  25.456  1.00  0.00     0.261 C 
BRANCH   5   6
ATOM      6  O   UNL A   1      34.161  20.916  24.171  1.00  0.00    -0.459 OA
BRANCH   6   7
ATOM      7  C   UNL A   1      32.792  21.036  24.194  1.00  0.00     0.368 C 
ATOM      8  O   UNL A   1      32.067  20.372  24.924  1.00  0.00    -0.245 OA
BRANCH   7   9
ATOM      9  C   UNL A   1      32.275  22.072  23.151  1.00  0.00     0.193 C 
ATOM     10  C   UNL A   1      31.288  23.049  23.817  1.00  0.00     0.082 C 
ATOM     11  C   UNL A   1      33.374  22.974  22.548  1.00  0.00     0.095 C 
ATOM     12  C   UNL A   1      31.454  24.372  23.092  1.00  0.00     0.022 C 
ATOM     13  C   UNL A   1      32.924  24.425  22.723  1.00  0.00     0.059 C 
BRANCH   9  14
ATOM     14  N   UNL A   1      31.580  21.376  22.036  1.00  0.00    -0.343 N 
ATOM     15  H   UNL A   1      30.575  21.533  22.112  1.00  0.00     0.345 HD
ATOM     16  H   UNL A   1      31.773  20.376  22.089  1.00  0.00     0.345 HD
ATOM     17  H   UNL A   1      31.916  21.741  21.146  1.00  0.00     0.345 HD
ENDBRANCH   9  14
BRANCH  13  18
ATOM     18  S   UNL A   1      33.971  25.424  23.857  1.00  0.00    -0.122 SA
BRANCH  18  19
ATOM     19  C   UNL A   1      32.993  26.843  24.315  1.00  0.00     0.009 A 
ATOM     20  C   UNL A   1      32.826  27.931  23.467  1.00  0.00     0.017 A 
ATOM     21  C   UNL A   1      32.568  26.979  25.635  1.00  0.00     0.037 A 
ATOM     22  C   UNL A   1      32.274  29.133  23.942  1.00  0.00     0.023 A 
ATOM     23  C   UNL A   1      31.987  28.161  26.117  1.00  0.00     0.060 A 
ATOM     24  C   UNL A   1      31.889  29.263  25.275  1.00  0.00     0.059 A 
ATOM     25  Cl  UNL A   1      31.448  28.229  27.758  1.00  0.00    -0.083 Cl
ATOM     26  Cl  UNL A   1      31.402  30.820  25.841  1.00  0.00    -0.083 Cl
ENDBRANCH  18  19
ENDBRANCH  13  18
ENDBRANCH   7   9
ENDBRANCH   6   7
ENDBRANCH   5   6
ENDBRANCH   4   5
ENDBRANCH   3   4
ENDBRANCH   2   3
ENDBRANCH   1   2
BRANCH   1  27
ATOM     27  O   UNL A   1      39.082  21.681  25.999  1.00  0.00    -0.376 OA
BRANCH  27  28
ATOM     28  C   UNL A   1      40.186  21.806  26.904  1.00  0.00     0.202 C 
BRANCH  28  29
ATOM     29  C   UNL A   1      41.512  22.224  26.225  1.00  0.00     0.261 C 
BRANCH  29  30
ATOM     30  O   UNL A   1      41.754  23.661  26.179  1.00  0.00    -0.460 OA
BRANCH  30  31
ATOM     31  C   UNL A   1      42.757  24.149  26.976  1.00  0.00     0.338 C 
ATOM     32  O   UNL A   1      43.911  23.794  26.932  1.00  0.00    -0.246 OA
BRANCH  31  33
ATOM     33  C   UNL A   1      42.298  25.271  27.878  1.00  0.00     0.060 A 
ATOM     34  C   UNL A   1      43.226  26.275  28.200  1.00  0.00     0.016 A 
ATOM     35  C   UNL A   1      41.010  25.379  28.411  1.00  0.00     0.016 A 
ATOM     36  C   UNL A   1      42.873  27.375  29.013  1.00  0.00     0.010 A 
ATOM     37  C   UNL A   1      40.656  26.480  29.229  1.00  0.00     0.010 A 
ATOM     38  C   UNL A   1      41.585  27.489  29.553  1.00  0.00    -0.014 A 
BRANCH  38  39
ATOM     39  C   UNL A   1      41.285  28.491  30.636  1.00  0.00     0.031 A 
ATOM     40  C   UNL A   1      42.049  28.384  31.920  1.00  0.00     0.074 A 
ATOM     41  C   UNL A   1      40.403  29.510  30.541  1.00  0.00     0.049 A 
ATOM     42  N   UNL A   1      42.038  29.194  32.946  1.00  0.00    -0.248 NA
ATOM     43  C   UNL A   1      42.990  27.261  32.035  1.00  0.00     0.031 C 
ATOM     44  C   UNL A   1      39.730  29.895  29.322  1.00  0.00     0.029 A 
ATOM     45  N   UNL A   1      39.918  30.414  31.464  1.00  0.00    -0.354 N 
ATOM     46  C   UNL A   1      43.033  28.735  33.789  1.00  0.00     0.074 A 
ATOM     47  C   UNL A   1      43.574  27.530  33.193  1.00  0.00     0.031 C 
ATOM     48  C   UNL A   1      38.830  30.862  29.567  1.00  0.00     0.029 A 
ATOM     49  C   UNL A   1      38.898  31.210  30.981  1.00  0.00     0.049 A 
ATOM     50  H   UNL A   1      40.267  30.484  32.382  1.00  0.00     0.167 HD
ATOM     51  C   UNL A   1      43.483  29.284  34.939  1.00  0.00     0.031 A 
ATOM     52  C   UNL A   1      38.119  32.135  31.584  1.00  0.00     0.031 A 
ATOM     53  C   UNL A   1      42.887  30.414  35.597  1.00  0.00     0.049 A 
ATOM     54  C   UNL A   1      38.468  32.569  32.982  1.00  0.00     0.074 A 
ATOM     55  C   UNL A   1      43.252  30.994  36.799  1.00  0.00     0.029 A 
ATOM     56  N   UNL A   1      41.777  31.108  35.139  1.00  0.00    -0.354 N 
ATOM     57  N   UNL A   1      39.461  32.161  33.735  1.00  0.00    -0.248 NA
ATOM     58  C   UNL A   1      37.654  33.637  33.582  1.00  0.00     0.031 C 
ATOM     59  C   UNL A   1      42.317  31.990  37.106  1.00  0.00     0.029 A 
ATOM     60  C   UNL A   1      41.409  32.074  36.063  1.00  0.00     0.049 A 
ATOM     61  H   UNL A   1      41.318  30.939  34.285  1.00  0.00     0.167 HD
ATOM     62  C   UNL A   1      39.434  32.967  34.865  1.00  0.00     0.074 A 
ATOM     63  C   UNL A   1      38.318  33.878  34.705  1.00  0.00     0.031 C 
ATOM     64  C   UNL A   1      40.286  32.969  35.920  1.00  0.00     0.031 A 
BRANCH  51  65
ATOM     65  C   UNL A   1      44.665  28.609  35.564  1.00  0.00    -0.014 A 
ATOM     66  C   UNL A   1      45.974  28.982  35.205  1.00  0.00     0.010 A 
ATOM     67  C   UNL A   1      44.466  27.563  36.478  1.00  0.00     0.010 A 
ATOM     68  C   UNL A   1      47.067  28.285  35.722  1.00  0.00     0.020 A 
ATOM     69  C   UNL A   1      45.558  26.880  37.013  1.00  0.00     0.020 A 
ATOM     70  C   UNL A   1      46.850  27.233  36.616  1.00  0.00     0.054 A 
BRANCH  70  71
ATOM     71  S   UNL A   1      48.285  26.334  37.263  1.00  0.00     0.124 S 
ATOM     72  O   UNL A   1      49.211  26.395  36.135  1.00  0.00    -0.237 OA
ATOM     73  O   UNL A   1      48.661  27.129  38.429  1.00  0.00    -0.237 OA
ATOM     74  O   UNL A   1      47.755  25.006  37.561  1.00  0.00    -0.744 OA
ENDBRANCH  70  71
ENDBRANCH  51  65
BRANCH  52  75
ATOM     75  C   UNL A   1      36.968  32.758  30.862  1.00  0.00    -0.014 A 
ATOM     76  C   UNL A   1      35.646  32.344  31.100  1.00  0.00     0.010 A 
ATOM     77  C   UNL A   1      37.198  33.764  29.902  1.00  0.00     0.010 A 
ATOM     78  C   UNL A   1      34.580  32.914  30.391  1.00  0.00     0.020 A 
ATOM     79  C   UNL A   1      36.133  34.348  29.203  1.00  0.00     0.020 A 
ATOM     80  C   UNL A   1      34.829  33.916  29.449  1.00  0.00     0.054 A 
BRANCH  80  81
ATOM     81  S   UNL A   1      33.421  34.679  28.590  1.00  0.00     0.124 S 
ATOM     82  O   UNL A   1      32.994  33.612  27.691  1.00  0.00    -0.237 OA
ATOM     83  O   UNL A   1      32.510  34.982  29.691  1.00  0.00    -0.237 OA
ATOM     84  O   UNL A   1      34.009  35.848  27.939  1.00  0.00    -0.744 OA
ENDBRANCH  80  81
ENDBRANCH  52  75
BRANCH  64  85
ATOM     85  C   UNL A   1      40.060  34.002  36.991  1.00  0.00    -0.014 A 
ATOM     86  C   UNL A   1      40.697  35.255  36.943  1.00  0.00     0.010 A 
ATOM     87  C   UNL A   1      39.166  33.729  38.042  1.00  0.00     0.010 A 
ATOM     88  C   UNL A   1      40.471  36.201  37.944  1.00  0.00     0.020 A 
ATOM     89  C   UNL A   1      38.915  34.683  39.032  1.00  0.00     0.020 A 
ATOM     90  C   UNL A   1      39.583  35.908  38.985  1.00  0.00     0.054 A 
BRANCH  90  91
ATOM     91  S   UNL A   1      39.280  37.167  40.256  1.00  0.00     0.124 S 
ATOM     92  O   UNL A   1      38.521  38.170  39.514  1.00  0.00    -0.237 OA
ATOM     93  O   UNL A   1      38.526  36.428  41.266  1.00  0.00    -0.237 OA
ATOM     94  O   UNL A   1      40.622  37.576  40.665  1.00  0.00    -0.744 OA
ENDBRANCH  90  91
ENDBRANCH  64  85
ENDBRANCH  38  39
ENDBRANCH  31  33
ENDBRANCH  30  31
ENDBRANCH  29  30
ENDBRANCH  28  29
ENDBRANCH  27  28
ENDBRANCH   1  27
TORSDOF 23
ENDMDL
MODEL 2
REMARK VINA RESULT:      -9.4      5.576     10.286
REMARK SMILES [NH3+][C@]1(C(=O)OCCOCCOCCOC(=O)c2ccc(-c3c4nc(c(-c5ccc(S(=O)(=O)[O-])cc5)c5ccc([nH]5)c(-c5ccc(S(=O)(=O)[O-])cc5)c5nc(c(-c6ccc(S(=O)(=O)[O-])cc6)c6ccc3[nH]6)C=C5)C=C4)cc2)CC[C@@H](Sc2ccc(Cl)c(Cl)c2)C1
REMARK SMILES IDX 10 1 9 2 8 3 7 4 6 5 5 6 3 7 4 8 2 9 77 10 89 11 78 12 79 13
REMARK SMILES IDX 1 14 80 18 81 19 82 20 88 21 83 22 86 23 84 24 87 25 85 26
REMARK SMILES IDX 11 27 12 28 13 29 14 30 15 31 16 32 17 33 18 34 76 35 19 36
REMARK SMILES IDX 75 37 20 38 21 39 22 40 69 41 23 42 74 43 68 44 70 45 24 46
REMARK SMILES IDX 73 47 67 48 66 49 25 51 55 52 36 53 54 54 37 55 40 56 53 57
REMARK SMILES IDX 71 58 38 59 39 60 52 62 72 63 41 64 26 65 27 66 35 67 28 68
REMARK SMILES IDX 34 69 29 70 30 71 31 72 32 73 33 74 56 75 57 76 65 77 58 78
REMARK SMILES IDX 64 79 59 80 60 81 61 82 62 83 63 84 42 85 43 86 51 87 44 88
REMARK SMILES IDX 50 89 45 90 46 91 47 92 48 93 49 94
REMARK H PARENT 1 15 1 16 1 17 70 50 40 61
REMARK Flexibility Score: inf
ROOT
ATOM      1  C   UNL A   1      37.447  21.843  25.200  1.00  0.00     0.188 C 
ENDROOT
BRANCH   1   2
ATOM      2  C   UNL A   1      36.238  22.326  25.984  1.00  0.00     0.188 C 
BRANCH   2   3
ATOM      3  O   UNL A   1      35.057  21.564  25.775  1.00  0.00    -0.376 OA
BRANCH   3   4
ATOM      4  C   UNL A   1      34.046  21.838  26.744  1.00  0.00     0.202 C 
BRANCH   4   5
ATOM      5  C   UNL A   1      33.863  23.281  27.278  1.00  0.00     0.261 C 
BRANCH   5   6
ATOM      6  O   UNL A   1      33.010  24.162  26.515  1.00  0.00    -0.459 OA
BRANCH   6   7
ATOM      7  C   UNL A   1      33.573  24.652  25.362  1.00  0.00     0.368 C 
ATOM      8  O   UNL A   1      34.507  25.444  25.348  1.00  0.00    -0.245 OA
BRANCH   7   9
ATOM      9  C   UNL A   1      32.850  24.126  24.084  1.00  0.00     0.193 C 
ATOM     10  C   UNL A   1      31.378  23.807  24.401  1.00  0.00     0.082 C 
ATOM     11  C   UNL A   1      32.791  25.140  22.921  1.00  0.00     0.095 C 
ATOM     12  C   UNL A   1      30.604  24.086  23.125  1.00  0.00     0.022 C 
ATOM     13  C   UNL A   1      31.330  25.253  22.485  1.00  0.00     0.059 C 
BRANCH   9  14
ATOM     14  N   UNL A   1      33.513  22.890  23.592  1.00  0.00    -0.343 N 
ATOM     15  H   UNL A   1      34.199  22.576  24.279  1.00  0.00     0.345 HD
ATOM     16  H   UNL A   1      33.982  23.086  22.707  1.00  0.00     0.345 HD
ATOM     17  H   UNL A   1      32.813  22.162  23.451  1.00  0.00     0.345 HD
ENDBRANCH   9  14
BRANCH  13  18
ATOM     18  S   UNL A   1      30.564  26.897  22.782  1.00  0.00    -0.122 SA
BRANCH  18  19
ATOM     19  C   UNL A   1      31.627  27.740  23.940  1.00  0.00     0.009 A 
ATOM     20  C   UNL A   1      32.853  28.274  23.564  1.00  0.00     0.017 A 
ATOM     21  C   UNL A   1      31.340  27.669  25.302  1.00  0.00     0.037 A 
ATOM     22  C   UNL A   1      33.778  28.698  24.533  1.00  0.00     0.023 A 
ATOM     23  C   UNL A   1      32.240  28.117  26.280  1.00  0.00     0.060 A 
ATOM     24  C   UNL A   1      33.489  28.586  25.892  1.00  0.00     0.059 A 
ATOM     25  Cl  UNL A   1      31.785  28.032  27.946  1.00  0.00    -0.083 Cl
ATOM     26  Cl  UNL A   1      34.739  28.941  27.030  1.00  0.00    -0.083 Cl
ENDBRANCH  18  19
ENDBRANCH  13  18
ENDBRANCH   7   9
ENDBRANCH   6   7
ENDBRANCH   5   6
ENDBRANCH   4   5
ENDBRANCH   3   4
ENDBRANCH   2   3
ENDBRANCH   1   2
BRANCH   1  27
ATOM     27  O   UNL A   1      37.264  20.557  24.630  1.00  0.00    -0.376 OA
BRANCH  27  28
ATOM     28  C   UNL A   1      38.259  19.636  25.092  1.00  0.00     0.202 C 
BRANCH  28  29
ATOM     29  C   UNL A   1      39.485  20.313  25.751  1.00  0.00     0.261 C 
BRANCH  29  30
ATOM     30  O   UNL A   1      40.434  19.398  26.373  1.00  0.00    -0.460 OA
BRANCH  30  31
ATOM     31  C   UNL A   1      41.763  19.610  26.117  1.00  0.00     0.338 C 
ATOM     32  O   UNL A   1      42.507  18.808  25.603  1.00  0.00    -0.246 OA
BRANCH  31  33
ATOM     33  C   UNL A   1      42.211  21.013  26.458  1.00  0.00     0.060 A 
ATOM     34  C   UNL A   1      42.508  21.883  25.396  1.00  0.00     0.016 A 
ATOM     35  C   UNL A   1      42.345  21.504  27.760  1.00  0.00     0.016 A 
ATOM     36  C   UNL A   1      42.905  23.219  25.623  1.00  0.00     0.010 A 
ATOM     37  C   UNL A   1      42.746  22.844  27.989  1.00  0.00     0.010 A 
ATOM     38  C   UNL A   1      43.045  23.718  26.926  1.00  0.00    -0.014 A 
BRANCH  38  39
ATOM     39  C   UNL A   1      43.732  25.033  27.181  1.00  0.00     0.031 A 
ATOM     40  C   UNL A   1      42.881  26.208  27.552  1.00  0.00     0.074 A 
ATOM     41  C   UNL A   1      45.066  25.243  27.138  1.00  0.00     0.049 A 
ATOM     42  N   UNL A   1      43.257  27.405  27.919  1.00  0.00    -0.248 NA
ATOM     43  C   UNL A   1      41.428  25.988  27.574  1.00  0.00     0.031 C 
ATOM     44  C   UNL A   1      46.053  24.197  27.002  1.00  0.00     0.029 A 
ATOM     45  N   UNL A   1      45.834  26.388  27.209  1.00  0.00    -0.354 N 
ATOM     46  C   UNL A   1      42.099  28.053  28.305  1.00  0.00     0.074 A 
ATOM     47  C   UNL A   1      40.998  27.145  28.052  1.00  0.00     0.031 C 
ATOM     48  C   UNL A   1      47.282  24.723  26.873  1.00  0.00     0.029 A 
ATOM     49  C   UNL A   1      47.177  26.174  26.969  1.00  0.00     0.049 A 
ATOM     50  H   UNL A   1      45.458  27.275  27.412  1.00  0.00     0.167 HD
ATOM     51  C   UNL A   1      41.963  29.280  28.855  1.00  0.00     0.031 A 
ATOM     52  C   UNL A   1      48.218  27.029  26.863  1.00  0.00     0.031 A 
ATOM     53  C   UNL A   1      43.028  30.233  29.011  1.00  0.00     0.049 A 
ATOM     54  C   UNL A   1      48.003  28.472  27.233  1.00  0.00     0.074 A 
ATOM     55  C   UNL A   1      42.958  31.522  29.507  1.00  0.00     0.029 A 
ATOM     56  N   UNL A   1      44.346  30.021  28.634  1.00  0.00    -0.354 N 
ATOM     57  N   UNL A   1      46.904  29.047  27.659  1.00  0.00    -0.248 NA
ATOM     58  C   UNL A   1      49.173  29.362  27.188  1.00  0.00     0.031 C 
ATOM     59  C   UNL A   1      44.216  32.117  29.361  1.00  0.00     0.029 A 
ATOM     60  C   UNL A   1      45.086  31.176  28.835  1.00  0.00     0.049 A 
ATOM     61  H   UNL A   1      44.703  29.176  28.278  1.00  0.00     0.167 HD
ATOM     62  C   UNL A   1      47.264  30.344  28.000  1.00  0.00     0.074 A 
ATOM     63  C   UNL A   1      48.679  30.476  27.716  1.00  0.00     0.031 C 
ATOM     64  C   UNL A   1      46.490  31.321  28.534  1.00  0.00     0.031 A 
BRANCH  51  65
ATOM     65  C   UNL A   1      40.576  29.655  29.278  1.00  0.00    -0.014 A 
ATOM     66  C   UNL A   1      39.555  29.812  28.322  1.00  0.00     0.010 A 
ATOM     67  C   UNL A   1      40.303  29.897  30.634  1.00  0.00     0.010 A 
ATOM     68  C   UNL A   1      38.290  30.252  28.715  1.00  0.00     0.020 A 
ATOM     69  C   UNL A   1      39.033  30.316  31.030  1.00  0.00     0.020 A 
ATOM     70  C   UNL A   1      38.041  30.509  30.066  1.00  0.00     0.054 A 
BRANCH  70  71
ATOM     71  S   UNL A   1      36.394  31.091  30.550  1.00  0.00     0.124 S 
ATOM     72  O   UNL A   1      35.733  31.232  29.254  1.00  0.00    -0.237 OA
ATOM     73  O   UNL A   1      35.903  30.003  31.390  1.00  0.00    -0.237 OA
ATOM     74  O   UNL A   1      36.663  32.344  31.250  1.00  0.00    -0.744 OA
ENDBRANCH  70  71
ENDBRANCH  51  65
BRANCH  52  75
ATOM     75  C   UNL A   1      49.569  26.547  26.443  1.00  0.00    -0.014 A 
ATOM     76  C   UNL A   1      50.476  26.015  27.375  1.00  0.00     0.010 A 
ATOM     77  C   UNL A   1      49.965  26.643  25.094  1.00  0.00     0.010 A 
ATOM     78  C   UNL A   1      51.752  25.597  26.973  1.00  0.00     0.020 A 
ATOM     79  C   UNL A   1      51.234  26.212  24.685  1.00  0.00     0.020 A 
ATOM     80  C   UNL A   1      52.123  25.694  25.628  1.00  0.00     0.054 A 
BRANCH  80  81
ATOM     81  S   UNL A   1      53.761  25.088  25.126  1.00  0.00     0.124 S 
ATOM     82  O   UNL A   1      54.605  25.531  26.230  1.00  0.00    -0.237 OA
ATOM     83  O   UNL A   1      53.545  23.646  25.033  1.00  0.00    -0.237 OA
ATOM     84  O   UNL A   1      53.998  25.758  23.849  1.00  0.00    -0.744 OA
ENDBRANCH  80  81
ENDBRANCH  52  75
BRANCH  64  85
ATOM     85  C   UNL A   1      47.157  32.628  28.867  1.00  0.00    -0.014 A 
ATOM     86  C   UNL A   1      47.674  32.877  30.151  1.00  0.00     0.010 A 
ATOM     87  C   UNL A   1      47.304  33.608  27.869  1.00  0.00     0.010 A 
ATOM     88  C   UNL A   1      48.293  34.095  30.440  1.00  0.00     0.020 A 
ATOM     89  C   UNL A   1      47.946  34.817  28.145  1.00  0.00     0.020 A 
ATOM     90  C   UNL A   1      48.423  35.060  29.435  1.00  0.00     0.054 A 
BRANCH  90  91
ATOM     91  S   UNL A   1      49.261  36.621  29.824  1.00  0.00     0.124 S 
ATOM     92  O   UNL A   1      48.883  36.828  31.220  1.00  0.00    -0.237 OA
ATOM     93  O   UNL A   1      50.667  36.296  29.596  1.00  0.00    -0.237 OA
ATOM     94  O   UNL A   1      48.685  37.569  28.874  1.00  0.00    -0.744 OA
ENDBRANCH  90  91
ENDBRANCH  64  85
ENDBRANCH  38  39
ENDBRANCH  31  33
ENDBRANCH  30  31
ENDBRANCH  29  30
ENDBRANCH  28  29
ENDBRANCH  27  28
ENDBRANCH   1  27
TORSDOF 23
ENDMDL
MODEL 3
REMARK VINA RESULT:      -9.1      1.857      8.270
REMARK SMILES [NH3+][C@]1(C(=O)OCCOCCOCCOC(=O)c2ccc(-c3c4nc(c(-c5ccc(S(=O)(=O)[O-])cc5)c5ccc([nH]5)c(-c5ccc(S(=O)(=O)[O-])cc5)c5nc(c(-c6ccc(S(=O)(=O)[O-])cc6)c6ccc3[nH]6)C=C5)C=C4)cc2)CC[C@@H](Sc2ccc(Cl)c(Cl)c2)C1
REMARK SMILES IDX 10 1 9 2 8 3 7 4 6 5 5 6 3 7 4 8 2 9 77 10 89 11 78 12 79 13
REMARK SMILES IDX 1 14 80 18 81 19 82 20 88 21 83 22 86 23 84 24 87 25 85 26
REMARK SMILES IDX 11 27 12 28 13 29 14 30 15 31 16 32 17 33 18 34 76 35 19 36
REMARK SMILES IDX 75 37 20 38 21 39 22 40 69 41 23 42 74 43 68 44 70 45 24 46
REMARK SMILES IDX 73 47 67 48 66 49 25 51 55 52 36 53 54 54 37 55 40 56 53 57
REMARK SMILES IDX 71 58 38 59 39 60 52 62 72 63 41 64 26 65 27 66 35 67 28 68
REMARK SMILES IDX 34 69 29 70 30 71 31 72 32 73 33 74 56 75 57 76 65 77 58 78
REMARK SMILES IDX 64 79 59 80 60 81 61 82 62 83 63 84 42 85 43 86 51 87 44 88
REMARK SMILES IDX 50 89 45 90 46 91 47 92 48 93 49 94
REMARK H PARENT 1 15 1 16 1 17 70 50 40 61
REMARK Flexibility Score: inf
ROOT
ATOM      1  C   UNL A   1      38.299  22.564  26.254  1.00  0.00     0.188 C 
ENDROOT
BRANCH   1   2
ATOM      2  C   UNL A   1      37.110  22.494  25.309  1.00  0.00     0.188 C 
BRANCH   2   3
ATOM      3  O   UNL A   1      36.161  21.486  25.631  1.00  0.00    -0.376 OA
BRANCH   3   4
ATOM      4  C   UNL A   1      34.888  21.716  25.029  1.00  0.00     0.202 C 
BRANCH   4   5
ATOM      5  C   UNL A   1      34.809  22.317  23.603  1.00  0.00     0.261 C 
BRANCH   5   6
ATOM      6  O   UNL A   1      33.922  23.440  23.409  1.00  0.00    -0.459 OA
BRANCH   6   7
ATOM      7  C   UNL A   1      32.600  23.107  23.234  1.00  0.00     0.368 C 
ATOM      8  O   UNL A   1      32.228  22.116  22.619  1.00  0.00    -0.245 OA
BRANCH   7   9
ATOM      9  C   UNL A   1      31.639  24.163  23.861  1.00  0.00     0.193 C 
ATOM     10  C   UNL A   1      31.532  23.945  25.382  1.00  0.00     0.082 C 
ATOM     11  C   UNL A   1      32.110  25.626  23.706  1.00  0.00     0.095 C 
ATOM     12  C   UNL A   1      31.313  25.320  25.988  1.00  0.00     0.022 C 
ATOM     13  C   UNL A   1      32.099  26.262  25.096  1.00  0.00     0.059 C 
BRANCH   9  14
ATOM     14  N   UNL A   1      30.284  24.043  23.264  1.00  0.00    -0.343 N 
ATOM     15  H   UNL A   1      29.937  24.971  23.020  1.00  0.00     0.345 HD
ATOM     16  H   UNL A   1      29.653  23.610  23.938  1.00  0.00     0.345 HD
ATOM     17  H   UNL A   1      30.332  23.467  22.424  1.00  0.00     0.345 HD
ENDBRANCH   9  14
BRANCH  13  18
ATOM     18  S   UNL A   1      33.756  26.733  25.739  1.00  0.00    -0.122 SA
BRANCH  18  19
ATOM     19  C   UNL A   1      33.542  28.301  26.562  1.00  0.00     0.009 A 
ATOM     20  C   UNL A   1      32.352  29.015  26.494  1.00  0.00     0.017 A 
ATOM     21  C   UNL A   1      34.656  28.945  27.097  1.00  0.00     0.037 A 
ATOM     22  C   UNL A   1      32.292  30.350  26.927  1.00  0.00     0.023 A 
ATOM     23  C   UNL A   1      34.604  30.267  27.562  1.00  0.00     0.060 A 
ATOM     24  C   UNL A   1      33.425  30.990  27.426  1.00  0.00     0.059 A 
ATOM     25  Cl  UNL A   1      36.022  30.975  28.253  1.00  0.00    -0.083 Cl
ATOM     26  Cl  UNL A   1      33.334  32.683  27.757  1.00  0.00    -0.083 Cl
ENDBRANCH  18  19
ENDBRANCH  13  18
ENDBRANCH   7   9
ENDBRANCH   6   7
ENDBRANCH   5   6
ENDBRANCH   4   5
ENDBRANCH   3   4
ENDBRANCH   2   3
ENDBRANCH   1   2
BRANCH   1  27
ATOM     27  O   UNL A   1      39.344  21.673  25.902  1.00  0.00    -0.376 OA
BRANCH  27  28
ATOM     28  C   UNL A   1      40.600  22.105  26.437  1.00  0.00     0.202 C 
BRANCH  28  29
ATOM     29  C   UNL A   1      40.472  23.063  27.646  1.00  0.00     0.261 C 
BRANCH  29  30
ATOM     30  O   UNL A   1      41.209  24.315  27.521  1.00  0.00    -0.460 OA
BRANCH  30  31
ATOM     31  C   UNL A   1      40.480  25.442  27.246  1.00  0.00     0.338 C 
ATOM     32  O   UNL A   1      39.891  25.650  26.212  1.00  0.00    -0.246 OA
BRANCH  31  33
ATOM     33  C   UNL A   1      40.397  26.390  28.420  1.00  0.00     0.060 A 
ATOM     34  C   UNL A   1      41.410  27.354  28.557  1.00  0.00     0.016 A 
ATOM     35  C   UNL A   1      39.378  26.375  29.377  1.00  0.00     0.016 A 
ATOM     36  C   UNL A   1      41.395  28.298  29.608  1.00  0.00     0.010 A 
ATOM     37  C   UNL A   1      39.364  27.320  30.433  1.00  0.00     0.010 A 
ATOM     38  C   UNL A   1      40.378  28.288  30.573  1.00  0.00    -0.014 A 
BRANCH  38  39
ATOM     39  C   UNL A   1      40.504  29.093  31.839  1.00  0.00     0.031 A 
ATOM     40  C   UNL A   1      39.575  30.253  32.026  1.00  0.00     0.074 A 
ATOM     41  C   UNL A   1      41.366  28.840  32.847  1.00  0.00     0.049 A 
ATOM     42  N   UNL A   1      39.428  31.018  33.076  1.00  0.00    -0.248 NA
ATOM     43  C   UNL A   1      38.654  30.545  30.919  1.00  0.00     0.031 C 
ATOM     44  C   UNL A   1      42.190  27.656  32.939  1.00  0.00     0.029 A 
ATOM     45  N   UNL A   1      41.700  29.540  33.988  1.00  0.00    -0.354 N 
ATOM     46  C   UNL A   1      38.339  31.822  32.795  1.00  0.00     0.074 A 
ATOM     47  C   UNL A   1      37.913  31.506  31.446  1.00  0.00     0.031 C 
ATOM     48  C   UNL A   1      43.024  27.744  33.988  1.00  0.00     0.029 A 
ATOM     49  C   UNL A   1      42.757  28.994  34.690  1.00  0.00     0.049 A 
ATOM     50  H   UNL A   1      41.228  30.355  34.276  1.00  0.00     0.167 HD
ATOM     51  C   UNL A   1      37.723  32.717  33.599  1.00  0.00     0.031 A 
ATOM     52  C   UNL A   1      43.425  29.420  35.784  1.00  0.00     0.031 A 
ATOM     53  C   UNL A   1      38.197  33.120  34.894  1.00  0.00     0.049 A 
ATOM     54  C   UNL A   1      42.878  30.596  36.547  1.00  0.00     0.074 A 
ATOM     55  C   UNL A   1      37.659  34.067  35.746  1.00  0.00     0.029 A 
ATOM     56  N   UNL A   1      39.343  32.635  35.508  1.00  0.00    -0.354 N 
ATOM     57  N   UNL A   1      41.802  31.301  36.293  1.00  0.00    -0.248 NA
ATOM     58  C   UNL A   1      43.578  30.986  37.781  1.00  0.00     0.031 C 
ATOM     59  C   UNL A   1      38.519  34.211  36.841  1.00  0.00     0.029 A 
ATOM     60  C   UNL A   1      39.558  33.305  36.703  1.00  0.00     0.049 A 
ATOM     61  H   UNL A   1      39.917  31.921  35.150  1.00  0.00     0.167 HD
ATOM     62  C   UNL A   1      41.656  32.168  37.367  1.00  0.00     0.074 A 
ATOM     63  C   UNL A   1      42.761  31.912  38.268  1.00  0.00     0.031 C 
ATOM     64  C   UNL A   1      40.669  33.070  37.594  1.00  0.00     0.031 A 
BRANCH  51  65
ATOM     65  C   UNL A   1      36.484  33.348  33.042  1.00  0.00    -0.014 A 
ATOM     66  C   UNL A   1      36.546  34.143  31.882  1.00  0.00     0.010 A 
ATOM     67  C   UNL A   1      35.260  33.184  33.709  1.00  0.00     0.010 A 
ATOM     68  C   UNL A   1      35.404  34.803  31.424  1.00  0.00     0.020 A 
ATOM     69  C   UNL A   1      34.113  33.826  33.239  1.00  0.00     0.020 A 
ATOM     70  C   UNL A   1      34.198  34.646  32.111  1.00  0.00     0.054 A 
BRANCH  70  71
ATOM     71  S   UNL A   1      32.732  35.523  31.504  1.00  0.00     0.124 S 
ATOM     72  O   UNL A   1      33.124  36.919  31.681  1.00  0.00    -0.237 OA
ATOM     73  O   UNL A   1      32.637  35.067  30.120  1.00  0.00    -0.237 OA
ATOM     74  O   UNL A   1      31.663  35.060  32.386  1.00  0.00    -0.744 OA
ENDBRANCH  70  71
ENDBRANCH  51  65
BRANCH  52  75
ATOM     75  C   UNL A   1      44.648  28.707  36.264  1.00  0.00    -0.014 A 
ATOM     76  C   UNL A   1      44.563  27.654  37.191  1.00  0.00     0.010 A 
ATOM     77  C   UNL A   1      45.921  29.103  35.806  1.00  0.00     0.010 A 
ATOM     78  C   UNL A   1      45.721  27.017  37.657  1.00  0.00     0.020 A 
ATOM     79  C   UNL A   1      47.080  28.457  36.257  1.00  0.00     0.020 A 
ATOM     80  C   UNL A   1      46.973  27.419  37.184  1.00  0.00     0.054 A 
BRANCH  80  81
ATOM     81  S   UNL A   1      48.452  26.534  37.760  1.00  0.00     0.124 S 
ATOM     82  O   UNL A   1      49.191  27.585  38.451  1.00  0.00    -0.237 OA
ATOM     83  O   UNL A   1      47.881  25.495  38.614  1.00  0.00    -0.237 OA
ATOM     84  O   UNL A   1      49.064  26.048  36.525  1.00  0.00    -0.744 OA
ENDBRANCH  80  81
ENDBRANCH  52  75
BRANCH  64  85
ATOM     85  C   UNL A   1      40.723  33.846  38.883  1.00  0.00    -0.014 A 
ATOM     86  C   UNL A   1      41.223  35.159  38.923  1.00  0.00     0.010 A 
ATOM     87  C   UNL A   1      40.229  33.264  40.064  1.00  0.00     0.010 A 
ATOM     88  C   UNL A   1      41.262  35.863  40.129  1.00  0.00     0.020 A 
ATOM     89  C   UNL A   1      40.240  33.975  41.267  1.00  0.00     0.020 A 
ATOM     90  C   UNL A   1      40.772  35.265  41.295  1.00  0.00     0.054 A 
BRANCH  90  91
ATOM     91  S   UNL A   1      40.801  36.212  42.842  1.00  0.00     0.124 S 
ATOM     92  O   UNL A   1      42.100  36.875  42.767  1.00  0.00    -0.237 OA
ATOM     93  O   UNL A   1      39.640  37.088  42.704  1.00  0.00    -0.237 OA
ATOM     94  O   UNL A   1      40.681  35.188  43.877  1.00  0.00    -0.744 OA
ENDBRANCH  90  91
ENDBRANCH  64  85
ENDBRANCH  38  39
ENDBRANCH  31  33
ENDBRANCH  30  31
ENDBRANCH  29  30
ENDBRANCH  28  29
ENDBRANCH  27  28
ENDBRANCH   1  27
TORSDOF 23
ENDMDL
