MODEL 1
REMARK VINA RESULT:     -11.3      0.000      0.000
REMARK SMILES O=C(OCCOCCOCCOC(=O)c1cc(N2C(=O)[C@H]3[C@@H]4C=C[C@@H]([C@@H]5C[C@H]45)[C@@H]3C2=O)ccc1Cl)c1ccc(-c2c3nc(c(-c4ccc(S(=O)(=O)[O-])cc4)c4ccc([nH]4)c(-c4ccc(S(=O)(=O)[O-])cc4)c4nc(c(-c5ccc(S(=O)(=O)[O-])cc5)c5ccc2[nH]5)C=C4)C=C3)cc1
REMARK SMILES IDX 7 1 6 2 5 3 4 4 3 5 2 6 1 7 36 8 37 9 95 10 38 11 94 12
REMARK SMILES IDX 39 13 40 14 41 15 88 16 42 17 93 18 87 19 89 20 43 21 92 22
REMARK SMILES IDX 86 23 85 24 44 26 74 27 55 28 73 29 56 30 59 31 72 32 90 33
REMARK SMILES IDX 57 34 58 35 71 37 91 38 60 39 45 40 46 41 54 42 47 43 53 44
REMARK SMILES IDX 48 45 49 46 50 47 51 48 52 49 75 50 76 51 84 52 77 53 83 54
REMARK SMILES IDX 78 55 79 56 80 57 81 58 82 59 61 60 62 61 70 62 63 63 69 64
REMARK SMILES IDX 64 65 65 66 66 67 67 68 68 69 8 70 9 71 10 72 11 73 12 74
REMARK SMILES IDX 13 75 14 76 15 77 16 78 34 79 17 80 33 81 35 82 32 83 18 84
REMARK SMILES IDX 19 85 30 86 20 87 21 88 29 89 31 90 22 91 25 92 23 93 28 94
REMARK SMILES IDX 24 95 26 96 27 97
REMARK H PARENT 89 25 59 36
REMARK Flexibility Score: inf
ROOT
ATOM      1  C   UNL A   1      32.476  27.968  27.281  1.00  0.00     0.188 C 
ENDROOT
BRANCH   1   2
ATOM      2  O   UNL A   1      33.118  28.948  26.474  1.00  0.00    -0.376 OA
BRANCH   2   3
ATOM      3  C   UNL A   1      34.503  29.193  26.709  1.00  0.00     0.202 C 
BRANCH   3   4
ATOM      4  C   UNL A   1      34.908  30.420  27.544  1.00  0.00     0.261 C 
BRANCH   4   5
ATOM      5  O   UNL A   1      36.296  30.507  27.906  1.00  0.00    -0.460 OA
BRANCH   5   6
ATOM      6  C   UNL A   1      36.996  29.715  28.756  1.00  0.00     0.338 C 
ATOM      7  O   UNL A   1      36.453  29.306  29.780  1.00  0.00    -0.246 OA
BRANCH   6   8
ATOM      8  C   UNL A   1      38.409  29.342  28.495  1.00  0.00     0.060 A 
ATOM      9  C   UNL A   1      38.990  29.393  27.232  1.00  0.00     0.016 A 
ATOM     10  C   UNL A   1      39.240  29.095  29.591  1.00  0.00     0.016 A 
ATOM     11  C   UNL A   1      40.321  29.088  27.017  1.00  0.00     0.010 A 
ATOM     12  C   UNL A   1      40.616  28.929  29.401  1.00  0.00     0.010 A 
ATOM     13  C   UNL A   1      41.162  28.915  28.105  1.00  0.00    -0.014 A 
BRANCH  13  14
ATOM     14  C   UNL A   1      42.597  28.658  27.867  1.00  0.00     0.031 A 
ATOM     15  C   UNL A   1      43.553  29.779  28.114  1.00  0.00     0.074 A 
ATOM     16  C   UNL A   1      43.041  27.436  27.504  1.00  0.00     0.049 A 
ATOM     17  N   UNL A   1      44.822  29.851  27.834  1.00  0.00    -0.248 NA
ATOM     18  C   UNL A   1      43.006  30.984  28.769  1.00  0.00     0.031 C 
ATOM     19  C   UNL A   1      42.218  26.225  27.387  1.00  0.00     0.029 A 
ATOM     20  N   UNL A   1      44.302  26.996  27.186  1.00  0.00    -0.354 N 
ATOM     21  C   UNL A   1      45.214  31.118  28.236  1.00  0.00     0.074 A 
ATOM     22  C   UNL A   1      44.051  31.795  28.755  1.00  0.00     0.031 C 
ATOM     23  C   UNL A   1      43.000  25.192  27.040  1.00  0.00     0.029 A 
ATOM     24  C   UNL A   1      44.342  25.679  26.791  1.00  0.00     0.049 A 
ATOM     25  H   UNL A   1      45.102  27.570  27.236  1.00  0.00     0.167 HD
ATOM     26  C   UNL A   1      46.448  31.661  28.176  1.00  0.00     0.031 A 
ATOM     27  C   UNL A   1      45.328  24.956  26.227  1.00  0.00     0.031 A 
ATOM     28  C   UNL A   1      47.594  30.953  27.685  1.00  0.00     0.049 A 
ATOM     29  C   UNL A   1      46.653  25.629  26.033  1.00  0.00     0.074 A 
ATOM     30  C   UNL A   1      48.898  31.396  27.587  1.00  0.00     0.029 A 
ATOM     31  N   UNL A   1      47.568  29.649  27.210  1.00  0.00    -0.354 N 
ATOM     32  N   UNL A   1      47.010  26.838  26.397  1.00  0.00    -0.248 NA
ATOM     33  C   UNL A   1      47.705  24.855  25.365  1.00  0.00     0.031 C 
ATOM     34  C   UNL A   1      49.647  30.386  26.979  1.00  0.00     0.029 A 
ATOM     35  C   UNL A   1      48.824  29.290  26.764  1.00  0.00     0.049 A 
ATOM     36  H   UNL A   1      46.773  29.069  27.193  1.00  0.00     0.167 HD
ATOM     37  C   UNL A   1      48.339  26.961  26.028  1.00  0.00     0.074 A 
ATOM     38  C   UNL A   1      48.725  25.699  25.426  1.00  0.00     0.031 C 
ATOM     39  C   UNL A   1      49.168  28.021  26.174  1.00  0.00     0.031 A 
BRANCH  26  40
ATOM     40  C   UNL A   1      46.592  33.096  28.584  1.00  0.00    -0.014 A 
ATOM     41  C   UNL A   1      46.976  33.462  29.885  1.00  0.00     0.010 A 
ATOM     42  C   UNL A   1      46.348  34.098  27.628  1.00  0.00     0.010 A 
ATOM     43  C   UNL A   1      47.103  34.811  30.226  1.00  0.00     0.020 A 
ATOM     44  C   UNL A   1      46.501  35.445  27.957  1.00  0.00     0.020 A 
ATOM     45  C   UNL A   1      46.872  35.793  29.257  1.00  0.00     0.054 A 
BRANCH  45  46
ATOM     46  S   UNL A   1      47.117  37.530  29.706  1.00  0.00     0.124 S 
ATOM     47  O   UNL A   1      45.908  38.154  29.173  1.00  0.00    -0.237 OA
ATOM     48  O   UNL A   1      47.203  37.471  31.163  1.00  0.00    -0.237 OA
ATOM     49  O   UNL A   1      48.357  37.894  29.026  1.00  0.00    -0.744 OA
ENDBRANCH  45  46
ENDBRANCH  26  40
BRANCH  27  50
ATOM     50  C   UNL A   1      45.076  23.583  25.701  1.00  0.00    -0.014 A 
ATOM     51  C   UNL A   1      45.065  22.460  26.545  1.00  0.00     0.010 A 
ATOM     52  C   UNL A   1      44.904  23.391  24.315  1.00  0.00     0.010 A 
ATOM     53  C   UNL A   1      44.929  21.171  26.012  1.00  0.00     0.020 A 
ATOM     54  C   UNL A   1      44.742  22.110  23.781  1.00  0.00     0.020 A 
ATOM     55  C   UNL A   1      44.777  21.005  24.631  1.00  0.00     0.054 A 
BRANCH  55  56
ATOM     56  S   UNL A   1      44.618  19.327  23.957  1.00  0.00     0.124 S 
ATOM     57  O   UNL A   1      43.456  18.820  24.679  1.00  0.00    -0.237 OA
ATOM     58  O   UNL A   1      44.421  19.577  22.532  1.00  0.00    -0.237 OA
ATOM     59  O   UNL A   1      45.894  18.704  24.302  1.00  0.00    -0.744 OA
ENDBRANCH  55  56
ENDBRANCH  27  50
BRANCH  39  60
ATOM     60  C   UNL A   1      50.577  27.849  25.698  1.00  0.00    -0.014 A 
ATOM     61  C   UNL A   1      51.569  27.344  26.556  1.00  0.00     0.010 A 
ATOM     62  C   UNL A   1      50.886  28.114  24.354  1.00  0.00     0.010 A 
ATOM     63  C   UNL A   1      52.856  27.115  26.075  1.00  0.00     0.020 A 
ATOM     64  C   UNL A   1      52.163  27.854  23.861  1.00  0.00     0.020 A 
ATOM     65  C   UNL A   1      53.141  27.361  24.727  1.00  0.00     0.054 A 
BRANCH  65  66
ATOM     66  S   UNL A   1      54.795  26.965  24.108  1.00  0.00     0.124 S 
ATOM     67  O   UNL A   1      54.556  26.828  22.673  1.00  0.00    -0.237 OA
ATOM     68  O   UNL A   1      55.572  28.136  24.507  1.00  0.00    -0.237 OA
ATOM     69  O   UNL A   1      55.140  25.728  24.804  1.00  0.00    -0.744 OA
ENDBRANCH  65  66
ENDBRANCH  39  60
ENDBRANCH  13  14
ENDBRANCH   6   8
ENDBRANCH   5   6
ENDBRANCH   4   5
ENDBRANCH   3   4
ENDBRANCH   2   3
ENDBRANCH   1   2
BRANCH   1  70
ATOM     70  C   UNL A   1      31.508  27.096  26.481  1.00  0.00     0.188 C 
BRANCH  70  71
ATOM     71  O   UNL A   1      31.282  27.459  25.125  1.00  0.00    -0.376 OA
BRANCH  71  72
ATOM     72  C   UNL A   1      30.386  26.645  24.378  1.00  0.00     0.202 C 
BRANCH  72  73
ATOM     73  C   UNL A   1      30.914  25.825  23.181  1.00  0.00     0.261 C 
BRANCH  73  74
ATOM     74  O   UNL A   1      32.176  26.197  22.592  1.00  0.00    -0.460 OA
BRANCH  74  75
ATOM     75  C   UNL A   1      32.932  25.129  22.234  1.00  0.00     0.339 C 
ATOM     76  O   UNL A   1      33.044  24.668  21.108  1.00  0.00    -0.246 OA
BRANCH  75  77
ATOM     77  C   UNL A   1      33.596  24.480  23.378  1.00  0.00     0.080 A 
ATOM     78  C   UNL A   1      33.487  23.091  23.601  1.00  0.00     0.044 A 
ATOM     79  C   UNL A   1      34.102  25.320  24.374  1.00  0.00     0.055 A 
ATOM     80  C   UNL A   1      33.792  22.562  24.869  1.00  0.00     0.053 A 
ATOM     81  C   UNL A   1      34.405  24.796  25.627  1.00  0.00     0.023 A 
ATOM     82  Cl  UNL A   1      34.417  26.996  24.099  1.00  0.00    -0.083 Cl
ATOM     83  C   UNL A   1      34.225  23.436  25.880  1.00  0.00     0.028 A 
BRANCH  80  84
ATOM     84  N   UNL A   1      33.786  21.172  25.155  1.00  0.00    -0.250 N 
ATOM     85  C   UNL A   1      32.613  20.429  25.307  1.00  0.00     0.238 C 
ATOM     86  C   UNL A   1      34.900  20.330  24.965  1.00  0.00     0.238 C 
ATOM     87  O   UNL A   1      31.472  20.833  25.445  1.00  0.00    -0.274 OA
ATOM     88  C   UNL A   1      33.059  18.999  25.354  1.00  0.00     0.100 C 
ATOM     89  C   UNL A   1      34.273  19.091  24.432  1.00  0.00     0.100 C 
ATOM     90  O   UNL A   1      36.088  20.565  25.068  1.00  0.00    -0.274 OA
ATOM     91  C   UNL A   1      32.302  17.687  25.057  1.00  0.00     0.028 C 
ATOM     92  C   UNL A   1      34.734  17.683  24.069  1.00  0.00     0.028 C 
ATOM     93  C   UNL A   1      33.262  16.669  25.727  1.00  0.00    -0.026 C 
ATOM     94  C   UNL A   1      32.272  17.237  23.580  1.00  0.00     0.001 C 
ATOM     95  C   UNL A   1      34.531  16.720  25.254  1.00  0.00    -0.026 C 
ATOM     96  C   UNL A   1      33.693  17.215  22.989  1.00  0.00     0.001 C 
ATOM     97  C   UNL A   1      32.577  18.045  22.353  1.00  0.00     0.009 C 
ENDBRANCH  80  84
ENDBRANCH  75  77
ENDBRANCH  74  75
ENDBRANCH  73  74
ENDBRANCH  72  73
ENDBRANCH  71  72
ENDBRANCH  70  71
ENDBRANCH   1  70
TORSDOF 21
ENDMDL
MODEL 2
REMARK VINA RESULT:     -10.9      4.845      5.833
REMARK SMILES O=C(OCCOCCOCCOC(=O)c1cc(N2C(=O)[C@H]3[C@@H]4C=C[C@@H]([C@@H]5C[C@H]45)[C@@H]3C2=O)ccc1Cl)c1ccc(-c2c3nc(c(-c4ccc(S(=O)(=O)[O-])cc4)c4ccc([nH]4)c(-c4ccc(S(=O)(=O)[O-])cc4)c4nc(c(-c5ccc(S(=O)(=O)[O-])cc5)c5ccc2[nH]5)C=C4)C=C3)cc1
REMARK SMILES IDX 7 1 6 2 5 3 4 4 3 5 2 6 1 7 36 8 37 9 95 10 38 11 94 12
REMARK SMILES IDX 39 13 40 14 41 15 88 16 42 17 93 18 87 19 89 20 43 21 92 22
REMARK SMILES IDX 86 23 85 24 44 26 74 27 55 28 73 29 56 30 59 31 72 32 90 33
REMARK SMILES IDX 57 34 58 35 71 37 91 38 60 39 45 40 46 41 54 42 47 43 53 44
REMARK SMILES IDX 48 45 49 46 50 47 51 48 52 49 75 50 76 51 84 52 77 53 83 54
REMARK SMILES IDX 78 55 79 56 80 57 81 58 82 59 61 60 62 61 70 62 63 63 69 64
REMARK SMILES IDX 64 65 65 66 66 67 67 68 68 69 8 70 9 71 10 72 11 73 12 74
REMARK SMILES IDX 13 75 14 76 15 77 16 78 34 79 17 80 33 81 35 82 32 83 18 84
REMARK SMILES IDX 19 85 30 86 20 87 21 88 29 89 31 90 22 91 25 92 23 93 28 94
REMARK SMILES IDX 24 95 26 96 27 97
REMARK H PARENT 89 25 59 36
REMARK Flexibility Score: inf
ROOT
ATOM      1  C   UNL A   1      31.483  27.791  26.814  1.00  0.00     0.188 C 
ENDROOT
BRANCH   1   2
ATOM      2  O   UNL A   1      31.217  28.792  25.839  1.00  0.00    -0.376 OA
BRANCH   2   3
ATOM      3  C   UNL A   1      32.269  29.700  25.520  1.00  0.00     0.202 C 
BRANCH   3   4
ATOM      4  C   UNL A   1      32.742  30.694  26.595  1.00  0.00     0.261 C 
BRANCH   4   5
ATOM      5  O   UNL A   1      34.117  30.582  26.998  1.00  0.00    -0.460 OA
BRANCH   5   6
ATOM      6  C   UNL A   1      34.739  31.179  28.044  1.00  0.00     0.338 C 
ATOM      7  O   UNL A   1      34.226  32.169  28.563  1.00  0.00    -0.246 OA
BRANCH   6   8
ATOM      8  C   UNL A   1      36.035  30.685  28.572  1.00  0.00     0.060 A 
ATOM      9  C   UNL A   1      37.254  31.296  28.295  1.00  0.00     0.016 A 
ATOM     10  C   UNL A   1      36.013  29.666  29.529  1.00  0.00     0.016 A 
ATOM     11  C   UNL A   1      38.445  30.850  28.836  1.00  0.00     0.010 A 
ATOM     12  C   UNL A   1      37.192  29.305  30.190  1.00  0.00     0.010 A 
ATOM     13  C   UNL A   1      38.421  29.891  29.836  1.00  0.00    -0.014 A 
BRANCH  13  14
ATOM     14  C   UNL A   1      39.693  29.470  30.457  1.00  0.00     0.031 A 
ATOM     15  C   UNL A   1      40.163  30.226  31.657  1.00  0.00     0.074 A 
ATOM     16  C   UNL A   1      40.375  28.398  30.002  1.00  0.00     0.049 A 
ATOM     17  N   UNL A   1      41.306  30.152  32.276  1.00  0.00    -0.248 NA
ATOM     18  C   UNL A   1      39.217  31.197  32.241  1.00  0.00     0.031 C 
ATOM     19  C   UNL A   1      39.932  27.488  28.938  1.00  0.00     0.029 A 
ATOM     20  N   UNL A   1      41.583  27.871  30.389  1.00  0.00    -0.354 N 
ATOM     21  C   UNL A   1      41.234  31.093  33.291  1.00  0.00     0.074 A 
ATOM     22  C   UNL A   1      39.951  31.747  33.195  1.00  0.00     0.031 C 
ATOM     23  C   UNL A   1      40.845  26.519  28.776  1.00  0.00     0.029 A 
ATOM     24  C   UNL A   1      41.986  26.800  29.625  1.00  0.00     0.049 A 
ATOM     25  H   UNL A   1      42.110  28.227  31.141  1.00  0.00     0.167 HD
ATOM     26  C   UNL A   1      42.165  31.378  34.224  1.00  0.00     0.031 A 
ATOM     27  C   UNL A   1      43.166  26.154  29.563  1.00  0.00     0.031 A 
ATOM     28  C   UNL A   1      43.419  30.689  34.316  1.00  0.00     0.049 A 
ATOM     29  C   UNL A   1      44.241  26.588  30.513  1.00  0.00     0.074 A 
ATOM     30  C   UNL A   1      44.439  30.882  35.228  1.00  0.00     0.029 A 
ATOM     31  N   UNL A   1      43.822  29.672  33.463  1.00  0.00    -0.354 N 
ATOM     32  N   UNL A   1      44.171  27.496  31.456  1.00  0.00    -0.248 NA
ATOM     33  C   UNL A   1      45.542  25.921  30.400  1.00  0.00     0.031 C 
ATOM     34  C   UNL A   1      45.491  30.034  34.877  1.00  0.00     0.029 A 
ATOM     35  C   UNL A   1      45.100  29.265  33.791  1.00  0.00     0.049 A 
ATOM     36  H   UNL A   1      43.278  29.298  32.733  1.00  0.00     0.167 HD
ATOM     37  C   UNL A   1      45.411  27.490  32.073  1.00  0.00     0.074 A 
ATOM     38  C   UNL A   1      46.206  26.478  31.403  1.00  0.00     0.031 C 
ATOM     39  C   UNL A   1      45.855  28.250  33.101  1.00  0.00     0.031 A 
BRANCH  26  40
ATOM     40  C   UNL A   1      41.884  32.517  35.156  1.00  0.00    -0.014 A 
ATOM     41  C   UNL A   1      42.250  33.838  34.845  1.00  0.00     0.010 A 
ATOM     42  C   UNL A   1      41.223  32.251  36.368  1.00  0.00     0.010 A 
ATOM     43  C   UNL A   1      41.967  34.874  35.738  1.00  0.00     0.020 A 
ATOM     44  C   UNL A   1      40.914  33.286  37.251  1.00  0.00     0.020 A 
ATOM     45  C   UNL A   1      41.294  34.591  36.932  1.00  0.00     0.054 A 
BRANCH  45  46
ATOM     46  S   UNL A   1      40.874  35.964  38.037  1.00  0.00     0.124 S 
ATOM     47  O   UNL A   1      40.329  35.262  39.197  1.00  0.00    -0.237 OA
ATOM     48  O   UNL A   1      42.167  36.610  38.244  1.00  0.00    -0.237 OA
ATOM     49  O   UNL A   1      39.906  36.743  37.271  1.00  0.00    -0.744 OA
ENDBRANCH  45  46
ENDBRANCH  26  40
BRANCH  27  50
ATOM     50  C   UNL A   1      43.434  25.134  28.508  1.00  0.00    -0.014 A 
ATOM     51  C   UNL A   1      43.798  25.503  27.202  1.00  0.00     0.010 A 
ATOM     52  C   UNL A   1      43.261  23.767  28.803  1.00  0.00     0.010 A 
ATOM     53  C   UNL A   1      43.943  24.530  26.203  1.00  0.00     0.020 A 
ATOM     54  C   UNL A   1      43.429  22.791  27.817  1.00  0.00     0.020 A 
ATOM     55  C   UNL A   1      43.749  23.181  26.517  1.00  0.00     0.054 A 
BRANCH  55  56
ATOM     56  S   UNL A   1      43.925  21.936  25.207  1.00  0.00     0.124 S 
ATOM     57  O   UNL A   1      45.241  21.376  25.498  1.00  0.00    -0.237 OA
ATOM     58  O   UNL A   1      42.790  21.053  25.456  1.00  0.00    -0.237 OA
ATOM     59  O   UNL A   1      43.835  22.725  23.980  1.00  0.00    -0.744 OA
ENDBRANCH  55  56
ENDBRANCH  27  50
BRANCH  39  60
ATOM     60  C   UNL A   1      47.251  27.996  33.577  1.00  0.00    -0.014 A 
ATOM     61  C   UNL A   1      48.338  28.693  33.021  1.00  0.00     0.010 A 
ATOM     62  C   UNL A   1      47.463  27.114  34.650  1.00  0.00     0.010 A 
ATOM     63  C   UNL A   1      49.620  28.503  33.529  1.00  0.00     0.020 A 
ATOM     64  C   UNL A   1      48.739  26.948  35.183  1.00  0.00     0.020 A 
ATOM     65  C   UNL A   1      49.811  27.640  34.614  1.00  0.00     0.054 A 
BRANCH  65  66
ATOM     66  S   UNL A   1      51.474  27.485  35.314  1.00  0.00     0.124 S 
ATOM     67  O   UNL A   1      52.286  28.180  34.318  1.00  0.00    -0.237 OA
ATOM     68  O   UNL A   1      51.340  28.163  36.601  1.00  0.00    -0.237 OA
ATOM     69  O   UNL A   1      51.683  26.042  35.394  1.00  0.00    -0.744 OA
ENDBRANCH  65  66
ENDBRANCH  39  60
ENDBRANCH  13  14
ENDBRANCH   6   8
ENDBRANCH   5   6
ENDBRANCH   4   5
ENDBRANCH   3   4
ENDBRANCH   2   3
ENDBRANCH   1   2
BRANCH   1  70
ATOM     70  C   UNL A   1      31.049  26.399  26.355  1.00  0.00     0.188 C 
BRANCH  70  71
ATOM     71  O   UNL A   1      30.334  26.317  25.129  1.00  0.00    -0.376 OA
BRANCH  71  72
ATOM     72  C   UNL A   1      30.246  25.037  24.516  1.00  0.00     0.202 C 
BRANCH  72  73
ATOM     73  C   UNL A   1      30.673  24.863  23.042  1.00  0.00     0.261 C 
BRANCH  73  74
ATOM     74  O   UNL A   1      31.719  25.708  22.522  1.00  0.00    -0.460 OA
BRANCH  74  75
ATOM     75  C   UNL A   1      32.843  25.022  22.192  1.00  0.00     0.339 C 
ATOM     76  O   UNL A   1      33.278  24.848  21.064  1.00  0.00    -0.246 OA
BRANCH  75  77
ATOM     77  C   UNL A   1      33.505  24.404  23.354  1.00  0.00     0.080 A 
ATOM     78  C   UNL A   1      33.446  23.012  23.581  1.00  0.00     0.044 A 
ATOM     79  C   UNL A   1      33.956  25.267  24.357  1.00  0.00     0.055 A 
ATOM     80  C   UNL A   1      33.742  22.500  24.858  1.00  0.00     0.053 A 
ATOM     81  C   UNL A   1      34.252  24.759  25.618  1.00  0.00     0.023 A 
ATOM     82  Cl  UNL A   1      34.212  26.953  24.081  1.00  0.00    -0.083 Cl
ATOM     83  C   UNL A   1      34.119  23.394  25.874  1.00  0.00     0.028 A 
BRANCH  80  84
ATOM     84  N   UNL A   1      33.784  21.112  25.150  1.00  0.00    -0.250 N 
ATOM     85  C   UNL A   1      32.636  20.333  25.316  1.00  0.00     0.238 C 
ATOM     86  C   UNL A   1      34.922  20.305  24.953  1.00  0.00     0.238 C 
ATOM     87  O   UNL A   1      31.484  20.701  25.463  1.00  0.00    -0.274 OA
ATOM     88  C   UNL A   1      33.129  18.917  25.365  1.00  0.00     0.100 C 
ATOM     89  C   UNL A   1      34.331  19.044  24.432  1.00  0.00     0.100 C 
ATOM     90  O   UNL A   1      36.104  20.579  25.044  1.00  0.00    -0.274 OA
ATOM     91  C   UNL A   1      32.412  17.581  25.080  1.00  0.00     0.028 C 
ATOM     92  C   UNL A   1      34.834  17.651  24.071  1.00  0.00     0.028 C 
ATOM     93  C   UNL A   1      33.411  16.597  25.747  1.00  0.00    -0.026 C 
ATOM     94  C   UNL A   1      32.383  17.123  23.606  1.00  0.00     0.001 C 
ATOM     95  C   UNL A   1      34.673  16.686  25.262  1.00  0.00    -0.026 C 
ATOM     96  C   UNL A   1      33.799  17.144  23.002  1.00  0.00     0.001 C 
ATOM     97  C   UNL A   1      32.650  17.935  22.373  1.00  0.00     0.009 C 
ENDBRANCH  80  84
ENDBRANCH  75  77
ENDBRANCH  74  75
ENDBRANCH  73  74
ENDBRANCH  72  73
ENDBRANCH  71  72
ENDBRANCH  70  71
ENDBRANCH   1  70
TORSDOF 21
ENDMDL
MODEL 3
REMARK VINA RESULT:     -10.9      6.982      9.403
REMARK SMILES O=C(OCCOCCOCCOC(=O)c1cc(N2C(=O)[C@H]3[C@@H]4C=C[C@@H]([C@@H]5C[C@H]45)[C@@H]3C2=O)ccc1Cl)c1ccc(-c2c3nc(c(-c4ccc(S(=O)(=O)[O-])cc4)c4ccc([nH]4)c(-c4ccc(S(=O)(=O)[O-])cc4)c4nc(c(-c5ccc(S(=O)(=O)[O-])cc5)c5ccc2[nH]5)C=C4)C=C3)cc1
REMARK SMILES IDX 7 1 6 2 5 3 4 4 3 5 2 6 1 7 36 8 37 9 95 10 38 11 94 12
REMARK SMILES IDX 39 13 40 14 41 15 88 16 42 17 93 18 87 19 89 20 43 21 92 22
REMARK SMILES IDX 86 23 85 24 44 26 74 27 55 28 73 29 56 30 59 31 72 32 90 33
REMARK SMILES IDX 57 34 58 35 71 37 91 38 60 39 45 40 46 41 54 42 47 43 53 44
REMARK SMILES IDX 48 45 49 46 50 47 51 48 52 49 75 50 76 51 84 52 77 53 83 54
REMARK SMILES IDX 78 55 79 56 80 57 81 58 82 59 61 60 62 61 70 62 63 63 69 64
REMARK SMILES IDX 64 65 65 66 66 67 67 68 68 69 8 70 9 71 10 72 11 73 12 74
REMARK SMILES IDX 13 75 14 76 15 77 16 78 34 79 17 80 33 81 35 82 32 83 18 84
REMARK SMILES IDX 19 85 30 86 20 87 21 88 29 89 31 90 22 91 25 92 23 93 28 94
REMARK SMILES IDX 24 95 26 96 27 97
REMARK H PARENT 89 25 59 36
REMARK Flexibility Score: inf
ROOT
ATOM      1  C   UNL A   1      34.489  32.826  29.529  1.00  0.00     0.188 C 
ENDROOT
BRANCH   1   2
ATOM      2  O   UNL A   1      33.411  33.753  29.496  1.00  0.00    -0.376 OA
BRANCH   2   3
ATOM      3  C   UNL A   1      33.689  35.076  29.044  1.00  0.00     0.202 C 
BRANCH   3   4
ATOM      4  C   UNL A   1      32.788  36.228  29.523  1.00  0.00     0.261 C 
BRANCH   4   5
ATOM      5  O   UNL A   1      32.858  36.542  30.923  1.00  0.00    -0.460 OA
BRANCH   5   6
ATOM      6  C   UNL A   1      32.724  35.704  31.981  1.00  0.00     0.338 C 
ATOM      7  O   UNL A   1      31.621  35.573  32.508  1.00  0.00    -0.246 OA
BRANCH   6   8
ATOM      8  C   UNL A   1      33.877  34.952  32.537  1.00  0.00     0.060 A 
ATOM      9  C   UNL A   1      33.765  33.673  33.074  1.00  0.00     0.016 A 
ATOM     10  C   UNL A   1      35.158  35.479  32.356  1.00  0.00     0.016 A 
ATOM     11  C   UNL A   1      34.859  32.969  33.542  1.00  0.00     0.010 A 
ATOM     12  C   UNL A   1      36.281  34.715  32.692  1.00  0.00     0.010 A 
ATOM     13  C   UNL A   1      36.134  33.455  33.299  1.00  0.00    -0.014 A 
BRANCH  13  14
ATOM     14  C   UNL A   1      37.299  32.662  33.742  1.00  0.00     0.031 A 
ATOM     15  C   UNL A   1      37.922  33.017  35.053  1.00  0.00     0.074 A 
ATOM     16  C   UNL A   1      37.746  31.610  33.024  1.00  0.00     0.049 A 
ATOM     17  N   UNL A   1      39.030  32.581  35.578  1.00  0.00    -0.248 NA
ATOM     18  C   UNL A   1      37.198  33.995  35.887  1.00  0.00     0.031 C 
ATOM     19  C   UNL A   1      37.118  31.073  31.810  1.00  0.00     0.029 A 
ATOM     20  N   UNL A   1      38.824  30.782  33.219  1.00  0.00    -0.354 N 
ATOM     21  C   UNL A   1      39.159  33.261  36.779  1.00  0.00     0.074 A 
ATOM     22  C   UNL A   1      38.034  34.158  36.899  1.00  0.00     0.031 C 
ATOM     23  C   UNL A   1      37.815  30.006  31.388  1.00  0.00     0.029 A 
ATOM     24  C   UNL A   1      38.995  29.856  32.216  1.00  0.00     0.049 A 
ATOM     25  H   UNL A   1      39.418  30.846  34.003  1.00  0.00     0.167 HD
ATOM     26  C   UNL A   1      40.136  33.136  37.700  1.00  0.00     0.031 A 
ATOM     27  C   UNL A   1      40.018  29.023  31.949  1.00  0.00     0.031 A 
ATOM     28  C   UNL A   1      41.224  32.212  37.570  1.00  0.00     0.049 A 
ATOM     29  C   UNL A   1      41.166  29.009  32.913  1.00  0.00     0.074 A 
ATOM     30  C   UNL A   1      42.268  31.988  38.446  1.00  0.00     0.029 A 
ATOM     31  N   UNL A   1      41.405  31.358  36.492  1.00  0.00    -0.354 N 
ATOM     32  N   UNL A   1      41.289  29.673  34.037  1.00  0.00    -0.248 NA
ATOM     33  C   UNL A   1      42.304  28.143  32.585  1.00  0.00     0.031 C 
ATOM     34  C   UNL A   1      43.124  31.054  37.859  1.00  0.00     0.029 A 
ATOM     35  C   UNL A   1      42.576  30.644  36.653  1.00  0.00     0.049 A 
ATOM     36  H   UNL A   1      40.791  31.275  35.727  1.00  0.00     0.167 HD
ATOM     37  C   UNL A   1      42.507  29.283  34.569  1.00  0.00     0.074 A 
ATOM     38  C   UNL A   1      43.075  28.315  33.649  1.00  0.00     0.031 C 
ATOM     39  C   UNL A   1      43.104  29.686  35.715  1.00  0.00     0.031 A 
BRANCH  26  40
ATOM     40  C   UNL A   1      40.099  34.065  38.876  1.00  0.00    -0.014 A 
ATOM     41  C   UNL A   1      39.476  33.707  40.084  1.00  0.00     0.010 A 
ATOM     42  C   UNL A   1      40.720  35.322  38.764  1.00  0.00     0.010 A 
ATOM     43  C   UNL A   1      39.466  34.600  41.160  1.00  0.00     0.020 A 
ATOM     44  C   UNL A   1      40.736  36.205  39.844  1.00  0.00     0.020 A 
ATOM     45  C   UNL A   1      40.103  35.839  41.034  1.00  0.00     0.054 A 
BRANCH  45  46
ATOM     46  S   UNL A   1      40.139  36.945  42.468  1.00  0.00     0.124 S 
ATOM     47  O   UNL A   1      39.245  36.261  43.400  1.00  0.00    -0.237 OA
ATOM     48  O   UNL A   1      41.552  36.939  42.837  1.00  0.00    -0.237 OA
ATOM     49  O   UNL A   1      39.640  38.213  41.943  1.00  0.00    -0.744 OA
ENDBRANCH  45  46
ENDBRANCH  26  40
BRANCH  27  50
ATOM     50  C   UNL A   1      40.066  28.238  30.681  1.00  0.00    -0.014 A 
ATOM     51  C   UNL A   1      39.260  27.104  30.485  1.00  0.00     0.010 A 
ATOM     52  C   UNL A   1      40.983  28.601  29.674  1.00  0.00     0.010 A 
ATOM     53  C   UNL A   1      39.398  26.326  29.328  1.00  0.00     0.020 A 
ATOM     54  C   UNL A   1      41.106  27.843  28.507  1.00  0.00     0.020 A 
ATOM     55  C   UNL A   1      40.327  26.697  28.350  1.00  0.00     0.054 A 
BRANCH  55  56
ATOM     56  S   UNL A   1      40.505  25.667  26.865  1.00  0.00     0.124 S 
ATOM     57  O   UNL A   1      41.535  24.719  27.277  1.00  0.00    -0.237 OA
ATOM     58  O   UNL A   1      39.163  25.116  26.702  1.00  0.00    -0.237 OA
ATOM     59  O   UNL A   1      40.907  26.625  25.838  1.00  0.00    -0.744 OA
ENDBRANCH  55  56
ENDBRANCH  27  50
BRANCH  39  60
ATOM     60  C   UNL A   1      44.423  29.061  36.047  1.00  0.00    -0.014 A 
ATOM     61  C   UNL A   1      44.487  27.856  36.767  1.00  0.00     0.010 A 
ATOM     62  C   UNL A   1      45.603  29.645  35.556  1.00  0.00     0.010 A 
ATOM     63  C   UNL A   1      45.718  27.248  36.998  1.00  0.00     0.020 A 
ATOM     64  C   UNL A   1      46.833  29.021  35.757  1.00  0.00     0.020 A 
ATOM     65  C   UNL A   1      46.882  27.828  36.482  1.00  0.00     0.054 A 
BRANCH  65  66
ATOM     66  S   UNL A   1      48.456  26.966  36.717  1.00  0.00     0.124 S 
ATOM     67  O   UNL A   1      48.495  26.799  38.168  1.00  0.00    -0.237 OA
ATOM     68  O   UNL A   1      48.264  25.739  35.947  1.00  0.00    -0.237 OA
ATOM     69  O   UNL A   1      49.444  27.892  36.169  1.00  0.00    -0.744 OA
ENDBRANCH  65  66
ENDBRANCH  39  60
ENDBRANCH  13  14
ENDBRANCH   6   8
ENDBRANCH   5   6
ENDBRANCH   4   5
ENDBRANCH   3   4
ENDBRANCH   2   3
ENDBRANCH   1   2
BRANCH   1  70
ATOM     70  C   UNL A   1      35.341  32.877  28.260  1.00  0.00     0.188 C 
BRANCH  70  71
ATOM     71  O   UNL A   1      35.143  31.840  27.307  1.00  0.00    -0.376 OA
BRANCH  71  72
ATOM     72  C   UNL A   1      34.004  31.007  27.484  1.00  0.00     0.202 C 
BRANCH  72  73
ATOM     73  C   UNL A   1      33.778  29.809  26.538  1.00  0.00     0.261 C 
BRANCH  73  74
ATOM     74  O   UNL A   1      32.614  29.813  25.686  1.00  0.00    -0.460 OA
BRANCH  74  75
ATOM     75  C   UNL A   1      32.810  29.155  24.515  1.00  0.00     0.339 C 
ATOM     76  O   UNL A   1      33.571  29.487  23.618  1.00  0.00    -0.246 OA
BRANCH  75  77
ATOM     77  C   UNL A   1      31.936  27.979  24.359  1.00  0.00     0.080 A 
ATOM     78  C   UNL A   1      32.434  26.667  24.514  1.00  0.00     0.044 A 
ATOM     79  C   UNL A   1      30.678  28.197  23.790  1.00  0.00     0.055 A 
ATOM     80  C   UNL A   1      31.705  25.580  23.997  1.00  0.00     0.053 A 
ATOM     81  C   UNL A   1      29.957  27.121  23.283  1.00  0.00     0.023 A 
ATOM     82  Cl  UNL A   1      29.948  29.762  23.733  1.00  0.00    -0.083 Cl
ATOM     83  C   UNL A   1      30.478  25.830  23.360  1.00  0.00     0.028 A 
BRANCH  80  84
ATOM     84  N   UNL A   1      32.092  24.227  24.178  1.00  0.00    -0.250 N 
ATOM     85  C   UNL A   1      33.204  23.661  23.550  1.00  0.00     0.238 C 
ATOM     86  C   UNL A   1      31.648  23.422  25.246  1.00  0.00     0.238 C 
ATOM     87  O   UNL A   1      33.863  24.107  22.627  1.00  0.00    -0.274 OA
ATOM     88  C   UNL A   1      33.379  22.320  24.197  1.00  0.00     0.100 C 
ATOM     89  C   UNL A   1      32.873  22.657  25.598  1.00  0.00     0.100 C 
ATOM     90  O   UNL A   1      30.587  23.423  25.841  1.00  0.00    -0.274 OA
ATOM     91  C   UNL A   1      34.614  21.402  24.317  1.00  0.00     0.028 C 
ATOM     92  C   UNL A   1      33.236  21.521  26.548  1.00  0.00     0.028 C 
ATOM     93  C   UNL A   1      33.917  20.071  24.710  1.00  0.00    -0.026 C 
ATOM     94  C   UNL A   1      35.558  21.681  25.506  1.00  0.00     0.001 C 
ATOM     95  C   UNL A   1      33.158  20.161  25.828  1.00  0.00    -0.026 C 
ATOM     96  C   UNL A   1      34.768  21.739  26.826  1.00  0.00     0.001 C 
ATOM     97  C   UNL A   1      35.639  22.909  26.364  1.00  0.00     0.009 C 
ENDBRANCH  80  84
ENDBRANCH  75  77
ENDBRANCH  74  75
ENDBRANCH  73  74
ENDBRANCH  72  73
ENDBRANCH  71  72
ENDBRANCH  70  71
ENDBRANCH   1  70
TORSDOF 21
ENDMDL
