MODEL 1
REMARK VINA RESULT:      -7.1      0.000      0.000
REMARK SMILES CCN(CC(C)(C)O)C(=O)[C@H]1CC=CC[C@H]1C(=O)OCCOCCOCCOC(=O)c1ccc(-c2c3nc(c(-c4ccc(S(=O)(=O)[O-])cc4)c4ccc([nH]4)c(-c4ccc(S(=O)(=O)[O-])cc4)c4nc(c(-c5ccc(S(=O)(=O)[O-])cc5)c5ccc2[nH]5)C=C4)C=C3)cc1
REMARK SMILES IDX 23 1 22 2 21 3 20 4 19 5 17 6 18 7 16 8 11 9 12 10 13 11
REMARK SMILES IDX 15 12 14 13 9 14 10 15 3 16 2 17 1 18 4 19 5 20 6 21 7 22
REMARK SMILES IDX 8 23 24 25 25 26 26 27 27 28 28 29 29 30 30 31 31 32 32 33
REMARK SMILES IDX 90 34 33 35 89 36 34 37 35 38 36 39 83 40 37 41 88 42 82 43
REMARK SMILES IDX 84 44 38 45 87 46 81 47 80 48 39 50 69 51 50 52 68 53 51 54
REMARK SMILES IDX 54 55 67 56 85 57 52 58 53 59 66 61 86 62 55 63 40 64 41 65
REMARK SMILES IDX 49 66 42 67 48 68 43 69 44 70 45 71 46 72 47 73 70 74 71 75
REMARK SMILES IDX 79 76 72 77 78 78 73 79 74 80 75 81 76 82 77 83 56 84 57 85
REMARK SMILES IDX 65 86 58 87 64 88 59 89 60 90 61 91 62 92 63 93
REMARK H PARENT 8 24 84 49 54 60
REMARK Flexibility Score: inf
ROOT
ATOM      1  C   UNL A   1      46.630  25.283  25.617  1.00  0.00     0.188 C 
ENDROOT
BRANCH   1   2
ATOM      2  O   UNL A   1      47.061  25.582  24.292  1.00  0.00    -0.376 OA
BRANCH   2   3
ATOM      3  C   UNL A   1      47.611  26.857  23.995  1.00  0.00     0.202 C 
BRANCH   3   4
ATOM      4  C   UNL A   1      46.788  28.078  24.423  1.00  0.00     0.261 C 
BRANCH   4   5
ATOM      5  O   UNL A   1      46.676  28.306  25.847  1.00  0.00    -0.463 OA
BRANCH   5   6
ATOM      6  C   UNL A   1      46.435  29.594  26.188  1.00  0.00     0.310 C 
ATOM      7  O   UNL A   1      46.167  30.474  25.374  1.00  0.00    -0.252 OA
BRANCH   6   8
ATOM      8  C   UNL A   1      46.581  29.931  27.660  1.00  0.00     0.115 C 
ATOM      9  C   UNL A   1      46.118  31.288  28.245  1.00  0.00     0.097 C 
ATOM     10  C   UNL A   1      46.598  31.370  29.721  1.00  0.00     0.041 C 
ATOM     11  C   UNL A   1      46.549  30.080  30.496  1.00  0.00    -0.030 C 
ATOM     12  C   UNL A   1      46.101  28.713  28.462  1.00  0.00     0.043 C 
ATOM     13  C   UNL A   1      46.292  28.890  29.936  1.00  0.00    -0.030 C 
BRANCH   9  14
ATOM     14  C   UNL A   1      44.605  31.510  28.253  1.00  0.00     0.226 C 
ATOM     15  O   UNL A   1      43.851  30.534  28.175  1.00  0.00    -0.275 OA
BRANCH  14  16
ATOM     16  N   UNL A   1      44.073  32.795  28.385  1.00  0.00    -0.340 N 
BRANCH  16  17
ATOM     17  C   UNL A   1      42.909  32.899  29.275  1.00  0.00     0.116 C 
ATOM     18  C   UNL A   1      43.330  32.849  30.745  1.00  0.00     0.027 C 
ENDBRANCH  16  17
BRANCH  16  19
ATOM     19  C   UNL A   1      44.384  34.013  27.609  1.00  0.00     0.154 C 
BRANCH  19  20
ATOM     20  C   UNL A   1      44.218  34.006  26.056  1.00  0.00     0.077 C 
ATOM     21  C   UNL A   1      43.034  34.864  25.607  1.00  0.00     0.043 C 
ATOM     22  C   UNL A   1      45.498  34.563  25.408  1.00  0.00     0.043 C 
BRANCH  20  23
ATOM     23  O   UNL A   1      44.048  32.680  25.556  1.00  0.00    -0.389 OA
ATOM     24  H   UNL A   1      43.968  32.063  26.299  1.00  0.00     0.211 HD
ENDBRANCH  20  23
ENDBRANCH  19  20
ENDBRANCH  16  19
ENDBRANCH  14  16
ENDBRANCH   9  14
ENDBRANCH   6   8
ENDBRANCH   5   6
ENDBRANCH   4   5
ENDBRANCH   3   4
ENDBRANCH   2   3
ENDBRANCH   1   2
BRANCH   1  25
ATOM     25  C   UNL A   1      46.671  23.837  26.106  1.00  0.00     0.188 C 
BRANCH  25  26
ATOM     26  O   UNL A   1      46.750  22.913  25.028  1.00  0.00    -0.376 OA
BRANCH  26  27
ATOM     27  C   UNL A   1      45.625  22.871  24.168  1.00  0.00     0.202 C 
BRANCH  27  28
ATOM     28  C   UNL A   1      44.492  22.073  24.810  1.00  0.00     0.261 C 
BRANCH  28  29
ATOM     29  O   UNL A   1      43.188  22.620  24.542  1.00  0.00    -0.460 OA
BRANCH  29  30
ATOM     30  C   UNL A   1      42.235  22.330  25.455  1.00  0.00     0.338 C 
ATOM     31  O   UNL A   1      41.696  21.254  25.634  1.00  0.00    -0.246 OA
BRANCH  30  32
ATOM     32  C   UNL A   1      42.042  23.493  26.334  1.00  0.00     0.060 A 
ATOM     33  C   UNL A   1      42.777  24.657  26.084  1.00  0.00     0.016 A 
ATOM     34  C   UNL A   1      41.197  23.404  27.440  1.00  0.00     0.016 A 
ATOM     35  C   UNL A   1      42.704  25.726  26.973  1.00  0.00     0.010 A 
ATOM     36  C   UNL A   1      41.127  24.475  28.329  1.00  0.00     0.010 A 
ATOM     37  C   UNL A   1      41.906  25.625  28.119  1.00  0.00    -0.014 A 
BRANCH  37  38
ATOM     38  C   UNL A   1      41.960  26.681  29.156  1.00  0.00     0.031 A 
ATOM     39  C   UNL A   1      43.028  26.618  30.214  1.00  0.00     0.074 A 
ATOM     40  C   UNL A   1      41.060  27.680  29.146  1.00  0.00     0.049 A 
ATOM     41  N   UNL A   1      43.218  27.399  31.244  1.00  0.00    -0.248 NA
ATOM     42  C   UNL A   1      44.008  25.525  30.099  1.00  0.00     0.031 C 
ATOM     43  C   UNL A   1      39.996  27.849  28.155  1.00  0.00     0.029 A 
ATOM     44  N   UNL A   1      40.890  28.735  30.005  1.00  0.00    -0.354 N 
ATOM     45  C   UNL A   1      44.320  26.880  31.916  1.00  0.00     0.074 A 
ATOM     46  C   UNL A   1      44.748  25.710  31.183  1.00  0.00     0.031 C 
ATOM     47  C   UNL A   1      39.279  28.942  28.467  1.00  0.00     0.029 A 
ATOM     48  C   UNL A   1      39.807  29.524  29.697  1.00  0.00     0.049 A 
ATOM     49  H   UNL A   1      41.487  28.911  30.768  1.00  0.00     0.167 HD
ATOM     50  C   UNL A   1      44.915  27.339  33.042  1.00  0.00     0.031 A 
ATOM     51  C   UNL A   1      39.287  30.580  30.350  1.00  0.00     0.031 A 
ATOM     52  C   UNL A   1      44.475  28.505  33.763  1.00  0.00     0.049 A 
ATOM     53  C   UNL A   1      39.952  31.055  31.613  1.00  0.00     0.074 A 
ATOM     54  C   UNL A   1      45.027  29.076  34.896  1.00  0.00     0.029 A 
ATOM     55  N   UNL A   1      43.372  29.275  33.423  1.00  0.00    -0.354 N 
ATOM     56  N   UNL A   1      41.011  30.570  32.218  1.00  0.00    -0.248 NA
ATOM     57  C   UNL A   1      39.358  32.223  32.276  1.00  0.00     0.031 C 
ATOM     58  C   UNL A   1      44.225  30.159  35.274  1.00  0.00     0.029 A 
ATOM     59  C   UNL A   1      43.209  30.300  34.341  1.00  0.00     0.049 A 
ATOM     60  H   UNL A   1      42.791  29.117  32.645  1.00  0.00     0.167 HD
ATOM     61  C   UNL A   1      41.217  31.384  33.328  1.00  0.00     0.074 A 
ATOM     62  C   UNL A   1      40.190  32.406  33.291  1.00  0.00     0.031 C 
ATOM     63  C   UNL A   1      42.167  31.293  34.293  1.00  0.00     0.031 A 
BRANCH  50  64
ATOM     64  C   UNL A   1      46.079  26.556  33.590  1.00  0.00    -0.014 A 
ATOM     65  C   UNL A   1      47.399  26.815  33.176  1.00  0.00     0.010 A 
ATOM     66  C   UNL A   1      45.854  25.576  34.575  1.00  0.00     0.010 A 
ATOM     67  C   UNL A   1      48.465  26.088  33.714  1.00  0.00     0.020 A 
ATOM     68  C   UNL A   1      46.919  24.864  35.133  1.00  0.00     0.020 A 
ATOM     69  C   UNL A   1      48.218  25.116  34.689  1.00  0.00     0.054 A 
BRANCH  69  70
ATOM     70  S   UNL A   1      49.624  24.209  35.393  1.00  0.00     0.124 S 
ATOM     71  O   UNL A   1      49.180  23.987  36.767  1.00  0.00    -0.237 OA
ATOM     72  O   UNL A   1      49.689  23.016  34.553  1.00  0.00    -0.237 OA
ATOM     73  O   UNL A   1      50.744  25.135  35.243  1.00  0.00    -0.744 OA
ENDBRANCH  69  70
ENDBRANCH  50  64
BRANCH  51  74
ATOM     74  C   UNL A   1      38.055  31.238  29.834  1.00  0.00    -0.014 A 
ATOM     75  C   UNL A   1      36.787  30.674  30.057  1.00  0.00     0.010 A 
ATOM     76  C   UNL A   1      38.148  32.450  29.123  1.00  0.00     0.010 A 
ATOM     77  C   UNL A   1      35.637  31.299  29.565  1.00  0.00     0.020 A 
ATOM     78  C   UNL A   1      36.998  33.093  28.656  1.00  0.00     0.020 A 
ATOM     79  C   UNL A   1      35.750  32.507  28.869  1.00  0.00     0.054 A 
BRANCH  79  80
ATOM     80  S   UNL A   1      34.242  33.329  28.286  1.00  0.00     0.124 S 
ATOM     81  O   UNL A   1      33.661  33.816  29.532  1.00  0.00    -0.237 OA
ATOM     82  O   UNL A   1      34.768  34.356  27.389  1.00  0.00    -0.237 OA
ATOM     83  O   UNL A   1      33.501  32.255  27.626  1.00  0.00    -0.744 OA
ENDBRANCH  79  80
ENDBRANCH  51  74
BRANCH  63  84
ATOM     84  C   UNL A   1      42.140  32.340  35.375  1.00  0.00    -0.014 A 
ATOM     85  C   UNL A   1      41.409  32.141  36.560  1.00  0.00     0.010 A 
ATOM     86  C   UNL A   1      42.866  33.533  35.208  1.00  0.00     0.010 A 
ATOM     87  C   UNL A   1      41.364  33.139  37.536  1.00  0.00     0.020 A 
ATOM     88  C   UNL A   1      42.848  34.520  36.196  1.00  0.00     0.020 A 
ATOM     89  C   UNL A   1      42.078  34.326  37.344  1.00  0.00     0.054 A 
BRANCH  89  90
ATOM     90  S   UNL A   1      42.008  35.606  38.626  1.00  0.00     0.124 S 
ATOM     91  O   UNL A   1      40.739  35.307  39.283  1.00  0.00    -0.237 OA
ATOM     92  O   UNL A   1      43.206  35.335  39.418  1.00  0.00    -0.237 OA
ATOM     93  O   UNL A   1      42.040  36.855  37.869  1.00  0.00    -0.744 OA
ENDBRANCH  89  90
ENDBRANCH  63  84
ENDBRANCH  37  38
ENDBRANCH  30  32
ENDBRANCH  29  30
ENDBRANCH  28  29
ENDBRANCH  27  28
ENDBRANCH  26  27
ENDBRANCH  25  26
ENDBRANCH   1  25
TORSDOF 26
ENDMDL
MODEL 2
REMARK VINA RESULT:      -6.8      6.083     11.747
REMARK SMILES CCN(CC(C)(C)O)C(=O)[C@H]1CC=CC[C@H]1C(=O)OCCOCCOCCOC(=O)c1ccc(-c2c3nc(c(-c4ccc(S(=O)(=O)[O-])cc4)c4ccc([nH]4)c(-c4ccc(S(=O)(=O)[O-])cc4)c4nc(c(-c5ccc(S(=O)(=O)[O-])cc5)c5ccc2[nH]5)C=C4)C=C3)cc1
REMARK SMILES IDX 23 1 22 2 21 3 20 4 19 5 17 6 18 7 16 8 11 9 12 10 13 11
REMARK SMILES IDX 15 12 14 13 9 14 10 15 3 16 2 17 1 18 4 19 5 20 6 21 7 22
REMARK SMILES IDX 8 23 24 25 25 26 26 27 27 28 28 29 29 30 30 31 31 32 32 33
REMARK SMILES IDX 90 34 33 35 89 36 34 37 35 38 36 39 83 40 37 41 88 42 82 43
REMARK SMILES IDX 84 44 38 45 87 46 81 47 80 48 39 50 69 51 50 52 68 53 51 54
REMARK SMILES IDX 54 55 67 56 85 57 52 58 53 59 66 61 86 62 55 63 40 64 41 65
REMARK SMILES IDX 49 66 42 67 48 68 43 69 44 70 45 71 46 72 47 73 70 74 71 75
REMARK SMILES IDX 79 76 72 77 78 78 73 79 74 80 75 81 76 82 77 83 56 84 57 85
REMARK SMILES IDX 65 86 58 87 64 88 59 89 60 90 61 91 62 92 63 93
REMARK H PARENT 8 24 84 49 54 60
REMARK Flexibility Score: inf
ROOT
ATOM      1  C   UNL A   1      33.901  32.735  28.360  1.00  0.00     0.188 C 
ENDROOT
BRANCH   1   2
ATOM      2  O   UNL A   1      34.328  31.754  27.419  1.00  0.00    -0.376 OA
BRANCH   2   3
ATOM      3  C   UNL A   1      35.306  30.794  27.788  1.00  0.00     0.202 C 
BRANCH   3   4
ATOM      4  C   UNL A   1      34.896  29.320  27.685  1.00  0.00     0.261 C 
BRANCH   4   5
ATOM      5  O   UNL A   1      34.105  28.955  26.530  1.00  0.00    -0.463 OA
BRANCH   5   6
ATOM      6  C   UNL A   1      32.817  28.648  26.809  1.00  0.00     0.310 C 
ATOM      7  O   UNL A   1      32.020  29.443  27.302  1.00  0.00    -0.252 OA
BRANCH   6   8
ATOM      8  C   UNL A   1      32.402  27.213  26.543  1.00  0.00     0.115 C 
ATOM      9  C   UNL A   1      31.098  26.859  25.786  1.00  0.00     0.097 C 
ATOM     10  C   UNL A   1      30.889  25.321  25.870  1.00  0.00     0.041 C 
ATOM     11  C   UNL A   1      32.140  24.488  25.789  1.00  0.00    -0.030 C 
ATOM     12  C   UNL A   1      33.640  26.462  26.031  1.00  0.00     0.043 C 
ATOM     13  C   UNL A   1      33.377  25.003  25.828  1.00  0.00    -0.030 C 
BRANCH   9  14
ATOM     14  C   UNL A   1      31.085  27.233  24.303  1.00  0.00     0.226 C 
ATOM     15  O   UNL A   1      30.831  26.362  23.464  1.00  0.00    -0.275 OA
BRANCH  14  16
ATOM     16  N   UNL A   1      31.318  28.548  23.896  1.00  0.00    -0.340 N 
BRANCH  16  17
ATOM     17  C   UNL A   1      32.652  28.801  23.336  1.00  0.00     0.116 C 
ATOM     18  C   UNL A   1      33.172  27.582  22.571  1.00  0.00     0.027 C 
ENDBRANCH  16  17
BRANCH  16  19
ATOM     19  C   UNL A   1      30.495  29.753  24.134  1.00  0.00     0.154 C 
BRANCH  19  20
ATOM     20  C   UNL A   1      29.440  30.193  23.070  1.00  0.00     0.077 C 
ATOM     21  C   UNL A   1      28.435  29.078  22.772  1.00  0.00     0.043 C 
ATOM     22  C   UNL A   1      28.670  31.416  23.596  1.00  0.00     0.043 C 
BRANCH  20  23
ATOM     23  O   UNL A   1      30.065  30.594  21.851  1.00  0.00    -0.389 OA
ATOM     24  H   UNL A   1      29.539  30.281  21.099  1.00  0.00     0.211 HD
ENDBRANCH  20  23
ENDBRANCH  19  20
ENDBRANCH  16  19
ENDBRANCH  14  16
ENDBRANCH   9  14
ENDBRANCH   6   8
ENDBRANCH   5   6
ENDBRANCH   4   5
ENDBRANCH   3   4
ENDBRANCH   2   3
ENDBRANCH   1   2
BRANCH   1  25
ATOM     25  C   UNL A   1      33.894  34.207  27.953  1.00  0.00     0.188 C 
BRANCH  25  26
ATOM     26  O   UNL A   1      34.315  35.055  29.014  1.00  0.00    -0.376 OA
BRANCH  26  27
ATOM     27  C   UNL A   1      33.567  34.958  30.214  1.00  0.00     0.202 C 
BRANCH  27  28
ATOM     28  C   UNL A   1      34.491  34.684  31.398  1.00  0.00     0.261 C 
BRANCH  28  29
ATOM     29  O   UNL A   1      35.705  34.006  31.028  1.00  0.00    -0.460 OA
BRANCH  29  30
ATOM     30  C   UNL A   1      35.910  32.810  31.623  1.00  0.00     0.338 C 
ATOM     31  O   UNL A   1      35.468  31.733  31.273  1.00  0.00    -0.246 OA
BRANCH  30  32
ATOM     32  C   UNL A   1      36.901  32.973  32.698  1.00  0.00     0.060 A 
ATOM     33  C   UNL A   1      38.085  33.666  32.425  1.00  0.00     0.016 A 
ATOM     34  C   UNL A   1      36.689  32.379  33.942  1.00  0.00     0.016 A 
ATOM     35  C   UNL A   1      39.090  33.726  33.388  1.00  0.00     0.010 A 
ATOM     36  C   UNL A   1      37.697  32.439  34.904  1.00  0.00     0.010 A 
ATOM     37  C   UNL A   1      38.914  33.082  34.619  1.00  0.00    -0.014 A 
BRANCH  37  38
ATOM     38  C   UNL A   1      40.039  32.990  35.576  1.00  0.00     0.031 A 
ATOM     39  C   UNL A   1      40.934  31.780  35.543  1.00  0.00     0.074 A 
ATOM     40  C   UNL A   1      40.252  33.978  36.462  1.00  0.00     0.049 A 
ATOM     41  N   UNL A   1      41.934  31.470  36.327  1.00  0.00    -0.248 NA
ATOM     42  C   UNL A   1      40.663  30.786  34.492  1.00  0.00     0.031 C 
ATOM     43  C   UNL A   1      39.458  35.204  36.566  1.00  0.00     0.029 A 
ATOM     44  N   UNL A   1      41.193  34.102  37.451  1.00  0.00    -0.354 N 
ATOM     45  C   UNL A   1      42.394  30.235  35.883  1.00  0.00     0.074 A 
ATOM     46  C   UNL A   1      41.557  29.847  34.769  1.00  0.00     0.031 C 
ATOM     47  C   UNL A   1      39.943  35.954  37.571  1.00  0.00     0.029 A 
ATOM     48  C   UNL A   1      41.052  35.245  38.202  1.00  0.00     0.049 A 
ATOM     49  H   UNL A   1      41.901  33.436  37.608  1.00  0.00     0.167 HD
ATOM     50  C   UNL A   1      43.420  29.494  36.365  1.00  0.00     0.031 A 
ATOM     51  C   UNL A   1      41.726  35.657  39.292  1.00  0.00     0.031 A 
ATOM     52  C   UNL A   1      44.243  29.893  37.476  1.00  0.00     0.049 A 
ATOM     53  C   UNL A   1      42.845  34.803  39.823  1.00  0.00     0.074 A 
ATOM     54  C   UNL A   1      45.330  29.232  38.023  1.00  0.00     0.029 A 
ATOM     55  N   UNL A   1      44.068  31.054  38.215  1.00  0.00    -0.354 N 
ATOM     56  N   UNL A   1      43.287  33.652  39.373  1.00  0.00    -0.248 NA
ATOM     57  C   UNL A   1      43.562  35.308  41.001  1.00  0.00     0.031 C 
ATOM     58  C   UNL A   1      45.776  29.967  39.127  1.00  0.00     0.029 A 
ATOM     59  C   UNL A   1      45.007  31.116  39.230  1.00  0.00     0.049 A 
ATOM     60  H   UNL A   1      43.377  31.734  38.041  1.00  0.00     0.167 HD
ATOM     61  C   UNL A   1      44.342  33.300  40.208  1.00  0.00     0.074 A 
ATOM     62  C   UNL A   1      44.489  34.375  41.169  1.00  0.00     0.031 C 
ATOM     63  C   UNL A   1      45.119  32.188  40.186  1.00  0.00     0.031 A 
BRANCH  50  64
ATOM     64  C   UNL A   1      43.683  28.158  35.722  1.00  0.00    -0.014 A 
ATOM     65  C   UNL A   1      43.068  26.982  36.190  1.00  0.00     0.010 A 
ATOM     66  C   UNL A   1      44.523  28.085  34.594  1.00  0.00     0.010 A 
ATOM     67  C   UNL A   1      43.313  25.757  35.563  1.00  0.00     0.020 A 
ATOM     68  C   UNL A   1      44.751  26.866  33.950  1.00  0.00     0.020 A 
ATOM     69  C   UNL A   1      44.155  25.706  34.447  1.00  0.00     0.054 A 
BRANCH  69  70
ATOM     70  S   UNL A   1      44.429  24.107  33.634  1.00  0.00     0.124 S 
ATOM     71  O   UNL A   1      44.524  24.497  32.229  1.00  0.00    -0.237 OA
ATOM     72  O   UNL A   1      45.674  23.647  34.244  1.00  0.00    -0.237 OA
ATOM     73  O   UNL A   1      43.242  23.330  33.985  1.00  0.00    -0.744 OA
ENDBRANCH  69  70
ENDBRANCH  50  64
BRANCH  51  74
ATOM     74  C   UNL A   1      41.338  36.926  39.968  1.00  0.00    -0.014 A 
ATOM     75  C   UNL A   1      41.941  38.146  39.616  1.00  0.00     0.010 A 
ATOM     76  C   UNL A   1      40.344  36.919  40.966  1.00  0.00     0.010 A 
ATOM     77  C   UNL A   1      41.571  39.331  40.259  1.00  0.00     0.020 A 
ATOM     78  C   UNL A   1      39.950  38.106  41.589  1.00  0.00     0.020 A 
ATOM     79  C   UNL A   1      40.575  39.303  41.240  1.00  0.00     0.054 A 
BRANCH  79  80
ATOM     80  S   UNL A   1      40.072  40.860  42.024  1.00  0.00     0.124 S 
ATOM     81  O   UNL A   1      39.551  41.617  40.890  1.00  0.00    -0.237 OA
ATOM     82  O   UNL A   1      39.077  40.417  42.999  1.00  0.00    -0.237 OA
ATOM     83  O   UNL A   1      41.315  41.370  42.600  1.00  0.00    -0.744 OA
ENDBRANCH  79  80
ENDBRANCH  51  74
BRANCH  63  84
ATOM     84  C   UNL A   1      46.204  32.095  41.227  1.00  0.00    -0.014 A 
ATOM     85  C   UNL A   1      45.969  31.475  42.467  1.00  0.00     0.010 A 
ATOM     86  C   UNL A   1      47.478  32.623  40.953  1.00  0.00     0.010 A 
ATOM     87  C   UNL A   1      46.975  31.431  43.435  1.00  0.00     0.020 A 
ATOM     88  C   UNL A   1      48.496  32.554  41.907  1.00  0.00     0.020 A 
ATOM     89  C   UNL A   1      48.230  31.979  43.151  1.00  0.00     0.054 A 
BRANCH  89  90
ATOM     90  S   UNL A   1      49.523  31.908  44.421  1.00  0.00     0.124 S 
ATOM     91  O   UNL A   1      48.797  31.354  45.561  1.00  0.00    -0.237 OA
ATOM     92  O   UNL A   1      50.518  31.022  43.819  1.00  0.00    -0.237 OA
ATOM     93  O   UNL A   1      49.943  33.299  44.565  1.00  0.00    -0.744 OA
ENDBRANCH  89  90
ENDBRANCH  63  84
ENDBRANCH  37  38
ENDBRANCH  30  32
ENDBRANCH  29  30
ENDBRANCH  28  29
ENDBRANCH  27  28
ENDBRANCH  26  27
ENDBRANCH  25  26
ENDBRANCH   1  25
TORSDOF 26
ENDMDL
MODEL 3
REMARK VINA RESULT:      -6.6      4.593     11.238
REMARK SMILES CCN(CC(C)(C)O)C(=O)[C@H]1CC=CC[C@H]1C(=O)OCCOCCOCCOC(=O)c1ccc(-c2c3nc(c(-c4ccc(S(=O)(=O)[O-])cc4)c4ccc([nH]4)c(-c4ccc(S(=O)(=O)[O-])cc4)c4nc(c(-c5ccc(S(=O)(=O)[O-])cc5)c5ccc2[nH]5)C=C4)C=C3)cc1
REMARK SMILES IDX 23 1 22 2 21 3 20 4 19 5 17 6 18 7 16 8 11 9 12 10 13 11
REMARK SMILES IDX 15 12 14 13 9 14 10 15 3 16 2 17 1 18 4 19 5 20 6 21 7 22
REMARK SMILES IDX 8 23 24 25 25 26 26 27 27 28 28 29 29 30 30 31 31 32 32 33
REMARK SMILES IDX 90 34 33 35 89 36 34 37 35 38 36 39 83 40 37 41 88 42 82 43
REMARK SMILES IDX 84 44 38 45 87 46 81 47 80 48 39 50 69 51 50 52 68 53 51 54
REMARK SMILES IDX 54 55 67 56 85 57 52 58 53 59 66 61 86 62 55 63 40 64 41 65
REMARK SMILES IDX 49 66 42 67 48 68 43 69 44 70 45 71 46 72 47 73 70 74 71 75
REMARK SMILES IDX 79 76 72 77 78 78 73 79 74 80 75 81 76 82 77 83 56 84 57 85
REMARK SMILES IDX 65 86 58 87 64 88 59 89 60 90 61 91 62 92 63 93
REMARK H PARENT 8 24 84 49 54 60
REMARK Flexibility Score: inf
ROOT
ATOM      1  C   UNL A   1      40.763  26.726  26.403  1.00  0.00     0.188 C 
ENDROOT
BRANCH   1   2
ATOM      2  O   UNL A   1      40.504  26.178  27.692  1.00  0.00    -0.376 OA
BRANCH   2   3
ATOM      3  C   UNL A   1      39.650  25.052  27.827  1.00  0.00     0.202 C 
BRANCH   3   4
ATOM      4  C   UNL A   1      39.142  24.415  26.528  1.00  0.00     0.261 C 
BRANCH   4   5
ATOM      5  O   UNL A   1      37.766  23.969  26.530  1.00  0.00    -0.463 OA
BRANCH   5   6
ATOM      6  C   UNL A   1      37.478  23.042  25.586  1.00  0.00     0.310 C 
ATOM      7  O   UNL A   1      38.155  22.035  25.394  1.00  0.00    -0.252 OA
BRANCH   6   8
ATOM      8  C   UNL A   1      36.283  23.342  24.702  1.00  0.00     0.115 C 
ATOM      9  C   UNL A   1      35.351  22.225  24.170  1.00  0.00     0.097 C 
ATOM     10  C   UNL A   1      34.367  22.859  23.147  1.00  0.00     0.041 C 
ATOM     11  C   UNL A   1      33.884  24.245  23.479  1.00  0.00    -0.030 C 
ATOM     12  C   UNL A   1      35.535  24.530  25.323  1.00  0.00     0.043 C 
ATOM     13  C   UNL A   1      34.385  24.983  24.479  1.00  0.00    -0.030 C 
BRANCH   9  14
ATOM     14  C   UNL A   1      34.502  21.525  25.232  1.00  0.00     0.226 C 
ATOM     15  O   UNL A   1      35.001  21.275  26.335  1.00  0.00    -0.275 OA
BRANCH  14  16
ATOM     16  N   UNL A   1      33.166  21.204  24.982  1.00  0.00    -0.340 N 
BRANCH  16  17
ATOM     17  C   UNL A   1      32.189  21.890  25.836  1.00  0.00     0.116 C 
ATOM     18  C   UNL A   1      31.129  22.609  24.998  1.00  0.00     0.027 C 
ENDBRANCH  16  17
BRANCH  16  19
ATOM     19  C   UNL A   1      32.614  20.132  24.127  1.00  0.00     0.154 C 
BRANCH  19  20
ATOM     20  C   UNL A   1      32.825  18.636  24.526  1.00  0.00     0.077 C 
ATOM     21  C   UNL A   1      34.176  18.105  24.043  1.00  0.00     0.043 C 
ATOM     22  C   UNL A   1      32.769  18.508  26.058  1.00  0.00     0.043 C 
BRANCH  20  23
ATOM     23  O   UNL A   1      31.786  17.807  24.006  1.00  0.00    -0.389 OA
ATOM     24  H   UNL A   1      32.000  17.553  23.096  1.00  0.00     0.211 HD
ENDBRANCH  20  23
ENDBRANCH  19  20
ENDBRANCH  16  19
ENDBRANCH  14  16
ENDBRANCH   9  14
ENDBRANCH   6   8
ENDBRANCH   5   6
ENDBRANCH   4   5
ENDBRANCH   3   4
ENDBRANCH   2   3
ENDBRANCH   1   2
BRANCH   1  25
ATOM     25  C   UNL A   1      42.130  26.504  25.759  1.00  0.00     0.188 C 
BRANCH  25  26
ATOM     26  O   UNL A   1      42.287  25.171  25.289  1.00  0.00    -0.376 OA
BRANCH  26  27
ATOM     27  C   UNL A   1      42.935  24.277  26.177  1.00  0.00     0.202 C 
BRANCH  27  28
ATOM     28  C   UNL A   1      44.217  24.903  26.722  1.00  0.00     0.261 C 
BRANCH  28  29
ATOM     29  O   UNL A   1      44.860  24.098  27.728  1.00  0.00    -0.460 OA
BRANCH  29  30
ATOM     30  C   UNL A   1      45.984  24.622  28.264  1.00  0.00     0.338 C 
ATOM     31  O   UNL A   1      47.110  24.563  27.808  1.00  0.00    -0.246 OA
BRANCH  30  32
ATOM     32  C   UNL A   1      45.623  25.435  29.436  1.00  0.00     0.060 A 
ATOM     33  C   UNL A   1      44.763  24.890  30.396  1.00  0.00     0.016 A 
ATOM     34  C   UNL A   1      46.073  26.750  29.543  1.00  0.00     0.016 A 
ATOM     35  C   UNL A   1      44.308  25.681  31.447  1.00  0.00     0.010 A 
ATOM     36  C   UNL A   1      45.617  27.541  30.596  1.00  0.00     0.010 A 
ATOM     37  C   UNL A   1      44.706  27.022  31.532  1.00  0.00    -0.014 A 
BRANCH  37  38
ATOM     38  C   UNL A   1      44.092  27.915  32.540  1.00  0.00     0.031 A 
ATOM     39  C   UNL A   1      42.795  28.607  32.217  1.00  0.00     0.074 A 
ATOM     40  C   UNL A   1      44.693  28.103  33.728  1.00  0.00     0.049 A 
ATOM     41  N   UNL A   1      42.121  29.473  32.926  1.00  0.00    -0.248 NA
ATOM     42  C   UNL A   1      42.179  28.283  30.919  1.00  0.00     0.031 C 
ATOM     43  C   UNL A   1      45.941  27.466  34.153  1.00  0.00     0.029 A 
ATOM     44  N   UNL A   1      44.341  28.894  34.791  1.00  0.00    -0.354 N 
ATOM     45  C   UNL A   1      41.018  29.819  32.153  1.00  0.00     0.074 A 
ATOM     46  C   UNL A   1      41.120  29.079  30.915  1.00  0.00     0.031 C 
ATOM     47  C   UNL A   1      46.254  27.898  35.386  1.00  0.00     0.029 A 
ATOM     48  C   UNL A   1      45.252  28.867  35.820  1.00  0.00     0.049 A 
ATOM     49  H   UNL A   1      43.514  29.429  34.814  1.00  0.00     0.167 HD
ATOM     50  C   UNL A   1      40.015  30.680  32.451  1.00  0.00     0.031 A 
ATOM     51  C   UNL A   1      45.286  29.568  36.969  1.00  0.00     0.031 A 
ATOM     52  C   UNL A   1      39.929  31.412  33.687  1.00  0.00     0.049 A 
ATOM     53  C   UNL A   1      44.173  30.536  37.265  1.00  0.00     0.074 A 
ATOM     54  C   UNL A   1      38.937  32.284  34.104  1.00  0.00     0.029 A 
ATOM     55  N   UNL A   1      40.872  31.363  34.703  1.00  0.00    -0.354 N 
ATOM     56  N   UNL A   1      43.121  30.830  36.536  1.00  0.00    -0.248 NA
ATOM     57  C   UNL A   1      44.246  31.260  38.541  1.00  0.00     0.031 C 
ATOM     58  C   UNL A   1      39.310  32.804  35.349  1.00  0.00     0.029 A 
ATOM     59  C   UNL A   1      40.502  32.210  35.734  1.00  0.00     0.049 A 
ATOM     60  H   UNL A   1      41.685  30.808  34.692  1.00  0.00     0.167 HD
ATOM     61  C   UNL A   1      42.401  31.765  37.272  1.00  0.00     0.074 A 
ATOM     62  C   UNL A   1      43.122  31.963  38.513  1.00  0.00     0.031 C 
ATOM     63  C   UNL A   1      41.248  32.405  36.951  1.00  0.00     0.031 A 
BRANCH  50  64
ATOM     64  C   UNL A   1      38.954  30.909  31.407  1.00  0.00    -0.014 A 
ATOM     65  C   UNL A   1      37.733  30.208  31.433  1.00  0.00     0.010 A 
ATOM     66  C   UNL A   1      39.161  31.880  30.409  1.00  0.00     0.010 A 
ATOM     67  C   UNL A   1      36.756  30.454  30.464  1.00  0.00     0.020 A 
ATOM     68  C   UNL A   1      38.176  32.145  29.454  1.00  0.00     0.020 A 
ATOM     69  C   UNL A   1      36.984  31.420  29.479  1.00  0.00     0.054 A 
BRANCH  69  70
ATOM     70  S   UNL A   1      35.685  31.740  28.254  1.00  0.00     0.124 S 
ATOM     71  O   UNL A   1      35.828  30.594  27.358  1.00  0.00    -0.237 OA
ATOM     72  O   UNL A   1      34.472  31.752  29.068  1.00  0.00    -0.237 OA
ATOM     73  O   UNL A   1      36.060  33.030  27.678  1.00  0.00    -0.744 OA
ENDBRANCH  69  70
ENDBRANCH  50  64
BRANCH  51  74
ATOM     74  C   UNL A   1      46.429  29.398  37.908  1.00  0.00    -0.014 A 
ATOM     75  C   UNL A   1      46.386  28.435  38.931  1.00  0.00     0.010 A 
ATOM     76  C   UNL A   1      47.580  30.197  37.770  1.00  0.00     0.010 A 
ATOM     77  C   UNL A   1      47.464  28.286  39.809  1.00  0.00     0.020 A 
ATOM     78  C   UNL A   1      48.671  30.030  38.627  1.00  0.00     0.020 A 
ATOM     79  C   UNL A   1      48.601  29.083  39.649  1.00  0.00     0.054 A 
BRANCH  79  80
ATOM     80  S   UNL A   1      50.010  28.836  40.765  1.00  0.00     0.124 S 
ATOM     81  O   UNL A   1      49.415  28.042  41.835  1.00  0.00    -0.237 OA
ATOM     82  O   UNL A   1      50.969  28.134  39.915  1.00  0.00    -0.237 OA
ATOM     83  O   UNL A   1      50.395  30.196  41.135  1.00  0.00    -0.744 OA
ENDBRANCH  79  80
ENDBRANCH  51  74
BRANCH  63  84
ATOM     84  C   UNL A   1      40.697  33.366  37.971  1.00  0.00    -0.014 A 
ATOM     85  C   UNL A   1      40.900  34.753  37.846  1.00  0.00     0.010 A 
ATOM     86  C   UNL A   1      39.955  32.875  39.060  1.00  0.00     0.010 A 
ATOM     87  C   UNL A   1      40.415  35.626  38.822  1.00  0.00     0.020 A 
ATOM     88  C   UNL A   1      39.441  33.750  40.021  1.00  0.00     0.020 A 
ATOM     89  C   UNL A   1      39.695  35.118  39.908  1.00  0.00     0.054 A 
BRANCH  89  90
ATOM     90  S   UNL A   1      39.071  36.271  41.160  1.00  0.00     0.124 S 
ATOM     91  O   UNL A   1      39.121  37.546  40.450  1.00  0.00    -0.237 OA
ATOM     92  O   UNL A   1      37.730  35.756  41.433  1.00  0.00    -0.237 OA
ATOM     93  O   UNL A   1      40.019  36.132  42.261  1.00  0.00    -0.744 OA
ENDBRANCH  89  90
ENDBRANCH  63  84
ENDBRANCH  37  38
ENDBRANCH  30  32
ENDBRANCH  29  30
ENDBRANCH  28  29
ENDBRANCH  27  28
ENDBRANCH  26  27
ENDBRANCH  25  26
ENDBRANCH   1  25
TORSDOF 26
ENDMDL
