MODEL 1
REMARK VINA RESULT:     -10.0      0.000      0.000
REMARK SMILES O=C(OCCOCCOCCOC(=O)[C@H]1C[C@@H]2CCCC[C@H]2N1C(=O)CN1CSCC1=O)c1ccc(-c2c3nc(c(-c4ccc(S(=O)(=O)[O-])cc4)c4ccc([nH]4)c(-c4ccc(S(=O)(=O)[O-])cc4)c4nc(c(-c5ccc(S(=O)(=O)[O-])cc5)c5ccc2[nH]5)C=C4)C=C3)cc1
REMARK SMILES IDX 7 1 6 2 5 3 4 4 3 5 2 6 1 7 33 8 34 9 92 10 35 11 91 12
REMARK SMILES IDX 36 13 37 14 38 15 85 16 39 17 90 18 84 19 86 20 40 21 89 22
REMARK SMILES IDX 83 23 82 24 41 26 71 27 52 28 70 29 53 30 56 31 69 32 87 33
REMARK SMILES IDX 54 34 55 35 68 37 88 38 57 39 42 40 43 41 51 42 44 43 50 44
REMARK SMILES IDX 45 45 46 46 47 47 48 48 49 49 72 50 73 51 81 52 74 53 80 54
REMARK SMILES IDX 75 55 76 56 77 57 78 58 79 59 58 60 59 61 67 62 60 63 66 64
REMARK SMILES IDX 61 65 62 66 63 67 64 68 65 69 8 70 9 71 10 72 11 73 12 74
REMARK SMILES IDX 13 75 14 76 15 77 16 78 23 79 17 80 22 81 18 82 21 83 19 84
REMARK SMILES IDX 20 85 24 86 25 87 26 88 27 89 28 90 31 91 29 92 30 93 32 94
REMARK H PARENT 86 25 56 36
REMARK Flexibility Score: inf
ROOT
ATOM      1  C   UNL A   1      31.782  28.439  23.796  1.00  0.00     0.188 C 
ENDROOT
BRANCH   1   2
ATOM      2  O   UNL A   1      31.562  28.556  25.199  1.00  0.00    -0.376 OA
BRANCH   2   3
ATOM      3  C   UNL A   1      31.985  29.787  25.793  1.00  0.00     0.202 C 
BRANCH   3   4
ATOM      4  C   UNL A   1      33.385  29.857  26.445  1.00  0.00     0.261 C 
BRANCH   4   5
ATOM      5  O   UNL A   1      33.470  30.541  27.713  1.00  0.00    -0.460 OA
BRANCH   5   6
ATOM      6  C   UNL A   1      34.547  31.044  28.370  1.00  0.00     0.338 C 
ATOM      7  O   UNL A   1      34.447  32.147  28.906  1.00  0.00    -0.246 OA
BRANCH   6   8
ATOM      8  C   UNL A   1      35.850  30.324  28.461  1.00  0.00     0.060 A 
ATOM      9  C   UNL A   1      36.269  29.619  29.582  1.00  0.00     0.016 A 
ATOM     10  C   UNL A   1      36.688  30.316  27.334  1.00  0.00     0.016 A 
ATOM     11  C   UNL A   1      37.538  29.083  29.677  1.00  0.00     0.010 A 
ATOM     12  C   UNL A   1      37.948  29.708  27.386  1.00  0.00     0.010 A 
ATOM     13  C   UNL A   1      38.399  29.154  28.590  1.00  0.00    -0.014 A 
BRANCH  13  14
ATOM     14  C   UNL A   1      39.813  28.827  28.842  1.00  0.00     0.031 A 
ATOM     15  C   UNL A   1      40.622  29.809  29.641  1.00  0.00     0.074 A 
ATOM     16  C   UNL A   1      40.280  27.601  28.540  1.00  0.00     0.049 A 
ATOM     17  N   UNL A   1      41.862  29.729  30.038  1.00  0.00    -0.248 NA
ATOM     18  C   UNL A   1      39.934  31.042  30.070  1.00  0.00     0.031 C 
ATOM     19  C   UNL A   1      39.502  26.535  27.897  1.00  0.00     0.029 A 
ATOM     20  N   UNL A   1      41.496  27.024  28.781  1.00  0.00    -0.354 N 
ATOM     21  C   UNL A   1      42.113  30.915  30.718  1.00  0.00     0.074 A 
ATOM     22  C   UNL A   1      40.905  31.703  30.679  1.00  0.00     0.031 C 
ATOM     23  C   UNL A   1      40.250  25.422  27.838  1.00  0.00     0.029 A 
ATOM     24  C   UNL A   1      41.578  25.718  28.361  1.00  0.00     0.049 A 
ATOM     25  H   UNL A   1      42.242  27.499  29.214  1.00  0.00     0.167 HD
ATOM     26  C   UNL A   1      43.260  31.312  31.316  1.00  0.00     0.031 A 
ATOM     27  C   UNL A   1      42.626  24.873  28.376  1.00  0.00     0.031 A 
ATOM     28  C   UNL A   1      44.447  30.503  31.333  1.00  0.00     0.049 A 
ATOM     29  C   UNL A   1      43.922  25.379  28.949  1.00  0.00     0.074 A 
ATOM     30  C   UNL A   1      45.689  30.804  31.855  1.00  0.00     0.029 A 
ATOM     31  N   UNL A   1      44.530  29.224  30.797  1.00  0.00    -0.354 N 
ATOM     32  N   UNL A   1      44.172  26.531  29.531  1.00  0.00    -0.248 NA
ATOM     33  C   UNL A   1      45.078  24.480  28.866  1.00  0.00     0.031 C 
ATOM     34  C   UNL A   1      46.542  29.732  31.574  1.00  0.00     0.029 A 
ATOM     35  C   UNL A   1      45.811  28.732  30.950  1.00  0.00     0.049 A 
ATOM     36  H   UNL A   1      43.785  28.741  30.371  1.00  0.00     0.167 HD
ATOM     37  C   UNL A   1      45.507  26.484  29.909  1.00  0.00     0.074 A 
ATOM     38  C   UNL A   1      46.004  25.182  29.505  1.00  0.00     0.031 C 
ATOM     39  C   UNL A   1      46.259  27.425  30.533  1.00  0.00     0.031 A 
BRANCH  26  40
ATOM     40  C   UNL A   1      43.295  32.703  31.889  1.00  0.00    -0.014 A 
ATOM     41  C   UNL A   1      43.831  33.792  31.177  1.00  0.00     0.010 A 
ATOM     42  C   UNL A   1      42.807  32.914  33.191  1.00  0.00     0.010 A 
ATOM     43  C   UNL A   1      43.917  35.054  31.775  1.00  0.00     0.020 A 
ATOM     44  C   UNL A   1      42.863  34.179  33.781  1.00  0.00     0.020 A 
ATOM     45  C   UNL A   1      43.437  35.237  33.076  1.00  0.00     0.054 A 
BRANCH  45  46
ATOM     46  S   UNL A   1      43.554  36.885  33.827  1.00  0.00     0.124 S 
ATOM     47  O   UNL A   1      42.346  36.929  34.645  1.00  0.00    -0.237 OA
ATOM     48  O   UNL A   1      44.811  36.808  34.568  1.00  0.00    -0.237 OA
ATOM     49  O   UNL A   1      43.564  37.789  32.680  1.00  0.00    -0.744 OA
ENDBRANCH  45  46
ENDBRANCH  26  40
BRANCH  27  50
ATOM     50  C   UNL A   1      42.506  23.506  27.794  1.00  0.00    -0.014 A 
ATOM     51  C   UNL A   1      41.786  22.494  28.454  1.00  0.00     0.010 A 
ATOM     52  C   UNL A   1      43.125  23.204  26.566  1.00  0.00     0.010 A 
ATOM     53  C   UNL A   1      41.706  21.207  27.909  1.00  0.00     0.020 A 
ATOM     54  C   UNL A   1      43.021  21.930  26.000  1.00  0.00     0.020 A 
ATOM     55  C   UNL A   1      42.323  20.934  26.684  1.00  0.00     0.054 A 
BRANCH  55  56
ATOM     56  S   UNL A   1      42.179  19.267  25.983  1.00  0.00     0.124 S 
ATOM     57  O   UNL A   1      42.978  19.379  24.766  1.00  0.00    -0.237 OA
ATOM     58  O   UNL A   1      42.746  18.432  27.039  1.00  0.00    -0.237 OA
ATOM     59  O   UNL A   1      40.742  19.106  25.775  1.00  0.00    -0.744 OA
ENDBRANCH  55  56
ENDBRANCH  27  50
BRANCH  39  60
ATOM     60  C   UNL A   1      47.678  27.053  30.865  1.00  0.00    -0.014 A 
ATOM     61  C   UNL A   1      48.003  26.382  32.058  1.00  0.00     0.010 A 
ATOM     62  C   UNL A   1      48.693  27.339  29.934  1.00  0.00     0.010 A 
ATOM     63  C   UNL A   1      49.329  26.043  32.331  1.00  0.00     0.020 A 
ATOM     64  C   UNL A   1      50.013  26.968  30.188  1.00  0.00     0.020 A 
ATOM     65  C   UNL A   1      50.325  26.338  31.394  1.00  0.00     0.054 A 
BRANCH  65  66
ATOM     66  S   UNL A   1      52.033  25.857  31.757  1.00  0.00     0.124 S 
ATOM     67  O   UNL A   1      52.694  26.100  30.478  1.00  0.00    -0.237 OA
ATOM     68  O   UNL A   1      52.398  26.771  32.837  1.00  0.00    -0.237 OA
ATOM     69  O   UNL A   1      51.924  24.454  32.146  1.00  0.00    -0.744 OA
ENDBRANCH  65  66
ENDBRANCH  39  60
ENDBRANCH  13  14
ENDBRANCH   6   8
ENDBRANCH   5   6
ENDBRANCH   4   5
ENDBRANCH   3   4
ENDBRANCH   2   3
ENDBRANCH   1   2
BRANCH   1  70
ATOM     70  C   UNL A   1      30.720  27.653  23.032  1.00  0.00     0.188 C 
BRANCH  70  71
ATOM     71  O   UNL A   1      29.522  27.320  23.725  1.00  0.00    -0.376 OA
BRANCH  71  72
ATOM     72  C   UNL A   1      29.311  25.950  24.048  1.00  0.00     0.202 C 
BRANCH  72  73
ATOM     73  C   UNL A   1      30.507  24.982  23.994  1.00  0.00     0.261 C 
BRANCH  73  74
ATOM     74  O   UNL A   1      31.091  24.623  25.258  1.00  0.00    -0.462 OA
BRANCH  74  75
ATOM     75  C   UNL A   1      31.260  23.284  25.472  1.00  0.00     0.328 C 
ATOM     76  O   UNL A   1      30.364  22.526  25.832  1.00  0.00    -0.250 OA
BRANCH  75  77
ATOM     77  C   UNL A   1      32.722  22.854  25.226  1.00  0.00     0.195 C 
ATOM     78  C   UNL A   1      33.047  21.642  26.113  1.00  0.00     0.043 C 
ATOM     79  N   UNL A   1      32.916  22.353  23.838  1.00  0.00    -0.324 N 
ATOM     80  C   UNL A   1      32.490  20.506  25.265  1.00  0.00     0.014 C 
ATOM     81  C   UNL A   1      32.973  20.892  23.859  1.00  0.00     0.089 C 
ATOM     82  C   UNL A   1      32.916  19.083  25.581  1.00  0.00     0.006 C 
ATOM     83  C   UNL A   1      32.193  20.048  22.855  1.00  0.00     0.025 C 
ATOM     84  C   UNL A   1      32.258  18.138  24.566  1.00  0.00     0.000 C 
ATOM     85  C   UNL A   1      32.483  18.561  23.111  1.00  0.00     0.002 C 
BRANCH  79  86
ATOM     86  C   UNL A   1      33.472  23.179  22.869  1.00  0.00     0.243 C 
ATOM     87  O   UNL A   1      33.070  23.149  21.700  1.00  0.00    -0.273 OA
BRANCH  86  88
ATOM     88  C   UNL A   1      34.666  24.092  23.226  1.00  0.00     0.220 C 
BRANCH  88  89
ATOM     89  N   UNL A   1      35.831  23.611  23.979  1.00  0.00    -0.323 N 
ATOM     90  C   UNL A   1      36.629  22.542  23.433  1.00  0.00     0.190 C 
ATOM     91  C   UNL A   1      36.090  23.944  25.293  1.00  0.00     0.233 C 
ATOM     92  S   UNL A   1      37.464  21.726  24.800  1.00  0.00    -0.130 SA
ATOM     93  C   UNL A   1      37.123  23.065  25.950  1.00  0.00     0.171 C 
ATOM     94  O   UNL A   1      35.541  24.844  25.920  1.00  0.00    -0.274 OA
ENDBRANCH  88  89
ENDBRANCH  86  88
ENDBRANCH  79  86
ENDBRANCH  75  77
ENDBRANCH  74  75
ENDBRANCH  73  74
ENDBRANCH  72  73
ENDBRANCH  71  72
ENDBRANCH  70  71
ENDBRANCH   1  70
TORSDOF 23
ENDMDL
MODEL 2
REMARK VINA RESULT:      -9.7      2.558      8.195
REMARK SMILES O=C(OCCOCCOCCOC(=O)[C@H]1C[C@@H]2CCCC[C@H]2N1C(=O)CN1CSCC1=O)c1ccc(-c2c3nc(c(-c4ccc(S(=O)(=O)[O-])cc4)c4ccc([nH]4)c(-c4ccc(S(=O)(=O)[O-])cc4)c4nc(c(-c5ccc(S(=O)(=O)[O-])cc5)c5ccc2[nH]5)C=C4)C=C3)cc1
REMARK SMILES IDX 7 1 6 2 5 3 4 4 3 5 2 6 1 7 33 8 34 9 92 10 35 11 91 12
REMARK SMILES IDX 36 13 37 14 38 15 85 16 39 17 90 18 84 19 86 20 40 21 89 22
REMARK SMILES IDX 83 23 82 24 41 26 71 27 52 28 70 29 53 30 56 31 69 32 87 33
REMARK SMILES IDX 54 34 55 35 68 37 88 38 57 39 42 40 43 41 51 42 44 43 50 44
REMARK SMILES IDX 45 45 46 46 47 47 48 48 49 49 72 50 73 51 81 52 74 53 80 54
REMARK SMILES IDX 75 55 76 56 77 57 78 58 79 59 58 60 59 61 67 62 60 63 66 64
REMARK SMILES IDX 61 65 62 66 63 67 64 68 65 69 8 70 9 71 10 72 11 73 12 74
REMARK SMILES IDX 13 75 14 76 15 77 16 78 23 79 17 80 22 81 18 82 21 83 19 84
REMARK SMILES IDX 20 85 24 86 25 87 26 88 27 89 28 90 31 91 29 92 30 93 32 94
REMARK H PARENT 86 25 56 36
REMARK Flexibility Score: inf
ROOT
ATOM      1  C   UNL A   1      32.478  28.040  24.297  1.00  0.00     0.188 C 
ENDROOT
BRANCH   1   2
ATOM      2  O   UNL A   1      33.043  27.649  25.546  1.00  0.00    -0.376 OA
BRANCH   2   3
ATOM      3  C   UNL A   1      33.752  28.671  26.253  1.00  0.00     0.202 C 
BRANCH   3   4
ATOM      4  C   UNL A   1      33.128  30.084  26.343  1.00  0.00     0.261 C 
BRANCH   4   5
ATOM      5  O   UNL A   1      33.344  30.804  27.575  1.00  0.00    -0.460 OA
BRANCH   5   6
ATOM      6  C   UNL A   1      34.405  31.545  27.985  1.00  0.00     0.338 C 
ATOM      7  O   UNL A   1      34.317  32.772  27.946  1.00  0.00    -0.246 OA
BRANCH   6   8
ATOM      8  C   UNL A   1      35.679  30.939  28.470  1.00  0.00     0.060 A 
ATOM      9  C   UNL A   1      35.757  29.707  29.108  1.00  0.00     0.016 A 
ATOM     10  C   UNL A   1      36.879  31.626  28.229  1.00  0.00     0.016 A 
ATOM     11  C   UNL A   1      36.934  29.245  29.663  1.00  0.00     0.010 A 
ATOM     12  C   UNL A   1      38.095  31.132  28.716  1.00  0.00     0.010 A 
ATOM     13  C   UNL A   1      38.105  29.972  29.499  1.00  0.00    -0.014 A 
BRANCH  13  14
ATOM     14  C   UNL A   1      39.249  29.583  30.342  1.00  0.00     0.031 A 
ATOM     15  C   UNL A   1      40.180  28.531  29.810  1.00  0.00     0.074 A 
ATOM     16  C   UNL A   1      39.543  30.301  31.442  1.00  0.00     0.049 A 
ATOM     17  N   UNL A   1      41.277  28.057  30.333  1.00  0.00    -0.248 NA
ATOM     18  C   UNL A   1      39.840  27.947  28.498  1.00  0.00     0.031 C 
ATOM     19  C   UNL A   1      38.765  31.442  31.940  1.00  0.00     0.029 A 
ATOM     20  N   UNL A   1      40.600  30.219  32.307  1.00  0.00    -0.354 N 
ATOM     21  C   UNL A   1      41.728  27.091  29.439  1.00  0.00     0.074 A 
ATOM     22  C   UNL A   1      40.790  27.039  28.345  1.00  0.00     0.031 C 
ATOM     23  C   UNL A   1      39.399  31.978  32.995  1.00  0.00     0.029 A 
ATOM     24  C   UNL A   1      40.577  31.173  33.296  1.00  0.00     0.049 A 
ATOM     25  H   UNL A   1      41.310  29.540  32.228  1.00  0.00     0.167 HD
ATOM     26  C   UNL A   1      42.829  26.311  29.535  1.00  0.00     0.031 A 
ATOM     27  C   UNL A   1      41.406  31.349  34.341  1.00  0.00     0.031 A 
ATOM     28  C   UNL A   1      43.742  26.388  30.642  1.00  0.00     0.049 A 
ATOM     29  C   UNL A   1      42.563  30.398  34.482  1.00  0.00     0.074 A 
ATOM     30  C   UNL A   1      44.864  25.623  30.890  1.00  0.00     0.029 A 
ATOM     31  N   UNL A   1      43.627  27.293  31.689  1.00  0.00    -0.354 N 
ATOM     32  N   UNL A   1      42.946  29.440  33.668  1.00  0.00    -0.248 NA
ATOM     33  C   UNL A   1      43.397  30.542  35.680  1.00  0.00     0.031 C 
ATOM     34  C   UNL A   1      45.390  26.021  32.123  1.00  0.00     0.029 A 
ATOM     35  C   UNL A   1      44.643  27.088  32.602  1.00  0.00     0.049 A 
ATOM     36  H   UNL A   1      42.926  27.979  31.768  1.00  0.00     0.167 HD
ATOM     37  C   UNL A   1      44.083  28.885  34.240  1.00  0.00     0.074 A 
ATOM     38  C   UNL A   1      44.334  29.629  35.461  1.00  0.00     0.031 C 
ATOM     39  C   UNL A   1      44.854  27.857  33.804  1.00  0.00     0.031 A 
BRANCH  26  40
ATOM     40  C   UNL A   1      43.026  25.261  28.476  1.00  0.00    -0.014 A 
ATOM     41  C   UNL A   1      42.575  23.939  28.641  1.00  0.00     0.010 A 
ATOM     42  C   UNL A   1      43.713  25.604  27.297  1.00  0.00     0.010 A 
ATOM     43  C   UNL A   1      42.846  22.972  27.666  1.00  0.00     0.020 A 
ATOM     44  C   UNL A   1      43.960  24.650  26.307  1.00  0.00     0.020 A 
ATOM     45  C   UNL A   1      43.541  23.334  26.508  1.00  0.00     0.054 A 
BRANCH  45  46
ATOM     46  S   UNL A   1      43.875  22.064  25.256  1.00  0.00     0.124 S 
ATOM     47  O   UNL A   1      45.213  21.614  25.633  1.00  0.00    -0.237 OA
ATOM     48  O   UNL A   1      42.802  21.100  25.486  1.00  0.00    -0.237 OA
ATOM     49  O   UNL A   1      43.796  22.792  23.992  1.00  0.00    -0.744 OA
ENDBRANCH  45  46
ENDBRANCH  26  40
BRANCH  27  50
ATOM     50  C   UNL A   1      41.145  32.421  35.344  1.00  0.00    -0.014 A 
ATOM     51  C   UNL A   1      40.485  32.141  36.553  1.00  0.00     0.010 A 
ATOM     52  C   UNL A   1      41.553  33.744  35.087  1.00  0.00     0.010 A 
ATOM     53  C   UNL A   1      40.221  33.164  37.472  1.00  0.00     0.020 A 
ATOM     54  C   UNL A   1      41.323  34.762  36.016  1.00  0.00     0.020 A 
ATOM     55  C   UNL A   1      40.644  34.468  37.198  1.00  0.00     0.054 A 
BRANCH  55  56
ATOM     56  S   UNL A   1      40.318  35.770  38.419  1.00  0.00     0.124 S 
ATOM     57  O   UNL A   1      39.803  36.849  37.582  1.00  0.00    -0.237 OA
ATOM     58  O   UNL A   1      39.346  35.134  39.304  1.00  0.00    -0.237 OA
ATOM     59  O   UNL A   1      41.629  36.013  39.017  1.00  0.00    -0.744 OA
ENDBRANCH  55  56
ENDBRANCH  27  50
BRANCH  39  60
ATOM     60  C   UNL A   1      46.069  27.522  34.625  1.00  0.00    -0.014 A 
ATOM     61  C   UNL A   1      47.290  28.195  34.440  1.00  0.00     0.010 A 
ATOM     62  C   UNL A   1      45.963  26.547  35.633  1.00  0.00     0.010 A 
ATOM     63  C   UNL A   1      48.396  27.865  35.224  1.00  0.00     0.020 A 
ATOM     64  C   UNL A   1      47.055  26.242  36.443  1.00  0.00     0.020 A 
ATOM     65  C   UNL A   1      48.272  26.891  36.221  1.00  0.00     0.054 A 
BRANCH  65  66
ATOM     66  S   UNL A   1      49.713  26.505  37.248  1.00  0.00     0.124 S 
ATOM     67  O   UNL A   1      49.594  25.058  37.403  1.00  0.00    -0.237 OA
ATOM     68  O   UNL A   1      50.826  26.959  36.418  1.00  0.00    -0.237 OA
ATOM     69  O   UNL A   1      49.491  27.283  38.464  1.00  0.00    -0.744 OA
ENDBRANCH  65  66
ENDBRANCH  39  60
ENDBRANCH  13  14
ENDBRANCH   6   8
ENDBRANCH   5   6
ENDBRANCH   4   5
ENDBRANCH   3   4
ENDBRANCH   2   3
ENDBRANCH   1   2
BRANCH   1  70
ATOM     70  C   UNL A   1      32.428  26.947  23.233  1.00  0.00     0.188 C 
BRANCH  70  71
ATOM     71  O   UNL A   1      31.148  26.453  22.856  1.00  0.00    -0.376 OA
BRANCH  71  72
ATOM     72  C   UNL A   1      30.165  26.331  23.878  1.00  0.00     0.202 C 
BRANCH  72  73
ATOM     73  C   UNL A   1      30.299  25.191  24.904  1.00  0.00     0.261 C 
BRANCH  73  74
ATOM     74  O   UNL A   1      30.647  23.899  24.378  1.00  0.00    -0.462 OA
BRANCH  74  75
ATOM     75  C   UNL A   1      31.083  22.986  25.295  1.00  0.00     0.328 C 
ATOM     76  O   UNL A   1      30.385  22.526  26.193  1.00  0.00    -0.250 OA
BRANCH  75  77
ATOM     77  C   UNL A   1      32.567  22.625  25.070  1.00  0.00     0.195 C 
ATOM     78  C   UNL A   1      32.934  21.422  25.953  1.00  0.00     0.043 C 
ATOM     79  N   UNL A   1      32.806  22.146  23.682  1.00  0.00    -0.324 N 
ATOM     80  C   UNL A   1      32.443  20.269  25.087  1.00  0.00     0.014 C 
ATOM     81  C   UNL A   1      32.931  20.689  23.693  1.00  0.00     0.089 C 
ATOM     82  C   UNL A   1      32.928  18.865  25.400  1.00  0.00     0.006 C 
ATOM     83  C   UNL A   1      32.207  19.818  22.669  1.00  0.00     0.025 C 
ATOM     84  C   UNL A   1      32.332  17.898  24.366  1.00  0.00     0.000 C 
ATOM     85  C   UNL A   1      32.561  18.344  22.918  1.00  0.00     0.002 C 
BRANCH  79  86
ATOM     86  C   UNL A   1      33.340  23.004  22.728  1.00  0.00     0.243 C 
ATOM     87  O   UNL A   1      32.994  22.933  21.544  1.00  0.00    -0.273 OA
BRANCH  86  88
ATOM     88  C   UNL A   1      34.443  24.010  23.127  1.00  0.00     0.220 C 
BRANCH  88  89
ATOM     89  N   UNL A   1      35.609  23.626  23.932  1.00  0.00    -0.323 N 
ATOM     90  C   UNL A   1      36.497  22.603  23.441  1.00  0.00     0.190 C 
ATOM     91  C   UNL A   1      35.796  24.006  25.246  1.00  0.00     0.233 C 
ATOM     92  S   UNL A   1      37.334  21.876  24.856  1.00  0.00    -0.130 SA
ATOM     93  C   UNL A   1      36.861  23.214  25.960  1.00  0.00     0.171 C 
ATOM     94  O   UNL A   1      35.165  24.880  25.830  1.00  0.00    -0.274 OA
ENDBRANCH  88  89
ENDBRANCH  86  88
ENDBRANCH  79  86
ENDBRANCH  75  77
ENDBRANCH  74  75
ENDBRANCH  73  74
ENDBRANCH  72  73
ENDBRANCH  71  72
ENDBRANCH  70  71
ENDBRANCH   1  70
TORSDOF 23
ENDMDL
MODEL 3
REMARK VINA RESULT:      -9.6      3.133      4.924
REMARK SMILES O=C(OCCOCCOCCOC(=O)[C@H]1C[C@@H]2CCCC[C@H]2N1C(=O)CN1CSCC1=O)c1ccc(-c2c3nc(c(-c4ccc(S(=O)(=O)[O-])cc4)c4ccc([nH]4)c(-c4ccc(S(=O)(=O)[O-])cc4)c4nc(c(-c5ccc(S(=O)(=O)[O-])cc5)c5ccc2[nH]5)C=C4)C=C3)cc1
REMARK SMILES IDX 7 1 6 2 5 3 4 4 3 5 2 6 1 7 33 8 34 9 92 10 35 11 91 12
REMARK SMILES IDX 36 13 37 14 38 15 85 16 39 17 90 18 84 19 86 20 40 21 89 22
REMARK SMILES IDX 83 23 82 24 41 26 71 27 52 28 70 29 53 30 56 31 69 32 87 33
REMARK SMILES IDX 54 34 55 35 68 37 88 38 57 39 42 40 43 41 51 42 44 43 50 44
REMARK SMILES IDX 45 45 46 46 47 47 48 48 49 49 72 50 73 51 81 52 74 53 80 54
REMARK SMILES IDX 75 55 76 56 77 57 78 58 79 59 58 60 59 61 67 62 60 63 66 64
REMARK SMILES IDX 61 65 62 66 63 67 64 68 65 69 8 70 9 71 10 72 11 73 12 74
REMARK SMILES IDX 13 75 14 76 15 77 16 78 23 79 17 80 22 81 18 82 21 83 19 84
REMARK SMILES IDX 20 85 24 86 25 87 26 88 27 89 28 90 31 91 29 92 30 93 32 94
REMARK H PARENT 86 25 56 36
REMARK Flexibility Score: inf
ROOT
ATOM      1  C   UNL A   1      33.769  32.155  27.999  1.00  0.00     0.188 C 
ENDROOT
BRANCH   1   2
ATOM      2  O   UNL A   1      34.331  33.247  28.722  1.00  0.00    -0.376 OA
BRANCH   2   3
ATOM      3  C   UNL A   1      35.702  33.099  29.102  1.00  0.00     0.202 C 
BRANCH   3   4
ATOM      4  C   UNL A   1      36.029  32.539  30.506  1.00  0.00     0.261 C 
BRANCH   4   5
ATOM      5  O   UNL A   1      35.914  31.110  30.671  1.00  0.00    -0.460 OA
BRANCH   5   6
ATOM      6  C   UNL A   1      36.751  30.225  31.272  1.00  0.00     0.338 C 
ATOM      7  O   UNL A   1      36.560  29.944  32.454  1.00  0.00    -0.246 OA
BRANCH   6   8
ATOM      8  C   UNL A   1      37.899  29.586  30.566  1.00  0.00     0.060 A 
ATOM      9  C   UNL A   1      38.814  28.741  31.181  1.00  0.00     0.016 A 
ATOM     10  C   UNL A   1      38.043  29.810  29.187  1.00  0.00     0.016 A 
ATOM     11  C   UNL A   1      39.939  28.280  30.527  1.00  0.00     0.010 A 
ATOM     12  C   UNL A   1      39.137  29.285  28.489  1.00  0.00     0.010 A 
ATOM     13  C   UNL A   1      40.125  28.577  29.184  1.00  0.00    -0.014 A 
BRANCH  13  14
ATOM     14  C   UNL A   1      41.461  28.307  28.625  1.00  0.00     0.031 A 
ATOM     15  C   UNL A   1      42.486  29.403  28.709  1.00  0.00     0.074 A 
ATOM     16  C   UNL A   1      41.788  27.056  28.249  1.00  0.00     0.049 A 
ATOM     17  N   UNL A   1      43.736  29.395  28.339  1.00  0.00    -0.248 NA
ATOM     18  C   UNL A   1      42.047  30.676  29.313  1.00  0.00     0.031 C 
ATOM     19  C   UNL A   1      40.884  25.900  28.284  1.00  0.00     0.029 A 
ATOM     20  N   UNL A   1      42.977  26.534  27.820  1.00  0.00    -0.354 N 
ATOM     21  C   UNL A   1      44.216  30.669  28.621  1.00  0.00     0.074 A 
ATOM     22  C   UNL A   1      43.127  31.428  29.186  1.00  0.00     0.031 C 
ATOM     23  C   UNL A   1      41.568  24.799  27.934  1.00  0.00     0.029 A 
ATOM     24  C   UNL A   1      42.928  25.182  27.575  1.00  0.00     0.049 A 
ATOM     25  H   UNL A   1      43.791  27.075  27.698  1.00  0.00     0.167 HD
ATOM     26  C   UNL A   1      45.459  31.161  28.414  1.00  0.00     0.031 A 
ATOM     27  C   UNL A   1      43.876  24.361  27.087  1.00  0.00     0.031 A 
ATOM     28  C   UNL A   1      46.520  30.377  27.845  1.00  0.00     0.049 A 
ATOM     29  C   UNL A   1      45.219  24.959  26.765  1.00  0.00     0.074 A 
ATOM     30  C   UNL A   1      47.808  30.765  27.534  1.00  0.00     0.029 A 
ATOM     31  N   UNL A   1      46.404  29.036  27.502  1.00  0.00    -0.354 N 
ATOM     32  N   UNL A   1      45.645  26.185  26.970  1.00  0.00    -0.248 NA
ATOM     33  C   UNL A   1      46.206  24.072  26.141  1.00  0.00     0.031 C 
ATOM     34  C   UNL A   1      48.451  29.674  26.939  1.00  0.00     0.029 A 
ATOM     35  C   UNL A   1      47.590  28.586  26.955  1.00  0.00     0.049 A 
ATOM     36  H   UNL A   1      45.597  28.488  27.630  1.00  0.00     0.167 HD
ATOM     37  C   UNL A   1      46.961  26.209  26.527  1.00  0.00     0.074 A 
ATOM     38  C   UNL A   1      47.262  24.869  26.060  1.00  0.00     0.031 C 
ATOM     39  C   UNL A   1      47.845  27.239  26.506  1.00  0.00     0.031 A 
BRANCH  26  40
ATOM     40  C   UNL A   1      45.683  32.620  28.708  1.00  0.00    -0.014 A 
ATOM     41  C   UNL A   1      45.437  33.622  27.751  1.00  0.00     0.010 A 
ATOM     42  C   UNL A   1      46.185  32.990  29.968  1.00  0.00     0.010 A 
ATOM     43  C   UNL A   1      45.732  34.960  28.036  1.00  0.00     0.020 A 
ATOM     44  C   UNL A   1      46.452  34.328  30.269  1.00  0.00     0.020 A 
ATOM     45  C   UNL A   1      46.242  35.302  29.293  1.00  0.00     0.054 A 
BRANCH  45  46
ATOM     46  S   UNL A   1      46.611  37.045  29.640  1.00  0.00     0.124 S 
ATOM     47  O   UNL A   1      47.060  37.524  28.335  1.00  0.00    -0.237 OA
ATOM     48  O   UNL A   1      45.319  37.560  30.087  1.00  0.00    -0.237 OA
ATOM     49  O   UNL A   1      47.644  36.982  30.670  1.00  0.00    -0.744 OA
ENDBRANCH  45  46
ENDBRANCH  26  40
BRANCH  27  50
ATOM     50  C   UNL A   1      43.575  22.923  26.832  1.00  0.00    -0.014 A 
ATOM     51  C   UNL A   1      42.866  22.150  27.768  1.00  0.00     0.010 A 
ATOM     52  C   UNL A   1      44.010  22.312  25.640  1.00  0.00     0.010 A 
ATOM     53  C   UNL A   1      42.616  20.794  27.526  1.00  0.00     0.020 A 
ATOM     54  C   UNL A   1      43.734  20.967  25.379  1.00  0.00     0.020 A 
ATOM     55  C   UNL A   1      43.051  20.212  26.332  1.00  0.00     0.054 A 
BRANCH  55  56
ATOM     56  S   UNL A   1      42.688  18.460  26.028  1.00  0.00     0.124 S 
ATOM     57  O   UNL A   1      43.083  17.844  27.291  1.00  0.00    -0.237 OA
ATOM     58  O   UNL A   1      41.254  18.480  25.752  1.00  0.00    -0.237 OA
ATOM     59  O   UNL A   1      43.531  18.131  24.881  1.00  0.00    -0.744 OA
ENDBRANCH  55  56
ENDBRANCH  27  50
BRANCH  39  60
ATOM     60  C   UNL A   1      49.233  26.935  26.014  1.00  0.00    -0.014 A 
ATOM     61  C   UNL A   1      50.152  26.221  26.802  1.00  0.00     0.010 A 
ATOM     62  C   UNL A   1      49.597  27.332  24.714  1.00  0.00     0.010 A 
ATOM     63  C   UNL A   1      51.430  25.948  26.311  1.00  0.00     0.020 A 
ATOM     64  C   UNL A   1      50.860  27.027  24.208  1.00  0.00     0.020 A 
ATOM     65  C   UNL A   1      51.775  26.353  25.018  1.00  0.00     0.054 A 
BRANCH  65  66
ATOM     66  S   UNL A   1      53.429  25.957  24.392  1.00  0.00     0.124 S 
ATOM     67  O   UNL A   1      53.161  25.685  22.982  1.00  0.00    -0.237 OA
ATOM     68  O   UNL A   1      54.174  27.182  24.665  1.00  0.00    -0.237 OA
ATOM     69  O   UNL A   1      53.832  24.798  25.185  1.00  0.00    -0.744 OA
ENDBRANCH  65  66
ENDBRANCH  39  60
ENDBRANCH  13  14
ENDBRANCH   6   8
ENDBRANCH   5   6
ENDBRANCH   4   5
ENDBRANCH   3   4
ENDBRANCH   2   3
ENDBRANCH   1   2
BRANCH   1  70
ATOM     70  C   UNL A   1      34.774  31.125  27.489  1.00  0.00     0.188 C 
BRANCH  70  71
ATOM     71  O   UNL A   1      34.518  29.756  27.781  1.00  0.00    -0.376 OA
BRANCH  71  72
ATOM     72  C   UNL A   1      34.009  28.945  26.729  1.00  0.00     0.202 C 
BRANCH  72  73
ATOM     73  C   UNL A   1      32.487  28.741  26.618  1.00  0.00     0.261 C 
BRANCH  73  74
ATOM     74  O   UNL A   1      32.016  28.104  25.418  1.00  0.00    -0.462 OA
BRANCH  74  75
ATOM     75  C   UNL A   1      31.145  27.068  25.601  1.00  0.00     0.328 C 
ATOM     76  O   UNL A   1      30.784  26.658  26.701  1.00  0.00    -0.250 OA
BRANCH  75  77
ATOM     77  C   UNL A   1      30.691  26.467  24.254  1.00  0.00     0.195 C 
ATOM     78  C   UNL A   1      29.170  26.637  24.112  1.00  0.00     0.043 C 
ATOM     79  N   UNL A   1      31.252  27.227  23.103  1.00  0.00    -0.324 N 
ATOM     80  C   UNL A   1      29.087  28.066  23.591  1.00  0.00     0.014 C 
ATOM     81  C   UNL A   1      30.211  28.089  22.545  1.00  0.00     0.089 C 
ATOM     82  C   UNL A   1      27.789  28.538  22.960  1.00  0.00     0.006 C 
ATOM     83  C   UNL A   1      30.486  29.550  22.195  1.00  0.00     0.025 C 
ATOM     84  C   UNL A   1      27.974  29.984  22.479  1.00  0.00     0.000 C 
ATOM     85  C   UNL A   1      29.215  30.176  21.601  1.00  0.00     0.002 C 
BRANCH  79  86
ATOM     86  C   UNL A   1      32.366  26.747  22.426  1.00  0.00     0.243 C 
ATOM     87  O   UNL A   1      33.199  27.521  21.941  1.00  0.00    -0.273 OA
BRANCH  86  88
ATOM     88  C   UNL A   1      32.533  25.229  22.195  1.00  0.00     0.220 C 
BRANCH  88  89
ATOM     89  N   UNL A   1      33.476  24.411  22.968  1.00  0.00    -0.323 N 
ATOM     90  C   UNL A   1      33.561  22.997  22.706  1.00  0.00     0.190 C 
ATOM     91  C   UNL A   1      34.128  24.853  24.103  1.00  0.00     0.233 C 
ATOM     92  S   UNL A   1      34.194  22.200  24.187  1.00  0.00    -0.130 SA
ATOM     93  C   UNL A   1      34.754  23.747  24.912  1.00  0.00     0.171 C 
ATOM     94  O   UNL A   1      34.197  26.020  24.474  1.00  0.00    -0.274 OA
ENDBRANCH  88  89
ENDBRANCH  86  88
ENDBRANCH  79  86
ENDBRANCH  75  77
ENDBRANCH  74  75
ENDBRANCH  73  74
ENDBRANCH  72  73
ENDBRANCH  71  72
ENDBRANCH  70  71
ENDBRANCH   1  70
TORSDOF 23
ENDMDL
