MODEL 1
REMARK VINA RESULT:     -10.2      0.000      0.000
REMARK SMILES C[C@@H](C(=O)OCCOCCOCCOC(=O)c1ccc(-c2c3nc(c(-c4ccc(S(=O)(=O)[O-])cc4)c4ccc([nH]4)c(-c4ccc(S(=O)(=O)[O-])cc4)c4nc(c(-c5ccc(S(=O)(=O)[O-])cc5)c5ccc2[nH]5)C=C4)C=C3)cc1)c1ccc(-c2ccc3[nH]ccc3c2)cc1
REMARK SMILES IDX 10 1 9 2 8 3 7 4 6 5 5 6 3 7 4 8 2 9 1 10 77 11 78 12 91 13
REMARK SMILES IDX 79 14 90 15 80 16 81 17 82 18 89 19 83 20 88 21 84 22 87 23
REMARK SMILES IDX 85 24 86 25 11 27 12 28 13 29 14 30 15 31 16 32 17 33 18 34
REMARK SMILES IDX 76 35 19 36 75 37 20 38 21 39 22 40 69 41 23 42 74 43 68 44
REMARK SMILES IDX 70 45 24 46 73 47 67 48 66 49 25 51 55 52 36 53 54 54 37 55
REMARK SMILES IDX 40 56 53 57 71 58 38 59 39 60 52 62 72 63 41 64 26 65 27 66
REMARK SMILES IDX 35 67 28 68 34 69 29 70 30 71 31 72 32 73 33 74 56 75 57 76
REMARK SMILES IDX 65 77 58 78 64 79 59 80 60 81 61 82 62 83 63 84 42 85 43 86
REMARK SMILES IDX 51 87 44 88 50 89 45 90 46 91 47 92 48 93 49 94
REMARK H PARENT 85 26 70 50 40 61
REMARK Flexibility Score: inf
ROOT
ATOM      1  C   UNL A   1      36.252  21.826  24.574  1.00  0.00     0.188 C 
ENDROOT
BRANCH   1   2
ATOM      2  C   UNL A   1      35.501  21.357  25.827  1.00  0.00     0.188 C 
BRANCH   2   3
ATOM      3  O   UNL A   1      34.250  21.955  26.109  1.00  0.00    -0.376 OA
BRANCH   3   4
ATOM      4  C   UNL A   1      33.452  22.432  25.033  1.00  0.00     0.202 C 
BRANCH   4   5
ATOM      5  C   UNL A   1      32.136  23.210  25.238  1.00  0.00     0.261 C 
BRANCH   5   6
ATOM      6  O   UNL A   1      31.994  24.436  24.496  1.00  0.00    -0.463 OA
BRANCH   6   7
ATOM      7  C   UNL A   1      30.736  24.744  24.078  1.00  0.00     0.313 C 
ATOM      8  O   UNL A   1      30.149  24.111  23.204  1.00  0.00    -0.252 OA
BRANCH   7   9
ATOM      9  C   UNL A   1      30.092  25.947  24.801  1.00  0.00     0.126 C 
ATOM     10  C   UNL A   1      28.799  26.467  24.160  1.00  0.00     0.025 C 
BRANCH   9  11
ATOM     11  C   UNL A   1      31.105  27.008  25.258  1.00  0.00    -0.034 A 
ATOM     12  C   UNL A   1      31.502  27.013  26.604  1.00  0.00     0.005 A 
ATOM     13  C   UNL A   1      31.595  28.047  24.445  1.00  0.00     0.005 A 
ATOM     14  C   UNL A   1      32.341  28.001  27.116  1.00  0.00     0.009 A 
ATOM     15  C   UNL A   1      32.440  29.050  24.966  1.00  0.00     0.009 A 
ATOM     16  C   UNL A   1      32.821  29.044  26.314  1.00  0.00    -0.018 A 
BRANCH  16  17
ATOM     17  C   UNL A   1      33.754  30.019  26.896  1.00  0.00    -0.018 A 
ATOM     18  C   UNL A   1      35.076  29.616  27.099  1.00  0.00     0.011 A 
ATOM     19  C   UNL A   1      33.362  31.297  27.353  1.00  0.00     0.019 A 
ATOM     20  C   UNL A   1      36.017  30.454  27.686  1.00  0.00     0.027 A 
ATOM     21  C   UNL A   1      34.306  32.149  27.986  1.00  0.00    -0.000 A 
ATOM     22  C   UNL A   1      35.625  31.723  28.078  1.00  0.00     0.045 A 
ATOM     23  C   UNL A   1      34.254  33.401  28.666  1.00  0.00     0.028 A 
ATOM     24  N   UNL A   1      36.369  32.748  28.606  1.00  0.00    -0.361 N 
ATOM     25  C   UNL A   1      35.533  33.728  29.063  1.00  0.00     0.083 A 
ATOM     26  H   UNL A   1      37.353  32.775  28.648  1.00  0.00     0.166 HD
ENDBRANCH  16  17
ENDBRANCH   9  11
ENDBRANCH   7   9
ENDBRANCH   6   7
ENDBRANCH   5   6
ENDBRANCH   4   5
ENDBRANCH   3   4
ENDBRANCH   2   3
ENDBRANCH   1   2
BRANCH   1  27
ATOM     27  O   UNL A   1      37.533  22.384  24.740  1.00  0.00    -0.376 OA
BRANCH  27  28
ATOM     28  C   UNL A   1      37.972  22.808  26.020  1.00  0.00     0.202 C 
BRANCH  28  29
ATOM     29  C   UNL A   1      39.234  23.646  26.322  1.00  0.00     0.261 C 
BRANCH  29  30
ATOM     30  O   UNL A   1      39.082  24.973  26.827  1.00  0.00    -0.460 OA
BRANCH  30  31
ATOM     31  C   UNL A   1      40.207  25.725  26.893  1.00  0.00     0.338 C 
ATOM     32  O   UNL A   1      41.119  25.759  26.082  1.00  0.00    -0.246 OA
BRANCH  31  33
ATOM     33  C   UNL A   1      40.047  26.669  28.020  1.00  0.00     0.060 A 
ATOM     34  C   UNL A   1      40.677  27.922  27.970  1.00  0.00     0.016 A 
ATOM     35  C   UNL A   1      39.262  26.315  29.118  1.00  0.00     0.016 A 
ATOM     36  C   UNL A   1      40.532  28.822  29.028  1.00  0.00     0.010 A 
ATOM     37  C   UNL A   1      39.145  27.203  30.188  1.00  0.00     0.010 A 
ATOM     38  C   UNL A   1      39.798  28.449  30.162  1.00  0.00    -0.014 A 
BRANCH  38  39
ATOM     39  C   UNL A   1      39.861  29.265  31.399  1.00  0.00     0.031 A 
ATOM     40  C   UNL A   1      41.054  29.095  32.297  1.00  0.00     0.074 A 
ATOM     41  C   UNL A   1      38.855  30.088  31.748  1.00  0.00     0.049 A 
ATOM     42  N   UNL A   1      41.328  29.682  33.431  1.00  0.00    -0.248 NA
ATOM     43  C   UNL A   1      42.061  28.106  31.871  1.00  0.00     0.031 C 
ATOM     44  C   UNL A   1      37.652  30.319  30.955  1.00  0.00     0.029 A 
ATOM     45  N   UNL A   1      38.692  30.896  32.850  1.00  0.00    -0.354 N 
ATOM     46  C   UNL A   1      42.501  29.091  33.886  1.00  0.00     0.074 A 
ATOM     47  C   UNL A   1      42.895  28.110  32.900  1.00  0.00     0.031 C 
ATOM     48  C   UNL A   1      36.892  31.239  31.574  1.00  0.00     0.029 A 
ATOM     49  C   UNL A   1      37.551  31.670  32.809  1.00  0.00     0.049 A 
ATOM     50  H   UNL A   1      39.330  30.921  33.599  1.00  0.00     0.167 HD
ATOM     51  C   UNL A   1      43.173  29.328  35.037  1.00  0.00     0.031 A 
ATOM     52  C   UNL A   1      37.136  32.665  33.628  1.00  0.00     0.031 A 
ATOM     53  C   UNL A   1      42.769  30.306  36.011  1.00  0.00     0.049 A 
ATOM     54  C   UNL A   1      37.977  32.994  34.841  1.00  0.00     0.074 A 
ATOM     55  C   UNL A   1      43.380  30.626  37.211  1.00  0.00     0.029 A 
ATOM     56  N   UNL A   1      41.651  31.118  35.901  1.00  0.00    -0.354 N 
ATOM     57  N   UNL A   1      39.133  32.492  35.209  1.00  0.00    -0.248 NA
ATOM     58  C   UNL A   1      37.461  34.032  35.747  1.00  0.00     0.031 C 
ATOM     59  C   UNL A   1      42.596  31.589  37.854  1.00  0.00     0.029 A 
ATOM     60  C   UNL A   1      41.539  31.921  37.023  1.00  0.00     0.049 A 
ATOM     61  H   UNL A   1      41.030  31.123  35.137  1.00  0.00     0.167 HD
ATOM     62  C   UNL A   1      39.467  33.135  36.397  1.00  0.00     0.074 A 
ATOM     63  C   UNL A   1      38.438  34.124  36.638  1.00  0.00     0.031 C 
ATOM     64  C   UNL A   1      40.506  32.903  37.239  1.00  0.00     0.031 A 
BRANCH  51  65
ATOM     65  C   UNL A   1      44.370  28.464  35.338  1.00  0.00    -0.014 A 
ATOM     66  C   UNL A   1      45.663  28.816  34.916  1.00  0.00     0.010 A 
ATOM     67  C   UNL A   1      44.192  27.288  36.090  1.00  0.00     0.010 A 
ATOM     68  C   UNL A   1      46.751  27.990  35.211  1.00  0.00     0.020 A 
ATOM     69  C   UNL A   1      45.281  26.476  36.415  1.00  0.00     0.020 A 
ATOM     70  C   UNL A   1      46.553  26.825  35.960  1.00  0.00     0.054 A 
BRANCH  70  71
ATOM     71  S   UNL A   1      47.988  25.788  36.354  1.00  0.00     0.124 S 
ATOM     72  O   UNL A   1      47.437  24.879  37.356  1.00  0.00    -0.237 OA
ATOM     73  O   UNL A   1      48.308  25.183  35.064  1.00  0.00    -0.237 OA
ATOM     74  O   UNL A   1      48.976  26.740  36.855  1.00  0.00    -0.744 OA
ENDBRANCH  70  71
ENDBRANCH  51  65
BRANCH  52  75
ATOM     75  C   UNL A   1      35.947  33.513  33.279  1.00  0.00    -0.014 A 
ATOM     76  C   UNL A   1      36.125  34.777  32.677  1.00  0.00     0.010 A 
ATOM     77  C   UNL A   1      34.632  33.072  33.507  1.00  0.00     0.010 A 
ATOM     78  C   UNL A   1      35.035  35.575  32.317  1.00  0.00     0.020 A 
ATOM     79  C   UNL A   1      33.534  33.850  33.119  1.00  0.00     0.020 A 
ATOM     80  C   UNL A   1      33.743  35.102  32.536  1.00  0.00     0.054 A 
BRANCH  80  81
ATOM     81  S   UNL A   1      32.342  36.134  32.023  1.00  0.00     0.124 S 
ATOM     82  O   UNL A   1      32.659  37.411  32.654  1.00  0.00    -0.237 OA
ATOM     83  O   UNL A   1      32.444  36.105  30.567  1.00  0.00    -0.237 OA
ATOM     84  O   UNL A   1      31.183  35.434  32.575  1.00  0.00    -0.744 OA
ENDBRANCH  80  81
ENDBRANCH  52  75
BRANCH  64  85
ATOM     85  C   UNL A   1      40.572  33.720  38.505  1.00  0.00    -0.014 A 
ATOM     86  C   UNL A   1      41.273  34.940  38.541  1.00  0.00     0.010 A 
ATOM     87  C   UNL A   1      39.868  33.302  39.650  1.00  0.00     0.010 A 
ATOM     88  C   UNL A   1      41.305  35.705  39.709  1.00  0.00     0.020 A 
ATOM     89  C   UNL A   1      39.869  34.082  40.810  1.00  0.00     0.020 A 
ATOM     90  C   UNL A   1      40.601  35.271  40.837  1.00  0.00     0.054 A 
BRANCH  90  91
ATOM     91  S   UNL A   1      40.624  36.306  42.326  1.00  0.00     0.124 S 
ATOM     92  O   UNL A   1      40.415  35.320  43.383  1.00  0.00    -0.237 OA
ATOM     93  O   UNL A   1      41.957  36.903  42.279  1.00  0.00    -0.237 OA
ATOM     94  O   UNL A   1      39.521  37.240  42.118  1.00  0.00    -0.744 OA
ENDBRANCH  90  91
ENDBRANCH  64  85
ENDBRANCH  38  39
ENDBRANCH  31  33
ENDBRANCH  30  31
ENDBRANCH  29  30
ENDBRANCH  28  29
ENDBRANCH  27  28
ENDBRANCH   1  27
TORSDOF 22
ENDMDL
MODEL 2
REMARK VINA RESULT:     -10.0      0.961      8.057
REMARK SMILES C[C@@H](C(=O)OCCOCCOCCOC(=O)c1ccc(-c2c3nc(c(-c4ccc(S(=O)(=O)[O-])cc4)c4ccc([nH]4)c(-c4ccc(S(=O)(=O)[O-])cc4)c4nc(c(-c5ccc(S(=O)(=O)[O-])cc5)c5ccc2[nH]5)C=C4)C=C3)cc1)c1ccc(-c2ccc3[nH]ccc3c2)cc1
REMARK SMILES IDX 10 1 9 2 8 3 7 4 6 5 5 6 3 7 4 8 2 9 1 10 77 11 78 12 91 13
REMARK SMILES IDX 79 14 90 15 80 16 81 17 82 18 89 19 83 20 88 21 84 22 87 23
REMARK SMILES IDX 85 24 86 25 11 27 12 28 13 29 14 30 15 31 16 32 17 33 18 34
REMARK SMILES IDX 76 35 19 36 75 37 20 38 21 39 22 40 69 41 23 42 74 43 68 44
REMARK SMILES IDX 70 45 24 46 73 47 67 48 66 49 25 51 55 52 36 53 54 54 37 55
REMARK SMILES IDX 40 56 53 57 71 58 38 59 39 60 52 62 72 63 41 64 26 65 27 66
REMARK SMILES IDX 35 67 28 68 34 69 29 70 30 71 31 72 32 73 33 74 56 75 57 76
REMARK SMILES IDX 65 77 58 78 64 79 59 80 60 81 61 82 62 83 63 84 42 85 43 86
REMARK SMILES IDX 51 87 44 88 50 89 45 90 46 91 47 92 48 93 49 94
REMARK H PARENT 85 26 70 50 40 61
REMARK Flexibility Score: inf
ROOT
ATOM      1  C   UNL A   1      36.091  22.628  24.105  1.00  0.00     0.188 C 
ENDROOT
BRANCH   1   2
ATOM      2  C   UNL A   1      34.919  23.580  23.832  1.00  0.00     0.188 C 
BRANCH   2   3
ATOM      3  O   UNL A   1      34.358  23.579  22.534  1.00  0.00    -0.376 OA
BRANCH   3   4
ATOM      4  C   UNL A   1      32.995  23.210  22.368  1.00  0.00     0.202 C 
BRANCH   4   5
ATOM      5  C   UNL A   1      31.908  23.495  23.425  1.00  0.00     0.261 C 
BRANCH   5   6
ATOM      6  O   UNL A   1      30.881  24.434  23.053  1.00  0.00    -0.463 OA
BRANCH   6   7
ATOM      7  C   UNL A   1      30.416  25.241  24.044  1.00  0.00     0.313 C 
ATOM      8  O   UNL A   1      29.508  26.052  23.876  1.00  0.00    -0.252 OA
BRANCH   7   9
ATOM      9  C   UNL A   1      31.111  25.051  25.410  1.00  0.00     0.126 C 
ATOM     10  C   UNL A   1      30.284  24.286  26.452  1.00  0.00     0.025 C 
BRANCH   9  11
ATOM     11  C   UNL A   1      31.852  26.302  25.907  1.00  0.00    -0.034 A 
ATOM     12  C   UNL A   1      33.112  26.590  25.361  1.00  0.00     0.005 A 
ATOM     13  C   UNL A   1      31.402  27.136  26.948  1.00  0.00     0.005 A 
ATOM     14  C   UNL A   1      33.887  27.650  25.828  1.00  0.00     0.009 A 
ATOM     15  C   UNL A   1      32.191  28.205  27.424  1.00  0.00     0.009 A 
ATOM     16  C   UNL A   1      33.449  28.474  26.872  1.00  0.00    -0.018 A 
BRANCH  16  17
ATOM     17  C   UNL A   1      34.284  29.615  27.277  1.00  0.00    -0.018 A 
ATOM     18  C   UNL A   1      35.618  29.363  27.607  1.00  0.00     0.011 A 
ATOM     19  C   UNL A   1      33.784  30.925  27.448  1.00  0.00     0.019 A 
ATOM     20  C   UNL A   1      36.469  30.370  28.043  1.00  0.00     0.027 A 
ATOM     21  C   UNL A   1      34.634  31.956  27.928  1.00  0.00    -0.000 A 
ATOM     22  C   UNL A   1      35.973  31.659  28.154  1.00  0.00     0.045 A 
ATOM     23  C   UNL A   1      34.464  33.312  28.335  1.00  0.00     0.028 A 
ATOM     24  N   UNL A   1      36.619  32.823  28.488  1.00  0.00    -0.361 N 
ATOM     25  C   UNL A   1      35.696  33.809  28.704  1.00  0.00     0.083 A 
ATOM     26  H   UNL A   1      37.595  32.932  28.559  1.00  0.00     0.166 HD
ENDBRANCH  16  17
ENDBRANCH   9  11
ENDBRANCH   7   9
ENDBRANCH   6   7
ENDBRANCH   5   6
ENDBRANCH   4   5
ENDBRANCH   3   4
ENDBRANCH   2   3
ENDBRANCH   1   2
BRANCH   1  27
ATOM     27  O   UNL A   1      36.580  22.539  25.421  1.00  0.00    -0.376 OA
BRANCH  27  28
ATOM     28  C   UNL A   1      37.093  23.686  26.077  1.00  0.00     0.202 C 
BRANCH  28  29
ATOM     29  C   UNL A   1      38.582  24.075  26.208  1.00  0.00     0.261 C 
BRANCH  29  30
ATOM     30  O   UNL A   1      38.998  24.867  27.321  1.00  0.00    -0.460 OA
BRANCH  30  31
ATOM     31  C   UNL A   1      39.866  25.873  27.055  1.00  0.00     0.338 C 
ATOM     32  O   UNL A   1      40.418  26.107  25.991  1.00  0.00    -0.246 OA
BRANCH  31  33
ATOM     33  C   UNL A   1      39.872  26.778  28.224  1.00  0.00     0.060 A 
ATOM     34  C   UNL A   1      40.607  27.973  28.173  1.00  0.00     0.016 A 
ATOM     35  C   UNL A   1      39.140  26.447  29.364  1.00  0.00     0.016 A 
ATOM     36  C   UNL A   1      40.618  28.836  29.271  1.00  0.00     0.010 A 
ATOM     37  C   UNL A   1      39.179  27.295  30.472  1.00  0.00     0.010 A 
ATOM     38  C   UNL A   1      39.938  28.480  30.442  1.00  0.00    -0.014 A 
BRANCH  38  39
ATOM     39  C   UNL A   1      40.161  29.234  31.700  1.00  0.00     0.031 A 
ATOM     40  C   UNL A   1      39.121  30.235  32.117  1.00  0.00     0.074 A 
ATOM     41  C   UNL A   1      41.287  29.078  32.420  1.00  0.00     0.049 A 
ATOM     42  N   UNL A   1      39.098  31.020  33.161  1.00  0.00    -0.248 NA
ATOM     43  C   UNL A   1      37.965  30.395  31.216  1.00  0.00     0.031 C 
ATOM     44  C   UNL A   1      42.360  28.141  32.099  1.00  0.00     0.029 A 
ATOM     45  N   UNL A   1      41.709  29.690  33.578  1.00  0.00    -0.354 N 
ATOM     46  C   UNL A   1      37.963  31.809  33.013  1.00  0.00     0.074 A 
ATOM     47  C   UNL A   1      37.317  31.400  31.786  1.00  0.00     0.031 C 
ATOM     48  C   UNL A   1      43.299  28.210  33.059  1.00  0.00     0.029 A 
ATOM     49  C   UNL A   1      42.899  29.193  34.068  1.00  0.00     0.049 A 
ATOM     50  H   UNL A   1      41.209  30.415  34.017  1.00  0.00     0.167 HD
ATOM     51  C   UNL A   1      37.518  32.803  33.816  1.00  0.00     0.031 A 
ATOM     52  C   UNL A   1      43.540  29.444  35.235  1.00  0.00     0.031 A 
ATOM     53  C   UNL A   1      38.171  33.201  35.033  1.00  0.00     0.049 A 
ATOM     54  C   UNL A   1      42.948  30.472  36.172  1.00  0.00     0.074 A 
ATOM     55  C   UNL A   1      37.802  34.197  35.921  1.00  0.00     0.029 A 
ATOM     56  N   UNL A   1      39.331  32.628  35.533  1.00  0.00    -0.354 N 
ATOM     57  N   UNL A   1      41.824  31.143  36.064  1.00  0.00    -0.248 NA
ATOM     58  C   UNL A   1      43.707  30.771  37.396  1.00  0.00     0.031 C 
ATOM     59  C   UNL A   1      38.773  34.265  36.925  1.00  0.00     0.029 A 
ATOM     60  C   UNL A   1      39.706  33.266  36.703  1.00  0.00     0.049 A 
ATOM     61  H   UNL A   1      39.815  31.879  35.117  1.00  0.00     0.167 HD
ATOM     62  C   UNL A   1      41.756  31.957  37.191  1.00  0.00     0.074 A 
ATOM     63  C   UNL A   1      42.904  31.629  38.010  1.00  0.00     0.031 C 
ATOM     64  C   UNL A   1      40.853  32.919  37.504  1.00  0.00     0.031 A 
BRANCH  51  65
ATOM     65  C   UNL A   1      36.307  33.577  33.363  1.00  0.00    -0.014 A 
ATOM     66  C   UNL A   1      36.415  34.698  32.523  1.00  0.00     0.010 A 
ATOM     67  C   UNL A   1      35.029  33.144  33.765  1.00  0.00     0.010 A 
ATOM     68  C   UNL A   1      35.271  35.394  32.124  1.00  0.00     0.020 A 
ATOM     69  C   UNL A   1      33.881  33.817  33.342  1.00  0.00     0.020 A 
ATOM     70  C   UNL A   1      34.010  34.947  32.535  1.00  0.00     0.054 A 
BRANCH  70  71
ATOM     71  S   UNL A   1      32.541  35.852  31.974  1.00  0.00     0.124 S 
ATOM     72  O   UNL A   1      32.719  37.148  32.623  1.00  0.00    -0.237 OA
ATOM     73  O   UNL A   1      32.700  35.848  30.523  1.00  0.00    -0.237 OA
ATOM     74  O   UNL A   1      31.428  35.052  32.479  1.00  0.00    -0.744 OA
ENDBRANCH  70  71
ENDBRANCH  51  65
BRANCH  52  75
ATOM     75  C   UNL A   1      44.734  28.635  35.654  1.00  0.00    -0.014 A 
ATOM     76  C   UNL A   1      45.974  28.807  35.001  1.00  0.00     0.010 A 
ATOM     77  C   UNL A   1      44.669  27.717  36.714  1.00  0.00     0.010 A 
ATOM     78  C   UNL A   1      47.108  28.086  35.388  1.00  0.00     0.020 A 
ATOM     79  C   UNL A   1      45.809  27.016  37.130  1.00  0.00     0.020 A 
ATOM     80  C   UNL A   1      47.019  27.197  36.457  1.00  0.00     0.054 A 
BRANCH  80  81
ATOM     81  S   UNL A   1      48.512  26.304  36.971  1.00  0.00     0.124 S 
ATOM     82  O   UNL A   1      48.813  26.930  38.255  1.00  0.00    -0.237 OA
ATOM     83  O   UNL A   1      48.047  24.922  37.034  1.00  0.00    -0.237 OA
ATOM     84  O   UNL A   1      49.464  26.587  35.899  1.00  0.00    -0.744 OA
ENDBRANCH  80  81
ENDBRANCH  52  75
BRANCH  64  85
ATOM     85  C   UNL A   1      41.078  33.698  38.776  1.00  0.00    -0.014 A 
ATOM     86  C   UNL A   1      40.437  33.327  39.973  1.00  0.00     0.010 A 
ATOM     87  C   UNL A   1      41.993  34.767  38.794  1.00  0.00     0.010 A 
ATOM     88  C   UNL A   1      40.674  34.035  41.153  1.00  0.00     0.020 A 
ATOM     89  C   UNL A   1      42.258  35.457  39.980  1.00  0.00     0.020 A 
ATOM     90  C   UNL A   1      41.585  35.096  41.149  1.00  0.00     0.054 A 
BRANCH  90  91
ATOM     91  S   UNL A   1      41.905  35.971  42.705  1.00  0.00     0.124 S 
ATOM     92  O   UNL A   1      43.031  36.830  42.344  1.00  0.00    -0.237 OA
ATOM     93  O   UNL A   1      40.641  36.662  42.949  1.00  0.00    -0.237 OA
ATOM     94  O   UNL A   1      42.216  34.900  43.649  1.00  0.00    -0.744 OA
ENDBRANCH  90  91
ENDBRANCH  64  85
ENDBRANCH  38  39
ENDBRANCH  31  33
ENDBRANCH  30  31
ENDBRANCH  29  30
ENDBRANCH  28  29
ENDBRANCH  27  28
ENDBRANCH   1  27
TORSDOF 22
ENDMDL
MODEL 3
REMARK VINA RESULT:      -9.3      2.080      3.710
REMARK SMILES C[C@@H](C(=O)OCCOCCOCCOC(=O)c1ccc(-c2c3nc(c(-c4ccc(S(=O)(=O)[O-])cc4)c4ccc([nH]4)c(-c4ccc(S(=O)(=O)[O-])cc4)c4nc(c(-c5ccc(S(=O)(=O)[O-])cc5)c5ccc2[nH]5)C=C4)C=C3)cc1)c1ccc(-c2ccc3[nH]ccc3c2)cc1
REMARK SMILES IDX 10 1 9 2 8 3 7 4 6 5 5 6 3 7 4 8 2 9 1 10 77 11 78 12 91 13
REMARK SMILES IDX 79 14 90 15 80 16 81 17 82 18 89 19 83 20 88 21 84 22 87 23
REMARK SMILES IDX 85 24 86 25 11 27 12 28 13 29 14 30 15 31 16 32 17 33 18 34
REMARK SMILES IDX 76 35 19 36 75 37 20 38 21 39 22 40 69 41 23 42 74 43 68 44
REMARK SMILES IDX 70 45 24 46 73 47 67 48 66 49 25 51 55 52 36 53 54 54 37 55
REMARK SMILES IDX 40 56 53 57 71 58 38 59 39 60 52 62 72 63 41 64 26 65 27 66
REMARK SMILES IDX 35 67 28 68 34 69 29 70 30 71 31 72 32 73 33 74 56 75 57 76
REMARK SMILES IDX 65 77 58 78 64 79 59 80 60 81 61 82 62 83 63 84 42 85 43 86
REMARK SMILES IDX 51 87 44 88 50 89 45 90 46 91 47 92 48 93 49 94
REMARK H PARENT 85 26 70 50 40 61
REMARK Flexibility Score: inf
ROOT
ATOM      1  C   UNL A   1      40.025  19.668  25.832  1.00  0.00     0.188 C 
ENDROOT
BRANCH   1   2
ATOM      2  C   UNL A   1      38.671  19.547  25.121  1.00  0.00     0.188 C 
BRANCH   2   3
ATOM      3  O   UNL A   1      37.765  20.628  25.239  1.00  0.00    -0.376 OA
BRANCH   3   4
ATOM      4  C   UNL A   1      36.381  20.398  25.018  1.00  0.00     0.202 C 
BRANCH   4   5
ATOM      5  C   UNL A   1      35.384  21.521  24.660  1.00  0.00     0.261 C 
BRANCH   5   6
ATOM      6  O   UNL A   1      34.046  21.108  24.322  1.00  0.00    -0.463 OA
BRANCH   6   7
ATOM      7  C   UNL A   1      33.125  21.178  25.321  1.00  0.00     0.313 C 
ATOM      8  O   UNL A   1      32.285  20.303  25.518  1.00  0.00    -0.252 OA
BRANCH   7   9
ATOM      9  C   UNL A   1      33.224  22.442  26.202  1.00  0.00     0.126 C 
ATOM     10  C   UNL A   1      32.940  22.212  27.693  1.00  0.00     0.025 C 
BRANCH   9  11
ATOM     11  C   UNL A   1      32.590  23.689  25.569  1.00  0.00    -0.034 A 
ATOM     12  C   UNL A   1      32.550  24.872  26.323  1.00  0.00     0.005 A 
ATOM     13  C   UNL A   1      31.951  23.711  24.315  1.00  0.00     0.005 A 
ATOM     14  C   UNL A   1      31.905  26.017  25.856  1.00  0.00     0.009 A 
ATOM     15  C   UNL A   1      31.294  24.869  23.846  1.00  0.00     0.009 A 
ATOM     16  C   UNL A   1      31.258  26.038  24.615  1.00  0.00    -0.018 A 
BRANCH  16  17
ATOM     17  C   UNL A   1      30.652  27.295  24.150  1.00  0.00    -0.018 A 
ATOM     18  C   UNL A   1      31.338  28.485  24.408  1.00  0.00     0.011 A 
ATOM     19  C   UNL A   1      29.374  27.371  23.553  1.00  0.00     0.019 A 
ATOM     20  C   UNL A   1      30.822  29.723  24.047  1.00  0.00     0.027 A 
ATOM     21  C   UNL A   1      28.820  28.633  23.212  1.00  0.00    -0.000 A 
ATOM     22  C   UNL A   1      29.590  29.771  23.414  1.00  0.00     0.045 A 
ATOM     23  C   UNL A   1      27.558  29.098  22.736  1.00  0.00     0.028 A 
ATOM     24  N   UNL A   1      28.908  30.846  22.902  1.00  0.00    -0.361 N 
ATOM     25  C   UNL A   1      27.633  30.467  22.586  1.00  0.00     0.083 A 
ATOM     26  H   UNL A   1      29.279  31.751  22.779  1.00  0.00     0.166 HD
ENDBRANCH  16  17
ENDBRANCH   9  11
ENDBRANCH   7   9
ENDBRANCH   6   7
ENDBRANCH   5   6
ENDBRANCH   4   5
ENDBRANCH   3   4
ENDBRANCH   2   3
ENDBRANCH   1   2
BRANCH   1  27
ATOM     27  O   UNL A   1      40.183  20.691  26.785  1.00  0.00    -0.376 OA
BRANCH  27  28
ATOM     28  C   UNL A   1      41.466  21.234  27.050  1.00  0.00     0.202 C 
BRANCH  28  29
ATOM     29  C   UNL A   1      42.177  22.337  26.235  1.00  0.00     0.261 C 
BRANCH  29  30
ATOM     30  O   UNL A   1      41.507  23.578  26.012  1.00  0.00    -0.460 OA
BRANCH  30  31
ATOM     31  C   UNL A   1      42.294  24.671  25.870  1.00  0.00     0.338 C 
ATOM     32  O   UNL A   1      43.084  24.898  24.966  1.00  0.00    -0.246 OA
BRANCH  31  33
ATOM     33  C   UNL A   1      41.879  25.656  26.892  1.00  0.00     0.060 A 
ATOM     34  C   UNL A   1      42.469  26.930  26.908  1.00  0.00     0.016 A 
ATOM     35  C   UNL A   1      40.899  25.318  27.825  1.00  0.00     0.016 A 
ATOM     36  C   UNL A   1      42.083  27.868  27.868  1.00  0.00     0.010 A 
ATOM     37  C   UNL A   1      40.539  26.246  28.804  1.00  0.00     0.010 A 
ATOM     38  C   UNL A   1      41.146  27.515  28.847  1.00  0.00    -0.014 A 
BRANCH  38  39
ATOM     39  C   UNL A   1      40.930  28.385  30.029  1.00  0.00     0.031 A 
ATOM     40  C   UNL A   1      41.903  28.279  31.171  1.00  0.00     0.074 A 
ATOM     41  C   UNL A   1      39.865  29.203  30.114  1.00  0.00     0.049 A 
ATOM     42  N   UNL A   1      41.918  28.920  32.309  1.00  0.00    -0.248 NA
ATOM     43  C   UNL A   1      42.987  27.292  31.019  1.00  0.00     0.031 C 
ATOM     44  C   UNL A   1      38.860  29.374  29.069  1.00  0.00     0.029 A 
ATOM     45  N   UNL A   1      39.458  30.055  31.115  1.00  0.00    -0.354 N 
ATOM     46  C   UNL A   1      42.970  28.373  33.033  1.00  0.00     0.074 A 
ATOM     47  C   UNL A   1      43.579  27.358  32.203  1.00  0.00     0.031 C 
ATOM     48  C   UNL A   1      37.974  30.305  29.465  1.00  0.00     0.029 A 
ATOM     49  C   UNL A   1      38.345  30.802  30.792  1.00  0.00     0.049 A 
ATOM     50  H   UNL A   1      39.919  30.125  31.983  1.00  0.00     0.167 HD
ATOM     51  C   UNL A   1      43.374  28.674  34.290  1.00  0.00     0.031 A 
ATOM     52  C   UNL A   1      37.753  31.825  31.454  1.00  0.00     0.031 A 
ATOM     53  C   UNL A   1      42.759  29.685  35.107  1.00  0.00     0.049 A 
ATOM     54  C   UNL A   1      38.307  32.223  32.803  1.00  0.00     0.074 A 
ATOM     55  C   UNL A   1      43.092  30.070  36.394  1.00  0.00     0.029 A 
ATOM     56  N   UNL A   1      41.684  30.469  34.719  1.00  0.00    -0.354 N 
ATOM     57  N   UNL A   1      39.362  31.760  33.436  1.00  0.00    -0.248 NA
ATOM     58  C   UNL A   1      37.597  33.288  33.526  1.00  0.00     0.031 C 
ATOM     59  C   UNL A   1      42.178  31.044  36.806  1.00  0.00     0.029 A 
ATOM     60  C   UNL A   1      41.322  31.318  35.751  1.00  0.00     0.049 A 
ATOM     61  H   UNL A   1      41.242  30.429  33.840  1.00  0.00     0.167 HD
ATOM     62  C   UNL A   1      39.423  32.461  34.636  1.00  0.00     0.074 A 
ATOM     63  C   UNL A   1      38.356  33.440  34.602  1.00  0.00     0.031 C 
ATOM     64  C   UNL A   1      40.257  32.287  35.693  1.00  0.00     0.031 A 
BRANCH  51  65
ATOM     65  C   UNL A   1      44.486  27.848  34.882  1.00  0.00    -0.014 A 
ATOM     66  C   UNL A   1      44.236  26.637  35.550  1.00  0.00     0.010 A 
ATOM     67  C   UNL A   1      45.817  28.285  34.735  1.00  0.00     0.010 A 
ATOM     68  C   UNL A   1      45.292  25.897  36.089  1.00  0.00     0.020 A 
ATOM     69  C   UNL A   1      46.876  27.532  35.244  1.00  0.00     0.020 A 
ATOM     70  C   UNL A   1      46.606  26.349  35.931  1.00  0.00     0.054 A 
BRANCH  70  71
ATOM     71  S   UNL A   1      47.958  25.352  36.614  1.00  0.00     0.124 S 
ATOM     72  O   UNL A   1      47.293  24.077  36.870  1.00  0.00    -0.237 OA
ATOM     73  O   UNL A   1      48.931  25.345  35.525  1.00  0.00    -0.237 OA
ATOM     74  O   UNL A   1      48.366  26.090  37.807  1.00  0.00    -0.744 OA
ENDBRANCH  70  71
ENDBRANCH  51  65
BRANCH  52  75
ATOM     75  C   UNL A   1      36.659  32.632  30.817  1.00  0.00    -0.014 A 
ATOM     76  C   UNL A   1      36.975  33.739  29.999  1.00  0.00     0.010 A 
ATOM     77  C   UNL A   1      35.304  32.301  30.983  1.00  0.00     0.010 A 
ATOM     78  C   UNL A   1      35.977  34.492  29.372  1.00  0.00     0.020 A 
ATOM     79  C   UNL A   1      34.300  33.029  30.331  1.00  0.00     0.020 A 
ATOM     80  C   UNL A   1      34.643  34.127  29.538  1.00  0.00     0.054 A 
BRANCH  80  81
ATOM     81  S   UNL A   1      33.366  35.090  28.681  1.00  0.00     0.124 S 
ATOM     82  O   UNL A   1      32.618  34.049  27.984  1.00  0.00    -0.237 OA
ATOM     83  O   UNL A   1      32.667  35.741  29.786  1.00  0.00    -0.237 OA
ATOM     84  O   UNL A   1      34.136  35.988  27.823  1.00  0.00    -0.744 OA
ENDBRANCH  80  81
ENDBRANCH  52  75
BRANCH  64  85
ATOM     85  C   UNL A   1      40.039  33.160  36.903  1.00  0.00    -0.014 A 
ATOM     86  C   UNL A   1      40.756  34.360  37.067  1.00  0.00     0.010 A 
ATOM     87  C   UNL A   1      39.058  32.815  37.852  1.00  0.00     0.010 A 
ATOM     88  C   UNL A   1      40.526  35.178  38.175  1.00  0.00     0.020 A 
ATOM     89  C   UNL A   1      38.802  33.648  38.945  1.00  0.00     0.020 A 
ATOM     90  C   UNL A   1      39.549  34.817  39.108  1.00  0.00     0.054 A 
BRANCH  90  91
ATOM     91  S   UNL A   1      39.242  35.918  40.516  1.00  0.00     0.124 S 
ATOM     92  O   UNL A   1      38.828  37.151  39.851  1.00  0.00    -0.237 OA
ATOM     93  O   UNL A   1      38.191  35.215  41.247  1.00  0.00    -0.237 OA
ATOM     94  O   UNL A   1      40.533  35.980  41.196  1.00  0.00    -0.744 OA
ENDBRANCH  90  91
ENDBRANCH  64  85
ENDBRANCH  38  39
ENDBRANCH  31  33
ENDBRANCH  30  31
ENDBRANCH  29  30
ENDBRANCH  28  29
ENDBRANCH  27  28
ENDBRANCH   1  27
TORSDOF 22
ENDMDL
