MODEL 1
REMARK VINA RESULT:      -7.9      0.000      0.000
REMARK SMILES COC(=O)[C@@H]1CCN(C(=O)NC(=O)COCC(=O)OCCOCCOCCOC(=O)c2ccc(-c3c4nc(c(-c5ccc(S(=O)(=O)[O-])cc5)c5ccc([nH]5)c(-c5ccc(S(=O)(=O)[O-])cc5)c5nc(c(-c6ccc(S(=O)(=O)[O-])cc6)c6ccc3[nH]6)C=C5)C=C4)cc2)C1
REMARK SMILES IDX 22 1 21 2 20 3 19 4 17 5 18 6 16 7 15 8 14 9 12 10 9 11
REMARK SMILES IDX 10 12 11 13 13 15 8 16 5 17 6 18 91 19 7 20 3 21 4 22 2 23
REMARK SMILES IDX 1 24 23 25 24 26 25 27 26 28 27 29 28 30 29 31 30 32 31 33
REMARK SMILES IDX 32 34 90 35 33 36 89 37 34 38 35 39 36 40 83 41 37 42 88 43
REMARK SMILES IDX 82 44 84 45 38 46 87 47 81 48 80 49 39 51 69 52 50 53 68 54
REMARK SMILES IDX 51 55 54 56 67 57 85 58 52 59 53 60 66 62 86 63 55 64 40 65
REMARK SMILES IDX 41 66 49 67 42 68 48 69 43 70 44 71 45 72 46 73 47 74 70 75
REMARK SMILES IDX 71 76 79 77 72 78 78 79 73 80 74 81 75 82 76 83 77 84 56 85
REMARK SMILES IDX 57 86 65 87 58 88 64 89 59 90 60 91 61 92 62 93 63 94
REMARK H PARENT 11 14 84 50 54 61
REMARK Flexibility Score: inf
ROOT
ATOM      1  O   UNL A   1      38.042  22.040  25.997  1.00  0.00    -0.376 OA
ENDROOT
BRANCH   1   2
ATOM      2  C   UNL A   1      37.522  23.316  25.645  1.00  0.00     0.202 C 
BRANCH   2   3
ATOM      3  C   UNL A   1      36.113  23.666  26.156  1.00  0.00     0.261 C 
BRANCH   3   4
ATOM      4  O   UNL A   1      35.284  22.547  26.539  1.00  0.00    -0.462 OA
BRANCH   4   5
ATOM      5  C   UNL A   1      34.066  22.873  27.066  1.00  0.00     0.332 C 
ATOM      6  O   UNL A   1      33.578  22.351  28.064  1.00  0.00    -0.250 OA
BRANCH   5   7
ATOM      7  C   UNL A   1      33.305  23.933  26.245  1.00  0.00     0.283 C 
BRANCH   7   8
ATOM      8  O   UNL A   1      32.558  23.566  25.095  1.00  0.00    -0.360 OA
BRANCH   8   9
ATOM      9  C   UNL A   1      33.359  23.308  23.960  1.00  0.00     0.261 C 
BRANCH   9  10
ATOM     10  C   UNL A   1      32.696  23.293  22.579  1.00  0.00     0.254 C 
ATOM     11  C   UNL A   1      32.708  25.593  21.918  1.00  0.00     0.324 C 
ATOM     12  O   UNL A   1      33.119  25.882  20.795  1.00  0.00    -0.248 OA
ATOM     13  N   UNL A   1      32.063  24.412  22.110  1.00  0.00    -0.276 N 
ATOM     14  H   UNL A   1      31.101  24.360  21.902  1.00  0.00     0.174 HD
ATOM     15  O   UNL A   1      32.650  22.256  21.913  1.00  0.00    -0.272 OA
BRANCH  11  16
ATOM     16  N   UNL A   1      32.772  26.472  22.960  1.00  0.00    -0.324 N 
ATOM     17  C   UNL A   1      32.036  27.652  24.882  1.00  0.00     0.120 C 
ATOM     18  C   UNL A   1      33.548  27.427  24.962  1.00  0.00     0.039 C 
ATOM     19  C   UNL A   1      31.581  26.747  23.750  1.00  0.00     0.136 C 
ATOM     20  C   UNL A   1      33.948  27.108  23.527  1.00  0.00     0.122 C 
BRANCH  17  21
ATOM     21  C   UNL A   1      31.649  29.095  24.644  1.00  0.00     0.310 C 
ATOM     22  O   UNL A   1      30.714  29.430  23.927  1.00  0.00    -0.252 OA
BRANCH  21  23
ATOM     23  O   UNL A   1      32.438  29.954  25.337  1.00  0.00    -0.469 OA
ATOM     24  C   UNL A   1      31.956  30.309  26.631  1.00  0.00     0.282 C 
ENDBRANCH  21  23
ENDBRANCH  17  21
ENDBRANCH  11  16
ENDBRANCH   9  10
ENDBRANCH   8   9
ENDBRANCH   7   8
ENDBRANCH   5   7
ENDBRANCH   4   5
ENDBRANCH   3   4
ENDBRANCH   2   3
ENDBRANCH   1   2
BRANCH   1  25
ATOM     25  C   UNL A   1      39.457  21.941  26.069  1.00  0.00     0.188 C 
BRANCH  25  26
ATOM     26  C   UNL A   1      40.031  20.558  26.376  1.00  0.00     0.188 C 
BRANCH  26  27
ATOM     27  O   UNL A   1      41.371  20.564  26.857  1.00  0.00    -0.376 OA
BRANCH  27  28
ATOM     28  C   UNL A   1      42.146  21.732  26.563  1.00  0.00     0.202 C 
BRANCH  28  29
ATOM     29  C   UNL A   1      43.535  21.532  25.918  1.00  0.00     0.261 C 
BRANCH  29  30
ATOM     30  O   UNL A   1      44.511  22.549  26.233  1.00  0.00    -0.460 OA
BRANCH  30  31
ATOM     31  C   UNL A   1      45.786  22.347  25.823  1.00  0.00     0.338 C 
ATOM     32  O   UNL A   1      46.215  21.352  25.260  1.00  0.00    -0.246 OA
BRANCH  31  33
ATOM     33  C   UNL A   1      46.507  23.647  25.892  1.00  0.00     0.060 A 
ATOM     34  C   UNL A   1      46.653  24.374  24.702  1.00  0.00     0.016 A 
ATOM     35  C   UNL A   1      46.947  24.198  27.097  1.00  0.00     0.016 A 
ATOM     36  C   UNL A   1      47.228  25.648  24.712  1.00  0.00     0.010 A 
ATOM     37  C   UNL A   1      47.551  25.463  27.104  1.00  0.00     0.010 A 
ATOM     38  C   UNL A   1      47.704  26.194  25.910  1.00  0.00    -0.014 A 
BRANCH  38  39
ATOM     39  C   UNL A   1      48.497  27.453  25.894  1.00  0.00     0.031 A 
ATOM     40  C   UNL A   1      47.897  28.689  26.507  1.00  0.00     0.074 A 
ATOM     41  C   UNL A   1      49.743  27.505  25.388  1.00  0.00     0.049 A 
ATOM     42  N   UNL A   1      48.357  29.913  26.528  1.00  0.00    -0.248 NA
ATOM     43  C   UNL A   1      46.609  28.514  27.197  1.00  0.00     0.031 C 
ATOM     44  C   UNL A   1      50.496  26.368  24.864  1.00  0.00     0.029 A 
ATOM     45  N   UNL A   1      50.599  28.572  25.240  1.00  0.00    -0.354 N 
ATOM     46  C   UNL A   1      47.413  30.659  27.223  1.00  0.00     0.074 A 
ATOM     47  C   UNL A   1      46.347  29.751  27.592  1.00  0.00     0.031 C 
ATOM     48  C   UNL A   1      51.704  26.798  24.453  1.00  0.00     0.029 A 
ATOM     49  C   UNL A   1      51.789  28.248  24.631  1.00  0.00     0.049 A 
ATOM     50  H   UNL A   1      50.381  29.482  25.542  1.00  0.00     0.167 HD
ATOM     51  C   UNL A   1      47.425  31.979  27.525  1.00  0.00     0.031 A 
ATOM     52  C   UNL A   1      52.813  29.031  24.229  1.00  0.00     0.031 A 
ATOM     53  C   UNL A   1      48.470  32.889  27.142  1.00  0.00     0.049 A 
ATOM     54  C   UNL A   1      52.736  30.524  24.436  1.00  0.00     0.074 A 
ATOM     55  C   UNL A   1      48.555  34.250  27.383  1.00  0.00     0.029 A 
ATOM     56  N   UNL A   1      49.604  32.539  26.428  1.00  0.00    -0.354 N 
ATOM     57  N   UNL A   1      51.821  31.224  25.064  1.00  0.00    -0.248 NA
ATOM     58  C   UNL A   1      53.820  31.334  23.861  1.00  0.00     0.031 C 
ATOM     59  C   UNL A   1      49.710  34.733  26.758  1.00  0.00     0.029 A 
ATOM     60  C   UNL A   1      50.375  33.663  26.181  1.00  0.00     0.049 A 
ATOM     61  H   UNL A   1      49.830  31.625  26.139  1.00  0.00     0.167 HD
ATOM     62  C   UNL A   1      52.226  32.553  24.969  1.00  0.00     0.074 A 
ATOM     63  C   UNL A   1      53.475  32.559  24.238  1.00  0.00     0.031 C 
ATOM     64  C   UNL A   1      51.613  33.666  25.441  1.00  0.00     0.031 A 
BRANCH  51  65
ATOM     65  C   UNL A   1      46.227  32.526  28.252  1.00  0.00    -0.014 A 
ATOM     66  C   UNL A   1      45.115  33.036  27.557  1.00  0.00     0.010 A 
ATOM     67  C   UNL A   1      46.216  32.526  29.658  1.00  0.00     0.010 A 
ATOM     68  C   UNL A   1      44.038  33.584  28.257  1.00  0.00     0.020 A 
ATOM     69  C   UNL A   1      45.129  33.050  30.362  1.00  0.00     0.020 A 
ATOM     70  C   UNL A   1      44.056  33.597  29.655  1.00  0.00     0.054 A 
BRANCH  70  71
ATOM     71  S   UNL A   1      42.656  34.334  30.540  1.00  0.00     0.124 S 
ATOM     72  O   UNL A   1      41.564  34.138  29.589  1.00  0.00    -0.237 OA
ATOM     73  O   UNL A   1      42.582  33.527  31.755  1.00  0.00    -0.237 OA
ATOM     74  O   UNL A   1      43.063  35.723  30.740  1.00  0.00    -0.744 OA
ENDBRANCH  70  71
ENDBRANCH  51  65
BRANCH  52  75
ATOM     75  C   UNL A   1      53.981  28.429  23.523  1.00  0.00    -0.014 A 
ATOM     76  C   UNL A   1      53.946  28.199  22.136  1.00  0.00     0.010 A 
ATOM     77  C   UNL A   1      55.135  28.070  24.245  1.00  0.00     0.010 A 
ATOM     78  C   UNL A   1      55.043  27.621  21.486  1.00  0.00     0.020 A 
ATOM     79  C   UNL A   1      56.243  27.518  23.594  1.00  0.00     0.020 A 
ATOM     80  C   UNL A   1      56.186  27.291  22.218  1.00  0.00     0.054 A 
BRANCH  80  81
ATOM     81  S   UNL A   1      57.621  26.601  21.345  1.00  0.00     0.124 S 
ATOM     82  O   UNL A   1      58.197  25.719  22.355  1.00  0.00    -0.237 OA
ATOM     83  O   UNL A   1      57.003  25.935  20.201  1.00  0.00    -0.237 OA
ATOM     84  O   UNL A   1      58.419  27.780  21.015  1.00  0.00    -0.744 OA
ENDBRANCH  80  81
ENDBRANCH  52  75
BRANCH  64  85
ATOM     85  C   UNL A   1      52.274  34.997  25.192  1.00  0.00    -0.014 A 
ATOM     86  C   UNL A   1      53.178  35.540  26.123  1.00  0.00     0.010 A 
ATOM     87  C   UNL A   1      52.063  35.668  23.973  1.00  0.00     0.010 A 
ATOM     88  C   UNL A   1      53.851  36.734  25.844  1.00  0.00     0.020 A 
ATOM     89  C   UNL A   1      52.752  36.849  23.680  1.00  0.00     0.020 A 
ATOM     90  C   UNL A   1      53.639  37.378  24.620  1.00  0.00     0.054 A 
BRANCH  90  91
ATOM     91  S   UNL A   1      54.584  38.882  24.252  1.00  0.00     0.124 S 
ATOM     92  O   UNL A   1      55.930  38.512  24.682  1.00  0.00    -0.237 OA
ATOM     93  O   UNL A   1      54.403  39.028  22.809  1.00  0.00    -0.237 OA
ATOM     94  O   UNL A   1      53.932  39.910  25.062  1.00  0.00    -0.744 OA
ENDBRANCH  90  91
ENDBRANCH  64  85
ENDBRANCH  38  39
ENDBRANCH  31  33
ENDBRANCH  30  31
ENDBRANCH  29  30
ENDBRANCH  28  29
ENDBRANCH  27  28
ENDBRANCH  26  27
ENDBRANCH  25  26
ENDBRANCH   1  25
TORSDOF 26
ENDMDL
MODEL 2
REMARK VINA RESULT:      -7.9      8.130     12.449
REMARK SMILES COC(=O)[C@@H]1CCN(C(=O)NC(=O)COCC(=O)OCCOCCOCCOC(=O)c2ccc(-c3c4nc(c(-c5ccc(S(=O)(=O)[O-])cc5)c5ccc([nH]5)c(-c5ccc(S(=O)(=O)[O-])cc5)c5nc(c(-c6ccc(S(=O)(=O)[O-])cc6)c6ccc3[nH]6)C=C5)C=C4)cc2)C1
REMARK SMILES IDX 22 1 21 2 20 3 19 4 17 5 18 6 16 7 15 8 14 9 12 10 9 11
REMARK SMILES IDX 10 12 11 13 13 15 8 16 5 17 6 18 91 19 7 20 3 21 4 22 2 23
REMARK SMILES IDX 1 24 23 25 24 26 25 27 26 28 27 29 28 30 29 31 30 32 31 33
REMARK SMILES IDX 32 34 90 35 33 36 89 37 34 38 35 39 36 40 83 41 37 42 88 43
REMARK SMILES IDX 82 44 84 45 38 46 87 47 81 48 80 49 39 51 69 52 50 53 68 54
REMARK SMILES IDX 51 55 54 56 67 57 85 58 52 59 53 60 66 62 86 63 55 64 40 65
REMARK SMILES IDX 41 66 49 67 42 68 48 69 43 70 44 71 45 72 46 73 47 74 70 75
REMARK SMILES IDX 71 76 79 77 72 78 78 79 73 80 74 81 75 82 76 83 77 84 56 85
REMARK SMILES IDX 57 86 65 87 58 88 64 89 59 90 60 91 61 92 62 93 63 94
REMARK H PARENT 11 14 84 50 54 61
REMARK Flexibility Score: inf
ROOT
ATOM      1  O   UNL A   1      38.457  21.166  25.734  1.00  0.00    -0.376 OA
ENDROOT
BRANCH   1   2
ATOM      2  C   UNL A   1      37.630  22.302  25.514  1.00  0.00     0.202 C 
BRANCH   2   3
ATOM      3  C   UNL A   1      36.113  22.062  25.429  1.00  0.00     0.261 C 
BRANCH   3   4
ATOM      4  O   UNL A   1      35.700  20.882  24.706  1.00  0.00    -0.462 OA
BRANCH   4   5
ATOM      5  C   UNL A   1      34.427  20.453  24.960  1.00  0.00     0.332 C 
ATOM      6  O   UNL A   1      33.985  19.356  24.633  1.00  0.00    -0.250 OA
BRANCH   5   7
ATOM      7  C   UNL A   1      33.548  21.513  25.654  1.00  0.00     0.283 C 
BRANCH   7   8
ATOM      8  O   UNL A   1      32.182  21.671  25.302  1.00  0.00    -0.360 OA
BRANCH   8   9
ATOM      9  C   UNL A   1      31.916  22.865  24.595  1.00  0.00     0.261 C 
BRANCH   9  10
ATOM     10  C   UNL A   1      32.107  22.878  23.075  1.00  0.00     0.254 C 
ATOM     11  C   UNL A   1      32.595  25.169  22.584  1.00  0.00     0.324 C 
ATOM     12  O   UNL A   1      33.564  25.426  21.870  1.00  0.00    -0.248 OA
ATOM     13  N   UNL A   1      31.889  24.029  22.366  1.00  0.00    -0.276 N 
ATOM     14  H   UNL A   1      31.192  24.030  21.670  1.00  0.00     0.174 HD
ATOM     15  O   UNL A   1      32.375  21.842  22.464  1.00  0.00    -0.272 OA
BRANCH  11  16
ATOM     16  N   UNL A   1      32.130  26.050  23.516  1.00  0.00    -0.324 N 
ATOM     17  C   UNL A   1      32.220  27.788  25.129  1.00  0.00     0.120 C 
ATOM     18  C   UNL A   1      30.876  27.830  24.399  1.00  0.00     0.039 C 
ATOM     19  C   UNL A   1      33.069  26.842  24.298  1.00  0.00     0.136 C 
ATOM     20  C   UNL A   1      30.756  26.449  23.767  1.00  0.00     0.122 C 
BRANCH  17  21
ATOM     21  C   UNL A   1      32.115  27.338  26.570  1.00  0.00     0.310 C 
ATOM     22  O   UNL A   1      31.439  26.381  26.926  1.00  0.00    -0.252 OA
BRANCH  21  23
ATOM     23  O   UNL A   1      32.873  28.101  27.397  1.00  0.00    -0.469 OA
ATOM     24  C   UNL A   1      33.002  29.467  27.011  1.00  0.00     0.282 C 
ENDBRANCH  21  23
ENDBRANCH  17  21
ENDBRANCH  11  16
ENDBRANCH   9  10
ENDBRANCH   8   9
ENDBRANCH   7   8
ENDBRANCH   5   7
ENDBRANCH   4   5
ENDBRANCH   3   4
ENDBRANCH   2   3
ENDBRANCH   1   2
BRANCH   1  25
ATOM     25  C   UNL A   1      39.797  21.435  26.120  1.00  0.00     0.188 C 
BRANCH  25  26
ATOM     26  C   UNL A   1      40.749  20.240  26.163  1.00  0.00     0.188 C 
BRANCH  26  27
ATOM     27  O   UNL A   1      42.070  20.548  26.593  1.00  0.00    -0.376 OA
BRANCH  27  28
ATOM     28  C   UNL A   1      42.221  21.731  27.386  1.00  0.00     0.202 C 
BRANCH  28  29
ATOM     29  C   UNL A   1      43.125  22.856  26.838  1.00  0.00     0.261 C 
BRANCH  29  30
ATOM     30  O   UNL A   1      43.256  24.012  27.696  1.00  0.00    -0.460 OA
BRANCH  30  31
ATOM     31  C   UNL A   1      43.902  25.093  27.200  1.00  0.00     0.338 C 
ATOM     32  O   UNL A   1      44.377  25.202  26.080  1.00  0.00    -0.246 OA
BRANCH  31  33
ATOM     33  C   UNL A   1      43.672  26.236  28.125  1.00  0.00     0.060 A 
ATOM     34  C   UNL A   1      43.106  25.957  29.377  1.00  0.00     0.016 A 
ATOM     35  C   UNL A   1      44.084  27.537  27.828  1.00  0.00     0.016 A 
ATOM     36  C   UNL A   1      42.958  26.966  30.333  1.00  0.00     0.010 A 
ATOM     37  C   UNL A   1      43.908  28.556  28.775  1.00  0.00     0.010 A 
ATOM     38  C   UNL A   1      43.336  28.280  30.031  1.00  0.00    -0.014 A 
BRANCH  38  39
ATOM     39  C   UNL A   1      42.993  29.388  30.962  1.00  0.00     0.031 A 
ATOM     40  C   UNL A   1      43.937  29.697  32.092  1.00  0.00     0.074 A 
ATOM     41  C   UNL A   1      41.891  30.144  30.798  1.00  0.00     0.049 A 
ATOM     42  N   UNL A   1      43.806  30.548  33.075  1.00  0.00    -0.248 NA
ATOM     43  C   UNL A   1      45.204  28.949  32.104  1.00  0.00     0.031 C 
ATOM     44  C   UNL A   1      40.945  30.037  29.689  1.00  0.00     0.029 A 
ATOM     45  N   UNL A   1      41.388  31.163  31.572  1.00  0.00    -0.354 N 
ATOM     46  C   UNL A   1      44.966  30.434  33.831  1.00  0.00     0.074 A 
ATOM     47  C   UNL A   1      45.782  29.418  33.200  1.00  0.00     0.031 C 
ATOM     48  C   UNL A   1      39.976  30.956  29.855  1.00  0.00     0.029 A 
ATOM     49  C   UNL A   1      40.199  31.677  31.108  1.00  0.00     0.049 A 
ATOM     50  H   UNL A   1      41.836  31.495  32.383  1.00  0.00     0.167 HD
ATOM     51  C   UNL A   1      45.322  31.107  34.952  1.00  0.00     0.031 A 
ATOM     52  C   UNL A   1      39.368  32.595  31.646  1.00  0.00     0.031 A 
ATOM     53  C   UNL A   1      44.506  32.100  35.596  1.00  0.00     0.049 A 
ATOM     54  C   UNL A   1      39.710  33.221  32.977  1.00  0.00     0.074 A 
ATOM     55  C   UNL A   1      44.775  32.816  36.749  1.00  0.00     0.029 A 
ATOM     56  N   UNL A   1      43.258  32.510  35.153  1.00  0.00    -0.354 N 
ATOM     57  N   UNL A   1      40.794  33.078  33.702  1.00  0.00    -0.248 NA
ATOM     58  C   UNL A   1      38.704  34.114  33.573  1.00  0.00     0.031 C 
ATOM     59  C   UNL A   1      43.661  33.613  37.039  1.00  0.00     0.029 A 
ATOM     60  C   UNL A   1      42.725  33.438  36.032  1.00  0.00     0.049 A 
ATOM     61  H   UNL A   1      42.816  32.190  34.333  1.00  0.00     0.167 HD
ATOM     62  C   UNL A   1      40.605  33.872  34.830  1.00  0.00     0.074 A 
ATOM     63  C   UNL A   1      39.311  34.504  34.686  1.00  0.00     0.031 C 
ATOM     64  C   UNL A   1      41.430  34.055  35.891  1.00  0.00     0.031 A 
BRANCH  51  65
ATOM     65  C   UNL A   1      46.631  30.730  35.589  1.00  0.00    -0.014 A 
ATOM     66  C   UNL A   1      46.681  30.025  36.805  1.00  0.00     0.010 A 
ATOM     67  C   UNL A   1      47.834  31.089  34.955  1.00  0.00     0.010 A 
ATOM     68  C   UNL A   1      47.911  29.733  37.400  1.00  0.00     0.020 A 
ATOM     69  C   UNL A   1      49.066  30.776  35.533  1.00  0.00     0.020 A 
ATOM     70  C   UNL A   1      49.096  30.119  36.765  1.00  0.00     0.054 A 
BRANCH  70  71
ATOM     71  S   UNL A   1      50.678  29.748  37.569  1.00  0.00     0.124 S 
ATOM     72  O   UNL A   1      51.382  29.014  36.520  1.00  0.00    -0.237 OA
ATOM     73  O   UNL A   1      51.206  31.076  37.868  1.00  0.00    -0.237 OA
ATOM     74  O   UNL A   1      50.298  28.953  38.735  1.00  0.00    -0.744 OA
ENDBRANCH  70  71
ENDBRANCH  51  65
BRANCH  52  75
ATOM     75  C   UNL A   1      38.089  32.937  30.961  1.00  0.00    -0.014 A 
ATOM     76  C   UNL A   1      36.907  32.229  31.245  1.00  0.00     0.010 A 
ATOM     77  C   UNL A   1      38.051  33.972  30.008  1.00  0.00     0.010 A 
ATOM     78  C   UNL A   1      35.714  32.548  30.586  1.00  0.00     0.020 A 
ATOM     79  C   UNL A   1      36.854  34.312  29.369  1.00  0.00     0.020 A 
ATOM     80  C   UNL A   1      35.694  33.592  29.657  1.00  0.00     0.054 A 
BRANCH  80  81
ATOM     81  S   UNL A   1      34.123  34.033  28.862  1.00  0.00     0.124 S 
ATOM     82  O   UNL A   1      34.545  35.037  27.890  1.00  0.00    -0.237 OA
ATOM     83  O   UNL A   1      33.685  32.757  28.303  1.00  0.00    -0.237 OA
ATOM     84  O   UNL A   1      33.308  34.534  29.967  1.00  0.00    -0.744 OA
ENDBRANCH  80  81
ENDBRANCH  52  75
BRANCH  64  85
ATOM     85  C   UNL A   1      40.972  34.977  36.992  1.00  0.00    -0.014 A 
ATOM     86  C   UNL A   1      41.615  36.207  37.219  1.00  0.00     0.010 A 
ATOM     87  C   UNL A   1      39.828  34.655  37.746  1.00  0.00     0.010 A 
ATOM     88  C   UNL A   1      41.130  37.093  38.185  1.00  0.00     0.020 A 
ATOM     89  C   UNL A   1      39.325  35.549  38.697  1.00  0.00     0.020 A 
ATOM     90  C   UNL A   1      39.983  36.761  38.915  1.00  0.00     0.054 A 
BRANCH  90  91
ATOM     91  S   UNL A   1      39.330  37.963  40.107  1.00  0.00     0.124 S 
ATOM     92  O   UNL A   1      39.219  37.160  41.321  1.00  0.00    -0.237 OA
ATOM     93  O   UNL A   1      40.367  38.992  40.126  1.00  0.00    -0.237 OA
ATOM     94  O   UNL A   1      38.058  38.381  39.519  1.00  0.00    -0.744 OA
ENDBRANCH  90  91
ENDBRANCH  64  85
ENDBRANCH  38  39
ENDBRANCH  31  33
ENDBRANCH  30  31
ENDBRANCH  29  30
ENDBRANCH  28  29
ENDBRANCH  27  28
ENDBRANCH  26  27
ENDBRANCH  25  26
ENDBRANCH   1  25
TORSDOF 26
ENDMDL
MODEL 3
REMARK VINA RESULT:      -7.6      9.268     15.586
REMARK SMILES COC(=O)[C@@H]1CCN(C(=O)NC(=O)COCC(=O)OCCOCCOCCOC(=O)c2ccc(-c3c4nc(c(-c5ccc(S(=O)(=O)[O-])cc5)c5ccc([nH]5)c(-c5ccc(S(=O)(=O)[O-])cc5)c5nc(c(-c6ccc(S(=O)(=O)[O-])cc6)c6ccc3[nH]6)C=C5)C=C4)cc2)C1
REMARK SMILES IDX 22 1 21 2 20 3 19 4 17 5 18 6 16 7 15 8 14 9 12 10 9 11
REMARK SMILES IDX 10 12 11 13 13 15 8 16 5 17 6 18 91 19 7 20 3 21 4 22 2 23
REMARK SMILES IDX 1 24 23 25 24 26 25 27 26 28 27 29 28 30 29 31 30 32 31 33
REMARK SMILES IDX 32 34 90 35 33 36 89 37 34 38 35 39 36 40 83 41 37 42 88 43
REMARK SMILES IDX 82 44 84 45 38 46 87 47 81 48 80 49 39 51 69 52 50 53 68 54
REMARK SMILES IDX 51 55 54 56 67 57 85 58 52 59 53 60 66 62 86 63 55 64 40 65
REMARK SMILES IDX 41 66 49 67 42 68 48 69 43 70 44 71 45 72 46 73 47 74 70 75
REMARK SMILES IDX 71 76 79 77 72 78 78 79 73 80 74 81 75 82 76 83 77 84 56 85
REMARK SMILES IDX 57 86 65 87 58 88 64 89 59 90 60 91 61 92 62 93 63 94
REMARK H PARENT 11 14 84 50 54 61
REMARK Flexibility Score: inf
ROOT
ATOM      1  O   UNL A   1      38.347  24.127  26.940  1.00  0.00    -0.376 OA
ENDROOT
BRANCH   1   2
ATOM      2  C   UNL A   1      37.733  23.393  25.887  1.00  0.00     0.202 C 
BRANCH   2   3
ATOM      3  C   UNL A   1      36.197  23.419  25.815  1.00  0.00     0.261 C 
BRANCH   3   4
ATOM      4  O   UNL A   1      35.517  22.303  26.428  1.00  0.00    -0.462 OA
BRANCH   4   5
ATOM      5  C   UNL A   1      34.820  21.496  25.571  1.00  0.00     0.332 C 
ATOM      6  O   UNL A   1      35.334  20.785  24.714  1.00  0.00    -0.250 OA
BRANCH   5   7
ATOM      7  C   UNL A   1      33.290  21.605  25.732  1.00  0.00     0.283 C 
BRANCH   7   8
ATOM      8  O   UNL A   1      32.566  22.659  25.116  1.00  0.00    -0.360 OA
BRANCH   8   9
ATOM      9  C   UNL A   1      31.201  22.693  25.478  1.00  0.00     0.261 C 
BRANCH   9  10
ATOM     10  C   UNL A   1      30.797  23.432  26.758  1.00  0.00     0.254 C 
ATOM     11  C   UNL A   1      31.177  25.735  26.228  1.00  0.00     0.324 C 
ATOM     12  O   UNL A   1      30.289  26.551  26.472  1.00  0.00    -0.248 OA
ATOM     13  N   UNL A   1      31.336  24.658  27.042  1.00  0.00    -0.276 N 
ATOM     14  H   UNL A   1      31.861  24.764  27.869  1.00  0.00     0.174 HD
ATOM     15  O   UNL A   1      30.053  22.901  27.585  1.00  0.00    -0.272 OA
BRANCH  11  16
ATOM     16  N   UNL A   1      32.088  25.934  25.233  1.00  0.00    -0.324 N 
ATOM     17  C   UNL A   1      32.898  26.563  23.093  1.00  0.00     0.120 C 
ATOM     18  C   UNL A   1      33.973  26.827  24.150  1.00  0.00     0.039 C 
ATOM     19  C   UNL A   1      31.637  26.300  23.898  1.00  0.00     0.136 C 
ATOM     20  C   UNL A   1      33.537  25.980  25.338  1.00  0.00     0.122 C 
BRANCH  17  21
ATOM     21  C   UNL A   1      33.227  25.415  22.164  1.00  0.00     0.310 C 
ATOM     22  O   UNL A   1      34.253  24.751  22.255  1.00  0.00    -0.252 OA
BRANCH  21  23
ATOM     23  O   UNL A   1      32.246  25.202  21.251  1.00  0.00    -0.469 OA
ATOM     24  C   UNL A   1      32.569  25.583  19.916  1.00  0.00     0.282 C 
ENDBRANCH  21  23
ENDBRANCH  17  21
ENDBRANCH  11  16
ENDBRANCH   9  10
ENDBRANCH   8   9
ENDBRANCH   7   8
ENDBRANCH   5   7
ENDBRANCH   4   5
ENDBRANCH   3   4
ENDBRANCH   2   3
ENDBRANCH   1   2
BRANCH   1  25
ATOM     25  C   UNL A   1      39.558  24.792  26.614  1.00  0.00     0.188 C 
BRANCH  25  26
ATOM     26  C   UNL A   1      40.173  25.667  27.706  1.00  0.00     0.188 C 
BRANCH  26  27
ATOM     27  O   UNL A   1      39.461  26.869  27.976  1.00  0.00    -0.376 OA
BRANCH  27  28
ATOM     28  C   UNL A   1      39.370  27.259  29.351  1.00  0.00     0.202 C 
BRANCH  28  29
ATOM     29  C   UNL A   1      38.533  28.510  29.693  1.00  0.00     0.261 C 
BRANCH  29  30
ATOM     30  O   UNL A   1      38.179  28.651  31.086  1.00  0.00    -0.460 OA
BRANCH  30  31
ATOM     31  C   UNL A   1      37.188  29.520  31.399  1.00  0.00     0.338 C 
ATOM     32  O   UNL A   1      36.006  29.400  31.119  1.00  0.00    -0.246 OA
BRANCH  31  33
ATOM     33  C   UNL A   1      37.717  30.487  32.399  1.00  0.00     0.060 A 
ATOM     34  C   UNL A   1      38.890  30.139  33.083  1.00  0.00     0.016 A 
ATOM     35  C   UNL A   1      37.147  31.746  32.600  1.00  0.00     0.016 A 
ATOM     36  C   UNL A   1      39.499  31.043  33.959  1.00  0.00     0.010 A 
ATOM     37  C   UNL A   1      37.739  32.641  33.501  1.00  0.00     0.010 A 
ATOM     38  C   UNL A   1      38.914  32.294  34.194  1.00  0.00    -0.014 A 
BRANCH  38  39
ATOM     39  C   UNL A   1      39.441  33.173  35.273  1.00  0.00     0.031 A 
ATOM     40  C   UNL A   1      40.495  34.189  34.923  1.00  0.00     0.074 A 
ATOM     41  C   UNL A   1      38.973  33.114  36.534  1.00  0.00     0.049 A 
ATOM     42  N   UNL A   1      41.164  34.994  35.706  1.00  0.00    -0.248 NA
ATOM     43  C   UNL A   1      40.828  34.316  33.496  1.00  0.00     0.031 C 
ATOM     44  C   UNL A   1      37.879  32.263  36.995  1.00  0.00     0.029 A 
ATOM     45  N   UNL A   1      39.365  33.799  37.660  1.00  0.00    -0.354 N 
ATOM     46  C   UNL A   1      42.006  35.719  34.871  1.00  0.00     0.074 A 
ATOM     47  C   UNL A   1      41.773  35.244  33.523  1.00  0.00     0.031 C 
ATOM     48  C   UNL A   1      37.686  32.477  38.310  1.00  0.00     0.029 A 
ATOM     49  C   UNL A   1      38.679  33.436  38.796  1.00  0.00     0.049 A 
ATOM     50  H   UNL A   1      40.070  34.484  37.655  1.00  0.00     0.167 HD
ATOM     51  C   UNL A   1      42.896  36.688  35.193  1.00  0.00     0.031 A 
ATOM     52  C   UNL A   1      38.851  33.805  40.083  1.00  0.00     0.031 A 
ATOM     53  C   UNL A   1      43.147  37.147  36.531  1.00  0.00     0.049 A 
ATOM     54  C   UNL A   1      39.954  34.771  40.441  1.00  0.00     0.074 A 
ATOM     55  C   UNL A   1      44.050  38.108  36.955  1.00  0.00     0.029 A 
ATOM     56  N   UNL A   1      42.508  36.672  37.666  1.00  0.00    -0.354 N 
ATOM     57  N   UNL A   1      40.769  35.424  39.646  1.00  0.00    -0.248 NA
ATOM     58  C   UNL A   1      40.176  35.032  41.871  1.00  0.00     0.031 C 
ATOM     59  C   UNL A   1      44.001  38.168  38.352  1.00  0.00     0.029 A 
ATOM     60  C   UNL A   1      43.024  37.288  38.793  1.00  0.00     0.049 A 
ATOM     61  H   UNL A   1      41.791  35.997  37.670  1.00  0.00     0.167 HD
ATOM     62  C   UNL A   1      41.589  36.181  40.479  1.00  0.00     0.074 A 
ATOM     63  C   UNL A   1      41.164  35.918  41.838  1.00  0.00     0.031 C 
ATOM     64  C   UNL A   1      42.606  37.014  40.146  1.00  0.00     0.031 A 
BRANCH  51  65
ATOM     65  C   UNL A   1      43.715  37.264  34.070  1.00  0.00    -0.014 A 
ATOM     66  C   UNL A   1      43.318  38.433  33.396  1.00  0.00     0.010 A 
ATOM     67  C   UNL A   1      44.905  36.620  33.685  1.00  0.00     0.010 A 
ATOM     68  C   UNL A   1      44.071  38.917  32.323  1.00  0.00     0.020 A 
ATOM     69  C   UNL A   1      45.674  37.116  32.630  1.00  0.00     0.020 A 
ATOM     70  C   UNL A   1      45.239  38.250  31.941  1.00  0.00     0.054 A 
BRANCH  70  71
ATOM     71  S   UNL A   1      46.186  38.886  30.532  1.00  0.00     0.124 S 
ATOM     72  O   UNL A   1      46.292  37.702  29.683  1.00  0.00    -0.237 OA
ATOM     73  O   UNL A   1      45.326  39.950  30.021  1.00  0.00    -0.237 OA
ATOM     74  O   UNL A   1      47.441  39.335  31.130  1.00  0.00    -0.744 OA
ENDBRANCH  70  71
ENDBRANCH  51  65
BRANCH  52  75
ATOM     75  C   UNL A   1      38.000  33.208  41.152  1.00  0.00    -0.014 A 
ATOM     76  C   UNL A   1      38.305  31.949  41.699  1.00  0.00     0.010 A 
ATOM     77  C   UNL A   1      36.865  33.898  41.621  1.00  0.00     0.010 A 
ATOM     78  C   UNL A   1      37.491  31.391  42.692  1.00  0.00     0.020 A 
ATOM     79  C   UNL A   1      36.067  33.356  42.633  1.00  0.00     0.020 A 
ATOM     80  C   UNL A   1      36.381  32.102  43.157  1.00  0.00     0.054 A 
BRANCH  80  81
ATOM     81  S   UNL A   1      35.377  31.389  44.490  1.00  0.00     0.124 S 
ATOM     82  O   UNL A   1      35.393  32.456  45.487  1.00  0.00    -0.237 OA
ATOM     83  O   UNL A   1      34.094  31.160  43.830  1.00  0.00    -0.237 OA
ATOM     84  O   UNL A   1      36.106  30.177  44.859  1.00  0.00    -0.744 OA
ENDBRANCH  80  81
ENDBRANCH  52  75
BRANCH  64  85
ATOM     85  C   UNL A   1      43.341  37.714  41.260  1.00  0.00    -0.014 A 
ATOM     86  C   UNL A   1      42.877  38.938  41.773  1.00  0.00     0.010 A 
ATOM     87  C   UNL A   1      44.452  37.097  41.864  1.00  0.00     0.010 A 
ATOM     88  C   UNL A   1      43.516  39.537  42.863  1.00  0.00     0.020 A 
ATOM     89  C   UNL A   1      45.079  37.680  42.969  1.00  0.00     0.020 A 
ATOM     90  C   UNL A   1      44.610  38.901  43.460  1.00  0.00     0.054 A 
BRANCH  90  91
ATOM     91  S   UNL A   1      45.371  39.661  44.921  1.00  0.00     0.124 S 
ATOM     92  O   UNL A   1      46.630  38.928  45.026  1.00  0.00    -0.237 OA
ATOM     93  O   UNL A   1      45.491  41.063  44.527  1.00  0.00    -0.237 OA
ATOM     94  O   UNL A   1      44.408  39.401  45.990  1.00  0.00    -0.744 OA
ENDBRANCH  90  91
ENDBRANCH  64  85
ENDBRANCH  38  39
ENDBRANCH  31  33
ENDBRANCH  30  31
ENDBRANCH  29  30
ENDBRANCH  28  29
ENDBRANCH  27  28
ENDBRANCH  26  27
ENDBRANCH  25  26
ENDBRANCH   1  25
TORSDOF 26
ENDMDL
