MODEL 1
REMARK VINA RESULT:      -9.7      0.000      0.000
REMARK SMILES CC[C@H](C)[C@H](NC(=O)[C@H](C(C)C)n1c(=O)[nH]c2ccccc2c1=O)C(=O)OCCOCCOCCOC(=O)c1ccc(-c2c3nc(c(-c4ccc(S(=O)(=O)[O-])cc4)c4ccc([nH]4)c(-c4ccc(S(=O)(=O)[O-])cc4)c4nc(c(-c5ccc(S(=O)(=O)[O-])cc5)c5ccc2[nH]5)C=C4)C=C3)cc1
REMARK SMILES IDX 31 1 30 2 29 3 28 4 27 5 25 6 26 7 5 8 3 9 4 10 2 11 1 12
REMARK SMILES IDX 6 13 7 14 8 16 9 17 13 18 14 19 23 20 15 21 16 22 22 23
REMARK SMILES IDX 24 24 17 25 21 27 18 28 20 29 19 30 10 31 11 32 12 33 32 34
REMARK SMILES IDX 33 35 34 36 35 37 36 38 37 39 38 40 39 41 40 42 98 43 41 44
REMARK SMILES IDX 97 45 42 46 43 47 44 48 91 49 45 50 96 51 90 52 92 53 46 54
REMARK SMILES IDX 95 55 89 56 88 57 47 59 77 60 58 61 76 62 59 63 62 64 75 65
REMARK SMILES IDX 93 66 60 67 61 68 74 70 94 71 63 72 48 73 49 74 57 75 50 76
REMARK SMILES IDX 56 77 51 78 52 79 53 80 54 81 55 82 78 83 79 84 87 85 80 86
REMARK SMILES IDX 86 87 81 88 82 89 83 90 84 91 85 92 64 93 65 94 73 95 66 96
REMARK SMILES IDX 72 97 67 98 68 99 69 100 70 101 71 102
REMARK H PARENT 6 15 16 26 92 58 62 69
REMARK Flexibility Score: inf
ROOT
ATOM      1  C   UNL A   1      34.371  30.649  27.709  1.00  0.00     0.188 C 
ENDROOT
BRANCH   1   2
ATOM      2  O   UNL A   1      33.283  30.524  26.795  1.00  0.00    -0.376 OA
BRANCH   2   3
ATOM      3  C   UNL A   1      33.414  29.555  25.764  1.00  0.00     0.202 C 
BRANCH   3   4
ATOM      4  C   UNL A   1      32.170  28.704  25.501  1.00  0.00     0.261 C 
BRANCH   4   5
ATOM      5  O   UNL A   1      32.188  28.000  24.239  1.00  0.00    -0.462 OA
BRANCH   5   6
ATOM      6  C   UNL A   1      32.794  26.778  24.287  1.00  0.00     0.328 C 
ATOM      7  O   UNL A   1      33.971  26.603  24.588  1.00  0.00    -0.250 OA
BRANCH   6   8
ATOM      8  C   UNL A   1      31.923  25.630  23.735  1.00  0.00     0.195 C 
BRANCH   8   9
ATOM      9  C   UNL A   1      31.072  25.141  24.957  1.00  0.00     0.019 C 
ATOM     10  C   UNL A   1      31.871  25.147  26.260  1.00  0.00     0.010 C 
BRANCH   9  11
ATOM     11  C   UNL A   1      29.673  25.792  25.121  1.00  0.00     0.002 C 
ATOM     12  C   UNL A   1      28.975  26.300  23.869  1.00  0.00     0.004 C 
ENDBRANCH   9  11
ENDBRANCH   8   9
BRANCH   8  13
ATOM     13  N   UNL A   1      32.534  24.512  22.997  1.00  0.00    -0.341 N 
ATOM     14  C   UNL A   1      33.532  23.600  23.165  1.00  0.00     0.244 C 
ATOM     15  H   UNL A   1      32.091  24.387  22.126  1.00  0.00     0.164 HD
ATOM     16  O   UNL A   1      33.734  22.953  22.127  1.00  0.00    -0.273 OA
BRANCH  14  17
ATOM     17  C   UNL A   1      34.268  23.216  24.500  1.00  0.00     0.187 C 
BRANCH  17  18
ATOM     18  N   UNL A   1      34.081  21.748  24.907  1.00  0.00    -0.247 N 
ATOM     19  C   UNL A   1      33.132  21.424  25.839  1.00  0.00     0.329 A 
ATOM     20  C   UNL A   1      34.952  20.691  24.711  1.00  0.00     0.264 A 
ATOM     21  O   UNL A   1      33.056  21.897  26.967  1.00  0.00    -0.248 OA
ATOM     22  N   UNL A   1      32.324  20.377  25.503  1.00  0.00    -0.307 N 
ATOM     23  C   UNL A   1      34.274  19.329  24.657  1.00  0.00     0.064 A 
ATOM     24  O   UNL A   1      36.172  20.775  24.633  1.00  0.00    -0.268 OA
ATOM     25  C   UNL A   1      32.894  19.278  24.889  1.00  0.00     0.055 A 
ATOM     26  H   UNL A   1      31.358  20.404  25.694  1.00  0.00     0.171 HD
ATOM     27  C   UNL A   1      34.942  18.124  24.462  1.00  0.00     0.016 A 
ATOM     28  C   UNL A   1      32.146  18.107  24.774  1.00  0.00     0.027 A 
ATOM     29  C   UNL A   1      34.213  16.920  24.428  1.00  0.00     0.001 A 
ATOM     30  C   UNL A   1      32.817  16.915  24.540  1.00  0.00     0.002 A 
ENDBRANCH  17  18
BRANCH  17  31
ATOM     31  C   UNL A   1      35.623  23.876  24.923  1.00  0.00     0.016 C 
ATOM     32  C   UNL A   1      36.069  23.702  26.366  1.00  0.00     0.010 C 
ATOM     33  C   UNL A   1      36.794  23.531  23.968  1.00  0.00     0.010 C 
ENDBRANCH  17  31
ENDBRANCH  14  17
ENDBRANCH   8  13
ENDBRANCH   6   8
ENDBRANCH   5   6
ENDBRANCH   4   5
ENDBRANCH   3   4
ENDBRANCH   2   3
ENDBRANCH   1   2
BRANCH   1  34
ATOM     34  C   UNL A   1      34.763  32.071  28.112  1.00  0.00     0.188 C 
BRANCH  34  35
ATOM     35  O   UNL A   1      33.647  32.933  27.871  1.00  0.00    -0.376 OA
BRANCH  35  36
ATOM     36  C   UNL A   1      34.010  34.304  27.811  1.00  0.00     0.202 C 
BRANCH  36  37
ATOM     37  C   UNL A   1      32.996  35.242  28.506  1.00  0.00     0.261 C 
BRANCH  37  38
ATOM     38  O   UNL A   1      32.433  34.872  29.789  1.00  0.00    -0.460 OA
BRANCH  38  39
ATOM     39  C   UNL A   1      33.100  35.378  30.847  1.00  0.00     0.338 C 
ATOM     40  O   UNL A   1      32.884  36.483  31.302  1.00  0.00    -0.246 OA
BRANCH  39  41
ATOM     41  C   UNL A   1      34.202  34.536  31.398  1.00  0.00     0.060 A 
ATOM     42  C   UNL A   1      34.122  33.434  32.238  1.00  0.00     0.016 A 
ATOM     43  C   UNL A   1      35.466  34.901  30.939  1.00  0.00     0.016 A 
ATOM     44  C   UNL A   1      35.309  32.743  32.592  1.00  0.00     0.010 A 
ATOM     45  C   UNL A   1      36.626  34.204  31.211  1.00  0.00     0.010 A 
ATOM     46  C   UNL A   1      36.564  33.131  32.078  1.00  0.00    -0.014 A 
BRANCH  46  47
ATOM     47  C   UNL A   1      37.857  32.559  32.505  1.00  0.00     0.031 A 
ATOM     48  C   UNL A   1      38.534  33.136  33.710  1.00  0.00     0.074 A 
ATOM     49  C   UNL A   1      38.527  31.692  31.723  1.00  0.00     0.049 A 
ATOM     50  N   UNL A   1      39.511  32.641  34.418  1.00  0.00    -0.248 NA
ATOM     51  C   UNL A   1      38.069  34.460  34.166  1.00  0.00     0.031 C 
ATOM     52  C   UNL A   1      38.110  31.255  30.391  1.00  0.00     0.029 A 
ATOM     53  N   UNL A   1      39.716  31.040  31.933  1.00  0.00    -0.354 N 
ATOM     54  C   UNL A   1      39.714  33.543  35.454  1.00  0.00     0.074 A 
ATOM     55  C   UNL A   1      38.842  34.671  35.222  1.00  0.00     0.031 C 
ATOM     56  C   UNL A   1      39.011  30.379  29.916  1.00  0.00     0.029 A 
ATOM     57  C   UNL A   1      40.038  30.155  30.932  1.00  0.00     0.049 A 
ATOM     58  H   UNL A   1      40.283  31.190  32.724  1.00  0.00     0.167 HD
ATOM     59  C   UNL A   1      40.522  33.397  36.528  1.00  0.00     0.031 A 
ATOM     60  C   UNL A   1      41.002  29.213  30.881  1.00  0.00     0.031 A 
ATOM     61  C   UNL A   1      41.430  32.290  36.668  1.00  0.00     0.049 A 
ATOM     62  C   UNL A   1      41.841  28.986  32.109  1.00  0.00     0.074 A 
ATOM     63  C   UNL A   1      42.227  31.952  37.746  1.00  0.00     0.029 A 
ATOM     64  N   UNL A   1      41.676  31.352  35.675  1.00  0.00    -0.354 N 
ATOM     65  N   UNL A   1      41.855  29.671  33.230  1.00  0.00    -0.248 NA
ATOM     66  C   UNL A   1      42.743  27.826  32.101  1.00  0.00     0.031 C 
ATOM     67  C   UNL A   1      42.994  30.841  37.381  1.00  0.00     0.029 A 
ATOM     68  C   UNL A   1      42.628  30.448  36.102  1.00  0.00     0.049 A 
ATOM     69  H   UNL A   1      41.236  31.334  34.794  1.00  0.00     0.167 HD
ATOM     70  C   UNL A   1      42.746  29.013  34.070  1.00  0.00     0.074 A 
ATOM     71  C   UNL A   1      43.241  27.867  33.332  1.00  0.00     0.031 C 
ATOM     72  C   UNL A   1      43.115  29.325  35.338  1.00  0.00     0.031 A 
BRANCH  59  73
ATOM     73  C   UNL A   1      40.398  34.387  37.658  1.00  0.00    -0.014 A 
ATOM     74  C   UNL A   1      41.338  35.419  37.828  1.00  0.00     0.010 A 
ATOM     75  C   UNL A   1      39.408  34.202  38.643  1.00  0.00     0.010 A 
ATOM     76  C   UNL A   1      41.308  36.226  38.972  1.00  0.00     0.020 A 
ATOM     77  C   UNL A   1      39.358  35.021  39.774  1.00  0.00     0.020 A 
ATOM     78  C   UNL A   1      40.326  36.012  39.944  1.00  0.00     0.054 A 
BRANCH  78  79
ATOM     79  S   UNL A   1      40.330  37.032  41.445  1.00  0.00     0.124 S 
ATOM     80  O   UNL A   1      41.671  36.798  41.974  1.00  0.00    -0.237 OA
ATOM     81  O   UNL A   1      40.083  38.373  40.921  1.00  0.00    -0.237 OA
ATOM     82  O   UNL A   1      39.240  36.474  42.243  1.00  0.00    -0.744 OA
ENDBRANCH  78  79
ENDBRANCH  59  73
BRANCH  60  83
ATOM     83  C   UNL A   1      41.050  28.308  29.699  1.00  0.00    -0.014 A 
ATOM     84  C   UNL A   1      40.262  27.144  29.648  1.00  0.00     0.010 A 
ATOM     85  C   UNL A   1      42.004  28.530  28.689  1.00  0.00     0.010 A 
ATOM     86  C   UNL A   1      40.464  26.194  28.639  1.00  0.00     0.020 A 
ATOM     87  C   UNL A   1      42.197  27.592  27.670  1.00  0.00     0.020 A 
ATOM     88  C   UNL A   1      41.449  26.414  27.671  1.00  0.00     0.054 A 
BRANCH  88  89
ATOM     89  S   UNL A   1      41.772  25.124  26.435  1.00  0.00     0.124 S 
ATOM     90  O   UNL A   1      40.695  24.175  26.705  1.00  0.00    -0.237 OA
ATOM     91  O   UNL A   1      41.668  25.853  25.175  1.00  0.00    -0.237 OA
ATOM     92  O   UNL A   1      43.116  24.656  26.772  1.00  0.00    -0.744 OA
ENDBRANCH  88  89
ENDBRANCH  60  83
BRANCH  72  93
ATOM     93  C   UNL A   1      44.124  28.439  36.016  1.00  0.00    -0.014 A 
ATOM     94  C   UNL A   1      43.723  27.192  36.530  1.00  0.00     0.010 A 
ATOM     95  C   UNL A   1      45.422  28.909  36.279  1.00  0.00     0.010 A 
ATOM     96  C   UNL A   1      44.593  26.444  37.327  1.00  0.00     0.020 A 
ATOM     97  C   UNL A   1      46.303  28.151  37.052  1.00  0.00     0.020 A 
ATOM     98  C   UNL A   1      45.873  26.936  37.593  1.00  0.00     0.054 A 
BRANCH  98  99
ATOM     99  S   UNL A   1      46.977  25.974  38.663  1.00  0.00     0.124 S 
ATOM    100  O   UNL A   1      47.462  26.988  39.594  1.00  0.00    -0.237 OA
ATOM    101  O   UNL A   1      46.079  24.971  39.234  1.00  0.00    -0.237 OA
ATOM    102  O   UNL A   1      47.976  25.447  37.736  1.00  0.00    -0.744 OA
ENDBRANCH  98  99
ENDBRANCH  72  93
ENDBRANCH  46  47
ENDBRANCH  39  41
ENDBRANCH  38  39
ENDBRANCH  37  38
ENDBRANCH  36  37
ENDBRANCH  35  36
ENDBRANCH  34  35
ENDBRANCH   1  34
TORSDOF 26
ENDMDL
MODEL 2
REMARK VINA RESULT:      -9.5      6.304      8.739
REMARK SMILES CC[C@H](C)[C@H](NC(=O)[C@H](C(C)C)n1c(=O)[nH]c2ccccc2c1=O)C(=O)OCCOCCOCCOC(=O)c1ccc(-c2c3nc(c(-c4ccc(S(=O)(=O)[O-])cc4)c4ccc([nH]4)c(-c4ccc(S(=O)(=O)[O-])cc4)c4nc(c(-c5ccc(S(=O)(=O)[O-])cc5)c5ccc2[nH]5)C=C4)C=C3)cc1
REMARK SMILES IDX 31 1 30 2 29 3 28 4 27 5 25 6 26 7 5 8 3 9 4 10 2 11 1 12
REMARK SMILES IDX 6 13 7 14 8 16 9 17 13 18 14 19 23 20 15 21 16 22 22 23
REMARK SMILES IDX 24 24 17 25 21 27 18 28 20 29 19 30 10 31 11 32 12 33 32 34
REMARK SMILES IDX 33 35 34 36 35 37 36 38 37 39 38 40 39 41 40 42 98 43 41 44
REMARK SMILES IDX 97 45 42 46 43 47 44 48 91 49 45 50 96 51 90 52 92 53 46 54
REMARK SMILES IDX 95 55 89 56 88 57 47 59 77 60 58 61 76 62 59 63 62 64 75 65
REMARK SMILES IDX 93 66 60 67 61 68 74 70 94 71 63 72 48 73 49 74 57 75 50 76
REMARK SMILES IDX 56 77 51 78 52 79 53 80 54 81 55 82 78 83 79 84 87 85 80 86
REMARK SMILES IDX 86 87 81 88 82 89 83 90 84 91 85 92 64 93 65 94 73 95 66 96
REMARK SMILES IDX 72 97 67 98 68 99 69 100 70 101 71 102
REMARK H PARENT 6 15 16 26 92 58 62 69
REMARK Flexibility Score: inf
ROOT
ATOM      1  C   UNL A   1      35.780  32.818  28.995  1.00  0.00     0.188 C 
ENDROOT
BRANCH   1   2
ATOM      2  O   UNL A   1      35.120  32.575  27.754  1.00  0.00    -0.376 OA
BRANCH   2   3
ATOM      3  C   UNL A   1      33.959  31.758  27.788  1.00  0.00     0.202 C 
BRANCH   3   4
ATOM      4  C   UNL A   1      34.170  30.301  27.366  1.00  0.00     0.261 C 
BRANCH   4   5
ATOM      5  O   UNL A   1      33.375  29.892  26.231  1.00  0.00    -0.462 OA
BRANCH   5   6
ATOM      6  C   UNL A   1      32.480  28.898  26.503  1.00  0.00     0.328 C 
ATOM      7  O   UNL A   1      31.696  28.914  27.447  1.00  0.00    -0.250 OA
BRANCH   6   8
ATOM      8  C   UNL A   1      32.666  27.638  25.630  1.00  0.00     0.195 C 
BRANCH   8   9
ATOM      9  C   UNL A   1      32.474  28.134  24.156  1.00  0.00     0.019 C 
ATOM     10  C   UNL A   1      33.514  27.544  23.204  1.00  0.00     0.010 C 
BRANCH   9  11
ATOM     11  C   UNL A   1      31.034  28.041  23.584  1.00  0.00     0.002 C 
ATOM     12  C   UNL A   1      30.822  27.215  22.325  1.00  0.00     0.004 C 
ENDBRANCH   9  11
ENDBRANCH   8   9
BRANCH   8  13
ATOM     13  N   UNL A   1      31.903  26.411  25.911  1.00  0.00    -0.341 N 
ATOM     14  C   UNL A   1      31.746  25.163  25.386  1.00  0.00     0.244 C 
ATOM     15  H   UNL A   1      31.342  26.525  26.712  1.00  0.00     0.164 HD
ATOM     16  O   UNL A   1      30.828  24.548  25.950  1.00  0.00    -0.273 OA
BRANCH  14  17
ATOM     17  C   UNL A   1      32.662  24.440  24.334  1.00  0.00     0.187 C 
BRANCH  17  18
ATOM     18  N   UNL A   1      33.815  23.645  24.963  1.00  0.00    -0.247 N 
ATOM     19  C   UNL A   1      33.596  22.361  25.383  1.00  0.00     0.329 A 
ATOM     20  C   UNL A   1      35.003  24.131  25.481  1.00  0.00     0.264 A 
ATOM     21  O   UNL A   1      32.730  22.013  26.177  1.00  0.00    -0.248 OA
ATOM     22  N   UNL A   1      34.534  21.454  24.985  1.00  0.00    -0.307 N 
ATOM     23  C   UNL A   1      36.145  23.125  25.463  1.00  0.00     0.064 A 
ATOM     24  O   UNL A   1      35.169  25.242  25.971  1.00  0.00    -0.268 OA
ATOM     25  C   UNL A   1      35.865  21.828  25.018  1.00  0.00     0.055 A 
ATOM     26  H   UNL A   1      34.270  20.555  24.682  1.00  0.00     0.171 HD
ATOM     27  C   UNL A   1      37.433  23.387  25.922  1.00  0.00     0.016 A 
ATOM     28  C   UNL A   1      36.844  20.847  24.867  1.00  0.00     0.027 A 
ATOM     29  C   UNL A   1      38.415  22.380  25.856  1.00  0.00     0.001 A 
ATOM     30  C   UNL A   1      38.134  21.130  25.292  1.00  0.00     0.002 A 
ENDBRANCH  17  18
BRANCH  17  31
ATOM     31  C   UNL A   1      32.098  23.877  22.987  1.00  0.00     0.016 C 
ATOM     32  C   UNL A   1      33.011  22.982  22.163  1.00  0.00     0.010 C 
ATOM     33  C   UNL A   1      30.708  23.210  23.139  1.00  0.00     0.010 C 
ENDBRANCH  17  31
ENDBRANCH  14  17
ENDBRANCH   8  13
ENDBRANCH   6   8
ENDBRANCH   5   6
ENDBRANCH   4   5
ENDBRANCH   3   4
ENDBRANCH   2   3
ENDBRANCH   1   2
BRANCH   1  34
ATOM     34  C   UNL A   1      34.899  33.269  30.160  1.00  0.00     0.188 C 
BRANCH  34  35
ATOM     35  O   UNL A   1      35.565  32.941  31.383  1.00  0.00    -0.376 OA
BRANCH  35  36
ATOM     36  C   UNL A   1      36.244  31.696  31.326  1.00  0.00     0.202 C 
BRANCH  36  37
ATOM     37  C   UNL A   1      37.642  31.724  31.985  1.00  0.00     0.261 C 
BRANCH  37  38
ATOM     38  O   UNL A   1      38.175  30.524  32.599  1.00  0.00    -0.460 OA
BRANCH  38  39
ATOM     39  C   UNL A   1      38.178  29.448  31.785  1.00  0.00     0.338 C 
ATOM     40  O   UNL A   1      37.377  28.540  31.882  1.00  0.00    -0.246 OA
BRANCH  39  41
ATOM     41  C   UNL A   1      39.286  29.376  30.787  1.00  0.00     0.060 A 
ATOM     42  C   UNL A   1      39.242  29.590  29.417  1.00  0.00     0.016 A 
ATOM     43  C   UNL A   1      40.530  29.110  31.354  1.00  0.00     0.016 A 
ATOM     44  C   UNL A   1      40.442  29.525  28.665  1.00  0.00     0.010 A 
ATOM     45  C   UNL A   1      41.721  29.110  30.657  1.00  0.00     0.010 A 
ATOM     46  C   UNL A   1      41.685  29.283  29.288  1.00  0.00    -0.014 A 
BRANCH  46  47
ATOM     47  C   UNL A   1      42.953  29.059  28.566  1.00  0.00     0.031 A 
ATOM     48  C   UNL A   1      43.889  30.214  28.382  1.00  0.00     0.074 A 
ATOM     49  C   UNL A   1      43.182  27.913  27.898  1.00  0.00     0.049 A 
ATOM     50  N   UNL A   1      45.145  30.206  28.032  1.00  0.00    -0.248 NA
ATOM     51  C   UNL A   1      43.331  31.563  28.594  1.00  0.00     0.031 C 
ATOM     52  C   UNL A   1      42.234  26.807  27.765  1.00  0.00     0.029 A 
ATOM     53  N   UNL A   1      44.281  27.500  27.187  1.00  0.00    -0.354 N 
ATOM     54  C   UNL A   1      45.552  31.533  28.072  1.00  0.00     0.074 A 
ATOM     55  C   UNL A   1      44.386  32.333  28.368  1.00  0.00     0.031 C 
ATOM     56  C   UNL A   1      42.805  25.825  27.046  1.00  0.00     0.029 A 
ATOM     57  C   UNL A   1      44.176  26.213  26.716  1.00  0.00     0.049 A 
ATOM     58  H   UNL A   1      45.068  28.070  27.030  1.00  0.00     0.167 HD
ATOM     59  C   UNL A   1      46.807  32.016  27.930  1.00  0.00     0.031 A 
ATOM     60  C   UNL A   1      45.107  25.412  26.158  1.00  0.00     0.031 A 
ATOM     61  C   UNL A   1      47.918  31.182  27.555  1.00  0.00     0.049 A 
ATOM     62  C   UNL A   1      46.524  25.913  26.084  1.00  0.00     0.074 A 
ATOM     63  C   UNL A   1      49.259  31.507  27.480  1.00  0.00     0.029 A 
ATOM     64  N   UNL A   1      47.802  29.855  27.167  1.00  0.00    -0.354 N 
ATOM     65  N   UNL A   1      46.989  27.104  26.387  1.00  0.00    -0.248 NA
ATOM     66  C   UNL A   1      47.553  24.954  25.663  1.00  0.00     0.031 C 
ATOM     67  C   UNL A   1      49.945  30.389  26.993  1.00  0.00     0.029 A 
ATOM     68  C   UNL A   1      49.041  29.349  26.828  1.00  0.00     0.049 A 
ATOM     69  H   UNL A   1      46.959  29.347  27.138  1.00  0.00     0.167 HD
ATOM     70  C   UNL A   1      48.367  27.032  26.217  1.00  0.00     0.074 A 
ATOM     71  C   UNL A   1      48.661  25.675  25.796  1.00  0.00     0.031 C 
ATOM     72  C   UNL A   1      49.302  27.997  26.397  1.00  0.00     0.031 A 
BRANCH  59  73
ATOM     73  C   UNL A   1      47.060  33.464  28.263  1.00  0.00    -0.014 A 
ATOM     74  C   UNL A   1      47.154  34.437  27.253  1.00  0.00     0.010 A 
ATOM     75  C   UNL A   1      47.344  33.836  29.592  1.00  0.00     0.010 A 
ATOM     76  C   UNL A   1      47.555  35.743  27.560  1.00  0.00     0.020 A 
ATOM     77  C   UNL A   1      47.719  35.144  29.907  1.00  0.00     0.020 A 
ATOM     78  C   UNL A   1      47.847  36.084  28.884  1.00  0.00     0.054 A 
BRANCH  78  79
ATOM     79  S   UNL A   1      48.414  37.767  29.260  1.00  0.00     0.124 S 
ATOM     80  O   UNL A   1      49.547  37.521  30.147  1.00  0.00    -0.237 OA
ATOM     81  O   UNL A   1      48.748  38.294  27.940  1.00  0.00    -0.237 OA
ATOM     82  O   UNL A   1      47.251  38.387  29.892  1.00  0.00    -0.744 OA
ENDBRANCH  78  79
ENDBRANCH  59  73
BRANCH  60  83
ATOM     83  C   UNL A   1      44.737  24.005  25.840  1.00  0.00    -0.014 A 
ATOM     84  C   UNL A   1      44.996  22.966  26.752  1.00  0.00     0.010 A 
ATOM     85  C   UNL A   1      44.263  23.683  24.556  1.00  0.00     0.010 A 
ATOM     86  C   UNL A   1      44.841  21.629  26.367  1.00  0.00     0.020 A 
ATOM     87  C   UNL A   1      44.090  22.349  24.173  1.00  0.00     0.020 A 
ATOM     88  C   UNL A   1      44.413  21.330  25.070  1.00  0.00     0.054 A 
BRANCH  88  89
ATOM     89  S   UNL A   1      44.321  19.592  24.552  1.00  0.00     0.124 S 
ATOM     90  O   UNL A   1      45.412  18.994  25.317  1.00  0.00    -0.237 OA
ATOM     91  O   UNL A   1      42.976  19.204  24.965  1.00  0.00    -0.237 OA
ATOM     92  O   UNL A   1      44.533  19.654  23.107  1.00  0.00    -0.744 OA
ENDBRANCH  88  89
ENDBRANCH  60  83
BRANCH  72  93
ATOM     93  C   UNL A   1      50.739  27.648  26.120  1.00  0.00    -0.014 A 
ATOM     94  C   UNL A   1      51.565  27.208  27.171  1.00  0.00     0.010 A 
ATOM     95  C   UNL A   1      51.303  27.902  24.859  1.00  0.00     0.010 A 
ATOM     96  C   UNL A   1      52.939  27.063  26.976  1.00  0.00     0.020 A 
ATOM     97  C   UNL A   1      52.674  27.732  24.654  1.00  0.00     0.020 A 
ATOM     98  C   UNL A   1      53.487  27.340  25.720  1.00  0.00     0.054 A 
BRANCH  98  99
ATOM     99  S   UNL A   1      55.279  27.187  25.493  1.00  0.00     0.124 S 
ATOM    100  O   UNL A   1      55.740  26.925  26.854  1.00  0.00    -0.237 OA
ATOM    101  O   UNL A   1      55.392  26.065  24.562  1.00  0.00    -0.237 OA
ATOM    102  O   UNL A   1      55.665  28.483  24.941  1.00  0.00    -0.744 OA
ENDBRANCH  98  99
ENDBRANCH  72  93
ENDBRANCH  46  47
ENDBRANCH  39  41
ENDBRANCH  38  39
ENDBRANCH  37  38
ENDBRANCH  36  37
ENDBRANCH  35  36
ENDBRANCH  34  35
ENDBRANCH   1  34
TORSDOF 26
ENDMDL
MODEL 3
REMARK VINA RESULT:      -9.0      1.295      2.102
REMARK SMILES CC[C@H](C)[C@H](NC(=O)[C@H](C(C)C)n1c(=O)[nH]c2ccccc2c1=O)C(=O)OCCOCCOCCOC(=O)c1ccc(-c2c3nc(c(-c4ccc(S(=O)(=O)[O-])cc4)c4ccc([nH]4)c(-c4ccc(S(=O)(=O)[O-])cc4)c4nc(c(-c5ccc(S(=O)(=O)[O-])cc5)c5ccc2[nH]5)C=C4)C=C3)cc1
REMARK SMILES IDX 31 1 30 2 29 3 28 4 27 5 25 6 26 7 5 8 3 9 4 10 2 11 1 12
REMARK SMILES IDX 6 13 7 14 8 16 9 17 13 18 14 19 23 20 15 21 16 22 22 23
REMARK SMILES IDX 24 24 17 25 21 27 18 28 20 29 19 30 10 31 11 32 12 33 32 34
REMARK SMILES IDX 33 35 34 36 35 37 36 38 37 39 38 40 39 41 40 42 98 43 41 44
REMARK SMILES IDX 97 45 42 46 43 47 44 48 91 49 45 50 96 51 90 52 92 53 46 54
REMARK SMILES IDX 95 55 89 56 88 57 47 59 77 60 58 61 76 62 59 63 62 64 75 65
REMARK SMILES IDX 93 66 60 67 61 68 74 70 94 71 63 72 48 73 49 74 57 75 50 76
REMARK SMILES IDX 56 77 51 78 52 79 53 80 54 81 55 82 78 83 79 84 87 85 80 86
REMARK SMILES IDX 86 87 81 88 82 89 83 90 84 91 85 92 64 93 65 94 73 95 66 96
REMARK SMILES IDX 72 97 67 98 68 99 69 100 70 101 71 102
REMARK H PARENT 6 15 16 26 92 58 62 69
REMARK Flexibility Score: inf
ROOT
ATOM      1  C   UNL A   1      34.873  32.128  27.962  1.00  0.00     0.188 C 
ENDROOT
BRANCH   1   2
ATOM      2  O   UNL A   1      33.548  31.700  27.651  1.00  0.00    -0.376 OA
BRANCH   2   3
ATOM      3  C   UNL A   1      33.389  30.876  26.505  1.00  0.00     0.202 C 
BRANCH   3   4
ATOM      4  C   UNL A   1      31.946  30.486  26.173  1.00  0.00     0.261 C 
BRANCH   4   5
ATOM      5  O   UNL A   1      31.799  29.757  24.933  1.00  0.00    -0.462 OA
BRANCH   5   6
ATOM      6  C   UNL A   1      32.265  28.475  24.978  1.00  0.00     0.328 C 
ATOM      7  O   UNL A   1      33.382  28.134  24.602  1.00  0.00    -0.250 OA
BRANCH   6   8
ATOM      8  C   UNL A   1      31.191  27.436  25.362  1.00  0.00     0.195 C 
BRANCH   8   9
ATOM      9  C   UNL A   1      31.761  26.712  26.630  1.00  0.00     0.019 C 
ATOM     10  C   UNL A   1      31.533  27.516  27.909  1.00  0.00     0.010 C 
BRANCH   9  11
ATOM     11  C   UNL A   1      31.374  25.217  26.797  1.00  0.00     0.002 C 
ATOM     12  C   UNL A   1      29.935  24.820  26.510  1.00  0.00     0.004 C 
ENDBRANCH   9  11
ENDBRANCH   8   9
BRANCH   8  13
ATOM     13  N   UNL A   1      30.672  26.487  24.363  1.00  0.00    -0.341 N 
ATOM     14  C   UNL A   1      31.138  25.747  23.318  1.00  0.00     0.244 C 
ATOM     15  H   UNL A   1      29.706  26.346  24.486  1.00  0.00     0.164 HD
ATOM     16  O   UNL A   1      30.210  25.212  22.693  1.00  0.00    -0.273 OA
BRANCH  14  17
ATOM     17  C   UNL A   1      32.633  25.407  22.972  1.00  0.00     0.187 C 
BRANCH  17  18
ATOM     18  N   UNL A   1      33.079  24.022  23.461  1.00  0.00    -0.247 N 
ATOM     19  C   UNL A   1      34.115  23.924  24.350  1.00  0.00     0.329 A 
ATOM     20  C   UNL A   1      32.804  22.789  22.896  1.00  0.00     0.264 A 
ATOM     21  O   UNL A   1      35.237  24.387  24.185  1.00  0.00    -0.248 OA
ATOM     22  N   UNL A   1      33.885  23.106  25.419  1.00  0.00    -0.307 N 
ATOM     23  C   UNL A   1      32.845  21.631  23.883  1.00  0.00     0.064 A 
ATOM     24  O   UNL A   1      32.590  22.578  21.708  1.00  0.00    -0.268 OA
ATOM     25  C   UNL A   1      33.228  21.910  25.201  1.00  0.00     0.055 A 
ATOM     26  H   UNL A   1      34.181  23.363  26.322  1.00  0.00     0.171 HD
ATOM     27  C   UNL A   1      32.595  20.303  23.551  1.00  0.00     0.016 A 
ATOM     28  C   UNL A   1      33.214  20.955  26.216  1.00  0.00     0.027 A 
ATOM     29  C   UNL A   1      32.659  19.310  24.547  1.00  0.00     0.001 A 
ATOM     30  C   UNL A   1      32.924  19.640  25.881  1.00  0.00     0.002 A 
ENDBRANCH  17  18
BRANCH  17  31
ATOM     31  C   UNL A   1      33.325  25.929  21.668  1.00  0.00     0.016 C 
ATOM     32  C   UNL A   1      32.639  25.635  20.344  1.00  0.00     0.010 C 
ATOM     33  C   UNL A   1      33.708  27.428  21.739  1.00  0.00     0.010 C 
ENDBRANCH  17  31
ENDBRANCH  14  17
ENDBRANCH   8  13
ENDBRANCH   6   8
ENDBRANCH   5   6
ENDBRANCH   4   5
ENDBRANCH   3   4
ENDBRANCH   2   3
ENDBRANCH   1   2
BRANCH   1  34
ATOM     34  C   UNL A   1      35.047  33.604  28.323  1.00  0.00     0.188 C 
BRANCH  34  35
ATOM     35  O   UNL A   1      33.753  34.165  28.566  1.00  0.00    -0.376 OA
BRANCH  35  36
ATOM     36  C   UNL A   1      33.808  35.520  28.984  1.00  0.00     0.202 C 
BRANCH  36  37
ATOM     37  C   UNL A   1      32.629  35.933  29.895  1.00  0.00     0.261 C 
BRANCH  37  38
ATOM     38  O   UNL A   1      32.357  35.186  31.107  1.00  0.00    -0.460 OA
BRANCH  38  39
ATOM     39  C   UNL A   1      33.134  35.538  32.153  1.00  0.00     0.338 C 
ATOM     40  O   UNL A   1      32.980  36.568  32.778  1.00  0.00    -0.246 OA
BRANCH  39  41
ATOM     41  C   UNL A   1      34.274  34.626  32.467  1.00  0.00     0.060 A 
ATOM     42  C   UNL A   1      34.244  33.322  32.941  1.00  0.00     0.016 A 
ATOM     43  C   UNL A   1      35.521  35.174  32.178  1.00  0.00     0.016 A 
ATOM     44  C   UNL A   1      35.462  32.618  33.114  1.00  0.00     0.010 A 
ATOM     45  C   UNL A   1      36.715  34.487  32.271  1.00  0.00     0.010 A 
ATOM     46  C   UNL A   1      36.701  33.204  32.779  1.00  0.00    -0.014 A 
BRANCH  46  47
ATOM     47  C   UNL A   1      38.017  32.597  33.060  1.00  0.00     0.031 A 
ATOM     48  C   UNL A   1      38.799  33.091  34.239  1.00  0.00     0.074 A 
ATOM     49  C   UNL A   1      38.610  31.776  32.173  1.00  0.00     0.049 A 
ATOM     50  N   UNL A   1      39.824  32.545  34.831  1.00  0.00    -0.248 NA
ATOM     51  C   UNL A   1      38.390  34.387  34.814  1.00  0.00     0.031 C 
ATOM     52  C   UNL A   1      38.079  31.428  30.855  1.00  0.00     0.029 A 
ATOM     53  N   UNL A   1      39.804  31.103  32.242  1.00  0.00    -0.354 N 
ATOM     54  C   UNL A   1      40.124  33.378  35.901  1.00  0.00     0.074 A 
ATOM     55  C   UNL A   1      39.250  34.524  35.813  1.00  0.00     0.031 C 
ATOM     56  C   UNL A   1      38.927  30.577  30.253  1.00  0.00     0.029 A 
ATOM     57  C   UNL A   1      40.031  30.282  31.164  1.00  0.00     0.049 A 
ATOM     58  H   UNL A   1      40.437  31.200  32.991  1.00  0.00     0.167 HD
ATOM     59  C   UNL A   1      41.016  33.159  36.893  1.00  0.00     0.031 A 
ATOM     60  C   UNL A   1      40.977  29.338  30.974  1.00  0.00     0.031 A 
ATOM     61  C   UNL A   1      41.919  32.038  36.887  1.00  0.00     0.049 A 
ATOM     62  C   UNL A   1      41.911  29.027  32.111  1.00  0.00     0.074 A 
ATOM     63  C   UNL A   1      42.797  31.626  37.871  1.00  0.00     0.029 A 
ATOM     64  N   UNL A   1      42.070  31.163  35.820  1.00  0.00    -0.354 N 
ATOM     65  N   UNL A   1      42.026  29.640  33.268  1.00  0.00    -0.248 NA
ATOM     66  C   UNL A   1      42.794  27.864  31.956  1.00  0.00     0.031 C 
ATOM     67  C   UNL A   1      43.518  30.535  37.375  1.00  0.00     0.029 A 
ATOM     68  C   UNL A   1      43.043  30.227  36.109  1.00  0.00     0.049 A 
ATOM     69  H   UNL A   1      41.559  31.204  34.979  1.00  0.00     0.167 HD
ATOM     70  C   UNL A   1      42.975  28.923  33.988  1.00  0.00     0.074 A 
ATOM     71  C   UNL A   1      43.393  27.824  33.141  1.00  0.00     0.031 C 
ATOM     72  C   UNL A   1      43.450  29.151  35.238  1.00  0.00     0.031 A 
BRANCH  59  73
ATOM     73  C   UNL A   1      40.998  34.076  38.089  1.00  0.00    -0.014 A 
ATOM     74  C   UNL A   1      40.104  33.865  39.154  1.00  0.00     0.010 A 
ATOM     75  C   UNL A   1      41.788  35.242  38.087  1.00  0.00     0.010 A 
ATOM     76  C   UNL A   1      39.980  34.815  40.175  1.00  0.00     0.020 A 
ATOM     77  C   UNL A   1      41.686  36.180  39.117  1.00  0.00     0.020 A 
ATOM     78  C   UNL A   1      40.763  35.973  40.142  1.00  0.00     0.054 A 
BRANCH  78  79
ATOM     79  S   UNL A   1      40.555  37.218  41.447  1.00  0.00     0.124 S 
ATOM     80  O   UNL A   1      39.113  37.446  41.429  1.00  0.00    -0.237 OA
ATOM     81  O   UNL A   1      41.072  36.533  42.628  1.00  0.00    -0.237 OA
ATOM     82  O   UNL A   1      41.370  38.340  40.982  1.00  0.00    -0.744 OA
ENDBRANCH  78  79
ENDBRANCH  59  73
BRANCH  60  83
ATOM     83  C   UNL A   1      40.916  28.509  29.738  1.00  0.00    -0.014 A 
ATOM     84  C   UNL A   1      39.950  27.497  29.593  1.00  0.00     0.010 A 
ATOM     85  C   UNL A   1      41.926  28.632  28.767  1.00  0.00     0.010 A 
ATOM     86  C   UNL A   1      40.028  26.589  28.530  1.00  0.00     0.020 A 
ATOM     87  C   UNL A   1      41.998  27.737  27.694  1.00  0.00     0.020 A 
ATOM     88  C   UNL A   1      41.068  26.700  27.602  1.00  0.00     0.054 A 
BRANCH  88  89
ATOM     89  S   UNL A   1      41.217  25.451  26.294  1.00  0.00     0.124 S 
ATOM     90  O   UNL A   1      39.925  24.775  26.377  1.00  0.00    -0.237 OA
ATOM     91  O   UNL A   1      41.428  26.261  25.097  1.00  0.00    -0.237 OA
ATOM     92  O   UNL A   1      42.368  24.652  26.713  1.00  0.00    -0.744 OA
ENDBRANCH  88  89
ENDBRANCH  60  83
BRANCH  72  93
ATOM     93  C   UNL A   1      44.501  28.217  35.774  1.00  0.00    -0.014 A 
ATOM     94  C   UNL A   1      44.132  27.185  36.656  1.00  0.00     0.010 A 
ATOM     95  C   UNL A   1      45.863  28.459  35.525  1.00  0.00     0.010 A 
ATOM     96  C   UNL A   1      45.110  26.433  37.310  1.00  0.00     0.020 A 
ATOM     97  C   UNL A   1      46.842  27.690  36.157  1.00  0.00     0.020 A 
ATOM     98  C   UNL A   1      46.459  26.700  37.066  1.00  0.00     0.054 A 
BRANCH  98  99
ATOM     99  S   UNL A   1      47.717  25.742  37.954  1.00  0.00     0.124 S 
ATOM    100  O   UNL A   1      48.413  26.778  38.711  1.00  0.00    -0.237 OA
ATOM    101  O   UNL A   1      46.914  24.812  38.746  1.00  0.00    -0.237 OA
ATOM    102  O   UNL A   1      48.494  25.123  36.882  1.00  0.00    -0.744 OA
ENDBRANCH  98  99
ENDBRANCH  72  93
ENDBRANCH  46  47
ENDBRANCH  39  41
ENDBRANCH  38  39
ENDBRANCH  37  38
ENDBRANCH  36  37
ENDBRANCH  35  36
ENDBRANCH  34  35
ENDBRANCH   1  34
TORSDOF 26
ENDMDL
