MODEL 1
REMARK VINA RESULT:      -8.0      0.000      0.000
REMARK SMILES C[C@H]1CS(=O)(=O)N(c2cccc(C(=O)Nc3ccc(O)c(C(=O)OCCOCCOCCOC(=O)c4ccc(-c5c6nc(c(-c7ccc(S(=O)(=O)[O-])cc7)c7ccc([nH]7)c(-c7ccc(S(=O)(=O)[O-])cc7)c7nc(c(-c8ccc(S(=O)(=O)[O-])cc8)c8ccc5[nH]8)C=C7)C=C6)cc4)c3)c2)C1=O
REMARK SMILES IDX 28 1 27 2 26 3 25 4 24 5 22 6 23 7 21 8 16 9 17 10 96 11
REMARK SMILES IDX 18 12 19 13 15 14 13 15 14 16 12 18 8 19 9 20 97 21 10 22
REMARK SMILES IDX 11 23 7 24 1 25 2 26 3 27 98 28 4 29 99 30 5 31 6 32 20 33
REMARK SMILES IDX 29 35 30 36 31 37 32 38 33 39 34 40 35 41 36 42 37 43 95 44
REMARK SMILES IDX 38 45 94 46 39 47 40 48 41 49 88 50 42 51 93 52 87 53 89 54
REMARK SMILES IDX 43 55 92 56 86 57 85 58 44 60 74 61 55 62 73 63 56 64 59 65
REMARK SMILES IDX 72 66 90 67 57 68 58 69 71 71 91 72 60 73 45 74 46 75 54 76
REMARK SMILES IDX 47 77 53 78 48 79 49 80 50 81 51 82 52 83 75 84 76 85 84 86
REMARK SMILES IDX 77 87 83 88 78 89 79 90 80 91 81 92 82 93 61 94 62 95 70 96
REMARK SMILES IDX 63 97 69 98 64 99 65 100 66 101 67 102 68 103
REMARK H PARENT 15 17 20 34 89 59 59 70
REMARK Flexibility Score: inf
ROOT
ATOM      1  C   UNL A   1      39.101  31.327  33.586  1.00  0.00     0.188 C 
ENDROOT
BRANCH   1   2
ATOM      2  O   UNL A   1      39.785  30.427  34.430  1.00  0.00    -0.376 OA
BRANCH   2   3
ATOM      3  C   UNL A   1      40.899  29.709  33.946  1.00  0.00     0.202 C 
BRANCH   3   4
ATOM      4  C   UNL A   1      41.134  28.212  34.211  1.00  0.00     0.261 C 
BRANCH   4   5
ATOM      5  O   UNL A   1      42.138  27.797  35.141  1.00  0.00    -0.460 OA
BRANCH   5   6
ATOM      6  C   UNL A   1      41.757  27.072  36.209  1.00  0.00     0.342 C 
ATOM      7  O   UNL A   1      40.880  27.335  37.011  1.00  0.00    -0.246 OA
BRANCH   6   8
ATOM      8  C   UNL A   1      42.478  25.799  36.287  1.00  0.00     0.103 A 
ATOM      9  C   UNL A   1      43.448  24.069  34.994  1.00  0.00     0.042 A 
ATOM     10  C   UNL A   1      44.277  23.702  36.057  1.00  0.00     0.030 A 
ATOM     11  C   UNL A   1      42.416  24.973  35.180  1.00  0.00     0.045 A 
ATOM     12  C   UNL A   1      44.226  24.436  37.245  1.00  0.00     0.049 A 
ATOM     13  C   UNL A   1      43.383  25.539  37.322  1.00  0.00     0.130 A 
BRANCH   9  14
ATOM     14  N   UNL A   1      43.785  23.677  33.698  1.00  0.00    -0.322 N 
ATOM     15  C   UNL A   1      44.595  24.344  32.789  1.00  0.00     0.255 C 
ATOM     16  O   UNL A   1      44.571  23.981  31.611  1.00  0.00    -0.269 OA
ATOM     17  H   UNL A   1      43.400  22.824  33.391  1.00  0.00     0.170 HD
BRANCH  15  18
ATOM     18  C   UNL A   1      45.541  25.463  33.176  1.00  0.00     0.042 A 
ATOM     19  C   UNL A   1      46.122  27.809  33.723  1.00  0.00     0.061 A 
ATOM     20  C   UNL A   1      47.459  27.411  33.832  1.00  0.00     0.027 A 
ATOM     21  C   UNL A   1      45.165  26.800  33.464  1.00  0.00     0.041 A 
ATOM     22  C   UNL A   1      47.842  26.083  33.621  1.00  0.00     0.003 A 
ATOM     23  C   UNL A   1      46.895  25.122  33.273  1.00  0.00     0.014 A 
BRANCH  19  24
ATOM     24  N   UNL A   1      45.792  29.217  33.792  1.00  0.00    -0.207 N 
ATOM     25  C   UNL A   1      46.546  32.268  35.663  1.00  0.00     0.019 C 
ATOM     26  C   UNL A   1      45.570  31.440  34.817  1.00  0.00     0.094 C 
ATOM     27  C   UNL A   1      45.716  31.736  33.328  1.00  0.00     0.173 C 
ATOM     28  C   UNL A   1      45.715  29.928  35.024  1.00  0.00     0.244 C 
ATOM     29  S   UNL A   1      45.588  30.194  32.447  1.00  0.00     0.242 S 
ATOM     30  O   UNL A   1      45.724  29.415  36.138  1.00  0.00    -0.273 OA
ATOM     31  O   UNL A   1      44.228  30.024  31.984  1.00  0.00    -0.206 OA
ATOM     32  O   UNL A   1      46.726  30.079  31.565  1.00  0.00    -0.206 OA
ENDBRANCH  19  24
ENDBRANCH  15  18
ENDBRANCH   9  14
BRANCH  13  33
ATOM     33  O   UNL A   1      43.513  26.356  38.408  1.00  0.00    -0.507 OA
ATOM     34  H   UNL A   1      43.153  27.221  38.390  1.00  0.00     0.293 HD
ENDBRANCH  13  33
ENDBRANCH   6   8
ENDBRANCH   5   6
ENDBRANCH   4   5
ENDBRANCH   3   4
ENDBRANCH   2   3
ENDBRANCH   1   2
BRANCH   1  35
ATOM     35  C   UNL A   1      37.636  31.570  34.013  1.00  0.00     0.188 C 
BRANCH  35  36
ATOM     36  O   UNL A   1      36.938  32.679  33.469  1.00  0.00    -0.376 OA
BRANCH  36  37
ATOM     37  C   UNL A   1      35.698  32.421  32.827  1.00  0.00     0.202 C 
BRANCH  37  38
ATOM     38  C   UNL A   1      35.582  32.596  31.298  1.00  0.00     0.261 C 
BRANCH  38  39
ATOM     39  O   UNL A   1      36.677  32.097  30.498  1.00  0.00    -0.460 OA
BRANCH  39  40
ATOM     40  C   UNL A   1      36.364  31.132  29.589  1.00  0.00     0.338 C 
ATOM     41  O   UNL A   1      35.336  31.057  28.939  1.00  0.00    -0.246 OA
BRANCH  40  42
ATOM     42  C   UNL A   1      37.537  30.259  29.321  1.00  0.00     0.060 A 
ATOM     43  C   UNL A   1      38.323  29.811  30.398  1.00  0.00     0.016 A 
ATOM     44  C   UNL A   1      37.925  29.968  28.014  1.00  0.00     0.016 A 
ATOM     45  C   UNL A   1      39.509  29.107  30.174  1.00  0.00     0.010 A 
ATOM     46  C   UNL A   1      39.136  29.297  27.790  1.00  0.00     0.010 A 
ATOM     47  C   UNL A   1      39.956  28.900  28.866  1.00  0.00    -0.014 A 
BRANCH  47  48
ATOM     48  C   UNL A   1      41.366  28.499  28.614  1.00  0.00     0.031 A 
ATOM     49  C   UNL A   1      42.428  29.571  28.665  1.00  0.00     0.074 A 
ATOM     50  C   UNL A   1      41.716  27.227  28.350  1.00  0.00     0.049 A 
ATOM     51  N   UNL A   1      43.701  29.495  28.372  1.00  0.00    -0.248 NA
ATOM     52  C   UNL A   1      41.988  30.906  29.102  1.00  0.00     0.031 C 
ATOM     53  C   UNL A   1      40.812  26.080  28.343  1.00  0.00     0.029 A 
ATOM     54  N   UNL A   1      42.940  26.694  28.019  1.00  0.00    -0.354 N 
ATOM     55  C   UNL A   1      44.209  30.776  28.567  1.00  0.00     0.074 A 
ATOM     56  C   UNL A   1      43.103  31.611  28.982  1.00  0.00     0.031 C 
ATOM     57  C   UNL A   1      41.506  24.981  28.000  1.00  0.00     0.029 A 
ATOM     58  C   UNL A   1      42.895  25.352  27.724  1.00  0.00     0.049 A 
ATOM     59  H   UNL A   1      43.770  27.223  27.995  1.00  0.00     0.167 HD
ATOM     60  C   UNL A   1      45.479  31.219  28.415  1.00  0.00     0.031 A 
ATOM     61  C   UNL A   1      43.854  24.525  27.255  1.00  0.00     0.031 A 
ATOM     62  C   UNL A   1      46.579  30.393  27.990  1.00  0.00     0.049 A 
ATOM     63  C   UNL A   1      45.242  25.060  27.001  1.00  0.00     0.074 A 
ATOM     64  C   UNL A   1      47.905  30.750  27.818  1.00  0.00     0.029 A 
ATOM     65  N   UNL A   1      46.481  29.049  27.665  1.00  0.00    -0.354 N 
ATOM     66  N   UNL A   1      45.711  26.270  27.196  1.00  0.00    -0.248 NA
ATOM     67  C   UNL A   1      46.233  24.114  26.465  1.00  0.00     0.031 C 
ATOM     68  C   UNL A   1      48.596  29.639  27.324  1.00  0.00     0.029 A 
ATOM     69  C   UNL A   1      47.716  28.570  27.260  1.00  0.00     0.049 A 
ATOM     70  H   UNL A   1      45.656  28.514  27.715  1.00  0.00     0.167 HD
ATOM     71  C   UNL A   1      47.055  26.222  26.838  1.00  0.00     0.074 A 
ATOM     72  C   UNL A   1      47.328  24.861  26.427  1.00  0.00     0.031 C 
ATOM     73  C   UNL A   1      47.981  27.213  26.852  1.00  0.00     0.031 A 
BRANCH  60  74
ATOM     74  C   UNL A   1      45.741  32.682  28.664  1.00  0.00    -0.014 A 
ATOM     75  C   UNL A   1      45.526  33.647  27.665  1.00  0.00     0.010 A 
ATOM     76  C   UNL A   1      46.175  33.100  29.936  1.00  0.00     0.010 A 
ATOM     77  C   UNL A   1      45.778  34.998  27.920  1.00  0.00     0.020 A 
ATOM     78  C   UNL A   1      46.397  34.453  30.205  1.00  0.00     0.020 A 
ATOM     79  C   UNL A   1      46.214  35.392  29.189  1.00  0.00     0.054 A 
BRANCH  79  80
ATOM     80  S   UNL A   1      46.511  37.154  29.499  1.00  0.00     0.124 S 
ATOM     81  O   UNL A   1      47.964  37.243  29.367  1.00  0.00    -0.237 OA
ATOM     82  O   UNL A   1      45.745  37.799  28.436  1.00  0.00    -0.237 OA
ATOM     83  O   UNL A   1      45.996  37.363  30.850  1.00  0.00    -0.744 OA
ENDBRANCH  79  80
ENDBRANCH  60  74
BRANCH  61  84
ATOM     84  C   UNL A   1      43.530  23.100  26.956  1.00  0.00    -0.014 A 
ATOM     85  C   UNL A   1      43.796  22.550  25.690  1.00  0.00     0.010 A 
ATOM     86  C   UNL A   1      42.937  22.288  27.940  1.00  0.00     0.010 A 
ATOM     87  C   UNL A   1      43.464  21.221  25.409  1.00  0.00     0.020 A 
ATOM     88  C   UNL A   1      42.632  20.950  27.675  1.00  0.00     0.020 A 
ATOM     89  C   UNL A   1      42.889  20.427  26.406  1.00  0.00     0.054 A 
BRANCH  89  90
ATOM     90  S   UNL A   1      42.526  18.688  26.040  1.00  0.00     0.124 S 
ATOM     91  O   UNL A   1      41.113  18.741  25.677  1.00  0.00    -0.237 OA
ATOM     92  O   UNL A   1      43.452  18.398  24.948  1.00  0.00    -0.237 OA
ATOM     93  O   UNL A   1      42.825  18.005  27.296  1.00  0.00    -0.744 OA
ENDBRANCH  89  90
ENDBRANCH  61  84
BRANCH  73  94
ATOM     94  C   UNL A   1      49.392  26.865  26.449  1.00  0.00    -0.014 A 
ATOM     95  C   UNL A   1      50.309  26.328  27.369  1.00  0.00     0.010 A 
ATOM     96  C   UNL A   1      49.786  27.020  25.105  1.00  0.00     0.010 A 
ATOM     97  C   UNL A   1      51.601  25.981  26.962  1.00  0.00     0.020 A 
ATOM     98  C   UNL A   1      51.066  26.644  24.688  1.00  0.00     0.020 A 
ATOM     99  C   UNL A   1      51.971  26.140  25.623  1.00  0.00     0.054 A 
BRANCH  99 100
ATOM    100  S   UNL A   1      53.637  25.638  25.113  1.00  0.00     0.124 S 
ATOM    101  O   UNL A   1      53.486  25.507  23.666  1.00  0.00    -0.237 OA
ATOM    102  O   UNL A   1      54.461  26.758  25.560  1.00  0.00    -0.237 OA
ATOM    103  O   UNL A   1      53.859  24.384  25.831  1.00  0.00    -0.744 OA
ENDBRANCH  99 100
ENDBRANCH  73  94
ENDBRANCH  47  48
ENDBRANCH  40  42
ENDBRANCH  39  40
ENDBRANCH  38  39
ENDBRANCH  37  38
ENDBRANCH  36  37
ENDBRANCH  35  36
ENDBRANCH   1  35
TORSDOF 24
ENDMDL
MODEL 2
REMARK VINA RESULT:      -7.5      6.850     12.992
REMARK SMILES C[C@H]1CS(=O)(=O)N(c2cccc(C(=O)Nc3ccc(O)c(C(=O)OCCOCCOCCOC(=O)c4ccc(-c5c6nc(c(-c7ccc(S(=O)(=O)[O-])cc7)c7ccc([nH]7)c(-c7ccc(S(=O)(=O)[O-])cc7)c7nc(c(-c8ccc(S(=O)(=O)[O-])cc8)c8ccc5[nH]8)C=C7)C=C6)cc4)c3)c2)C1=O
REMARK SMILES IDX 28 1 27 2 26 3 25 4 24 5 22 6 23 7 21 8 16 9 17 10 96 11
REMARK SMILES IDX 18 12 19 13 15 14 13 15 14 16 12 18 8 19 9 20 97 21 10 22
REMARK SMILES IDX 11 23 7 24 1 25 2 26 3 27 98 28 4 29 99 30 5 31 6 32 20 33
REMARK SMILES IDX 29 35 30 36 31 37 32 38 33 39 34 40 35 41 36 42 37 43 95 44
REMARK SMILES IDX 38 45 94 46 39 47 40 48 41 49 88 50 42 51 93 52 87 53 89 54
REMARK SMILES IDX 43 55 92 56 86 57 85 58 44 60 74 61 55 62 73 63 56 64 59 65
REMARK SMILES IDX 72 66 90 67 57 68 58 69 71 71 91 72 60 73 45 74 46 75 54 76
REMARK SMILES IDX 47 77 53 78 48 79 49 80 50 81 51 82 52 83 75 84 76 85 84 86
REMARK SMILES IDX 77 87 83 88 78 89 79 90 80 91 81 92 82 93 61 94 62 95 70 96
REMARK SMILES IDX 63 97 69 98 64 99 65 100 66 101 67 102 68 103
REMARK H PARENT 15 17 20 34 89 59 59 70
REMARK Flexibility Score: inf
ROOT
ATOM      1  C   UNL A   1      38.060  31.027  29.348  1.00  0.00     0.188 C 
ENDROOT
BRANCH   1   2
ATOM      2  O   UNL A   1      36.979  31.902  29.578  1.00  0.00    -0.376 OA
BRANCH   2   3
ATOM      3  C   UNL A   1      36.960  33.179  28.978  1.00  0.00     0.202 C 
BRANCH   3   4
ATOM      4  C   UNL A   1      35.672  33.957  28.659  1.00  0.00     0.261 C 
BRANCH   4   5
ATOM      5  O   UNL A   1      34.469  33.679  29.381  1.00  0.00    -0.460 OA
BRANCH   5   6
ATOM      6  C   UNL A   1      33.997  34.619  30.221  1.00  0.00     0.342 C 
ATOM      7  O   UNL A   1      33.350  35.610  29.938  1.00  0.00    -0.246 OA
BRANCH   6   8
ATOM      8  C   UNL A   1      34.272  34.285  31.620  1.00  0.00     0.103 A 
ATOM      9  C   UNL A   1      35.334  32.715  33.038  1.00  0.00     0.042 A 
ATOM     10  C   UNL A   1      35.415  33.657  34.067  1.00  0.00     0.030 A 
ATOM     11  C   UNL A   1      34.584  32.969  31.903  1.00  0.00     0.045 A 
ATOM     12  C   UNL A   1      34.948  34.954  33.840  1.00  0.00     0.049 A 
ATOM     13  C   UNL A   1      34.454  35.284  32.583  1.00  0.00     0.130 A 
BRANCH   9  14
ATOM     14  N   UNL A   1      36.173  31.599  33.065  1.00  0.00    -0.322 N 
ATOM     15  C   UNL A   1      37.547  31.570  33.265  1.00  0.00     0.255 C 
ATOM     16  O   UNL A   1      38.152  30.530  33.000  1.00  0.00    -0.269 OA
ATOM     17  H   UNL A   1      35.737  30.728  32.925  1.00  0.00     0.170 HD
BRANCH  15  18
ATOM     18  C   UNL A   1      38.334  32.734  33.835  1.00  0.00     0.042 A 
ATOM     19  C   UNL A   1      39.245  34.131  35.668  1.00  0.00     0.061 A 
ATOM     20  C   UNL A   1      39.783  34.983  34.698  1.00  0.00     0.027 A 
ATOM     21  C   UNL A   1      38.582  32.967  35.211  1.00  0.00     0.041 A 
ATOM     22  C   UNL A   1      39.610  34.733  33.333  1.00  0.00     0.003 A 
ATOM     23  C   UNL A   1      38.872  33.631  32.905  1.00  0.00     0.014 A 
BRANCH  19  24
ATOM     24  N   UNL A   1      39.311  34.511  37.064  1.00  0.00    -0.207 N 
ATOM     25  C   UNL A   1      39.041  37.408  39.280  1.00  0.00     0.019 C 
ATOM     26  C   UNL A   1      39.607  36.012  38.987  1.00  0.00     0.094 C 
ATOM     27  C   UNL A   1      38.700  34.908  39.521  1.00  0.00     0.173 C 
ATOM     28  C   UNL A   1      39.853  35.754  37.496  1.00  0.00     0.244 C 
ATOM     29  S   UNL A   1      38.652  33.604  38.308  1.00  0.00     0.242 S 
ATOM     30  O   UNL A   1      40.483  36.535  36.789  1.00  0.00    -0.273 OA
ATOM     31  O   UNL A   1      39.616  32.587  38.668  1.00  0.00    -0.206 OA
ATOM     32  O   UNL A   1      37.269  33.296  38.029  1.00  0.00    -0.206 OA
ENDBRANCH  19  24
ENDBRANCH  15  18
ENDBRANCH   9  14
BRANCH  13  33
ATOM     33  O   UNL A   1      34.208  36.603  32.331  1.00  0.00    -0.507 OA
ATOM     34  H   UNL A   1      34.565  37.008  31.564  1.00  0.00     0.293 HD
ENDBRANCH  13  33
ENDBRANCH   6   8
ENDBRANCH   5   6
ENDBRANCH   4   5
ENDBRANCH   3   4
ENDBRANCH   2   3
ENDBRANCH   1   2
BRANCH   1  35
ATOM     35  C   UNL A   1      37.688  29.538  29.522  1.00  0.00     0.188 C 
BRANCH  35  36
ATOM     36  O   UNL A   1      38.572  28.546  29.023  1.00  0.00    -0.376 OA
BRANCH  36  37
ATOM     37  C   UNL A   1      39.053  28.704  27.696  1.00  0.00     0.202 C 
BRANCH  37  38
ATOM     38  C   UNL A   1      40.552  28.981  27.458  1.00  0.00     0.261 C 
BRANCH  38  39
ATOM     39  O   UNL A   1      41.399  29.041  28.626  1.00  0.00    -0.460 OA
BRANCH  39  40
ATOM     40  C   UNL A   1      42.486  29.856  28.537  1.00  0.00     0.338 C 
ATOM     41  O   UNL A   1      43.162  30.053  27.542  1.00  0.00    -0.246 OA
BRANCH  40  42
ATOM     42  C   UNL A   1      42.648  30.660  29.777  1.00  0.00     0.060 A 
ATOM     43  C   UNL A   1      41.516  31.250  30.368  1.00  0.00     0.016 A 
ATOM     44  C   UNL A   1      43.914  30.919  30.299  1.00  0.00     0.016 A 
ATOM     45  C   UNL A   1      41.646  32.125  31.449  1.00  0.00     0.010 A 
ATOM     46  C   UNL A   1      44.047  31.828  31.360  1.00  0.00     0.010 A 
ATOM     47  C   UNL A   1      42.920  32.468  31.913  1.00  0.00    -0.014 A 
BRANCH  47  48
ATOM     48  C   UNL A   1      43.099  33.656  32.790  1.00  0.00     0.031 A 
ATOM     49  C   UNL A   1      43.340  34.993  32.133  1.00  0.00     0.074 A 
ATOM     50  C   UNL A   1      43.049  33.573  34.132  1.00  0.00     0.049 A 
ATOM     51  N   UNL A   1      43.636  36.146  32.676  1.00  0.00    -0.248 NA
ATOM     52  C   UNL A   1      43.235  35.028  30.665  1.00  0.00     0.031 C 
ATOM     53  C   UNL A   1      42.751  32.367  34.899  1.00  0.00     0.029 A 
ATOM     54  N   UNL A   1      43.268  34.536  35.090  1.00  0.00    -0.354 N 
ATOM     55  C   UNL A   1      43.775  37.037  31.617  1.00  0.00     0.074 A 
ATOM     56  C   UNL A   1      43.553  36.286  30.401  1.00  0.00     0.031 C 
ATOM     57  C   UNL A   1      42.829  32.654  36.211  1.00  0.00     0.029 A 
ATOM     58  C   UNL A   1      43.221  34.054  36.377  1.00  0.00     0.049 A 
ATOM     59  H   UNL A   1      43.442  35.481  34.874  1.00  0.00     0.167 HD
ATOM     60  C   UNL A   1      44.063  38.360  31.650  1.00  0.00     0.031 A 
ATOM     61  C   UNL A   1      43.495  34.663  37.550  1.00  0.00     0.031 A 
ATOM     62  C   UNL A   1      44.297  39.107  32.858  1.00  0.00     0.049 A 
ATOM     63  C   UNL A   1      43.906  36.115  37.560  1.00  0.00     0.074 A 
ATOM     64  C   UNL A   1      44.584  40.454  32.994  1.00  0.00     0.029 A 
ATOM     65  N   UNL A   1      44.277  38.572  34.137  1.00  0.00    -0.354 N 
ATOM     66  N   UNL A   1      44.027  36.947  36.553  1.00  0.00    -0.248 NA
ATOM     67  C   UNL A   1      44.216  36.711  38.869  1.00  0.00     0.031 C 
ATOM     68  C   UNL A   1      44.805  40.719  34.349  1.00  0.00     0.029 A 
ATOM     69  C   UNL A   1      44.581  39.554  35.065  1.00  0.00     0.049 A 
ATOM     70  H   UNL A   1      44.077  37.632  34.354  1.00  0.00     0.167 HD
ATOM     71  C   UNL A   1      44.395  38.170  37.109  1.00  0.00     0.074 A 
ATOM     72  C   UNL A   1      44.464  37.972  38.542  1.00  0.00     0.031 C 
ATOM     73  C   UNL A   1      44.648  39.350  36.491  1.00  0.00     0.031 A 
BRANCH  60  74
ATOM     74  C   UNL A   1      44.189  39.078  30.331  1.00  0.00    -0.014 A 
ATOM     75  C   UNL A   1      43.145  39.874  29.828  1.00  0.00     0.010 A 
ATOM     76  C   UNL A   1      45.389  38.982  29.602  1.00  0.00     0.010 A 
ATOM     77  C   UNL A   1      43.285  40.529  28.600  1.00  0.00     0.020 A 
ATOM     78  C   UNL A   1      45.544  39.660  28.390  1.00  0.00     0.020 A 
ATOM     79  C   UNL A   1      44.484  40.415  27.889  1.00  0.00     0.054 A 
BRANCH  79  80
ATOM     80  S   UNL A   1      44.644  41.294  26.310  1.00  0.00     0.124 S 
ATOM     81  O   UNL A   1      46.063  41.116  26.010  1.00  0.00    -0.237 OA
ATOM     82  O   UNL A   1      43.724  40.565  25.443  1.00  0.00    -0.237 OA
ATOM     83  O   UNL A   1      44.243  42.662  26.630  1.00  0.00    -0.744 OA
ENDBRANCH  79  80
ENDBRANCH  60  74
BRANCH  61  84
ATOM     84  C   UNL A   1      43.424  33.892  38.825  1.00  0.00    -0.014 A 
ATOM     85  C   UNL A   1      44.444  32.993  39.181  1.00  0.00     0.010 A 
ATOM     86  C   UNL A   1      42.321  34.045  39.685  1.00  0.00     0.010 A 
ATOM     87  C   UNL A   1      44.357  32.253  40.365  1.00  0.00     0.020 A 
ATOM     88  C   UNL A   1      42.244  33.332  40.884  1.00  0.00     0.020 A 
ATOM     89  C   UNL A   1      43.260  32.431  41.212  1.00  0.00     0.054 A 
BRANCH  89  90
ATOM     90  S   UNL A   1      43.198  31.509  42.773  1.00  0.00     0.124 S 
ATOM     91  O   UNL A   1      44.601  31.165  42.980  1.00  0.00    -0.237 OA
ATOM     92  O   UNL A   1      42.643  32.495  43.697  1.00  0.00    -0.237 OA
ATOM     93  O   UNL A   1      42.314  30.386  42.471  1.00  0.00    -0.744 OA
ENDBRANCH  89  90
ENDBRANCH  61  84
BRANCH  73  94
ATOM     94  C   UNL A   1      44.987  40.540  37.353  1.00  0.00    -0.014 A 
ATOM     95  C   UNL A   1      46.320  40.886  37.638  1.00  0.00     0.010 A 
ATOM     96  C   UNL A   1      43.951  41.364  37.833  1.00  0.00     0.010 A 
ATOM     97  C   UNL A   1      46.609  42.015  38.411  1.00  0.00     0.020 A 
ATOM     98  C   UNL A   1      44.237  42.511  38.579  1.00  0.00     0.020 A 
ATOM     99  C   UNL A   1      45.565  42.822  38.876  1.00  0.00     0.054 A 
BRANCH  99 100
ATOM    100  S   UNL A   1      45.971  44.306  39.836  1.00  0.00     0.124 S 
ATOM    101  O   UNL A   1      44.786  44.458  40.676  1.00  0.00    -0.237 OA
ATOM    102  O   UNL A   1      47.191  43.911  40.535  1.00  0.00    -0.237 OA
ATOM    103  O   UNL A   1      46.149  45.341  38.819  1.00  0.00    -0.744 OA
ENDBRANCH  99 100
ENDBRANCH  73  94
ENDBRANCH  47  48
ENDBRANCH  40  42
ENDBRANCH  39  40
ENDBRANCH  38  39
ENDBRANCH  37  38
ENDBRANCH  36  37
ENDBRANCH  35  36
ENDBRANCH   1  35
TORSDOF 24
ENDMDL
MODEL 3
REMARK VINA RESULT:      -7.5      3.919     11.313
REMARK SMILES C[C@H]1CS(=O)(=O)N(c2cccc(C(=O)Nc3ccc(O)c(C(=O)OCCOCCOCCOC(=O)c4ccc(-c5c6nc(c(-c7ccc(S(=O)(=O)[O-])cc7)c7ccc([nH]7)c(-c7ccc(S(=O)(=O)[O-])cc7)c7nc(c(-c8ccc(S(=O)(=O)[O-])cc8)c8ccc5[nH]8)C=C7)C=C6)cc4)c3)c2)C1=O
REMARK SMILES IDX 28 1 27 2 26 3 25 4 24 5 22 6 23 7 21 8 16 9 17 10 96 11
REMARK SMILES IDX 18 12 19 13 15 14 13 15 14 16 12 18 8 19 9 20 97 21 10 22
REMARK SMILES IDX 11 23 7 24 1 25 2 26 3 27 98 28 4 29 99 30 5 31 6 32 20 33
REMARK SMILES IDX 29 35 30 36 31 37 32 38 33 39 34 40 35 41 36 42 37 43 95 44
REMARK SMILES IDX 38 45 94 46 39 47 40 48 41 49 88 50 42 51 93 52 87 53 89 54
REMARK SMILES IDX 43 55 92 56 86 57 85 58 44 60 74 61 55 62 73 63 56 64 59 65
REMARK SMILES IDX 72 66 90 67 57 68 58 69 71 71 91 72 60 73 45 74 46 75 54 76
REMARK SMILES IDX 47 77 53 78 48 79 49 80 50 81 51 82 52 83 75 84 76 85 84 86
REMARK SMILES IDX 77 87 83 88 78 89 79 90 80 91 81 92 82 93 61 94 62 95 70 96
REMARK SMILES IDX 63 97 69 98 64 99 65 100 66 101 67 102 68 103
REMARK H PARENT 15 17 20 34 89 59 59 70
REMARK Flexibility Score: inf
ROOT
ATOM      1  C   UNL A   1      52.111  24.163  32.083  1.00  0.00     0.188 C 
ENDROOT
BRANCH   1   2
ATOM      2  O   UNL A   1      51.727  25.401  31.528  1.00  0.00    -0.376 OA
BRANCH   2   3
ATOM      3  C   UNL A   1      50.984  25.441  30.329  1.00  0.00     0.202 C 
BRANCH   3   4
ATOM      4  C   UNL A   1      50.873  26.685  29.431  1.00  0.00     0.261 C 
BRANCH   4   5
ATOM      5  O   UNL A   1      50.283  26.582  28.132  1.00  0.00    -0.460 OA
BRANCH   5   6
ATOM      6  C   UNL A   1      50.899  27.191  27.102  1.00  0.00     0.342 C 
ATOM      7  O   UNL A   1      51.951  27.803  27.122  1.00  0.00    -0.246 OA
BRANCH   6   8
ATOM      8  C   UNL A   1      50.191  26.972  25.839  1.00  0.00     0.103 A 
ATOM      9  C   UNL A   1      48.107  27.227  24.746  1.00  0.00     0.042 A 
ATOM     10  C   UNL A   1      48.728  27.199  23.495  1.00  0.00     0.030 A 
ATOM     11  C   UNL A   1      48.812  26.908  25.894  1.00  0.00     0.045 A 
ATOM     12  C   UNL A   1      50.120  27.097  23.428  1.00  0.00     0.049 A 
ATOM     13  C   UNL A   1      50.853  27.069  24.609  1.00  0.00     0.130 A 
BRANCH   9  14
ATOM     14  N   UNL A   1      46.827  27.771  24.861  1.00  0.00    -0.322 N 
ATOM     15  C   UNL A   1      45.668  27.141  25.294  1.00  0.00     0.255 C 
ATOM     16  O   UNL A   1      44.589  27.699  25.085  1.00  0.00    -0.269 OA
ATOM     17  H   UNL A   1      46.735  28.717  24.603  1.00  0.00     0.170 HD
BRANCH  15  18
ATOM     18  C   UNL A   1      45.662  25.827  26.050  1.00  0.00     0.042 A 
ATOM     19  C   UNL A   1      45.235  23.400  26.309  1.00  0.00     0.061 A 
ATOM     20  C   UNL A   1      45.671  23.505  27.634  1.00  0.00     0.027 A 
ATOM     21  C   UNL A   1      45.307  24.565  25.509  1.00  0.00     0.041 A 
ATOM     22  C   UNL A   1      46.093  24.727  28.167  1.00  0.00     0.003 A 
ATOM     23  C   UNL A   1      46.067  25.883  27.388  1.00  0.00     0.014 A 
BRANCH  19  24
ATOM     24  N   UNL A   1      44.658  22.155  25.847  1.00  0.00    -0.207 N 
ATOM     25  C   UNL A   1      45.405  18.594  25.476  1.00  0.00     0.019 C 
ATOM     26  C   UNL A   1      44.642  19.842  25.014  1.00  0.00     0.094 C 
ATOM     27  C   UNL A   1      43.301  19.984  25.728  1.00  0.00     0.173 C 
ATOM     28  C   UNL A   1      45.429  21.144  25.206  1.00  0.00     0.244 C 
ATOM     29  S   UNL A   1      43.068  21.706  26.118  1.00  0.00     0.242 S 
ATOM     30  O   UNL A   1      46.582  21.279  24.808  1.00  0.00    -0.273 OA
ATOM     31  O   UNL A   1      42.257  22.320  25.089  1.00  0.00    -0.206 OA
ATOM     32  O   UNL A   1      42.748  21.813  27.523  1.00  0.00    -0.206 OA
ENDBRANCH  19  24
ENDBRANCH  15  18
ENDBRANCH   9  14
BRANCH  13  33
ATOM     33  O   UNL A   1      52.209  27.186  24.511  1.00  0.00    -0.507 OA
ATOM     34  H   UNL A   1      52.695  27.605  25.195  1.00  0.00     0.293 HD
ENDBRANCH  13  33
ENDBRANCH   6   8
ENDBRANCH   5   6
ENDBRANCH   4   5
ENDBRANCH   3   4
ENDBRANCH   2   3
ENDBRANCH   1   2
BRANCH   1  35
ATOM     35  C   UNL A   1      52.890  24.304  33.409  1.00  0.00     0.188 C 
BRANCH  35  36
ATOM     36  O   UNL A   1      52.530  23.483  34.509  1.00  0.00    -0.376 OA
BRANCH  36  37
ATOM     37  C   UNL A   1      51.371  22.674  34.370  1.00  0.00     0.202 C 
BRANCH  37  38
ATOM     38  C   UNL A   1      49.984  23.272  34.686  1.00  0.00     0.261 C 
BRANCH  38  39
ATOM     39  O   UNL A   1      49.304  23.951  33.607  1.00  0.00    -0.460 OA
BRANCH  39  40
ATOM     40  C   UNL A   1      49.026  25.268  33.809  1.00  0.00     0.338 C 
ATOM     41  O   UNL A   1      49.751  26.087  34.348  1.00  0.00    -0.246 OA
BRANCH  40  42
ATOM     42  C   UNL A   1      47.779  25.660  33.099  1.00  0.00     0.060 A 
ATOM     43  C   UNL A   1      47.870  26.363  31.884  1.00  0.00     0.016 A 
ATOM     44  C   UNL A   1      46.530  25.430  33.673  1.00  0.00     0.016 A 
ATOM     45  C   UNL A   1      46.726  26.868  31.262  1.00  0.00     0.010 A 
ATOM     46  C   UNL A   1      45.386  25.972  33.068  1.00  0.00     0.010 A 
ATOM     47  C   UNL A   1      45.481  26.729  31.883  1.00  0.00    -0.014 A 
BRANCH  47  48
ATOM     48  C   UNL A   1      44.331  27.564  31.444  1.00  0.00     0.031 A 
ATOM     49  C   UNL A   1      44.218  28.964  31.996  1.00  0.00     0.074 A 
ATOM     50  C   UNL A   1      43.405  27.114  30.577  1.00  0.00     0.049 A 
ATOM     51  N   UNL A   1      43.256  29.840  31.856  1.00  0.00    -0.248 NA
ATOM     52  C   UNL A   1      45.344  29.433  32.821  1.00  0.00     0.031 C 
ATOM     53  C   UNL A   1      43.426  25.817  29.907  1.00  0.00     0.029 A 
ATOM     54  N   UNL A   1      42.248  27.707  30.127  1.00  0.00    -0.354 N 
ATOM     55  C   UNL A   1      43.649  30.952  32.592  1.00  0.00     0.074 A 
ATOM     56  C   UNL A   1      44.926  30.633  33.193  1.00  0.00     0.031 C 
ATOM     57  C   UNL A   1      42.321  25.700  29.149  1.00  0.00     0.029 A 
ATOM     58  C   UNL A   1      41.495  26.898  29.310  1.00  0.00     0.049 A 
ATOM     59  H   UNL A   1      41.985  28.625  30.367  1.00  0.00     0.167 HD
ATOM     60  C   UNL A   1      43.008  32.134  32.756  1.00  0.00     0.031 A 
ATOM     61  C   UNL A   1      40.268  27.086  28.780  1.00  0.00     0.031 A 
ATOM     62  C   UNL A   1      41.733  32.450  32.169  1.00  0.00     0.049 A 
ATOM     63  C   UNL A   1      39.527  28.373  29.051  1.00  0.00     0.074 A 
ATOM     64  C   UNL A   1      41.009  33.625  32.268  1.00  0.00     0.029 A 
ATOM     65  N   UNL A   1      40.987  31.587  31.380  1.00  0.00    -0.354 N 
ATOM     66  N   UNL A   1      39.913  29.419  29.742  1.00  0.00    -0.248 NA
ATOM     67  C   UNL A   1      38.184  28.504  28.466  1.00  0.00     0.031 C 
ATOM     68  C   UNL A   1      39.795  33.449  31.595  1.00  0.00     0.029 A 
ATOM     69  C   UNL A   1      39.797  32.191  31.014  1.00  0.00     0.049 A 
ATOM     70  H   UNL A   1      41.264  30.679  31.119  1.00  0.00     0.167 HD
ATOM     71  C   UNL A   1      38.875  30.343  29.648  1.00  0.00     0.074 A 
ATOM     72  C   UNL A   1      37.852  29.737  28.823  1.00  0.00     0.031 C 
ATOM     73  C   UNL A   1      38.781  31.582  30.192  1.00  0.00     0.031 A 
BRANCH  60  74
ATOM     74  C   UNL A   1      43.658  33.161  33.647  1.00  0.00    -0.014 A 
ATOM     75  C   UNL A   1      44.430  34.209  33.116  1.00  0.00     0.010 A 
ATOM     76  C   UNL A   1      43.461  33.094  35.039  1.00  0.00     0.010 A 
ATOM     77  C   UNL A   1      45.025  35.149  33.964  1.00  0.00     0.020 A 
ATOM     78  C   UNL A   1      44.027  34.049  35.887  1.00  0.00     0.020 A 
ATOM     79  C   UNL A   1      44.821  35.060  35.344  1.00  0.00     0.054 A 
BRANCH  79  80
ATOM     80  S   UNL A   1      45.586  36.306  36.418  1.00  0.00     0.124 S 
ATOM     81  O   UNL A   1      45.404  35.717  37.742  1.00  0.00    -0.237 OA
ATOM     82  O   UNL A   1      46.963  36.344  35.932  1.00  0.00    -0.237 OA
ATOM     83  O   UNL A   1      44.805  37.514  36.162  1.00  0.00    -0.744 OA
ENDBRANCH  79  80
ENDBRANCH  60  74
BRANCH  61  84
ATOM     84  C   UNL A   1      39.636  26.012  27.961  1.00  0.00    -0.014 A 
ATOM     85  C   UNL A   1      38.621  25.200  28.497  1.00  0.00     0.010 A 
ATOM     86  C   UNL A   1      40.061  25.787  26.638  1.00  0.00     0.010 A 
ATOM     87  C   UNL A   1      38.052  24.176  27.731  1.00  0.00     0.020 A 
ATOM     88  C   UNL A   1      39.474  24.786  25.859  1.00  0.00     0.020 A 
ATOM     89  C   UNL A   1      38.479  23.980  26.415  1.00  0.00     0.054 A 
BRANCH  89  90
ATOM     90  S   UNL A   1      37.683  22.689  25.420  1.00  0.00     0.124 S 
ATOM     91  O   UNL A   1      37.449  23.379  24.156  1.00  0.00    -0.237 OA
ATOM     92  O   UNL A   1      38.702  21.642  25.392  1.00  0.00    -0.237 OA
ATOM     93  O   UNL A   1      36.484  22.357  26.186  1.00  0.00    -0.744 OA
ENDBRANCH  89  90
ENDBRANCH  61  84
BRANCH  73  94
ATOM     94  C   UNL A   1      37.546  32.393  29.887  1.00  0.00    -0.014 A 
ATOM     95  C   UNL A   1      37.446  33.167  28.718  1.00  0.00     0.010 A 
ATOM     96  C   UNL A   1      36.441  32.327  30.758  1.00  0.00     0.010 A 
ATOM     97  C   UNL A   1      36.276  33.883  28.440  1.00  0.00     0.020 A 
ATOM     98  C   UNL A   1      35.259  33.014  30.468  1.00  0.00     0.020 A 
ATOM     99  C   UNL A   1      35.189  33.801  29.316  1.00  0.00     0.054 A 
BRANCH  99 100
ATOM    100  S   UNL A   1      33.669  34.701  28.908  1.00  0.00     0.124 S 
ATOM    101  O   UNL A   1      33.066  33.837  27.896  1.00  0.00    -0.237 OA
ATOM    102  O   UNL A   1      32.971  34.749  30.191  1.00  0.00    -0.237 OA
ATOM    103  O   UNL A   1      34.149  35.991  28.418  1.00  0.00    -0.744 OA
ENDBRANCH  99 100
ENDBRANCH  73  94
ENDBRANCH  47  48
ENDBRANCH  40  42
ENDBRANCH  39  40
ENDBRANCH  38  39
ENDBRANCH  37  38
ENDBRANCH  36  37
ENDBRANCH  35  36
ENDBRANCH   1  35
TORSDOF 24
ENDMDL
