MODEL 1
REMARK VINA RESULT:      -9.2      0.000      0.000
REMARK SMILES O=C(OCCOCCOCCOC(=O)c1ccc(S(=O)(=O)Cc2cccs2)c(F)c1)c1ccc(-c2c3nc(c(-c4ccc(S(=O)(=O)[O-])cc4)c4ccc([nH]4)c(-c4ccc(S(=O)(=O)[O-])cc4)c4nc(c(-c5ccc(S(=O)(=O)[O-])cc5)c5ccc2[nH]5)C=C4)C=C3)cc1
REMARK SMILES IDX 7 1 6 2 5 3 4 4 3 5 2 6 1 7 31 8 32 9 90 10 33 11 89 12
REMARK SMILES IDX 34 13 35 14 36 15 83 16 37 17 88 18 82 19 84 20 38 21 87 22
REMARK SMILES IDX 81 23 80 24 39 26 69 27 50 28 68 29 51 30 54 31 67 32 85 33
REMARK SMILES IDX 52 34 53 35 66 37 86 38 55 39 40 40 41 41 49 42 42 43 48 44
REMARK SMILES IDX 43 45 44 46 45 47 46 48 47 49 70 50 71 51 79 52 72 53 78 54
REMARK SMILES IDX 73 55 74 56 75 57 76 58 77 59 56 60 57 61 65 62 58 63 64 64
REMARK SMILES IDX 59 65 60 66 61 67 62 68 63 69 8 70 9 71 10 72 11 73 12 74
REMARK SMILES IDX 13 75 14 76 15 77 16 78 30 79 17 80 28 81 18 82 29 83 19 84
REMARK SMILES IDX 20 85 21 86 22 87 23 88 24 89 27 90 25 91 26 92
REMARK H PARENT 84 25 54 36
REMARK Flexibility Score: inf
ROOT
ATOM      1  C   UNL A   1      34.554  32.724  29.009  1.00  0.00     0.188 C 
ENDROOT
BRANCH   1   2
ATOM      2  O   UNL A   1      33.329  33.457  29.142  1.00  0.00    -0.376 OA
BRANCH   2   3
ATOM      3  C   UNL A   1      33.383  34.774  28.580  1.00  0.00     0.202 C 
BRANCH   3   4
ATOM      4  C   UNL A   1      32.990  35.904  29.546  1.00  0.00     0.261 C 
BRANCH   4   5
ATOM      5  O   UNL A   1      32.517  35.409  30.807  1.00  0.00    -0.460 OA
BRANCH   5   6
ATOM      6  C   UNL A   1      33.189  35.338  31.985  1.00  0.00     0.338 C 
ATOM      7  O   UNL A   1      32.763  35.996  32.934  1.00  0.00    -0.246 OA
BRANCH   6   8
ATOM      8  C   UNL A   1      34.415  34.504  32.204  1.00  0.00     0.060 A 
ATOM      9  C   UNL A   1      34.432  33.227  32.769  1.00  0.00     0.016 A 
ATOM     10  C   UNL A   1      35.640  35.036  31.765  1.00  0.00     0.016 A 
ATOM     11  C   UNL A   1      35.620  32.552  33.012  1.00  0.00     0.010 A 
ATOM     12  C   UNL A   1      36.838  34.336  31.950  1.00  0.00     0.010 A 
ATOM     13  C   UNL A   1      36.831  33.106  32.618  1.00  0.00    -0.014 A 
BRANCH  13  14
ATOM     14  C   UNL A   1      38.078  32.445  33.050  1.00  0.00     0.031 A 
ATOM     15  C   UNL A   1      38.600  32.743  34.423  1.00  0.00     0.074 A 
ATOM     16  C   UNL A   1      38.658  31.507  32.281  1.00  0.00     0.049 A 
ATOM     17  N   UNL A   1      39.695  32.328  34.997  1.00  0.00    -0.248 NA
ATOM     18  C   UNL A   1      37.751  33.591  35.279  1.00  0.00     0.031 C 
ATOM     19  C   UNL A   1      38.129  31.015  31.008  1.00  0.00     0.029 A 
ATOM     20  N   UNL A   1      39.822  30.805  32.449  1.00  0.00    -0.354 N 
ATOM     21  C   UNL A   1      39.668  32.860  36.279  1.00  0.00     0.074 A 
ATOM     22  C   UNL A   1      38.465  33.654  36.391  1.00  0.00     0.031 C 
ATOM     23  C   UNL A   1      39.005  30.151  30.471  1.00  0.00     0.029 A 
ATOM     24  C   UNL A   1      40.168  30.067  31.341  1.00  0.00     0.049 A 
ATOM     25  H   UNL A   1      40.355  30.827  33.276  1.00  0.00     0.167 HD
ATOM     26  C   UNL A   1      40.568  32.688  37.274  1.00  0.00     0.031 A 
ATOM     27  C   UNL A   1      41.321  29.446  31.035  1.00  0.00     0.031 A 
ATOM     28  C   UNL A   1      41.772  31.921  37.118  1.00  0.00     0.049 A 
ATOM     29  C   UNL A   1      42.403  29.432  32.073  1.00  0.00     0.074 A 
ATOM     30  C   UNL A   1      42.784  31.703  38.033  1.00  0.00     0.029 A 
ATOM     31  N   UNL A   1      42.132  31.258  35.950  1.00  0.00    -0.354 N 
ATOM     32  N   UNL A   1      42.388  29.957  33.276  1.00  0.00    -0.248 NA
ATOM     33  C   UNL A   1      43.639  28.719  31.735  1.00  0.00     0.031 C 
ATOM     34  C   UNL A   1      43.783  30.955  37.399  1.00  0.00     0.029 A 
ATOM     35  C   UNL A   1      43.366  30.657  36.108  1.00  0.00     0.049 A 
ATOM     36  H   UNL A   1      41.587  31.223  35.131  1.00  0.00     0.167 HD
ATOM     37  C   UNL A   1      43.598  29.608  33.856  1.00  0.00     0.074 A 
ATOM     38  C   UNL A   1      44.322  28.830  32.867  1.00  0.00     0.031 C 
ATOM     39  C   UNL A   1      44.057  29.890  35.100  1.00  0.00     0.031 A 
BRANCH  26  40
ATOM     40  C   UNL A   1      40.296  33.411  38.565  1.00  0.00    -0.014 A 
ATOM     41  C   UNL A   1      39.331  32.947  39.478  1.00  0.00     0.010 A 
ATOM     42  C   UNL A   1      40.974  34.612  38.837  1.00  0.00     0.010 A 
ATOM     43  C   UNL A   1      39.004  33.704  40.606  1.00  0.00     0.020 A 
ATOM     44  C   UNL A   1      40.668  35.359  39.978  1.00  0.00     0.020 A 
ATOM     45  C   UNL A   1      39.664  34.914  40.841  1.00  0.00     0.054 A 
BRANCH  45  46
ATOM     46  S   UNL A   1      39.190  35.903  42.285  1.00  0.00     0.124 S 
ATOM     47  O   UNL A   1      40.246  35.566  43.239  1.00  0.00    -0.237 OA
ATOM     48  O   UNL A   1      39.227  37.269  41.768  1.00  0.00    -0.237 OA
ATOM     49  O   UNL A   1      37.861  35.405  42.627  1.00  0.00    -0.744 OA
ENDBRANCH  45  46
ENDBRANCH  26  40
BRANCH  27  50
ATOM     50  C   UNL A   1      41.512  28.867  29.678  1.00  0.00    -0.014 A 
ATOM     51  C   UNL A   1      41.926  29.659  28.595  1.00  0.00     0.010 A 
ATOM     52  C   UNL A   1      41.329  27.485  29.481  1.00  0.00     0.010 A 
ATOM     53  C   UNL A   1      42.158  29.076  27.343  1.00  0.00     0.020 A 
ATOM     54  C   UNL A   1      41.580  26.894  28.239  1.00  0.00     0.020 A 
ATOM     55  C   UNL A   1      41.990  27.696  27.174  1.00  0.00     0.054 A 
BRANCH  55  56
ATOM     56  S   UNL A   1      42.377  26.958  25.561  1.00  0.00     0.124 S 
ATOM     57  O   UNL A   1      41.234  26.078  25.344  1.00  0.00    -0.237 OA
ATOM     58  O   UNL A   1      42.449  28.129  24.690  1.00  0.00    -0.237 OA
ATOM     59  O   UNL A   1      43.655  26.286  25.787  1.00  0.00    -0.744 OA
ENDBRANCH  55  56
ENDBRANCH  27  50
BRANCH  39  60
ATOM     60  C   UNL A   1      45.390  29.311  35.478  1.00  0.00    -0.014 A 
ATOM     61  C   UNL A   1      46.582  30.014  35.243  1.00  0.00     0.010 A 
ATOM     62  C   UNL A   1      45.431  28.075  36.149  1.00  0.00     0.010 A 
ATOM     63  C   UNL A   1      47.802  29.482  35.664  1.00  0.00     0.020 A 
ATOM     64  C   UNL A   1      46.645  27.554  36.595  1.00  0.00     0.020 A 
ATOM     65  C   UNL A   1      47.824  28.258  36.342  1.00  0.00     0.054 A 
BRANCH  65  66
ATOM     66  S   UNL A   1      49.411  27.625  36.947  1.00  0.00     0.124 S 
ATOM     67  O   UNL A   1      50.002  27.075  35.731  1.00  0.00    -0.237 OA
ATOM     68  O   UNL A   1      50.056  28.826  37.473  1.00  0.00    -0.237 OA
ATOM     69  O   UNL A   1      49.027  26.640  37.956  1.00  0.00    -0.744 OA
ENDBRANCH  65  66
ENDBRANCH  39  60
ENDBRANCH  13  14
ENDBRANCH   6   8
ENDBRANCH   5   6
ENDBRANCH   4   5
ENDBRANCH   3   4
ENDBRANCH   2   3
ENDBRANCH   1   2
BRANCH   1  70
ATOM     70  C   UNL A   1      34.576  31.867  27.741  1.00  0.00     0.188 C 
BRANCH  70  71
ATOM     71  O   UNL A   1      33.307  31.393  27.291  1.00  0.00    -0.376 OA
BRANCH  71  72
ATOM     72  C   UNL A   1      33.197  29.994  27.044  1.00  0.00     0.202 C 
BRANCH  72  73
ATOM     73  C   UNL A   1      33.017  29.544  25.587  1.00  0.00     0.261 C 
BRANCH  73  74
ATOM     74  O   UNL A   1      33.962  28.564  25.118  1.00  0.00    -0.460 OA
BRANCH  74  75
ATOM     75  C   UNL A   1      33.575  27.900  24.002  1.00  0.00     0.338 C 
ATOM     76  O   UNL A   1      33.391  28.383  22.890  1.00  0.00    -0.246 OA
BRANCH  75  77
ATOM     77  C   UNL A   1      33.292  26.476  24.272  1.00  0.00     0.063 A 
ATOM     78  C   UNL A   1      33.531  25.568  23.233  1.00  0.00     0.017 A 
ATOM     79  C   UNL A   1      32.909  26.008  25.535  1.00  0.00     0.056 A 
ATOM     80  C   UNL A   1      33.400  24.196  23.455  1.00  0.00     0.024 A 
ATOM     81  C   UNL A   1      32.784  24.628  25.749  1.00  0.00     0.142 A 
ATOM     82  C   UNL A   1      33.031  23.726  24.722  1.00  0.00     0.103 A 
ATOM     83  F   UNL A   1      32.415  24.211  26.965  1.00  0.00    -0.206 F 
BRANCH  82  84
ATOM     84  S   UNL A   1      32.880  21.977  24.946  1.00  0.00     0.186 S 
ATOM     85  O   UNL A   1      31.578  21.757  25.543  1.00  0.00    -0.223 OA
ATOM     86  O   UNL A   1      33.191  21.373  23.658  1.00  0.00    -0.223 OA
BRANCH  84  87
ATOM     87  C   UNL A   1      34.072  21.385  26.105  1.00  0.00     0.188 C 
BRANCH  87  88
ATOM     88  C   UNL A   1      35.476  21.861  25.881  1.00  0.00     0.020 A 
ATOM     89  C   UNL A   1      36.102  23.060  26.161  1.00  0.00     0.016 A 
ATOM     90  S   UNL A   1      36.548  20.782  25.071  1.00  0.00    -0.148 S 
ATOM     91  C   UNL A   1      37.467  23.073  25.748  1.00  0.00     0.012 A 
ATOM     92  C   UNL A   1      37.832  21.901  25.132  1.00  0.00     0.065 A 
ENDBRANCH  87  88
ENDBRANCH  84  87
ENDBRANCH  82  84
ENDBRANCH  75  77
ENDBRANCH  74  75
ENDBRANCH  73  74
ENDBRANCH  72  73
ENDBRANCH  71  72
ENDBRANCH  70  71
ENDBRANCH   1  70
TORSDOF 23
ENDMDL
MODEL 2
REMARK VINA RESULT:      -8.9      5.671     10.239
REMARK SMILES O=C(OCCOCCOCCOC(=O)c1ccc(S(=O)(=O)Cc2cccs2)c(F)c1)c1ccc(-c2c3nc(c(-c4ccc(S(=O)(=O)[O-])cc4)c4ccc([nH]4)c(-c4ccc(S(=O)(=O)[O-])cc4)c4nc(c(-c5ccc(S(=O)(=O)[O-])cc5)c5ccc2[nH]5)C=C4)C=C3)cc1
REMARK SMILES IDX 7 1 6 2 5 3 4 4 3 5 2 6 1 7 31 8 32 9 90 10 33 11 89 12
REMARK SMILES IDX 34 13 35 14 36 15 83 16 37 17 88 18 82 19 84 20 38 21 87 22
REMARK SMILES IDX 81 23 80 24 39 26 69 27 50 28 68 29 51 30 54 31 67 32 85 33
REMARK SMILES IDX 52 34 53 35 66 37 86 38 55 39 40 40 41 41 49 42 42 43 48 44
REMARK SMILES IDX 43 45 44 46 45 47 46 48 47 49 70 50 71 51 79 52 72 53 78 54
REMARK SMILES IDX 73 55 74 56 75 57 76 58 77 59 56 60 57 61 65 62 58 63 64 64
REMARK SMILES IDX 59 65 60 66 61 67 62 68 63 69 8 70 9 71 10 72 11 73 12 74
REMARK SMILES IDX 13 75 14 76 15 77 16 78 30 79 17 80 28 81 18 82 29 83 19 84
REMARK SMILES IDX 20 85 21 86 22 87 23 88 24 89 27 90 25 91 26 92
REMARK H PARENT 84 25 54 36
REMARK Flexibility Score: inf
ROOT
ATOM      1  C   UNL A   1      35.608  31.746  28.861  1.00  0.00     0.188 C 
ENDROOT
BRANCH   1   2
ATOM      2  O   UNL A   1      35.672  33.067  29.415  1.00  0.00    -0.376 OA
BRANCH   2   3
ATOM      3  C   UNL A   1      35.583  33.095  30.845  1.00  0.00     0.202 C 
BRANCH   3   4
ATOM      4  C   UNL A   1      36.807  33.693  31.557  1.00  0.00     0.261 C 
BRANCH   4   5
ATOM      5  O   UNL A   1      37.490  32.732  32.375  1.00  0.00    -0.460 OA
BRANCH   5   6
ATOM      6  C   UNL A   1      37.650  31.403  32.149  1.00  0.00     0.338 C 
ATOM      7  O   UNL A   1      36.759  30.641  32.523  1.00  0.00    -0.246 OA
BRANCH   6   8
ATOM      8  C   UNL A   1      38.842  30.803  31.466  1.00  0.00     0.060 A 
ATOM      9  C   UNL A   1      39.893  30.143  32.107  1.00  0.00     0.016 A 
ATOM     10  C   UNL A   1      38.881  30.876  30.063  1.00  0.00     0.016 A 
ATOM     11  C   UNL A   1      41.002  29.686  31.409  1.00  0.00     0.010 A 
ATOM     12  C   UNL A   1      39.967  30.363  29.344  1.00  0.00     0.010 A 
ATOM     13  C   UNL A   1      41.055  29.805  30.026  1.00  0.00    -0.014 A 
BRANCH  13  14
ATOM     14  C   UNL A   1      42.318  29.471  29.341  1.00  0.00     0.031 A 
ATOM     15  C   UNL A   1      42.507  28.070  28.843  1.00  0.00     0.074 A 
ATOM     16  C   UNL A   1      43.220  30.429  29.062  1.00  0.00     0.049 A 
ATOM     17  N   UNL A   1      43.546  27.533  28.267  1.00  0.00    -0.248 NA
ATOM     18  C   UNL A   1      41.352  27.164  28.978  1.00  0.00     0.031 C 
ATOM     19  C   UNL A   1      43.050  31.855  29.344  1.00  0.00     0.029 A 
ATOM     20  N   UNL A   1      44.462  30.351  28.489  1.00  0.00    -0.354 N 
ATOM     21  C   UNL A   1      43.172  26.230  27.967  1.00  0.00     0.074 A 
ATOM     22  C   UNL A   1      41.824  26.046  28.453  1.00  0.00     0.031 C 
ATOM     23  C   UNL A   1      44.177  32.507  29.017  1.00  0.00     0.029 A 
ATOM     24  C   UNL A   1      45.155  31.537  28.547  1.00  0.00     0.049 A 
ATOM     25  H   UNL A   1      44.820  29.532  28.078  1.00  0.00     0.167 HD
ATOM     26  C   UNL A   1      43.895  25.279  27.332  1.00  0.00     0.031 A 
ATOM     27  C   UNL A   1      46.453  31.799  28.309  1.00  0.00     0.031 A 
ATOM     28  C   UNL A   1      45.247  25.485  26.894  1.00  0.00     0.049 A 
ATOM     29  C   UNL A   1      47.307  30.680  27.794  1.00  0.00     0.074 A 
ATOM     30  C   UNL A   1      46.102  24.592  26.276  1.00  0.00     0.029 A 
ATOM     31  N   UNL A   1      45.948  26.675  27.048  1.00  0.00    -0.354 N 
ATOM     32  N   UNL A   1      46.961  29.441  27.535  1.00  0.00    -0.248 NA
ATOM     33  C   UNL A   1      48.711  30.994  27.506  1.00  0.00     0.031 C 
ATOM     34  C   UNL A   1      47.339  25.226  26.109  1.00  0.00     0.029 A 
ATOM     35  C   UNL A   1      47.236  26.532  26.569  1.00  0.00     0.049 A 
ATOM     36  H   UNL A   1      45.581  27.499  27.443  1.00  0.00     0.167 HD
ATOM     37  C   UNL A   1      48.094  28.832  27.017  1.00  0.00     0.074 A 
ATOM     38  C   UNL A   1      49.137  29.841  27.006  1.00  0.00     0.031 C 
ATOM     39  C   UNL A   1      48.249  27.560  26.575  1.00  0.00     0.031 A 
BRANCH  26  40
ATOM     40  C   UNL A   1      43.243  23.934  27.162  1.00  0.00    -0.014 A 
ATOM     41  C   UNL A   1      43.381  22.923  28.131  1.00  0.00     0.010 A 
ATOM     42  C   UNL A   1      42.533  23.658  25.981  1.00  0.00     0.010 A 
ATOM     43  C   UNL A   1      42.876  21.642  27.892  1.00  0.00     0.020 A 
ATOM     44  C   UNL A   1      42.005  22.385  25.749  1.00  0.00     0.020 A 
ATOM     45  C   UNL A   1      42.205  21.376  26.694  1.00  0.00     0.054 A 
BRANCH  45  46
ATOM     46  S   UNL A   1      41.600  19.696  26.385  1.00  0.00     0.124 S 
ATOM     47  O   UNL A   1      40.193  19.936  26.069  1.00  0.00    -0.237 OA
ATOM     48  O   UNL A   1      42.427  19.256  25.264  1.00  0.00    -0.237 OA
ATOM     49  O   UNL A   1      41.844  19.000  27.646  1.00  0.00    -0.744 OA
ENDBRANCH  45  46
ENDBRANCH  26  40
BRANCH  27  50
ATOM     50  C   UNL A   1      47.007  33.143  28.628  1.00  0.00    -0.014 A 
ATOM     51  C   UNL A   1      47.013  34.176  27.678  1.00  0.00     0.010 A 
ATOM     52  C   UNL A   1      47.484  33.406  29.926  1.00  0.00     0.010 A 
ATOM     53  C   UNL A   1      47.483  35.449  28.024  1.00  0.00     0.020 A 
ATOM     54  C   UNL A   1      47.934  34.681  30.284  1.00  0.00     0.020 A 
ATOM     55  C   UNL A   1      47.935  35.695  29.326  1.00  0.00     0.054 A 
BRANCH  55  56
ATOM     56  S   UNL A   1      48.460  37.377  29.768  1.00  0.00     0.124 S 
ATOM     57  O   UNL A   1      48.975  37.880  28.499  1.00  0.00    -0.237 OA
ATOM     58  O   UNL A   1      47.214  37.983  30.231  1.00  0.00    -0.237 OA
ATOM     59  O   UNL A   1      49.460  37.163  30.811  1.00  0.00    -0.744 OA
ENDBRANCH  55  56
ENDBRANCH  27  50
BRANCH  39  60
ATOM     60  C   UNL A   1      49.587  27.203  25.995  1.00  0.00    -0.014 A 
ATOM     61  C   UNL A   1      50.597  26.636  26.789  1.00  0.00     0.010 A 
ATOM     62  C   UNL A   1      49.800  27.370  24.614  1.00  0.00     0.010 A 
ATOM     63  C   UNL A   1      51.808  26.252  26.212  1.00  0.00     0.020 A 
ATOM     64  C   UNL A   1      50.998  26.962  24.030  1.00  0.00     0.020 A 
ATOM     65  C   UNL A   1      51.998  26.412  24.835  1.00  0.00     0.054 A 
BRANCH  65  66
ATOM     66  S   UNL A   1      53.548  25.835  24.095  1.00  0.00     0.124 S 
ATOM     67  O   UNL A   1      53.645  24.474  24.614  1.00  0.00    -0.237 OA
ATOM     68  O   UNL A   1      53.279  25.944  22.662  1.00  0.00    -0.237 OA
ATOM     69  O   UNL A   1      54.545  26.772  24.607  1.00  0.00    -0.744 OA
ENDBRANCH  65  66
ENDBRANCH  39  60
ENDBRANCH  13  14
ENDBRANCH   6   8
ENDBRANCH   5   6
ENDBRANCH   4   5
ENDBRANCH   3   4
ENDBRANCH   2   3
ENDBRANCH   1   2
BRANCH   1  70
ATOM     70  C   UNL A   1      34.681  31.679  27.644  1.00  0.00     0.188 C 
BRANCH  70  71
ATOM     71  O   UNL A   1      33.313  31.378  27.922  1.00  0.00    -0.376 OA
BRANCH  71  72
ATOM     72  C   UNL A   1      32.395  31.512  26.841  1.00  0.00     0.202 C 
BRANCH  72  73
ATOM     73  C   UNL A   1      31.804  30.224  26.251  1.00  0.00     0.261 C 
BRANCH  73  74
ATOM     74  O   UNL A   1      32.764  29.261  25.775  1.00  0.00    -0.460 OA
BRANCH  74  75
ATOM     75  C   UNL A   1      32.700  28.054  26.390  1.00  0.00     0.338 C 
ATOM     76  O   UNL A   1      32.591  27.851  27.595  1.00  0.00    -0.246 OA
BRANCH  75  77
ATOM     77  C   UNL A   1      32.866  26.937  25.439  1.00  0.00     0.063 A 
ATOM     78  C   UNL A   1      33.977  26.103  25.620  1.00  0.00     0.017 A 
ATOM     79  C   UNL A   1      31.915  26.630  24.459  1.00  0.00     0.056 A 
ATOM     80  C   UNL A   1      34.133  24.960  24.834  1.00  0.00     0.024 A 
ATOM     81  C   UNL A   1      32.078  25.479  23.677  1.00  0.00     0.142 A 
ATOM     82  C   UNL A   1      33.175  24.645  23.863  1.00  0.00     0.103 A 
ATOM     83  F   UNL A   1      31.154  25.213  22.747  1.00  0.00    -0.206 F 
BRANCH  82  84
ATOM     84  S   UNL A   1      33.423  23.184  22.895  1.00  0.00     0.186 S 
ATOM     85  O   UNL A   1      33.427  23.612  21.511  1.00  0.00    -0.223 OA
ATOM     86  O   UNL A   1      34.598  22.525  23.447  1.00  0.00    -0.223 OA
BRANCH  84  87
ATOM     87  C   UNL A   1      32.065  22.071  23.074  1.00  0.00     0.188 C 
BRANCH  87  88
ATOM     88  C   UNL A   1      32.358  20.820  23.847  1.00  0.00     0.020 A 
ATOM     89  C   UNL A   1      32.689  20.606  25.171  1.00  0.00     0.016 A 
ATOM     90  S   UNL A   1      32.360  19.339  22.966  1.00  0.00    -0.148 S 
ATOM     91  C   UNL A   1      32.901  19.227  25.465  1.00  0.00     0.012 A 
ATOM     92  C   UNL A   1      32.764  18.433  24.351  1.00  0.00     0.065 A 
ENDBRANCH  87  88
ENDBRANCH  84  87
ENDBRANCH  82  84
ENDBRANCH  75  77
ENDBRANCH  74  75
ENDBRANCH  73  74
ENDBRANCH  72  73
ENDBRANCH  71  72
ENDBRANCH  70  71
ENDBRANCH   1  70
TORSDOF 23
ENDMDL
MODEL 3
REMARK VINA RESULT:      -8.9      1.367      8.213
REMARK SMILES O=C(OCCOCCOCCOC(=O)c1ccc(S(=O)(=O)Cc2cccs2)c(F)c1)c1ccc(-c2c3nc(c(-c4ccc(S(=O)(=O)[O-])cc4)c4ccc([nH]4)c(-c4ccc(S(=O)(=O)[O-])cc4)c4nc(c(-c5ccc(S(=O)(=O)[O-])cc5)c5ccc2[nH]5)C=C4)C=C3)cc1
REMARK SMILES IDX 7 1 6 2 5 3 4 4 3 5 2 6 1 7 31 8 32 9 90 10 33 11 89 12
REMARK SMILES IDX 34 13 35 14 36 15 83 16 37 17 88 18 82 19 84 20 38 21 87 22
REMARK SMILES IDX 81 23 80 24 39 26 69 27 50 28 68 29 51 30 54 31 67 32 85 33
REMARK SMILES IDX 52 34 53 35 66 37 86 38 55 39 40 40 41 41 49 42 42 43 48 44
REMARK SMILES IDX 43 45 44 46 45 47 46 48 47 49 70 50 71 51 79 52 72 53 78 54
REMARK SMILES IDX 73 55 74 56 75 57 76 58 77 59 56 60 57 61 65 62 58 63 64 64
REMARK SMILES IDX 59 65 60 66 61 67 62 68 63 69 8 70 9 71 10 72 11 73 12 74
REMARK SMILES IDX 13 75 14 76 15 77 16 78 30 79 17 80 28 81 18 82 29 83 19 84
REMARK SMILES IDX 20 85 21 86 22 87 23 88 24 89 27 90 25 91 26 92
REMARK H PARENT 84 25 54 36
REMARK Flexibility Score: inf
ROOT
ATOM      1  C   UNL A   1      32.259  29.943  27.282  1.00  0.00     0.188 C 
ENDROOT
BRANCH   1   2
ATOM      2  O   UNL A   1      32.572  31.290  26.903  1.00  0.00    -0.376 OA
BRANCH   2   3
ATOM      3  C   UNL A   1      33.376  31.986  27.863  1.00  0.00     0.202 C 
BRANCH   3   4
ATOM      4  C   UNL A   1      33.328  33.519  27.757  1.00  0.00     0.261 C 
BRANCH   4   5
ATOM      5  O   UNL A   1      32.789  34.134  28.936  1.00  0.00    -0.460 OA
BRANCH   5   6
ATOM      6  C   UNL A   1      33.454  34.533  30.051  1.00  0.00     0.338 C 
ATOM      7  O   UNL A   1      33.006  35.492  30.679  1.00  0.00    -0.246 OA
BRANCH   6   8
ATOM      8  C   UNL A   1      34.696  33.874  30.570  1.00  0.00     0.060 A 
ATOM      9  C   UNL A   1      34.729  32.763  31.414  1.00  0.00     0.016 A 
ATOM     10  C   UNL A   1      35.928  34.394  30.134  1.00  0.00     0.016 A 
ATOM     11  C   UNL A   1      35.922  32.261  31.916  1.00  0.00     0.010 A 
ATOM     12  C   UNL A   1      37.139  33.855  30.584  1.00  0.00     0.010 A 
ATOM     13  C   UNL A   1      37.134  32.811  31.517  1.00  0.00    -0.014 A 
BRANCH  13  14
ATOM     14  C   UNL A   1      38.363  32.371  32.203  1.00  0.00     0.031 A 
ATOM     15  C   UNL A   1      39.287  31.442  31.476  1.00  0.00     0.074 A 
ATOM     16  C   UNL A   1      38.704  32.888  33.397  1.00  0.00     0.049 A 
ATOM     17  N   UNL A   1      40.389  30.881  31.892  1.00  0.00    -0.248 NA
ATOM     18  C   UNL A   1      38.944  31.136  30.076  1.00  0.00     0.031 C 
ATOM     19  C   UNL A   1      37.965  33.933  34.106  1.00  0.00     0.029 A 
ATOM     20  N   UNL A   1      39.754  32.602  34.230  1.00  0.00    -0.354 N 
ATOM     21  C   UNL A   1      40.871  30.160  30.809  1.00  0.00     0.074 A 
ATOM     22  C   UNL A   1      39.929  30.326  29.726  1.00  0.00     0.031 C 
ATOM     23  C   UNL A   1      38.537  34.144  35.302  1.00  0.00     0.029 A 
ATOM     24  C   UNL A   1      39.650  33.220  35.454  1.00  0.00     0.049 A 
ATOM     25  H   UNL A   1      40.503  32.016  33.978  1.00  0.00     0.167 HD
ATOM     26  C   UNL A   1      42.009  29.432  30.730  1.00  0.00     0.031 A 
ATOM     27  C   UNL A   1      40.337  33.014  36.593  1.00  0.00     0.031 A 
ATOM     28  C   UNL A   1      42.906  29.258  31.838  1.00  0.00     0.049 A 
ATOM     29  C   UNL A   1      41.480  32.046  36.554  1.00  0.00     0.074 A 
ATOM     30  C   UNL A   1      44.069  28.514  31.901  1.00  0.00     0.029 A 
ATOM     31  N   UNL A   1      42.723  29.829  33.091  1.00  0.00    -0.354 N 
ATOM     32  N   UNL A   1      41.921  31.344  35.535  1.00  0.00    -0.248 NA
ATOM     33  C   UNL A   1      42.239  31.863  37.795  1.00  0.00     0.031 C 
ATOM     34  C   UNL A   1      44.557  28.590  33.210  1.00  0.00     0.029 A 
ATOM     35  C   UNL A   1      43.731  29.429  33.947  1.00  0.00     0.049 A 
ATOM     36  H   UNL A   1      41.981  30.430  33.335  1.00  0.00     0.167 HD
ATOM     37  C   UNL A   1      43.034  30.661  36.002  1.00  0.00     0.074 A 
ATOM     38  C   UNL A   1      43.194  31.032  37.396  1.00  0.00     0.031 C 
ATOM     39  C   UNL A   1      43.858  29.819  35.331  1.00  0.00     0.031 A 
BRANCH  26  40
ATOM     40  C   UNL A   1      42.273  28.728  29.427  1.00  0.00    -0.014 A 
ATOM     41  C   UNL A   1      43.071  29.309  28.426  1.00  0.00     0.010 A 
ATOM     42  C   UNL A   1      41.655  27.489  29.177  1.00  0.00     0.010 A 
ATOM     43  C   UNL A   1      43.196  28.696  27.176  1.00  0.00     0.020 A 
ATOM     44  C   UNL A   1      41.798  26.861  27.938  1.00  0.00     0.020 A 
ATOM     45  C   UNL A   1      42.544  27.483  26.934  1.00  0.00     0.054 A 
BRANCH  45  46
ATOM     46  S   UNL A   1      42.681  26.729  25.291  1.00  0.00     0.124 S 
ATOM     47  O   UNL A   1      43.955  26.020  25.390  1.00  0.00    -0.237 OA
ATOM     48  O   UNL A   1      41.495  25.879  25.226  1.00  0.00    -0.237 OA
ATOM     49  O   UNL A   1      42.674  27.872  24.382  1.00  0.00    -0.744 OA
ENDBRANCH  45  46
ENDBRANCH  26  40
BRANCH  27  50
ATOM     50  C   UNL A   1      39.904  33.686  37.848  1.00  0.00    -0.014 A 
ATOM     51  C   UNL A   1      39.007  33.072  38.736  1.00  0.00     0.010 A 
ATOM     52  C   UNL A   1      40.447  34.940  38.186  1.00  0.00     0.010 A 
ATOM     53  C   UNL A   1      38.665  33.700  39.940  1.00  0.00     0.020 A 
ATOM     54  C   UNL A   1      40.127  35.562  39.397  1.00  0.00     0.020 A 
ATOM     55  C   UNL A   1      39.233  34.938  40.266  1.00  0.00     0.054 A 
BRANCH  55  56
ATOM     56  S   UNL A   1      38.834  35.688  41.871  1.00  0.00     0.124 S 
ATOM     57  O   UNL A   1      37.456  35.256  42.079  1.00  0.00    -0.237 OA
ATOM     58  O   UNL A   1      39.828  35.081  42.755  1.00  0.00    -0.237 OA
ATOM     59  O   UNL A   1      39.017  37.118  41.639  1.00  0.00    -0.744 OA
ENDBRANCH  55  56
ENDBRANCH  27  50
BRANCH  39  60
ATOM     60  C   UNL A   1      45.038  29.280  36.086  1.00  0.00    -0.014 A 
ATOM     61  C   UNL A   1      46.254  29.979  36.131  1.00  0.00     0.010 A 
ATOM     62  C   UNL A   1      44.891  28.090  36.823  1.00  0.00     0.010 A 
ATOM     63  C   UNL A   1      47.315  29.489  36.895  1.00  0.00     0.020 A 
ATOM     64  C   UNL A   1      45.939  27.613  37.609  1.00  0.00     0.020 A 
ATOM     65  C   UNL A   1      47.148  28.312  37.633  1.00  0.00     0.054 A 
BRANCH  65  66
ATOM     66  S   UNL A   1      48.512  27.736  38.678  1.00  0.00     0.124 S 
ATOM     67  O   UNL A   1      48.550  26.310  38.368  1.00  0.00    -0.237 OA
ATOM     68  O   UNL A   1      49.644  28.518  38.185  1.00  0.00    -0.237 OA
ATOM     69  O   UNL A   1      48.075  28.070  40.031  1.00  0.00    -0.744 OA
ENDBRANCH  65  66
ENDBRANCH  39  60
ENDBRANCH  13  14
ENDBRANCH   6   8
ENDBRANCH   5   6
ENDBRANCH   4   5
ENDBRANCH   3   4
ENDBRANCH   2   3
ENDBRANCH   1   2
BRANCH   1  70
ATOM     70  C   UNL A   1      32.276  28.990  26.084  1.00  0.00     0.188 C 
BRANCH  70  71
ATOM     71  O   UNL A   1      32.089  29.597  24.806  1.00  0.00    -0.376 OA
BRANCH  71  72
ATOM     72  C   UNL A   1      30.744  29.791  24.379  1.00  0.00     0.202 C 
BRANCH  72  73
ATOM     73  C   UNL A   1      30.194  28.833  23.313  1.00  0.00     0.261 C 
BRANCH  73  74
ATOM     74  O   UNL A   1      30.509  27.441  23.508  1.00  0.00    -0.460 OA
BRANCH  74  75
ATOM     75  C   UNL A   1      31.664  27.041  22.920  1.00  0.00     0.338 C 
ATOM     76  O   UNL A   1      32.367  27.701  22.164  1.00  0.00    -0.246 OA
BRANCH  75  77
ATOM     77  C   UNL A   1      31.978  25.629  23.218  1.00  0.00     0.063 A 
ATOM     78  C   UNL A   1      31.485  25.104  24.419  1.00  0.00     0.017 A 
ATOM     79  C   UNL A   1      32.640  24.794  22.311  1.00  0.00     0.056 A 
ATOM     80  C   UNL A   1      31.642  23.747  24.709  1.00  0.00     0.024 A 
ATOM     81  C   UNL A   1      32.790  23.433  22.609  1.00  0.00     0.142 A 
ATOM     82  C   UNL A   1      32.292  22.908  23.796  1.00  0.00     0.103 A 
ATOM     83  F   UNL A   1      33.429  22.661  21.723  1.00  0.00    -0.206 F 
BRANCH  82  84
ATOM     84  S   UNL A   1      32.462  21.198  24.216  1.00  0.00     0.186 S 
ATOM     85  O   UNL A   1      31.676  20.996  25.416  1.00  0.00    -0.223 OA
ATOM     86  O   UNL A   1      32.140  20.448  23.011  1.00  0.00    -0.223 OA
BRANCH  84  87
ATOM     87  C   UNL A   1      34.133  20.816  24.640  1.00  0.00     0.188 C 
BRANCH  87  88
ATOM     88  C   UNL A   1      34.986  21.993  25.008  1.00  0.00     0.020 A 
ATOM     89  C   UNL A   1      34.862  22.953  25.993  1.00  0.00     0.016 A 
ATOM     90  S   UNL A   1      36.365  22.300  24.021  1.00  0.00    -0.148 S 
ATOM     91  C   UNL A   1      35.919  23.911  25.959  1.00  0.00     0.012 A 
ATOM     92  C   UNL A   1      36.796  23.676  24.928  1.00  0.00     0.065 A 
ENDBRANCH  87  88
ENDBRANCH  84  87
ENDBRANCH  82  84
ENDBRANCH  75  77
ENDBRANCH  74  75
ENDBRANCH  73  74
ENDBRANCH  72  73
ENDBRANCH  71  72
ENDBRANCH  70  71
ENDBRANCH   1  70
TORSDOF 23
ENDMDL
