MODEL 1
REMARK VINA RESULT:      -5.7      0.000      0.000
REMARK SMILES CS(=O)(=O)c1ccc(/C=C(/C(=O)OCCOCCOCCOC(=O)c2ccc(-c3c4nc(c(-c5ccc(S(=O)(=O)[O-])cc5)c5ccc([nH]5)c(-c5ccc(S(=O)(=O)[O-])cc5)c5nc(c(-c6ccc(S(=O)(=O)[O-])cc6)c6ccc3[nH]6)C=C5)C=C4)cc2)c2cccc(-c3ccc(S(C)(=O)=O)cc3)c2)cc1
REMARK SMILES IDX 17 1 16 2 15 3 14 4 13 5 11 6 12 7 10 8 9 9 8 10 5 11 6 12
REMARK SMILES IDX 102 13 7 14 101 15 2 16 1 17 3 18 4 19 85 20 86 21 100 22
REMARK SMILES IDX 87 23 89 24 88 25 90 26 91 27 99 28 92 29 98 30 93 31 94 32
REMARK SMILES IDX 95 33 96 34 97 35 18 36 19 37 20 38 21 39 22 40 23 41 24 42
REMARK SMILES IDX 25 43 26 44 84 45 27 46 83 47 28 48 29 49 30 50 77 51 31 52
REMARK SMILES IDX 82 53 76 54 78 55 32 56 81 57 75 58 74 59 33 61 63 62 44 63
REMARK SMILES IDX 62 64 45 65 48 66 61 67 79 68 46 69 47 70 60 72 80 73 49 74
REMARK SMILES IDX 34 75 35 76 43 77 36 78 42 79 37 80 38 81 39 82 40 83 41 84
REMARK SMILES IDX 64 85 65 86 73 87 66 88 72 89 67 90 68 91 69 92 70 93 71 94
REMARK SMILES IDX 50 95 51 96 59 97 52 98 58 99 53 100 54 101 55 102 56 103
REMARK SMILES IDX 57 104
REMARK H PARENT 78 60 48 71
REMARK Flexibility Score: inf
ROOT
ATOM      1  C   UNL A   1      45.152  33.007  26.879  1.00  0.00     0.188 C 
ENDROOT
BRANCH   1   2
ATOM      2  O   UNL A   1      46.090  34.050  27.055  1.00  0.00    -0.376 OA
BRANCH   2   3
ATOM      3  C   UNL A   1      45.593  35.285  27.536  1.00  0.00     0.202 C 
BRANCH   3   4
ATOM      4  C   UNL A   1      44.074  35.542  27.536  1.00  0.00     0.261 C 
BRANCH   4   5
ATOM      5  O   UNL A   1      43.472  35.854  28.802  1.00  0.00    -0.460 OA
BRANCH   5   6
ATOM      6  C   UNL A   1      42.232  35.360  29.045  1.00  0.00     0.338 C 
ATOM      7  O   UNL A   1      41.322  35.324  28.231  1.00  0.00    -0.246 OA
BRANCH   6   8
ATOM      8  C   UNL A   1      42.150  34.761  30.422  1.00  0.00     0.067 C 
ATOM      9  C   UNL A   1      42.784  35.368  31.458  1.00  0.00     0.024 C 
BRANCH   9  10
ATOM     10  C   UNL A   1      42.666  35.078  32.913  1.00  0.00    -0.025 A 
ATOM     11  C   UNL A   1      42.833  35.005  35.719  1.00  0.00     0.067 A 
ATOM     12  C   UNL A   1      41.660  35.439  35.101  1.00  0.00     0.021 A 
ATOM     13  C   UNL A   1      43.865  34.467  34.954  1.00  0.00     0.021 A 
ATOM     14  C   UNL A   1      41.566  35.431  33.706  1.00  0.00     0.009 A 
ATOM     15  C   UNL A   1      43.777  34.507  33.556  1.00  0.00     0.009 A 
BRANCH  11  16
ATOM     16  S   UNL A   1      42.975  35.268  37.470  1.00  0.00     0.175 S 
ATOM     17  C   UNL A   1      41.521  36.123  38.002  1.00  0.00     0.163 C 
ATOM     18  O   UNL A   1      44.095  36.168  37.671  1.00  0.00    -0.224 OA
ATOM     19  O   UNL A   1      42.945  33.954  38.081  1.00  0.00    -0.224 OA
ENDBRANCH  11  16
ENDBRANCH   9  10
BRANCH   8  20
ATOM     20  C   UNL A   1      41.324  33.549  30.587  1.00  0.00    -0.010 A 
ATOM     21  C   UNL A   1      39.950  33.656  30.850  1.00  0.00     0.009 A 
ATOM     22  C   UNL A   1      41.867  32.285  30.343  1.00  0.00     0.017 A 
ATOM     23  C   UNL A   1      39.138  32.525  30.850  1.00  0.00     0.001 A 
ATOM     24  C   UNL A   1      41.053  31.141  30.294  1.00  0.00    -0.018 A 
ATOM     25  C   UNL A   1      39.685  31.276  30.566  1.00  0.00     0.009 A 
BRANCH  24  26
ATOM     26  C   UNL A   1      41.633  29.856  29.896  1.00  0.00    -0.018 A 
ATOM     27  C   UNL A   1      41.852  28.839  30.843  1.00  0.00     0.010 A 
ATOM     28  C   UNL A   1      41.927  29.596  28.547  1.00  0.00     0.010 A 
ATOM     29  C   UNL A   1      42.350  27.596  30.453  1.00  0.00     0.021 A 
ATOM     30  C   UNL A   1      42.428  28.359  28.149  1.00  0.00     0.021 A 
ATOM     31  C   UNL A   1      42.647  27.371  29.108  1.00  0.00     0.067 A 
BRANCH  31  32
ATOM     32  S   UNL A   1      43.333  25.812  28.622  1.00  0.00     0.175 S 
ATOM     33  C   UNL A   1      44.585  25.531  29.848  1.00  0.00     0.163 C 
ATOM     34  O   UNL A   1      42.298  24.806  28.783  1.00  0.00    -0.224 OA
ATOM     35  O   UNL A   1      43.992  25.990  27.342  1.00  0.00    -0.224 OA
ENDBRANCH  31  32
ENDBRANCH  24  26
ENDBRANCH   8  20
ENDBRANCH   6   8
ENDBRANCH   5   6
ENDBRANCH   4   5
ENDBRANCH   3   4
ENDBRANCH   2   3
ENDBRANCH   1   2
BRANCH   1  36
ATOM     36  C   UNL A   1      45.816  31.643  26.589  1.00  0.00     0.188 C 
BRANCH  36  37
ATOM     37  O   UNL A   1      45.282  30.448  27.142  1.00  0.00    -0.376 OA
BRANCH  37  38
ATOM     38  C   UNL A   1      46.153  29.361  27.413  1.00  0.00     0.202 C 
BRANCH  38  39
ATOM     39  C   UNL A   1      46.070  28.631  28.764  1.00  0.00     0.261 C 
BRANCH  39  40
ATOM     40  O   UNL A   1      46.172  29.449  29.941  1.00  0.00    -0.460 OA
BRANCH  40  41
ATOM     41  C   UNL A   1      46.805  28.869  30.995  1.00  0.00     0.338 C 
ATOM     42  O   UNL A   1      47.809  28.181  30.957  1.00  0.00    -0.246 OA
BRANCH  41  43
ATOM     43  C   UNL A   1      46.206  29.342  32.264  1.00  0.00     0.060 A 
ATOM     44  C   UNL A   1      45.452  28.432  33.018  1.00  0.00     0.016 A 
ATOM     45  C   UNL A   1      46.321  30.670  32.676  1.00  0.00     0.016 A 
ATOM     46  C   UNL A   1      44.785  28.853  34.169  1.00  0.00     0.010 A 
ATOM     47  C   UNL A   1      45.630  31.099  33.818  1.00  0.00     0.010 A 
ATOM     48  C   UNL A   1      44.834  30.200  34.551  1.00  0.00    -0.014 A 
BRANCH  48  49
ATOM     49  C   UNL A   1      43.890  30.693  35.585  1.00  0.00     0.031 A 
ATOM     50  C   UNL A   1      44.341  30.702  37.021  1.00  0.00     0.074 A 
ATOM     51  C   UNL A   1      42.672  31.166  35.261  1.00  0.00     0.049 A 
ATOM     52  N   UNL A   1      43.700  31.099  38.090  1.00  0.00    -0.248 NA
ATOM     53  C   UNL A   1      45.695  30.187  37.285  1.00  0.00     0.031 C 
ATOM     54  C   UNL A   1      42.126  31.242  33.909  1.00  0.00     0.029 A 
ATOM     55  N   UNL A   1      41.677  31.681  36.055  1.00  0.00    -0.354 N 
ATOM     56  C   UNL A   1      44.568  30.878  39.152  1.00  0.00     0.074 A 
ATOM     57  C   UNL A   1      45.770  30.290  38.603  1.00  0.00     0.031 C 
ATOM     58  C   UNL A   1      40.899  31.791  33.963  1.00  0.00     0.029 A 
ATOM     59  C   UNL A   1      40.553  32.061  35.359  1.00  0.00     0.049 A 
ATOM     60  H   UNL A   1      41.760  31.770  37.031  1.00  0.00     0.167 HD
ATOM     61  C   UNL A   1      44.383  31.137  40.469  1.00  0.00     0.031 A 
ATOM     62  C   UNL A   1      39.374  32.548  35.798  1.00  0.00     0.031 A 
ATOM     63  C   UNL A   1      43.176  31.689  41.023  1.00  0.00     0.049 A 
ATOM     64  C   UNL A   1      39.165  32.760  37.278  1.00  0.00     0.074 A 
ATOM     65  C   UNL A   1      42.894  31.983  42.346  1.00  0.00     0.029 A 
ATOM     66  N   UNL A   1      42.046  32.018  40.291  1.00  0.00    -0.354 N 
ATOM     67  N   UNL A   1      40.004  32.569  38.269  1.00  0.00    -0.248 NA
ATOM     68  C   UNL A   1      37.846  33.258  37.698  1.00  0.00     0.031 C 
ATOM     69  C   UNL A   1      41.571  32.433  42.421  1.00  0.00     0.029 A 
ATOM     70  C   UNL A   1      41.054  32.488  41.135  1.00  0.00     0.049 A 
ATOM     71  H   UNL A   1      41.960  31.930  39.314  1.00  0.00     0.167 HD
ATOM     72  C   UNL A   1      39.325  32.950  39.423  1.00  0.00     0.074 A 
ATOM     73  C   UNL A   1      38.013  33.398  39.006  1.00  0.00     0.031 C 
ATOM     74  C   UNL A   1      39.751  32.934  40.711  1.00  0.00     0.031 A 
BRANCH  61  75
ATOM     75  C   UNL A   1      45.504  30.775  41.408  1.00  0.00    -0.014 A 
ATOM     76  C   UNL A   1      45.570  29.506  42.014  1.00  0.00     0.010 A 
ATOM     77  C   UNL A   1      46.520  31.713  41.670  1.00  0.00     0.010 A 
ATOM     78  C   UNL A   1      46.609  29.198  42.896  1.00  0.00     0.020 A 
ATOM     79  C   UNL A   1      47.576  31.398  42.528  1.00  0.00     0.020 A 
ATOM     80  C   UNL A   1      47.604  30.147  43.150  1.00  0.00     0.054 A 
BRANCH  80  81
ATOM     81  S   UNL A   1      48.949  29.715  44.287  1.00  0.00     0.124 S 
ATOM     82  O   UNL A   1      48.781  28.269  44.415  1.00  0.00    -0.237 OA
ATOM     83  O   UNL A   1      50.137  30.147  43.555  1.00  0.00    -0.237 OA
ATOM     84  O   UNL A   1      48.647  30.485  45.490  1.00  0.00    -0.744 OA
ENDBRANCH  80  81
ENDBRANCH  61  75
BRANCH  62  85
ATOM     85  C   UNL A   1      38.282  32.853  34.832  1.00  0.00    -0.014 A 
ATOM     86  C   UNL A   1      37.423  31.838  34.372  1.00  0.00     0.010 A 
ATOM     87  C   UNL A   1      38.107  34.163  34.348  1.00  0.00     0.010 A 
ATOM     88  C   UNL A   1      36.426  32.124  33.434  1.00  0.00     0.020 A 
ATOM     89  C   UNL A   1      37.091  34.459  33.435  1.00  0.00     0.020 A 
ATOM     90  C   UNL A   1      36.264  33.434  32.974  1.00  0.00     0.054 A 
BRANCH  90  91
ATOM     91  S   UNL A   1      34.932  33.789  31.794  1.00  0.00     0.124 S 
ATOM     92  O   UNL A   1      34.005  32.690  32.044  1.00  0.00    -0.237 OA
ATOM     93  O   UNL A   1      34.478  35.109  32.222  1.00  0.00    -0.237 OA
ATOM     94  O   UNL A   1      35.607  33.758  30.499  1.00  0.00    -0.744 OA
ENDBRANCH  90  91
ENDBRANCH  62  85
BRANCH  74  95
ATOM     95  C   UNL A   1      38.811  33.460  41.767  1.00  0.00    -0.014 A 
ATOM     96  C   UNL A   1      37.784  32.663  42.305  1.00  0.00     0.010 A 
ATOM     97  C   UNL A   1      38.995  34.763  42.267  1.00  0.00     0.010 A 
ATOM     98  C   UNL A   1      36.936  33.172  43.293  1.00  0.00     0.020 A 
ATOM     99  C   UNL A   1      38.170  35.264  43.277  1.00  0.00     0.020 A 
ATOM    100  C   UNL A   1      37.134  34.471  43.772  1.00  0.00     0.054 A 
BRANCH 100 101
ATOM    101  S   UNL A   1      36.041  35.098  45.078  1.00  0.00     0.124 S 
ATOM    102  O   UNL A   1      34.719  34.887  44.493  1.00  0.00    -0.237 OA
ATOM    103  O   UNL A   1      36.370  34.239  46.212  1.00  0.00    -0.237 OA
ATOM    104  O   UNL A   1      36.441  36.496  45.224  1.00  0.00    -0.744 OA
ENDBRANCH 100 101
ENDBRANCH  74  95
ENDBRANCH  48  49
ENDBRANCH  41  43
ENDBRANCH  40  41
ENDBRANCH  39  40
ENDBRANCH  38  39
ENDBRANCH  37  38
ENDBRANCH  36  37
ENDBRANCH   1  36
TORSDOF 25
ENDMDL
MODEL 2
REMARK VINA RESULT:      -5.3      4.894     12.720
REMARK SMILES CS(=O)(=O)c1ccc(/C=C(/C(=O)OCCOCCOCCOC(=O)c2ccc(-c3c4nc(c(-c5ccc(S(=O)(=O)[O-])cc5)c5ccc([nH]5)c(-c5ccc(S(=O)(=O)[O-])cc5)c5nc(c(-c6ccc(S(=O)(=O)[O-])cc6)c6ccc3[nH]6)C=C5)C=C4)cc2)c2cccc(-c3ccc(S(C)(=O)=O)cc3)c2)cc1
REMARK SMILES IDX 17 1 16 2 15 3 14 4 13 5 11 6 12 7 10 8 9 9 8 10 5 11 6 12
REMARK SMILES IDX 102 13 7 14 101 15 2 16 1 17 3 18 4 19 85 20 86 21 100 22
REMARK SMILES IDX 87 23 89 24 88 25 90 26 91 27 99 28 92 29 98 30 93 31 94 32
REMARK SMILES IDX 95 33 96 34 97 35 18 36 19 37 20 38 21 39 22 40 23 41 24 42
REMARK SMILES IDX 25 43 26 44 84 45 27 46 83 47 28 48 29 49 30 50 77 51 31 52
REMARK SMILES IDX 82 53 76 54 78 55 32 56 81 57 75 58 74 59 33 61 63 62 44 63
REMARK SMILES IDX 62 64 45 65 48 66 61 67 79 68 46 69 47 70 60 72 80 73 49 74
REMARK SMILES IDX 34 75 35 76 43 77 36 78 42 79 37 80 38 81 39 82 40 83 41 84
REMARK SMILES IDX 64 85 65 86 73 87 66 88 72 89 67 90 68 91 69 92 70 93 71 94
REMARK SMILES IDX 50 95 51 96 59 97 52 98 58 99 53 100 54 101 55 102 56 103
REMARK SMILES IDX 57 104
REMARK H PARENT 78 60 48 71
REMARK Flexibility Score: inf
ROOT
ATOM      1  C   UNL A   1      37.704  32.877  36.318  1.00  0.00     0.188 C 
ENDROOT
BRANCH   1   2
ATOM      2  O   UNL A   1      38.810  32.682  35.459  1.00  0.00    -0.376 OA
BRANCH   2   3
ATOM      3  C   UNL A   1      38.551  32.072  34.208  1.00  0.00     0.202 C 
BRANCH   3   4
ATOM      4  C   UNL A   1      38.465  30.536  34.118  1.00  0.00     0.261 C 
BRANCH   4   5
ATOM      5  O   UNL A   1      37.548  29.997  33.153  1.00  0.00    -0.460 OA
BRANCH   5   6
ATOM      6  C   UNL A   1      37.873  28.815  32.572  1.00  0.00     0.338 C 
ATOM      7  O   UNL A   1      37.719  27.718  33.084  1.00  0.00    -0.246 OA
BRANCH   6   8
ATOM      8  C   UNL A   1      38.354  29.023  31.162  1.00  0.00     0.067 C 
ATOM      9  C   UNL A   1      39.362  28.254  30.675  1.00  0.00     0.024 C 
BRANCH   9  10
ATOM     10  C   UNL A   1      39.845  28.140  29.271  1.00  0.00    -0.025 A 
ATOM     11  C   UNL A   1      41.275  27.723  26.886  1.00  0.00     0.067 A 
ATOM     12  C   UNL A   1      40.217  26.878  27.223  1.00  0.00     0.021 A 
ATOM     13  C   UNL A   1      41.528  28.860  27.650  1.00  0.00     0.021 A 
ATOM     14  C   UNL A   1      39.481  27.116  28.387  1.00  0.00     0.009 A 
ATOM     15  C   UNL A   1      40.813  29.062  28.839  1.00  0.00     0.009 A 
BRANCH  11  16
ATOM     16  S   UNL A   1      42.315  27.226  25.535  1.00  0.00     0.175 S 
ATOM     17  C   UNL A   1      43.955  27.027  26.168  1.00  0.00     0.163 C 
ATOM     18  O   UNL A   1      42.351  28.336  24.602  1.00  0.00    -0.224 OA
ATOM     19  O   UNL A   1      41.852  25.914  25.128  1.00  0.00    -0.224 OA
ENDBRANCH  11  16
ENDBRANCH   9  10
BRANCH   8  20
ATOM     20  C   UNL A   1      37.654  30.036  30.348  1.00  0.00    -0.010 A 
ATOM     21  C   UNL A   1      38.161  31.340  30.247  1.00  0.00     0.009 A 
ATOM     22  C   UNL A   1      36.563  29.674  29.555  1.00  0.00     0.017 A 
ATOM     23  C   UNL A   1      37.598  32.253  29.359  1.00  0.00     0.001 A 
ATOM     24  C   UNL A   1      36.013  30.569  28.622  1.00  0.00    -0.018 A 
ATOM     25  C   UNL A   1      36.535  31.867  28.546  1.00  0.00     0.009 A 
BRANCH  24  26
ATOM     26  C   UNL A   1      34.963  30.110  27.709  1.00  0.00    -0.018 A 
ATOM     27  C   UNL A   1      33.913  30.965  27.330  1.00  0.00     0.010 A 
ATOM     28  C   UNL A   1      35.019  28.822  27.151  1.00  0.00     0.010 A 
ATOM     29  C   UNL A   1      32.946  30.546  26.417  1.00  0.00     0.021 A 
ATOM     30  C   UNL A   1      34.056  28.394  26.241  1.00  0.00     0.021 A 
ATOM     31  C   UNL A   1      33.019  29.257  25.888  1.00  0.00     0.067 A 
BRANCH  31  32
ATOM     32  S   UNL A   1      31.759  28.706  24.772  1.00  0.00     0.175 S 
ATOM     33  C   UNL A   1      31.015  27.354  25.649  1.00  0.00     0.163 C 
ATOM     34  O   UNL A   1      30.779  29.771  24.653  1.00  0.00    -0.224 OA
ATOM     35  O   UNL A   1      32.408  28.169  23.591  1.00  0.00    -0.224 OA
ENDBRANCH  31  32
ENDBRANCH  24  26
ENDBRANCH   8  20
ENDBRANCH   6   8
ENDBRANCH   5   6
ENDBRANCH   4   5
ENDBRANCH   3   4
ENDBRANCH   2   3
ENDBRANCH   1   2
BRANCH   1  36
ATOM     36  C   UNL A   1      37.878  32.188  37.689  1.00  0.00     0.188 C 
BRANCH  36  37
ATOM     37  O   UNL A   1      36.967  32.447  38.749  1.00  0.00    -0.376 OA
BRANCH  37  38
ATOM     38  C   UNL A   1      37.434  33.103  39.917  1.00  0.00     0.202 C 
BRANCH  38  39
ATOM     39  C   UNL A   1      38.945  33.288  40.140  1.00  0.00     0.261 C 
BRANCH  39  40
ATOM     40  O   UNL A   1      39.347  34.465  40.858  1.00  0.00    -0.460 OA
BRANCH  40  41
ATOM     41  C   UNL A   1      39.535  35.573  40.094  1.00  0.00     0.338 C 
ATOM     42  O   UNL A   1      39.320  36.728  40.413  1.00  0.00    -0.246 OA
BRANCH  41  43
ATOM     43  C   UNL A   1      40.231  35.205  38.839  1.00  0.00     0.060 A 
ATOM     44  C   UNL A   1      41.471  34.560  38.935  1.00  0.00     0.016 A 
ATOM     45  C   UNL A   1      39.712  35.547  37.588  1.00  0.00     0.016 A 
ATOM     46  C   UNL A   1      42.212  34.282  37.786  1.00  0.00     0.010 A 
ATOM     47  C   UNL A   1      40.468  35.291  36.436  1.00  0.00     0.010 A 
ATOM     48  C   UNL A   1      41.735  34.686  36.533  1.00  0.00    -0.014 A 
BRANCH  48  49
ATOM     49  C   UNL A   1      42.653  34.661  35.366  1.00  0.00     0.031 A 
ATOM     50  C   UNL A   1      43.043  35.971  34.735  1.00  0.00     0.074 A 
ATOM     51  C   UNL A   1      43.169  33.510  34.897  1.00  0.00     0.049 A 
ATOM     52  N   UNL A   1      43.840  36.200  33.723  1.00  0.00    -0.248 NA
ATOM     53  C   UNL A   1      42.451  37.184  35.324  1.00  0.00     0.031 C 
ATOM     54  C   UNL A   1      42.897  32.180  35.435  1.00  0.00     0.029 A 
ATOM     55  N   UNL A   1      44.040  33.282  33.861  1.00  0.00    -0.354 N 
ATOM     56  C   UNL A   1      43.839  37.579  33.549  1.00  0.00     0.074 A 
ATOM     57  C   UNL A   1      42.946  38.132  34.543  1.00  0.00     0.031 C 
ATOM     58  C   UNL A   1      43.604  31.274  34.736  1.00  0.00     0.029 A 
ATOM     59  C   UNL A   1      44.340  31.953  33.669  1.00  0.00     0.049 A 
ATOM     60  H   UNL A   1      44.415  34.003  33.305  1.00  0.00     0.167 HD
ATOM     61  C   UNL A   1      44.518  38.321  32.641  1.00  0.00     0.031 A 
ATOM     62  C   UNL A   1      45.101  31.353  32.731  1.00  0.00     0.031 A 
ATOM     63  C   UNL A   1      45.379  37.772  31.628  1.00  0.00     0.049 A 
ATOM     64  C   UNL A   1      45.789  32.196  31.685  1.00  0.00     0.074 A 
ATOM     65  C   UNL A   1      46.107  38.445  30.661  1.00  0.00     0.029 A 
ATOM     66  N   UNL A   1      45.621  36.420  31.441  1.00  0.00    -0.354 N 
ATOM     67  N   UNL A   1      45.799  33.501  31.548  1.00  0.00    -0.248 NA
ATOM     68  C   UNL A   1      46.574  31.481  30.667  1.00  0.00     0.031 C 
ATOM     69  C   UNL A   1      46.740  37.494  29.852  1.00  0.00     0.029 A 
ATOM     70  C   UNL A   1      46.465  36.234  30.359  1.00  0.00     0.049 A 
ATOM     71  H   UNL A   1      45.247  35.697  31.996  1.00  0.00     0.167 HD
ATOM     72  C   UNL A   1      46.611  33.763  30.449  1.00  0.00     0.074 A 
ATOM     73  C   UNL A   1      47.089  32.483  29.969  1.00  0.00     0.031 C 
ATOM     74  C   UNL A   1      46.936  34.956  29.889  1.00  0.00     0.031 A 
BRANCH  61  75
ATOM     75  C   UNL A   1      44.311  39.812  32.676  1.00  0.00    -0.014 A 
ATOM     76  C   UNL A   1      45.225  40.662  33.327  1.00  0.00     0.010 A 
ATOM     77  C   UNL A   1      43.197  40.374  32.026  1.00  0.00     0.010 A 
ATOM     78  C   UNL A   1      45.005  42.042  33.363  1.00  0.00     0.020 A 
ATOM     79  C   UNL A   1      42.990  41.756  32.034  1.00  0.00     0.020 A 
ATOM     80  C   UNL A   1      43.887  42.580  32.719  1.00  0.00     0.054 A 
BRANCH  80  81
ATOM     81  S   UNL A   1      43.633  44.374  32.768  1.00  0.00     0.124 S 
ATOM     82  O   UNL A   1      44.001  44.692  34.147  1.00  0.00    -0.237 OA
ATOM     83  O   UNL A   1      44.559  44.856  31.745  1.00  0.00    -0.237 OA
ATOM     84  O   UNL A   1      42.217  44.534  32.449  1.00  0.00    -0.744 OA
ENDBRANCH  80  81
ENDBRANCH  61  75
BRANCH  62  85
ATOM     85  C   UNL A   1      45.242  29.870  32.716  1.00  0.00    -0.014 A 
ATOM     86  C   UNL A   1      44.360  29.071  31.965  1.00  0.00     0.010 A 
ATOM     87  C   UNL A   1      46.250  29.245  33.473  1.00  0.00     0.010 A 
ATOM     88  C   UNL A   1      44.473  27.677  31.987  1.00  0.00     0.020 A 
ATOM     89  C   UNL A   1      46.386  27.854  33.472  1.00  0.00     0.020 A 
ATOM     90  C   UNL A   1      45.488  27.077  32.739  1.00  0.00     0.054 A 
BRANCH  90  91
ATOM     91  S   UNL A   1      45.643  25.270  32.714  1.00  0.00     0.124 S 
ATOM     92  O   UNL A   1      46.786  25.076  31.827  1.00  0.00    -0.237 OA
ATOM     93  O   UNL A   1      45.876  24.956  34.122  1.00  0.00    -0.237 OA
ATOM     94  O   UNL A   1      44.356  24.824  32.186  1.00  0.00    -0.744 OA
ENDBRANCH  90  91
ENDBRANCH  62  85
BRANCH  74  95
ATOM     95  C   UNL A   1      47.891  34.946  28.721  1.00  0.00    -0.014 A 
ATOM     96  C   UNL A   1      47.450  34.702  27.409  1.00  0.00     0.010 A 
ATOM     97  C   UNL A   1      49.251  35.240  28.940  1.00  0.00     0.010 A 
ATOM     98  C   UNL A   1      48.356  34.713  26.344  1.00  0.00     0.020 A 
ATOM     99  C   UNL A   1      50.153  35.283  27.875  1.00  0.00     0.020 A 
ATOM    100  C   UNL A   1      49.703  35.003  26.584  1.00  0.00     0.054 A 
BRANCH 100 101
ATOM    101  S   UNL A   1      50.853  35.043  25.181  1.00  0.00     0.124 S 
ATOM    102  O   UNL A   1      50.603  33.751  24.547  1.00  0.00    -0.237 OA
ATOM    103  O   UNL A   1      50.400  36.210  24.428  1.00  0.00    -0.237 OA
ATOM    104  O   UNL A   1      52.164  35.184  25.811  1.00  0.00    -0.744 OA
ENDBRANCH 100 101
ENDBRANCH  74  95
ENDBRANCH  48  49
ENDBRANCH  41  43
ENDBRANCH  40  41
ENDBRANCH  39  40
ENDBRANCH  38  39
ENDBRANCH  37  38
ENDBRANCH  36  37
ENDBRANCH   1  36
TORSDOF 25
ENDMDL
MODEL 3
REMARK VINA RESULT:      -5.0      5.431     12.398
REMARK SMILES CS(=O)(=O)c1ccc(/C=C(/C(=O)OCCOCCOCCOC(=O)c2ccc(-c3c4nc(c(-c5ccc(S(=O)(=O)[O-])cc5)c5ccc([nH]5)c(-c5ccc(S(=O)(=O)[O-])cc5)c5nc(c(-c6ccc(S(=O)(=O)[O-])cc6)c6ccc3[nH]6)C=C5)C=C4)cc2)c2cccc(-c3ccc(S(C)(=O)=O)cc3)c2)cc1
REMARK SMILES IDX 17 1 16 2 15 3 14 4 13 5 11 6 12 7 10 8 9 9 8 10 5 11 6 12
REMARK SMILES IDX 102 13 7 14 101 15 2 16 1 17 3 18 4 19 85 20 86 21 100 22
REMARK SMILES IDX 87 23 89 24 88 25 90 26 91 27 99 28 92 29 98 30 93 31 94 32
REMARK SMILES IDX 95 33 96 34 97 35 18 36 19 37 20 38 21 39 22 40 23 41 24 42
REMARK SMILES IDX 25 43 26 44 84 45 27 46 83 47 28 48 29 49 30 50 77 51 31 52
REMARK SMILES IDX 82 53 76 54 78 55 32 56 81 57 75 58 74 59 33 61 63 62 44 63
REMARK SMILES IDX 62 64 45 65 48 66 61 67 79 68 46 69 47 70 60 72 80 73 49 74
REMARK SMILES IDX 34 75 35 76 43 77 36 78 42 79 37 80 38 81 39 82 40 83 41 84
REMARK SMILES IDX 64 85 65 86 73 87 66 88 72 89 67 90 68 91 69 92 70 93 71 94
REMARK SMILES IDX 50 95 51 96 59 97 52 98 58 99 53 100 54 101 55 102 56 103
REMARK SMILES IDX 57 104
REMARK H PARENT 78 60 48 71
REMARK Flexibility Score: inf
ROOT
ATOM      1  C   UNL A   1      51.190  27.640  41.411  1.00  0.00     0.188 C 
ENDROOT
BRANCH   1   2
ATOM      2  O   UNL A   1      50.123  26.715  41.473  1.00  0.00    -0.376 OA
BRANCH   2   3
ATOM      3  C   UNL A   1      50.397  25.390  41.058  1.00  0.00     0.202 C 
BRANCH   3   4
ATOM      4  C   UNL A   1      51.392  25.148  39.907  1.00  0.00     0.261 C 
BRANCH   4   5
ATOM      5  O   UNL A   1      50.914  24.384  38.789  1.00  0.00    -0.460 OA
BRANCH   5   6
ATOM      6  C   UNL A   1      51.384  23.119  38.647  1.00  0.00     0.338 C 
ATOM      7  O   UNL A   1      52.553  22.790  38.777  1.00  0.00    -0.246 OA
BRANCH   6   8
ATOM      8  C   UNL A   1      50.259  22.149  38.413  1.00  0.00     0.067 C 
ATOM      9  C   UNL A   1      49.888  21.298  39.404  1.00  0.00     0.024 C 
BRANCH   9  10
ATOM     10  C   UNL A   1      48.688  20.419  39.469  1.00  0.00    -0.025 A 
ATOM     11  C   UNL A   1      46.583  18.697  40.183  1.00  0.00     0.067 A 
ATOM     12  C   UNL A   1      46.324  20.040  39.910  1.00  0.00     0.021 A 
ATOM     13  C   UNL A   1      47.854  18.173  39.957  1.00  0.00     0.021 A 
ATOM     14  C   UNL A   1      47.366  20.882  39.512  1.00  0.00     0.009 A 
ATOM     15  C   UNL A   1      48.900  19.036  39.603  1.00  0.00     0.009 A 
BRANCH  11  16
ATOM     16  S   UNL A   1      45.271  17.747  40.913  1.00  0.00     0.175 S 
ATOM     17  C   UNL A   1      45.998  16.662  42.106  1.00  0.00     0.163 C 
ATOM     18  O   UNL A   1      44.719  16.915  39.861  1.00  0.00    -0.224 OA
ATOM     19  O   UNL A   1      44.445  18.690  41.641  1.00  0.00    -0.224 OA
ENDBRANCH  11  16
ENDBRANCH   9  10
BRANCH   8  20
ATOM     20  C   UNL A   1      49.569  22.210  37.109  1.00  0.00    -0.010 A 
ATOM     21  C   UNL A   1      50.028  21.446  36.026  1.00  0.00     0.009 A 
ATOM     22  C   UNL A   1      48.372  22.916  36.977  1.00  0.00     0.017 A 
ATOM     23  C   UNL A   1      49.293  21.378  34.845  1.00  0.00     0.001 A 
ATOM     24  C   UNL A   1      47.596  22.821  35.810  1.00  0.00    -0.018 A 
ATOM     25  C   UNL A   1      48.081  22.055  34.741  1.00  0.00     0.009 A 
BRANCH  24  26
ATOM     26  C   UNL A   1      46.278  23.459  35.760  1.00  0.00    -0.018 A 
ATOM     27  C   UNL A   1      45.493  23.584  36.921  1.00  0.00     0.010 A 
ATOM     28  C   UNL A   1      45.800  24.010  34.560  1.00  0.00     0.010 A 
ATOM     29  C   UNL A   1      44.264  24.242  36.884  1.00  0.00     0.021 A 
ATOM     30  C   UNL A   1      44.572  24.666  34.513  1.00  0.00     0.021 A 
ATOM     31  C   UNL A   1      43.807  24.767  35.675  1.00  0.00     0.067 A 
BRANCH  31  32
ATOM     32  S   UNL A   1      42.221  25.553  35.617  1.00  0.00     0.175 S 
ATOM     33  C   UNL A   1      42.190  26.494  37.121  1.00  0.00     0.163 C 
ATOM     34  O   UNL A   1      42.228  26.477  34.497  1.00  0.00    -0.224 OA
ATOM     35  O   UNL A   1      41.205  24.523  35.713  1.00  0.00    -0.224 OA
ENDBRANCH  31  32
ENDBRANCH  24  26
ENDBRANCH   8  20
ENDBRANCH   6   8
ENDBRANCH   5   6
ENDBRANCH   4   5
ENDBRANCH   3   4
ENDBRANCH   2   3
ENDBRANCH   1   2
BRANCH   1  36
ATOM     36  C   UNL A   1      50.993  28.713  40.317  1.00  0.00     0.188 C 
BRANCH  36  37
ATOM     37  O   UNL A   1      52.043  29.021  39.410  1.00  0.00    -0.376 OA
BRANCH  37  38
ATOM     38  C   UNL A   1      51.825  28.856  38.018  1.00  0.00     0.202 C 
BRANCH  38  39
ATOM     39  C   UNL A   1      50.936  27.707  37.513  1.00  0.00     0.261 C 
BRANCH  39  40
ATOM     40  O   UNL A   1      49.912  28.057  36.569  1.00  0.00    -0.460 OA
BRANCH  40  41
ATOM     41  C   UNL A   1      48.791  27.290  36.620  1.00  0.00     0.338 C 
ATOM     42  O   UNL A   1      48.707  26.145  37.027  1.00  0.00    -0.246 OA
BRANCH  41  43
ATOM     43  C   UNL A   1      47.606  28.107  36.276  1.00  0.00     0.060 A 
ATOM     44  C   UNL A   1      46.338  27.604  36.603  1.00  0.00     0.016 A 
ATOM     45  C   UNL A   1      47.725  29.314  35.585  1.00  0.00     0.016 A 
ATOM     46  C   UNL A   1      45.187  28.288  36.213  1.00  0.00     0.010 A 
ATOM     47  C   UNL A   1      46.567  29.987  35.170  1.00  0.00     0.010 A 
ATOM     48  C   UNL A   1      45.294  29.461  35.455  1.00  0.00    -0.014 A 
BRANCH  48  49
ATOM     49  C   UNL A   1      44.083  30.008  34.793  1.00  0.00     0.031 A 
ATOM     50  C   UNL A   1      43.702  29.469  33.440  1.00  0.00     0.074 A 
ATOM     51  C   UNL A   1      43.307  30.933  35.389  1.00  0.00     0.049 A 
ATOM     52  N   UNL A   1      42.684  29.780  32.679  1.00  0.00    -0.248 NA
ATOM     53  C   UNL A   1      44.592  28.444  32.869  1.00  0.00     0.031 C 
ATOM     54  C   UNL A   1      43.547  31.515  36.707  1.00  0.00     0.029 A 
ATOM     55  N   UNL A   1      42.153  31.538  34.960  1.00  0.00    -0.354 N 
ATOM     56  C   UNL A   1      42.815  28.996  31.538  1.00  0.00     0.074 A 
ATOM     57  C   UNL A   1      44.021  28.214  31.696  1.00  0.00     0.031 C 
ATOM     58  C   UNL A   1      42.557  32.380  36.989  1.00  0.00     0.029 A 
ATOM     59  C   UNL A   1      41.640  32.451  35.851  1.00  0.00     0.049 A 
ATOM     60  H   UNL A   1      41.730  31.337  34.093  1.00  0.00     0.167 HD
ATOM     61  C   UNL A   1      42.006  28.934  30.453  1.00  0.00     0.031 A 
ATOM     62  C   UNL A   1      40.569  33.265  35.752  1.00  0.00     0.031 A 
ATOM     63  C   UNL A   1      40.825  29.736  30.278  1.00  0.00     0.049 A 
ATOM     64  C   UNL A   1      39.724  33.230  34.501  1.00  0.00     0.074 A 
ATOM     65  C   UNL A   1      39.943  29.745  29.210  1.00  0.00     0.029 A 
ATOM     66  N   UNL A   1      40.365  30.680  31.183  1.00  0.00    -0.354 N 
ATOM     67  N   UNL A   1      39.846  32.466  33.442  1.00  0.00    -0.248 NA
ATOM     68  C   UNL A   1      38.592  34.167  34.438  1.00  0.00     0.031 C 
ATOM     69  C   UNL A   1      38.985  30.738  29.443  1.00  0.00     0.029 A 
ATOM     70  C   UNL A   1      39.228  31.296  30.689  1.00  0.00     0.049 A 
ATOM     71  H   UNL A   1      40.785  30.882  32.050  1.00  0.00     0.167 HD
ATOM     72  C   UNL A   1      38.792  32.810  32.600  1.00  0.00     0.074 A 
ATOM     73  C   UNL A   1      38.033  33.838  33.281  1.00  0.00     0.031 C 
ATOM     74  C   UNL A   1      38.478  32.318  31.375  1.00  0.00     0.031 A 
BRANCH  61  75
ATOM     75  C   UNL A   1      42.406  27.994  29.347  1.00  0.00    -0.014 A 
ATOM     76  C   UNL A   1      43.449  28.314  28.457  1.00  0.00     0.010 A 
ATOM     77  C   UNL A   1      41.744  26.760  29.211  1.00  0.00     0.010 A 
ATOM     78  C   UNL A   1      43.793  27.435  27.426  1.00  0.00     0.020 A 
ATOM     79  C   UNL A   1      42.105  25.866  28.199  1.00  0.00     0.020 A 
ATOM     80  C   UNL A   1      43.116  26.218  27.302  1.00  0.00     0.054 A 
BRANCH  80  81
ATOM     81  S   UNL A   1      43.593  25.090  25.965  1.00  0.00     0.124 S 
ATOM     82  O   UNL A   1      44.284  25.990  25.044  1.00  0.00    -0.237 OA
ATOM     83  O   UNL A   1      44.443  24.120  26.652  1.00  0.00    -0.237 OA
ATOM     84  O   UNL A   1      42.318  24.565  25.482  1.00  0.00    -0.744 OA
ENDBRANCH  80  81
ENDBRANCH  61  75
BRANCH  62  85
ATOM     85  C   UNL A   1      40.237  34.205  36.858  1.00  0.00    -0.014 A 
ATOM     86  C   UNL A   1      40.561  35.571  36.764  1.00  0.00     0.010 A 
ATOM     87  C   UNL A   1      39.610  33.734  38.027  1.00  0.00     0.010 A 
ATOM     88  C   UNL A   1      40.284  36.441  37.823  1.00  0.00     0.020 A 
ATOM     89  C   UNL A   1      39.302  34.607  39.075  1.00  0.00     0.020 A 
ATOM     90  C   UNL A   1      39.653  35.953  38.972  1.00  0.00     0.054 A 
BRANCH  90  91
ATOM     91  S   UNL A   1      39.259  37.111  40.312  1.00  0.00     0.124 S 
ATOM     92  O   UNL A   1      38.863  38.306  39.575  1.00  0.00    -0.237 OA
ATOM     93  O   UNL A   1      38.185  36.418  41.019  1.00  0.00    -0.237 OA
ATOM     94  O   UNL A   1      40.515  37.216  41.051  1.00  0.00    -0.744 OA
ENDBRANCH  90  91
ENDBRANCH  62  85
BRANCH  74  95
ATOM     95  C   UNL A   1      37.234  32.845  30.704  1.00  0.00    -0.014 A 
ATOM     96  C   UNL A   1      35.948  32.483  31.144  1.00  0.00     0.010 A 
ATOM     97  C   UNL A   1      37.359  33.762  29.644  1.00  0.00     0.010 A 
ATOM     98  C   UNL A   1      34.812  32.998  30.511  1.00  0.00     0.020 A 
ATOM     99  C   UNL A   1      36.227  34.304  29.030  1.00  0.00     0.020 A 
ATOM    100  C   UNL A   1      34.960  33.904  29.457  1.00  0.00     0.054 A 
BRANCH 100 101
ATOM    101  S   UNL A   1      33.471  34.584  28.673  1.00  0.00     0.124 S 
ATOM    102  O   UNL A   1      33.077  33.499  27.777  1.00  0.00    -0.237 OA
ATOM    103  O   UNL A   1      32.584  34.812  29.811  1.00  0.00    -0.237 OA
ATOM    104  O   UNL A   1      33.949  35.795  28.010  1.00  0.00    -0.744 OA
ENDBRANCH 100 101
ENDBRANCH  74  95
ENDBRANCH  48  49
ENDBRANCH  41  43
ENDBRANCH  40  41
ENDBRANCH  39  40
ENDBRANCH  38  39
ENDBRANCH  37  38
ENDBRANCH  36  37
ENDBRANCH   1  36
TORSDOF 25
ENDMDL
