MODEL 1
REMARK VINA RESULT:     -11.0      0.000      0.000
REMARK SMILES Cc1ccc(-c2cc(Cl)cc3c2O[C@H](C(F)(F)F)C(C(=O)OCCOCCOCCOC(=O)c2ccc(-c4c5nc(c(-c6ccc(S(=O)(=O)[O-])cc6)c6ccc([nH]6)c(-c6ccc(S(=O)(=O)[O-])cc6)c6nc(c(-c7ccc(S(=O)(=O)[O-])cc7)c7ccc4[nH]7)C=C6)C=C5)cc2)=C3)cc1F
REMARK SMILES IDX 27 1 26 2 25 3 24 4 23 5 22 6 20 7 21 8 19 9 6 10 7 11 12 12
REMARK SMILES IDX 8 13 11 14 13 15 9 16 10 17 94 18 14 19 5 20 1 21 2 22 3 23
REMARK SMILES IDX 96 24 4 25 95 26 97 27 15 28 16 29 17 30 18 31 28 32 29 33
REMARK SMILES IDX 30 34 31 35 32 36 33 37 34 38 35 39 93 40 36 41 92 42 37 43
REMARK SMILES IDX 38 44 39 45 86 46 40 47 91 48 85 49 87 50 41 51 90 52 84 53
REMARK SMILES IDX 83 54 42 56 72 57 53 58 71 59 54 60 57 61 70 62 88 63 55 64
REMARK SMILES IDX 56 65 69 67 89 68 58 69 43 70 44 71 52 72 45 73 51 74 46 75
REMARK SMILES IDX 47 76 48 77 49 78 50 79 73 80 74 81 82 82 75 83 81 84 76 85
REMARK SMILES IDX 77 86 78 87 79 88 80 89 59 90 60 91 68 92 61 93 67 94 62 95
REMARK SMILES IDX 63 96 64 97 65 98 66 99
REMARK H PARENT 87 55 57 66
REMARK Flexibility Score: inf
ROOT
ATOM      1  C   UNL A   1      34.000  31.331  27.489  1.00  0.00     0.188 C 
ENDROOT
BRANCH   1   2
ATOM      2  C   UNL A   1      34.224  29.852  27.109  1.00  0.00     0.188 C 
BRANCH   2   3
ATOM      3  O   UNL A   1      33.285  29.391  26.160  1.00  0.00    -0.376 OA
BRANCH   3   4
ATOM      4  C   UNL A   1      32.384  28.365  26.529  1.00  0.00     0.202 C 
BRANCH   4   5
ATOM      5  C   UNL A   1      31.435  27.746  25.490  1.00  0.00     0.261 C 
BRANCH   5   6
ATOM      6  O   UNL A   1      31.669  26.376  25.143  1.00  0.00    -0.460 OA
BRANCH   6   7
ATOM      7  C   UNL A   1      32.562  26.133  24.160  1.00  0.00     0.338 C 
ATOM      8  O   UNL A   1      32.776  26.831  23.184  1.00  0.00    -0.246 OA
BRANCH   7   9
ATOM      9  C   UNL A   1      33.334  24.922  24.515  1.00  0.00     0.087 C 
ATOM     10  C   UNL A   1      35.592  21.472  25.310  1.00  0.00     0.026 A 
ATOM     11  C   UNL A   1      36.922  21.630  25.738  1.00  0.00     0.033 A 
ATOM     12  C   UNL A   1      34.811  22.637  25.120  1.00  0.00     0.135 A 
ATOM     13  C   UNL A   1      37.454  22.902  25.951  1.00  0.00     0.042 A 
ATOM     14  C   UNL A   1      35.368  23.913  25.283  1.00  0.00     0.019 A 
ATOM     15  O   UNL A   1      33.494  22.450  24.794  1.00  0.00    -0.475 OA
ATOM     16  Cl  UNL A   1      39.085  23.060  26.475  1.00  0.00    -0.084 Cl
ATOM     17  C   UNL A   1      36.690  24.041  25.717  1.00  0.00     0.032 A 
ATOM     18  C   UNL A   1      34.589  25.097  24.950  1.00  0.00     0.027 C 
ATOM     19  C   UNL A   1      32.668  23.577  24.410  1.00  0.00     0.316 C 
BRANCH  10  20
ATOM     20  C   UNL A   1      35.072  20.120  25.011  1.00  0.00    -0.012 A 
ATOM     21  C   UNL A   1      33.472  16.183  24.160  1.00  0.00     0.047 C 
ATOM     22  C   UNL A   1      34.044  17.539  24.438  1.00  0.00    -0.015 A 
ATOM     23  C   UNL A   1      35.422  17.775  24.415  1.00  0.00     0.007 A 
ATOM     24  C   UNL A   1      33.192  18.602  24.738  1.00  0.00     0.126 A 
ATOM     25  C   UNL A   1      35.928  19.051  24.698  1.00  0.00     0.009 A 
ATOM     26  C   UNL A   1      33.688  19.872  25.012  1.00  0.00     0.048 A 
ATOM     27  F   UNL A   1      31.866  18.405  24.764  1.00  0.00    -0.207 F 
ENDBRANCH  10  20
BRANCH  19  28
ATOM     28  C   UNL A   1      32.111  23.296  23.008  1.00  0.00     0.430 C 
ATOM     29  F   UNL A   1      30.856  23.792  22.872  1.00  0.00    -0.167 F 
ATOM     30  F   UNL A   1      32.859  23.871  22.039  1.00  0.00    -0.167 F 
ATOM     31  F   UNL A   1      32.050  21.972  22.744  1.00  0.00    -0.167 F 
ENDBRANCH  19  28
ENDBRANCH   7   9
ENDBRANCH   6   7
ENDBRANCH   5   6
ENDBRANCH   4   5
ENDBRANCH   3   4
ENDBRANCH   2   3
ENDBRANCH   1   2
BRANCH   1  32
ATOM     32  O   UNL A   1      35.118  32.210  27.586  1.00  0.00    -0.376 OA
BRANCH  32  33
ATOM     33  C   UNL A   1      35.314  32.950  28.788  1.00  0.00     0.202 C 
BRANCH  33  34
ATOM     34  C   UNL A   1      35.442  32.189  30.116  1.00  0.00     0.261 C 
BRANCH  34  35
ATOM     35  O   UNL A   1      35.996  30.869  29.996  1.00  0.00    -0.460 OA
BRANCH  35  36
ATOM     36  C   UNL A   1      36.765  30.460  31.039  1.00  0.00     0.338 C 
ATOM     37  O   UNL A   1      36.389  30.163  32.159  1.00  0.00    -0.246 OA
BRANCH  36  38
ATOM     38  C   UNL A   1      38.142  30.215  30.559  1.00  0.00     0.060 A 
ATOM     39  C   UNL A   1      39.203  30.051  31.450  1.00  0.00     0.016 A 
ATOM     40  C   UNL A   1      38.358  30.141  29.176  1.00  0.00     0.016 A 
ATOM     41  C   UNL A   1      40.483  29.788  30.950  1.00  0.00     0.010 A 
ATOM     42  C   UNL A   1      39.639  29.899  28.678  1.00  0.00     0.010 A 
ATOM     43  C   UNL A   1      40.708  29.700  29.564  1.00  0.00    -0.014 A 
BRANCH  43  44
ATOM     44  C   UNL A   1      42.019  29.238  29.047  1.00  0.00     0.031 A 
ATOM     45  C   UNL A   1      42.244  27.822  28.611  1.00  0.00     0.074 A 
ATOM     46  C   UNL A   1      43.023  30.134  28.981  1.00  0.00     0.049 A 
ATOM     47  N   UNL A   1      43.309  27.299  28.061  1.00  0.00    -0.248 NA
ATOM     48  C   UNL A   1      41.140  26.872  28.815  1.00  0.00     0.031 C 
ATOM     49  C   UNL A   1      42.916  31.536  29.390  1.00  0.00     0.029 A 
ATOM     50  N   UNL A   1      44.316  30.010  28.540  1.00  0.00    -0.354 N 
ATOM     51  C   UNL A   1      42.999  25.967  27.820  1.00  0.00     0.074 A 
ATOM     52  C   UNL A   1      41.662  25.748  28.332  1.00  0.00     0.031 C 
ATOM     53  C   UNL A   1      44.084  32.150  29.151  1.00  0.00     0.029 A 
ATOM     54  C   UNL A   1      45.030  31.184  28.598  1.00  0.00     0.049 A 
ATOM     55  H   UNL A   1      44.696  29.163  28.214  1.00  0.00     0.167 HD
ATOM     56  C   UNL A   1      43.756  25.027  27.204  1.00  0.00     0.031 A 
ATOM     57  C   UNL A   1      46.298  31.462  28.236  1.00  0.00     0.031 A 
ATOM     58  C   UNL A   1      45.097  25.254  26.722  1.00  0.00     0.049 A 
ATOM     59  C   UNL A   1      47.141  30.382  27.618  1.00  0.00     0.074 A 
ATOM     60  C   UNL A   1      45.927  24.365  26.059  1.00  0.00     0.029 A 
ATOM     61  N   UNL A   1      45.807  26.438  26.852  1.00  0.00    -0.354 N 
ATOM     62  N   UNL A   1      46.807  29.146  27.334  1.00  0.00    -0.248 NA
ATOM     63  C   UNL A   1      48.522  30.732  27.261  1.00  0.00     0.031 C 
ATOM     64  C   UNL A   1      47.160  24.987  25.853  1.00  0.00     0.029 A 
ATOM     65  C   UNL A   1      47.076  26.291  26.315  1.00  0.00     0.049 A 
ATOM     66  H   UNL A   1      45.461  27.262  27.265  1.00  0.00     0.167 HD
ATOM     67  C   UNL A   1      47.929  28.578  26.741  1.00  0.00     0.074 A 
ATOM     68  C   UNL A   1      48.947  29.607  26.698  1.00  0.00     0.031 C 
ATOM     69  C   UNL A   1      48.091  27.316  26.274  1.00  0.00     0.031 A 
BRANCH  56  70
ATOM     70  C   UNL A   1      43.164  23.660  26.978  1.00  0.00    -0.014 A 
ATOM     71  C   UNL A   1      43.166  22.708  28.014  1.00  0.00     0.010 A 
ATOM     72  C   UNL A   1      42.751  23.268  25.692  1.00  0.00     0.010 A 
ATOM     73  C   UNL A   1      42.806  21.381  27.762  1.00  0.00     0.020 A 
ATOM     74  C   UNL A   1      42.365  21.948  25.440  1.00  0.00     0.020 A 
ATOM     75  C   UNL A   1      42.418  21.007  26.471  1.00  0.00     0.054 A 
BRANCH  75  76
ATOM     76  S   UNL A   1      41.996  19.272  26.150  1.00  0.00     0.124 S 
ATOM     77  O   UNL A   1      42.348  18.629  27.413  1.00  0.00    -0.237 OA
ATOM     78  O   UNL A   1      40.567  19.342  25.852  1.00  0.00    -0.237 OA
ATOM     79  O   UNL A   1      42.843  18.920  25.012  1.00  0.00    -0.744 OA
ENDBRANCH  75  76
ENDBRANCH  56  70
BRANCH  57  80
ATOM     80  C   UNL A   1      46.806  32.851  28.399  1.00  0.00    -0.014 A 
ATOM     81  C   UNL A   1      46.639  33.797  27.369  1.00  0.00     0.010 A 
ATOM     82  C   UNL A   1      47.541  33.207  29.542  1.00  0.00     0.010 A 
ATOM     83  C   UNL A   1      47.246  35.052  27.455  1.00  0.00     0.020 A 
ATOM     84  C   UNL A   1      48.125  34.473  29.645  1.00  0.00     0.020 A 
ATOM     85  C   UNL A   1      47.999  35.376  28.587  1.00  0.00     0.054 A 
BRANCH  85  86
ATOM     86  S   UNL A   1      48.827  36.988  28.650  1.00  0.00     0.124 S 
ATOM     87  O   UNL A   1      49.649  36.949  27.444  1.00  0.00    -0.237 OA
ATOM     88  O   UNL A   1      47.706  37.924  28.618  1.00  0.00    -0.237 OA
ATOM     89  O   UNL A   1      49.564  36.945  29.911  1.00  0.00    -0.744 OA
ENDBRANCH  85  86
ENDBRANCH  57  80
BRANCH  69  90
ATOM     90  C   UNL A   1      49.419  26.940  25.667  1.00  0.00    -0.014 A 
ATOM     91  C   UNL A   1      50.476  26.532  26.502  1.00  0.00     0.010 A 
ATOM     92  C   UNL A   1      49.666  27.138  24.297  1.00  0.00     0.010 A 
ATOM     93  C   UNL A   1      51.768  26.380  25.989  1.00  0.00     0.020 A 
ATOM     94  C   UNL A   1      50.951  26.958  23.775  1.00  0.00     0.020 A 
ATOM     95  C   UNL A   1      52.000  26.610  24.632  1.00  0.00     0.054 A 
BRANCH  95  96
ATOM     96  S   UNL A   1      53.694  26.474  23.998  1.00  0.00     0.124 S 
ATOM     97  O   UNL A   1      53.472  26.061  22.615  1.00  0.00    -0.237 OA
ATOM     98  O   UNL A   1      54.214  27.828  24.176  1.00  0.00    -0.237 OA
ATOM     99  O   UNL A   1      54.303  25.463  24.861  1.00  0.00    -0.744 OA
ENDBRANCH  95  96
ENDBRANCH  69  90
ENDBRANCH  43  44
ENDBRANCH  36  38
ENDBRANCH  35  36
ENDBRANCH  34  35
ENDBRANCH  33  34
ENDBRANCH  32  33
ENDBRANCH   1  32
TORSDOF 22
ENDMDL
MODEL 2
REMARK VINA RESULT:     -10.7      5.599     10.107
REMARK SMILES Cc1ccc(-c2cc(Cl)cc3c2O[C@H](C(F)(F)F)C(C(=O)OCCOCCOCCOC(=O)c2ccc(-c4c5nc(c(-c6ccc(S(=O)(=O)[O-])cc6)c6ccc([nH]6)c(-c6ccc(S(=O)(=O)[O-])cc6)c6nc(c(-c7ccc(S(=O)(=O)[O-])cc7)c7ccc4[nH]7)C=C6)C=C5)cc2)=C3)cc1F
REMARK SMILES IDX 27 1 26 2 25 3 24 4 23 5 22 6 20 7 21 8 19 9 6 10 7 11 12 12
REMARK SMILES IDX 8 13 11 14 13 15 9 16 10 17 94 18 14 19 5 20 1 21 2 22 3 23
REMARK SMILES IDX 96 24 4 25 95 26 97 27 15 28 16 29 17 30 18 31 28 32 29 33
REMARK SMILES IDX 30 34 31 35 32 36 33 37 34 38 35 39 93 40 36 41 92 42 37 43
REMARK SMILES IDX 38 44 39 45 86 46 40 47 91 48 85 49 87 50 41 51 90 52 84 53
REMARK SMILES IDX 83 54 42 56 72 57 53 58 71 59 54 60 57 61 70 62 88 63 55 64
REMARK SMILES IDX 56 65 69 67 89 68 58 69 43 70 44 71 52 72 45 73 51 74 46 75
REMARK SMILES IDX 47 76 48 77 49 78 50 79 73 80 74 81 82 82 75 83 81 84 76 85
REMARK SMILES IDX 77 86 78 87 79 88 80 89 59 90 60 91 68 92 61 93 67 94 62 95
REMARK SMILES IDX 63 96 64 97 65 98 66 99
REMARK H PARENT 87 55 57 66
REMARK Flexibility Score: inf
ROOT
ATOM      1  C   UNL A   1      33.243  29.822  26.623  1.00  0.00     0.188 C 
ENDROOT
BRANCH   1   2
ATOM      2  C   UNL A   1      32.331  28.666  27.085  1.00  0.00     0.188 C 
BRANCH   2   3
ATOM      3  O   UNL A   1      31.409  28.275  26.088  1.00  0.00    -0.376 OA
BRANCH   3   4
ATOM      4  C   UNL A   1      31.008  26.921  26.018  1.00  0.00     0.202 C 
BRANCH   4   5
ATOM      5  C   UNL A   1      30.344  26.367  24.747  1.00  0.00     0.261 C 
BRANCH   5   6
ATOM      6  O   UNL A   1      30.697  25.031  24.369  1.00  0.00    -0.460 OA
BRANCH   6   7
ATOM      7  C   UNL A   1      31.546  24.888  23.329  1.00  0.00     0.338 C 
ATOM      8  O   UNL A   1      31.623  25.610  22.350  1.00  0.00    -0.246 OA
BRANCH   7   9
ATOM      9  C   UNL A   1      32.461  23.763  23.620  1.00  0.00     0.087 C 
ATOM     10  C   UNL A   1      35.025  20.607  24.664  1.00  0.00     0.026 A 
ATOM     11  C   UNL A   1      34.483  19.313  24.765  1.00  0.00     0.033 A 
ATOM     12  C   UNL A   1      34.176  21.653  24.235  1.00  0.00     0.135 A 
ATOM     13  C   UNL A   1      33.141  19.079  24.465  1.00  0.00     0.042 A 
ATOM     14  C   UNL A   1      32.815  21.422  23.988  1.00  0.00     0.019 A 
ATOM     15  O   UNL A   1      34.752  22.883  24.056  1.00  0.00    -0.475 OA
ATOM     16  Cl  UNL A   1      32.510  17.484  24.597  1.00  0.00    -0.084 Cl
ATOM     17  C   UNL A   1      32.304  20.125  24.087  1.00  0.00     0.032 A 
ATOM     18  C   UNL A   1      31.929  22.535  23.681  1.00  0.00     0.027 C 
ATOM     19  C   UNL A   1      33.930  24.045  23.791  1.00  0.00     0.316 C 
BRANCH  10  20
ATOM     20  C   UNL A   1      36.428  20.849  25.066  1.00  0.00    -0.012 A 
ATOM     21  C   UNL A   1      40.522  21.638  26.249  1.00  0.00     0.047 C 
ATOM     22  C   UNL A   1      39.110  21.341  25.848  1.00  0.00    -0.015 A 
ATOM     23  C   UNL A   1      38.735  20.090  25.348  1.00  0.00     0.007 A 
ATOM     24  C   UNL A   1      38.135  22.331  25.960  1.00  0.00     0.126 A 
ATOM     25  C   UNL A   1      37.410  19.848  24.962  1.00  0.00     0.009 A 
ATOM     26  C   UNL A   1      36.816  22.095  25.586  1.00  0.00     0.048 A 
ATOM     27  F   UNL A   1      38.465  23.540  26.438  1.00  0.00    -0.207 F 
ENDBRANCH  10  20
BRANCH  19  28
ATOM     28  C   UNL A   1      34.213  25.082  24.886  1.00  0.00     0.430 C 
ATOM     29  F   UNL A   1      35.517  25.059  25.256  1.00  0.00    -0.167 F 
ATOM     30  F   UNL A   1      33.953  26.343  24.471  1.00  0.00    -0.167 F 
ATOM     31  F   UNL A   1      33.476  24.859  25.996  1.00  0.00    -0.167 F 
ENDBRANCH  19  28
ENDBRANCH   7   9
ENDBRANCH   6   7
ENDBRANCH   5   6
ENDBRANCH   4   5
ENDBRANCH   3   4
ENDBRANCH   2   3
ENDBRANCH   1   2
BRANCH   1  32
ATOM     32  O   UNL A   1      33.119  31.104  27.234  1.00  0.00    -0.376 OA
BRANCH  32  33
ATOM     33  C   UNL A   1      31.975  31.902  26.939  1.00  0.00     0.202 C 
BRANCH  33  34
ATOM     34  C   UNL A   1      31.984  33.386  27.333  1.00  0.00     0.261 C 
BRANCH  34  35
ATOM     35  O   UNL A   1      33.281  33.909  27.663  1.00  0.00    -0.460 OA
BRANCH  35  36
ATOM     36  C   UNL A   1      33.432  34.336  28.944  1.00  0.00     0.338 C 
ATOM     37  O   UNL A   1      32.617  34.940  29.619  1.00  0.00    -0.246 OA
BRANCH  36  38
ATOM     38  C   UNL A   1      34.679  33.769  29.500  1.00  0.00     0.060 A 
ATOM     39  C   UNL A   1      35.928  34.284  29.153  1.00  0.00     0.016 A 
ATOM     40  C   UNL A   1      34.577  32.698  30.399  1.00  0.00     0.016 A 
ATOM     41  C   UNL A   1      37.080  33.737  29.730  1.00  0.00     0.010 A 
ATOM     42  C   UNL A   1      35.728  32.140  30.958  1.00  0.00     0.010 A 
ATOM     43  C   UNL A   1      36.987  32.671  30.643  1.00  0.00    -0.014 A 
BRANCH  43  44
ATOM     44  C   UNL A   1      38.186  32.220  31.390  1.00  0.00     0.031 A 
ATOM     45  C   UNL A   1      38.499  32.729  32.765  1.00  0.00     0.074 A 
ATOM     46  C   UNL A   1      39.005  31.332  30.794  1.00  0.00     0.049 A 
ATOM     47  N   UNL A   1      39.463  32.361  33.568  1.00  0.00    -0.248 NA
ATOM     48  C   UNL A   1      37.626  33.779  33.309  1.00  0.00     0.031 C 
ATOM     49  C   UNL A   1      38.800  30.780  29.454  1.00  0.00     0.029 A 
ATOM     50  N   UNL A   1      40.157  30.729  31.234  1.00  0.00    -0.354 N 
ATOM     51  C   UNL A   1      39.299  33.106  34.728  1.00  0.00     0.074 A 
ATOM     52  C   UNL A   1      38.171  33.988  34.504  1.00  0.00     0.031 C 
ATOM     53  C   UNL A   1      39.774  29.896  29.193  1.00  0.00     0.029 A 
ATOM     54  C   UNL A   1      40.687  29.837  30.332  1.00  0.00     0.049 A 
ATOM     55  H   UNL A   1      40.563  30.918  32.110  1.00  0.00     0.167 HD
ATOM     56  C   UNL A   1      40.011  33.038  35.879  1.00  0.00     0.031 A 
ATOM     57  C   UNL A   1      41.777  29.047  30.412  1.00  0.00     0.031 A 
ATOM     58  C   UNL A   1      41.147  32.172  36.078  1.00  0.00     0.049 A 
ATOM     59  C   UNL A   1      42.590  29.041  31.675  1.00  0.00     0.074 A 
ATOM     60  C   UNL A   1      41.911  32.017  37.223  1.00  0.00     0.029 A 
ATOM     61  N   UNL A   1      41.690  31.327  35.122  1.00  0.00    -0.354 N 
ATOM     62  N   UNL A   1      42.378  29.702  32.788  1.00  0.00    -0.248 NA
ATOM     63  C   UNL A   1      43.779  28.178  31.703  1.00  0.00     0.031 C 
ATOM     64  C   UNL A   1      42.955  31.135  36.938  1.00  0.00     0.029 A 
ATOM     65  C   UNL A   1      42.799  30.677  35.640  1.00  0.00     0.049 A 
ATOM     66  H   UNL A   1      41.340  31.207  34.211  1.00  0.00     0.167 HD
ATOM     67  C   UNL A   1      43.392  29.316  33.657  1.00  0.00     0.074 A 
ATOM     68  C   UNL A   1      44.212  28.357  32.945  1.00  0.00     0.031 C 
ATOM     69  C   UNL A   1      43.616  29.722  34.930  1.00  0.00     0.031 A 
BRANCH  56  70
ATOM     70  C   UNL A   1      39.583  33.895  37.042  1.00  0.00    -0.014 A 
ATOM     71  C   UNL A   1      40.068  35.211  37.167  1.00  0.00     0.010 A 
ATOM     72  C   UNL A   1      38.831  33.343  38.094  1.00  0.00     0.010 A 
ATOM     73  C   UNL A   1      39.842  35.944  38.336  1.00  0.00     0.020 A 
ATOM     74  C   UNL A   1      38.580  34.081  39.254  1.00  0.00     0.020 A 
ATOM     75  C   UNL A   1      39.109  35.369  39.378  1.00  0.00     0.054 A 
BRANCH  75  76
ATOM     76  S   UNL A   1      38.863  36.316  40.905  1.00  0.00     0.124 S 
ATOM     77  O   UNL A   1      38.488  37.632  40.396  1.00  0.00    -0.237 OA
ATOM     78  O   UNL A   1      37.799  35.571  41.575  1.00  0.00    -0.237 OA
ATOM     79  O   UNL A   1      40.167  36.248  41.563  1.00  0.00    -0.744 OA
ENDBRANCH  75  76
ENDBRANCH  56  70
BRANCH  57  80
ATOM     80  C   UNL A   1      42.103  28.153  29.268  1.00  0.00    -0.014 A 
ATOM     81  C   UNL A   1      41.763  26.788  29.309  1.00  0.00     0.010 A 
ATOM     82  C   UNL A   1      42.839  28.642  28.176  1.00  0.00     0.010 A 
ATOM     83  C   UNL A   1      42.203  25.917  28.310  1.00  0.00     0.020 A 
ATOM     84  C   UNL A   1      43.256  27.779  27.157  1.00  0.00     0.020 A 
ATOM     85  C   UNL A   1      42.961  26.418  27.247  1.00  0.00     0.054 A 
BRANCH  85  86
ATOM     86  S   UNL A   1      43.571  25.259  25.992  1.00  0.00     0.124 S 
ATOM     87  O   UNL A   1      42.913  25.753  24.785  1.00  0.00    -0.237 OA
ATOM     88  O   UNL A   1      45.016  25.461  26.048  1.00  0.00    -0.237 OA
ATOM     89  O   UNL A   1      43.106  23.959  26.471  1.00  0.00    -0.744 OA
ENDBRANCH  85  86
ENDBRANCH  57  80
BRANCH  69  90
ATOM     90  C   UNL A   1      44.797  29.148  35.670  1.00  0.00    -0.014 A 
ATOM     91  C   UNL A   1      44.627  28.004  36.473  1.00  0.00     0.010 A 
ATOM     92  C   UNL A   1      46.029  29.825  35.696  1.00  0.00     0.010 A 
ATOM     93  C   UNL A   1      45.647  27.578  37.328  1.00  0.00     0.020 A 
ATOM     94  C   UNL A   1      47.063  29.384  36.529  1.00  0.00     0.020 A 
ATOM     95  C   UNL A   1      46.853  28.281  37.362  1.00  0.00     0.054 A 
BRANCH  95  96
ATOM     96  S   UNL A   1      48.141  27.753  38.525  1.00  0.00     0.124 S 
ATOM     97  O   UNL A   1      49.126  27.141  37.637  1.00  0.00    -0.237 OA
ATOM     98  O   UNL A   1      48.549  29.012  39.147  1.00  0.00    -0.237 OA
ATOM     99  O   UNL A   1      47.443  26.827  39.415  1.00  0.00    -0.744 OA
ENDBRANCH  95  96
ENDBRANCH  69  90
ENDBRANCH  43  44
ENDBRANCH  36  38
ENDBRANCH  35  36
ENDBRANCH  34  35
ENDBRANCH  33  34
ENDBRANCH  32  33
ENDBRANCH   1  32
TORSDOF 22
ENDMDL
MODEL 3
REMARK VINA RESULT:     -10.4      5.572     12.862
REMARK SMILES Cc1ccc(-c2cc(Cl)cc3c2O[C@H](C(F)(F)F)C(C(=O)OCCOCCOCCOC(=O)c2ccc(-c4c5nc(c(-c6ccc(S(=O)(=O)[O-])cc6)c6ccc([nH]6)c(-c6ccc(S(=O)(=O)[O-])cc6)c6nc(c(-c7ccc(S(=O)(=O)[O-])cc7)c7ccc4[nH]7)C=C6)C=C5)cc2)=C3)cc1F
REMARK SMILES IDX 27 1 26 2 25 3 24 4 23 5 22 6 20 7 21 8 19 9 6 10 7 11 12 12
REMARK SMILES IDX 8 13 11 14 13 15 9 16 10 17 94 18 14 19 5 20 1 21 2 22 3 23
REMARK SMILES IDX 96 24 4 25 95 26 97 27 15 28 16 29 17 30 18 31 28 32 29 33
REMARK SMILES IDX 30 34 31 35 32 36 33 37 34 38 35 39 93 40 36 41 92 42 37 43
REMARK SMILES IDX 38 44 39 45 86 46 40 47 91 48 85 49 87 50 41 51 90 52 84 53
REMARK SMILES IDX 83 54 42 56 72 57 53 58 71 59 54 60 57 61 70 62 88 63 55 64
REMARK SMILES IDX 56 65 69 67 89 68 58 69 43 70 44 71 52 72 45 73 51 74 46 75
REMARK SMILES IDX 47 76 48 77 49 78 50 79 73 80 74 81 82 82 75 83 81 84 76 85
REMARK SMILES IDX 77 86 78 87 79 88 80 89 59 90 60 91 68 92 61 93 67 94 62 95
REMARK SMILES IDX 63 96 64 97 65 98 66 99
REMARK H PARENT 87 55 57 66
REMARK Flexibility Score: inf
ROOT
ATOM      1  C   UNL A   1      43.781  18.437  25.221  1.00  0.00     0.188 C 
ENDROOT
BRANCH   1   2
ATOM      2  C   UNL A   1      44.656  19.362  24.347  1.00  0.00     0.188 C 
BRANCH   2   3
ATOM      3  O   UNL A   1      45.835  19.772  25.009  1.00  0.00    -0.376 OA
BRANCH   3   4
ATOM      4  C   UNL A   1      46.287  21.101  24.841  1.00  0.00     0.202 C 
BRANCH   4   5
ATOM      5  C   UNL A   1      45.728  22.234  25.718  1.00  0.00     0.261 C 
BRANCH   5   6
ATOM      6  O   UNL A   1      46.613  23.326  25.996  1.00  0.00    -0.460 OA
BRANCH   6   7
ATOM      7  C   UNL A   1      46.779  24.247  25.022  1.00  0.00     0.338 C 
ATOM      8  O   UNL A   1      46.635  24.072  23.825  1.00  0.00    -0.246 OA
BRANCH   7   9
ATOM      9  C   UNL A   1      47.062  25.554  25.655  1.00  0.00     0.087 C 
ATOM     10  C   UNL A   1      47.749  29.195  27.630  1.00  0.00     0.026 A 
ATOM     11  C   UNL A   1      48.928  29.331  28.384  1.00  0.00     0.033 A 
ATOM     12  C   UNL A   1      47.560  27.997  26.902  1.00  0.00     0.135 A 
ATOM     13  C   UNL A   1      49.872  28.305  28.422  1.00  0.00     0.042 A 
ATOM     14  C   UNL A   1      48.485  26.947  26.988  1.00  0.00     0.019 A 
ATOM     15  O   UNL A   1      46.449  27.929  26.104  1.00  0.00    -0.475 OA
ATOM     16  Cl  UNL A   1      51.304  28.504  29.354  1.00  0.00    -0.084 Cl
ATOM     17  C   UNL A   1      49.653  27.112  27.738  1.00  0.00     0.032 A 
ATOM     18  C   UNL A   1      48.205  25.672  26.343  1.00  0.00     0.027 C 
ATOM     19  C   UNL A   1      46.084  26.682  25.463  1.00  0.00     0.316 C 
BRANCH  10  20
ATOM     20  C   UNL A   1      46.725  30.261  27.669  1.00  0.00    -0.012 A 
ATOM     21  C   UNL A   1      43.752  33.414  27.709  1.00  0.00     0.047 C 
ATOM     22  C   UNL A   1      44.764  32.310  27.711  1.00  0.00    -0.015 A 
ATOM     23  C   UNL A   1      44.971  31.503  28.834  1.00  0.00     0.007 A 
ATOM     24  C   UNL A   1      45.535  32.076  26.573  1.00  0.00     0.126 A 
ATOM     25  C   UNL A   1      45.940  30.491  28.812  1.00  0.00     0.009 A 
ATOM     26  C   UNL A   1      46.492  31.068  26.542  1.00  0.00     0.048 A 
ATOM     27  F   UNL A   1      45.356  32.833  25.481  1.00  0.00    -0.207 F 
ENDBRANCH  10  20
BRANCH  19  28
ATOM     28  C   UNL A   1      44.662  26.320  25.914  1.00  0.00     0.430 C 
ATOM     29  F   UNL A   1      44.681  25.619  27.075  1.00  0.00    -0.167 F 
ATOM     30  F   UNL A   1      43.905  27.417  26.139  1.00  0.00    -0.167 F 
ATOM     31  F   UNL A   1      44.019  25.562  24.998  1.00  0.00    -0.167 F 
ENDBRANCH  19  28
ENDBRANCH   7   9
ENDBRANCH   6   7
ENDBRANCH   5   6
ENDBRANCH   4   5
ENDBRANCH   3   4
ENDBRANCH   2   3
ENDBRANCH   1   2
BRANCH   1  32
ATOM     32  O   UNL A   1      42.756  19.002  26.035  1.00  0.00    -0.376 OA
BRANCH  32  33
ATOM     33  C   UNL A   1      42.599  20.418  26.065  1.00  0.00     0.202 C 
BRANCH  33  34
ATOM     34  C   UNL A   1      41.249  21.007  26.499  1.00  0.00     0.261 C 
BRANCH  34  35
ATOM     35  O   UNL A   1      40.928  22.272  25.900  1.00  0.00    -0.460 OA
BRANCH  35  36
ATOM     36  C   UNL A   1      39.705  22.775  26.211  1.00  0.00     0.338 C 
ATOM     37  O   UNL A   1      38.631  22.207  26.120  1.00  0.00    -0.246 OA
BRANCH  36  38
ATOM     38  C   UNL A   1      39.876  24.074  26.896  1.00  0.00     0.060 A 
ATOM     39  C   UNL A   1      39.112  24.411  28.014  1.00  0.00     0.016 A 
ATOM     40  C   UNL A   1      40.837  24.964  26.399  1.00  0.00     0.016 A 
ATOM     41  C   UNL A   1      39.332  25.638  28.650  1.00  0.00     0.010 A 
ATOM     42  C   UNL A   1      41.041  26.197  27.021  1.00  0.00     0.010 A 
ATOM     43  C   UNL A   1      40.303  26.533  28.165  1.00  0.00    -0.014 A 
BRANCH  43  44
ATOM     44  C   UNL A   1      40.662  27.742  28.946  1.00  0.00     0.031 A 
ATOM     45  C   UNL A   1      39.749  28.928  29.031  1.00  0.00     0.074 A 
ATOM     46  C   UNL A   1      41.849  27.754  29.583  1.00  0.00     0.049 A 
ATOM     47  N   UNL A   1      39.894  30.016  29.743  1.00  0.00    -0.248 NA
ATOM     48  C   UNL A   1      38.523  28.894  28.221  1.00  0.00     0.031 C 
ATOM     49  C   UNL A   1      42.818  26.657  29.557  1.00  0.00     0.029 A 
ATOM     50  N   UNL A   1      42.436  28.703  30.380  1.00  0.00    -0.354 N 
ATOM     51  C   UNL A   1      38.765  30.786  29.497  1.00  0.00     0.074 A 
ATOM     52  C   UNL A   1      37.967  30.063  28.528  1.00  0.00     0.031 C 
ATOM     53  C   UNL A   1      43.865  26.982  30.330  1.00  0.00     0.029 A 
ATOM     54  C   UNL A   1      43.656  28.317  30.884  1.00  0.00     0.049 A 
ATOM     55  H   UNL A   1      42.024  29.576  30.573  1.00  0.00     0.167 HD
ATOM     56  C   UNL A   1      38.420  31.973  30.052  1.00  0.00     0.031 A 
ATOM     57  C   UNL A   1      44.509  28.955  31.710  1.00  0.00     0.031 A 
ATOM     58  C   UNL A   1      39.237  32.693  30.997  1.00  0.00     0.049 A 
ATOM     59  C   UNL A   1      44.134  30.303  32.258  1.00  0.00     0.074 A 
ATOM     60  C   UNL A   1      38.953  33.890  31.632  1.00  0.00     0.029 A 
ATOM     61  N   UNL A   1      40.492  32.299  31.437  1.00  0.00    -0.354 N 
ATOM     62  N   UNL A   1      43.029  30.984  32.069  1.00  0.00    -0.248 NA
ATOM     63  C   UNL A   1      45.107  30.964  33.137  1.00  0.00     0.031 C 
ATOM     64  C   UNL A   1      40.061  34.255  32.399  1.00  0.00     0.029 A 
ATOM     65  C   UNL A   1      41.009  33.248  32.307  1.00  0.00     0.049 A 
ATOM     66  H   UNL A   1      40.949  31.469  31.172  1.00  0.00     0.167 HD
ATOM     67  C   UNL A   1      43.164  32.143  32.826  1.00  0.00     0.074 A 
ATOM     68  C   UNL A   1      44.453  32.066  33.483  1.00  0.00     0.031 C 
ATOM     69  C   UNL A   1      42.293  33.171  32.960  1.00  0.00     0.031 A 
BRANCH  56  70
ATOM     70  C   UNL A   1      37.089  32.579  29.688  1.00  0.00    -0.014 A 
ATOM     71  C   UNL A   1      37.018  33.607  28.730  1.00  0.00     0.010 A 
ATOM     72  C   UNL A   1      35.932  32.239  30.412  1.00  0.00     0.010 A 
ATOM     73  C   UNL A   1      35.827  34.311  28.530  1.00  0.00     0.020 A 
ATOM     74  C   UNL A   1      34.732  32.923  30.197  1.00  0.00     0.020 A 
ATOM     75  C   UNL A   1      34.693  33.972  29.275  1.00  0.00     0.054 A 
BRANCH  75  76
ATOM     76  S   UNL A   1      33.168  34.924  29.035  1.00  0.00     0.124 S 
ATOM     77  O   UNL A   1      32.602  34.947  30.381  1.00  0.00    -0.237 OA
ATOM     78  O   UNL A   1      33.668  36.205  28.539  1.00  0.00    -0.237 OA
ATOM     79  O   UNL A   1      32.423  34.136  28.056  1.00  0.00    -0.744 OA
ENDBRANCH  75  76
ENDBRANCH  56  70
BRANCH  57  80
ATOM     80  C   UNL A   1      45.770  28.273  32.109  1.00  0.00    -0.014 A 
ATOM     81  C   UNL A   1      45.836  27.538  33.307  1.00  0.00     0.010 A 
ATOM     82  C   UNL A   1      46.936  28.437  31.341  1.00  0.00     0.010 A 
ATOM     83  C   UNL A   1      47.055  27.028  33.759  1.00  0.00     0.020 A 
ATOM     84  C   UNL A   1      48.153  27.902  31.775  1.00  0.00     0.020 A 
ATOM     85  C   UNL A   1      48.209  27.228  32.997  1.00  0.00     0.054 A 
BRANCH  85  86
ATOM     86  S   UNL A   1      49.791  26.608  33.632  1.00  0.00     0.124 S 
ATOM     87  O   UNL A   1      50.043  27.518  34.746  1.00  0.00    -0.237 OA
ATOM     88  O   UNL A   1      49.469  25.233  34.004  1.00  0.00    -0.237 OA
ATOM     89  O   UNL A   1      50.696  26.747  32.493  1.00  0.00    -0.744 OA
ENDBRANCH  85  86
ENDBRANCH  57  80
BRANCH  69  90
ATOM     90  C   UNL A   1      42.676  34.326  33.851  1.00  0.00    -0.014 A 
ATOM     91  C   UNL A   1      43.258  35.477  33.287  1.00  0.00     0.010 A 
ATOM     92  C   UNL A   1      42.606  34.209  35.250  1.00  0.00     0.010 A 
ATOM     93  C   UNL A   1      43.809  36.467  34.105  1.00  0.00     0.020 A 
ATOM     94  C   UNL A   1      43.131  35.212  36.072  1.00  0.00     0.020 A 
ATOM     95  C   UNL A   1      43.757  36.320  35.493  1.00  0.00     0.054 A 
BRANCH  95  96
ATOM     96  S   UNL A   1      44.537  37.582  36.537  1.00  0.00     0.124 S 
ATOM     97  O   UNL A   1      45.766  36.916  36.958  1.00  0.00    -0.237 OA
ATOM     98  O   UNL A   1      44.711  38.701  35.613  1.00  0.00    -0.237 OA
ATOM     99  O   UNL A   1      43.555  37.807  37.596  1.00  0.00    -0.744 OA
ENDBRANCH  95  96
ENDBRANCH  69  90
ENDBRANCH  43  44
ENDBRANCH  36  38
ENDBRANCH  35  36
ENDBRANCH  34  35
ENDBRANCH  33  34
ENDBRANCH  32  33
ENDBRANCH   1  32
TORSDOF 22
ENDMDL
