MODEL 1
REMARK VINA RESULT:      -9.4      0.000      0.000
REMARK SMILES O=C(Cc1ccc(-c2ccn(C(F)F)c(=O)c2)cc1)OCCOCCOCCOC(=O)c1ccc(-c2c3nc(c(-c4ccc(S(=O)(=O)[O-])cc4)c4ccc([nH]4)c(-c4ccc(S(=O)(=O)[O-])cc4)c4nc(c(-c5ccc(S(=O)(=O)[O-])cc5)c5ccc2[nH]5)C=C4)C=C3)cc1
REMARK SMILES IDX 24 1 23 2 22 3 21 4 20 5 2 6 1 7 3 8 4 9 5 10 19 11 6 12
REMARK SMILES IDX 18 13 7 14 8 15 9 16 17 17 10 18 15 19 11 20 16 21 12 22
REMARK SMILES IDX 13 23 14 24 25 25 26 26 27 27 28 28 29 29 30 30 31 31 32 32
REMARK SMILES IDX 33 33 91 34 34 35 90 36 35 37 36 38 37 39 84 40 38 41 89 42
REMARK SMILES IDX 83 43 85 44 39 45 88 46 82 47 81 48 40 50 70 51 51 52 69 53
REMARK SMILES IDX 52 54 55 55 68 56 86 57 53 58 54 59 67 61 87 62 56 63 41 64
REMARK SMILES IDX 42 65 50 66 43 67 49 68 44 69 45 70 46 71 47 72 48 73 71 74
REMARK SMILES IDX 72 75 80 76 73 77 79 78 74 79 75 80 76 81 77 82 78 83 57 84
REMARK SMILES IDX 58 85 66 86 59 87 65 88 60 89 61 90 62 91 63 92 64 93
REMARK H PARENT 85 49 55 60
REMARK Flexibility Score: inf
ROOT
ATOM      1  C   UNL A   1      32.394  29.009  25.595  1.00  0.00     0.188 C 
ENDROOT
BRANCH   1   2
ATOM      2  O   UNL A   1      32.084  27.838  26.324  1.00  0.00    -0.376 OA
BRANCH   2   3
ATOM      3  C   UNL A   1      31.567  26.704  25.644  1.00  0.00     0.202 C 
BRANCH   3   4
ATOM      4  C   UNL A   1      32.506  25.546  25.308  1.00  0.00     0.261 C 
BRANCH   4   5
ATOM      5  O   UNL A   1      31.983  24.267  24.843  1.00  0.00    -0.463 OA
BRANCH   5   6
ATOM      6  C   UNL A   1      31.448  23.787  23.702  1.00  0.00     0.310 C 
ATOM      7  O   UNL A   1      30.488  24.378  23.208  1.00  0.00    -0.252 OA
BRANCH   6   8
ATOM      8  C   UNL A   1      32.009  22.558  23.033  1.00  0.00     0.158 C 
BRANCH   8   9
ATOM      9  C   UNL A   1      33.422  22.244  23.453  1.00  0.00    -0.037 A 
ATOM     10  C   UNL A   1      34.488  23.037  23.006  1.00  0.00     0.005 A 
ATOM     11  C   UNL A   1      33.692  21.197  24.338  1.00  0.00     0.005 A 
ATOM     12  C   UNL A   1      35.776  22.845  23.513  1.00  0.00     0.009 A 
ATOM     13  C   UNL A   1      34.967  20.993  24.834  1.00  0.00     0.009 A 
ATOM     14  C   UNL A   1      36.006  21.848  24.465  1.00  0.00    -0.018 A 
BRANCH  14  15
ATOM     15  C   UNL A   1      37.231  21.757  25.269  1.00  0.00    -0.011 A 
ATOM     16  C   UNL A   1      37.916  22.913  25.807  1.00  0.00     0.027 A 
ATOM     17  C   UNL A   1      37.857  20.567  25.238  1.00  0.00     0.080 A 
ATOM     18  C   UNL A   1      39.197  22.819  26.182  1.00  0.00     0.095 A 
ATOM     19  C   UNL A   1      39.265  20.440  25.689  1.00  0.00     0.255 A 
ATOM     20  N   UNL A   1      39.870  21.613  26.110  1.00  0.00    -0.258 N 
ATOM     21  O   UNL A   1      39.811  19.344  25.609  1.00  0.00    -0.269 OA
BRANCH  20  22
ATOM     22  C   UNL A   1      41.267  21.534  26.435  1.00  0.00     0.451 C 
ATOM     23  F   UNL A   1      42.026  22.205  25.536  1.00  0.00    -0.185 F 
ATOM     24  F   UNL A   1      41.507  22.060  27.663  1.00  0.00    -0.185 F 
ENDBRANCH  20  22
ENDBRANCH  14  15
ENDBRANCH   8   9
ENDBRANCH   6   8
ENDBRANCH   5   6
ENDBRANCH   4   5
ENDBRANCH   3   4
ENDBRANCH   2   3
ENDBRANCH   1   2
BRANCH   1  25
ATOM     25  C   UNL A   1      32.156  30.308  26.372  1.00  0.00     0.188 C 
BRANCH  25  26
ATOM     26  O   UNL A   1      33.298  31.018  26.831  1.00  0.00    -0.376 OA
BRANCH  26  27
ATOM     27  C   UNL A   1      33.908  30.596  28.053  1.00  0.00     0.202 C 
BRANCH  27  28
ATOM     28  C   UNL A   1      35.384  30.943  28.325  1.00  0.00     0.261 C 
BRANCH  28  29
ATOM     29  O   UNL A   1      36.140  29.894  28.968  1.00  0.00    -0.460 OA
BRANCH  29  30
ATOM     30  C   UNL A   1      37.318  30.283  29.507  1.00  0.00     0.338 C 
ATOM     31  O   UNL A   1      37.476  31.106  30.402  1.00  0.00    -0.246 OA
BRANCH  30  32
ATOM     32  C   UNL A   1      38.449  29.485  28.998  1.00  0.00     0.060 A 
ATOM     33  C   UNL A   1      39.361  28.975  29.934  1.00  0.00     0.016 A 
ATOM     34  C   UNL A   1      38.736  29.431  27.633  1.00  0.00     0.016 A 
ATOM     35  C   UNL A   1      40.597  28.484  29.514  1.00  0.00     0.010 A 
ATOM     36  C   UNL A   1      39.985  28.951  27.214  1.00  0.00     0.010 A 
ATOM     37  C   UNL A   1      40.944  28.537  28.159  1.00  0.00    -0.014 A 
BRANCH  37  38
ATOM     38  C   UNL A   1      42.378  28.421  27.786  1.00  0.00     0.031 A 
ATOM     39  C   UNL A   1      43.284  29.602  28.045  1.00  0.00     0.074 A 
ATOM     40  C   UNL A   1      42.896  27.278  27.299  1.00  0.00     0.049 A 
ATOM     41  N   UNL A   1      44.574  29.718  27.856  1.00  0.00    -0.248 NA
ATOM     42  C   UNL A   1      42.646  30.810  28.593  1.00  0.00     0.031 C 
ATOM     43  C   UNL A   1      42.150  26.048  27.047  1.00  0.00     0.029 A 
ATOM     44  N   UNL A   1      44.186  26.971  26.939  1.00  0.00    -0.354 N 
ATOM     45  C   UNL A   1      44.899  31.010  28.256  1.00  0.00     0.074 A 
ATOM     46  C   UNL A   1      43.669  31.648  28.668  1.00  0.00     0.031 C 
ATOM     47  C   UNL A   1      42.998  25.115  26.573  1.00  0.00     0.029 A 
ATOM     48  C   UNL A   1      44.339  25.689  26.471  1.00  0.00     0.049 A 
ATOM     49  H   UNL A   1      44.931  27.611  27.009  1.00  0.00     0.167 HD
ATOM     50  C   UNL A   1      46.111  31.614  28.287  1.00  0.00     0.031 A 
ATOM     51  C   UNL A   1      45.435  25.050  26.013  1.00  0.00     0.031 A 
ATOM     52  C   UNL A   1      47.339  30.991  27.872  1.00  0.00     0.049 A 
ATOM     53  C   UNL A   1      46.765  25.759  26.005  1.00  0.00     0.074 A 
ATOM     54  C   UNL A   1      48.618  31.521  27.878  1.00  0.00     0.029 A 
ATOM     55  N   UNL A   1      47.442  29.703  27.372  1.00  0.00    -0.354 N 
ATOM     56  N   UNL A   1      47.058  26.973  26.410  1.00  0.00    -0.248 NA
ATOM     57  C   UNL A   1      47.918  25.003  25.493  1.00  0.00     0.031 C 
ATOM     58  C   UNL A   1      49.488  30.569  27.336  1.00  0.00     0.029 A 
ATOM     59  C   UNL A   1      48.759  29.426  27.048  1.00  0.00     0.049 A 
ATOM     60  H   UNL A   1      46.689  29.078  27.262  1.00  0.00     0.167 HD
ATOM     61  C   UNL A   1      48.434  27.108  26.240  1.00  0.00     0.074 A 
ATOM     62  C   UNL A   1      48.914  25.853  25.700  1.00  0.00     0.031 C 
ATOM     63  C   UNL A   1      49.228  28.172  26.516  1.00  0.00     0.031 A 
BRANCH  50  64
ATOM     64  C   UNL A   1      46.157  33.045  28.756  1.00  0.00    -0.014 A 
ATOM     65  C   UNL A   1      45.690  34.095  27.945  1.00  0.00     0.010 A 
ATOM     66  C   UNL A   1      46.660  33.339  30.036  1.00  0.00     0.010 A 
ATOM     67  C   UNL A   1      45.765  35.417  28.389  1.00  0.00     0.020 A 
ATOM     68  C   UNL A   1      46.714  34.657  30.494  1.00  0.00     0.020 A 
ATOM     69  C   UNL A   1      46.282  35.691  29.659  1.00  0.00     0.054 A 
BRANCH  69  70
ATOM     70  S   UNL A   1      46.362  37.415  30.218  1.00  0.00     0.124 S 
ATOM     71  O   UNL A   1      46.503  37.256  31.663  1.00  0.00    -0.237 OA
ATOM     72  O   UNL A   1      47.543  37.924  29.524  1.00  0.00    -0.237 OA
ATOM     73  O   UNL A   1      45.091  37.982  29.776  1.00  0.00    -0.744 OA
ENDBRANCH  69  70
ENDBRANCH  50  64
BRANCH  51  74
ATOM     74  C   UNL A   1      45.329  23.648  25.522  1.00  0.00    -0.014 A 
ATOM     75  C   UNL A   1      45.237  23.374  24.145  1.00  0.00     0.010 A 
ATOM     76  C   UNL A   1      45.304  22.580  26.436  1.00  0.00     0.010 A 
ATOM     77  C   UNL A   1      45.103  22.058  23.694  1.00  0.00     0.020 A 
ATOM     78  C   UNL A   1      45.195  21.261  25.986  1.00  0.00     0.020 A 
ATOM     79  C   UNL A   1      45.084  21.009  24.617  1.00  0.00     0.054 A 
BRANCH  79  80
ATOM     80  S   UNL A   1      44.959  19.304  24.009  1.00  0.00     0.124 S 
ATOM     81  O   UNL A   1      46.360  18.898  23.956  1.00  0.00    -0.237 OA
ATOM     82  O   UNL A   1      44.150  18.659  25.040  1.00  0.00    -0.237 OA
ATOM     83  O   UNL A   1      44.299  19.453  22.714  1.00  0.00    -0.744 OA
ENDBRANCH  79  80
ENDBRANCH  51  74
BRANCH  63  84
ATOM     84  C   UNL A   1      50.710  28.013  26.295  1.00  0.00    -0.014 A 
ATOM     85  C   UNL A   1      51.299  28.254  25.041  1.00  0.00     0.010 A 
ATOM     86  C   UNL A   1      51.533  27.652  27.379  1.00  0.00     0.010 A 
ATOM     87  C   UNL A   1      52.677  28.093  24.865  1.00  0.00     0.020 A 
ATOM     88  C   UNL A   1      52.914  27.517  27.214  1.00  0.00     0.020 A 
ATOM     89  C   UNL A   1      53.475  27.720  25.952  1.00  0.00     0.054 A 
BRANCH  89  90
ATOM     90  S   UNL A   1      55.263  27.537  25.707  1.00  0.00     0.124 S 
ATOM     91  O   UNL A   1      55.803  28.409  26.747  1.00  0.00    -0.237 OA
ATOM     92  O   UNL A   1      55.474  26.107  25.917  1.00  0.00    -0.237 OA
ATOM     93  O   UNL A   1      55.474  27.997  24.337  1.00  0.00    -0.744 OA
ENDBRANCH  89  90
ENDBRANCH  63  84
ENDBRANCH  37  38
ENDBRANCH  30  32
ENDBRANCH  29  30
ENDBRANCH  28  29
ENDBRANCH  27  28
ENDBRANCH  26  27
ENDBRANCH  25  26
ENDBRANCH   1  25
TORSDOF 23
ENDMDL
MODEL 2
REMARK VINA RESULT:      -9.1      2.442      8.354
REMARK SMILES O=C(Cc1ccc(-c2ccn(C(F)F)c(=O)c2)cc1)OCCOCCOCCOC(=O)c1ccc(-c2c3nc(c(-c4ccc(S(=O)(=O)[O-])cc4)c4ccc([nH]4)c(-c4ccc(S(=O)(=O)[O-])cc4)c4nc(c(-c5ccc(S(=O)(=O)[O-])cc5)c5ccc2[nH]5)C=C4)C=C3)cc1
REMARK SMILES IDX 24 1 23 2 22 3 21 4 20 5 2 6 1 7 3 8 4 9 5 10 19 11 6 12
REMARK SMILES IDX 18 13 7 14 8 15 9 16 17 17 10 18 15 19 11 20 16 21 12 22
REMARK SMILES IDX 13 23 14 24 25 25 26 26 27 27 28 28 29 29 30 30 31 31 32 32
REMARK SMILES IDX 33 33 91 34 34 35 90 36 35 37 36 38 37 39 84 40 38 41 89 42
REMARK SMILES IDX 83 43 85 44 39 45 88 46 82 47 81 48 40 50 70 51 51 52 69 53
REMARK SMILES IDX 52 54 55 55 68 56 86 57 53 58 54 59 67 61 87 62 56 63 41 64
REMARK SMILES IDX 42 65 50 66 43 67 49 68 44 69 45 70 46 71 47 72 48 73 71 74
REMARK SMILES IDX 72 75 80 76 73 77 79 78 74 79 75 80 76 81 77 82 78 83 57 84
REMARK SMILES IDX 58 85 66 86 59 87 65 88 60 89 61 90 62 91 63 92 64 93
REMARK H PARENT 85 49 55 60
REMARK Flexibility Score: inf
ROOT
ATOM      1  C   UNL A   1      32.504  29.289  26.899  1.00  0.00     0.188 C 
ENDROOT
BRANCH   1   2
ATOM      2  O   UNL A   1      33.232  28.127  27.242  1.00  0.00    -0.376 OA
BRANCH   2   3
ATOM      3  C   UNL A   1      33.059  26.940  26.484  1.00  0.00     0.202 C 
BRANCH   3   4
ATOM      4  C   UNL A   1      33.836  26.770  25.178  1.00  0.00     0.261 C 
BRANCH   4   5
ATOM      5  O   UNL A   1      33.304  27.278  23.919  1.00  0.00    -0.463 OA
BRANCH   5   6
ATOM      6  C   UNL A   1      32.086  27.563  23.417  1.00  0.00     0.310 C 
ATOM      7  O   UNL A   1      31.452  28.498  23.908  1.00  0.00    -0.252 OA
BRANCH   6   8
ATOM      8  C   UNL A   1      31.505  26.768  22.276  1.00  0.00     0.158 C 
BRANCH   8   9
ATOM      9  C   UNL A   1      31.698  25.281  22.427  1.00  0.00    -0.037 A 
ATOM     10  C   UNL A   1      32.839  24.657  21.906  1.00  0.00     0.005 A 
ATOM     11  C   UNL A   1      30.777  24.507  23.137  1.00  0.00     0.005 A 
ATOM     12  C   UNL A   1      33.097  23.310  22.177  1.00  0.00     0.009 A 
ATOM     13  C   UNL A   1      31.020  23.170  23.398  1.00  0.00     0.009 A 
ATOM     14  C   UNL A   1      32.205  22.577  22.964  1.00  0.00    -0.018 A 
BRANCH  14  15
ATOM     15  C   UNL A   1      32.522  21.267  23.547  1.00  0.00    -0.011 A 
ATOM     16  C   UNL A   1      33.442  21.089  24.650  1.00  0.00     0.027 A 
ATOM     17  C   UNL A   1      32.142  20.203  22.818  1.00  0.00     0.080 A 
ATOM     18  C   UNL A   1      33.987  19.889  24.881  1.00  0.00     0.095 A 
ATOM     19  C   UNL A   1      32.707  18.857  23.091  1.00  0.00     0.255 A 
ATOM     20  N   UNL A   1      33.644  18.794  24.109  1.00  0.00    -0.258 N 
ATOM     21  O   UNL A   1      32.363  17.920  22.377  1.00  0.00    -0.269 OA
BRANCH  20  22
ATOM     22  C   UNL A   1      34.292  17.527  24.308  1.00  0.00     0.451 C 
ATOM     23  F   UNL A   1      34.140  16.717  23.235  1.00  0.00    -0.185 F 
ATOM     24  F   UNL A   1      35.621  17.693  24.525  1.00  0.00    -0.185 F 
ENDBRANCH  20  22
ENDBRANCH  14  15
ENDBRANCH   8   9
ENDBRANCH   6   8
ENDBRANCH   5   6
ENDBRANCH   4   5
ENDBRANCH   3   4
ENDBRANCH   2   3
ENDBRANCH   1   2
BRANCH   1  25
ATOM     25  C   UNL A   1      33.361  30.555  26.798  1.00  0.00     0.188 C 
BRANCH  25  26
ATOM     26  O   UNL A   1      33.681  31.229  28.008  1.00  0.00    -0.376 OA
BRANCH  26  27
ATOM     27  C   UNL A   1      34.956  31.869  28.106  1.00  0.00     0.202 C 
BRANCH  27  28
ATOM     28  C   UNL A   1      35.933  31.446  29.218  1.00  0.00     0.261 C 
BRANCH  28  29
ATOM     29  O   UNL A   1      35.860  30.051  29.584  1.00  0.00    -0.460 OA
BRANCH  29  30
ATOM     30  C   UNL A   1      36.842  29.620  30.408  1.00  0.00     0.338 C 
ATOM     31  O   UNL A   1      36.705  28.916  31.403  1.00  0.00    -0.246 OA
BRANCH  30  32
ATOM     32  C   UNL A   1      38.182  29.970  29.903  1.00  0.00     0.060 A 
ATOM     33  C   UNL A   1      38.477  29.659  28.567  1.00  0.00     0.016 A 
ATOM     34  C   UNL A   1      39.196  30.380  30.771  1.00  0.00     0.016 A 
ATOM     35  C   UNL A   1      39.797  29.678  28.117  1.00  0.00     0.010 A 
ATOM     36  C   UNL A   1      40.524  30.383  30.321  1.00  0.00     0.010 A 
ATOM     37  C   UNL A   1      40.834  29.970  29.011  1.00  0.00    -0.014 A 
BRANCH  37  38
ATOM     38  C   UNL A   1      42.221  29.576  28.646  1.00  0.00     0.031 A 
ATOM     39  C   UNL A   1      42.479  28.137  28.264  1.00  0.00     0.074 A 
ATOM     40  C   UNL A   1      43.220  30.474  28.577  1.00  0.00     0.049 A 
ATOM     41  N   UNL A   1      43.587  27.571  27.858  1.00  0.00    -0.248 NA
ATOM     42  C   UNL A   1      41.332  27.218  28.350  1.00  0.00     0.031 C 
ATOM     43  C   UNL A   1      43.101  31.900  28.869  1.00  0.00     0.029 A 
ATOM     44  N   UNL A   1      44.538  30.309  28.227  1.00  0.00    -0.354 N 
ATOM     45  C   UNL A   1      43.272  26.232  27.647  1.00  0.00     0.074 A 
ATOM     46  C   UNL A   1      41.879  26.065  27.998  1.00  0.00     0.031 C 
ATOM     47  C   UNL A   1      44.301  32.483  28.683  1.00  0.00     0.029 A 
ATOM     48  C   UNL A   1      45.273  31.468  28.278  1.00  0.00     0.049 A 
ATOM     49  H   UNL A   1      44.920  29.440  27.963  1.00  0.00     0.167 HD
ATOM     50  C   UNL A   1      44.063  25.231  27.194  1.00  0.00     0.031 A 
ATOM     51  C   UNL A   1      46.580  31.687  28.029  1.00  0.00     0.031 A 
ATOM     52  C   UNL A   1      45.451  25.385  26.850  1.00  0.00     0.049 A 
ATOM     53  C   UNL A   1      47.457  30.546  27.578  1.00  0.00     0.074 A 
ATOM     54  C   UNL A   1      46.331  24.429  26.371  1.00  0.00     0.029 A 
ATOM     55  N   UNL A   1      46.164  26.569  26.952  1.00  0.00    -0.354 N 
ATOM     56  N   UNL A   1      47.135  29.292  27.360  1.00  0.00    -0.248 NA
ATOM     57  C   UNL A   1      48.872  30.856  27.323  1.00  0.00     0.031 C 
ATOM     58  C   UNL A   1      47.589  25.025  26.230  1.00  0.00     0.029 A 
ATOM     59  C   UNL A   1      47.477  26.366  26.564  1.00  0.00     0.049 A 
ATOM     60  H   UNL A   1      45.790  27.428  27.256  1.00  0.00     0.167 HD
ATOM     61  C   UNL A   1      48.298  28.677  26.902  1.00  0.00     0.074 A 
ATOM     62  C   UNL A   1      49.326  29.695  26.872  1.00  0.00     0.031 C 
ATOM     63  C   UNL A   1      48.492  27.387  26.532  1.00  0.00     0.031 A 
BRANCH  50  64
ATOM     64  C   UNL A   1      43.446  23.861  27.082  1.00  0.00    -0.014 A 
ATOM     65  C   UNL A   1      43.228  23.063  28.220  1.00  0.00     0.010 A 
ATOM     66  C   UNL A   1      43.063  23.375  25.819  1.00  0.00     0.010 A 
ATOM     67  C   UNL A   1      42.677  21.785  28.090  1.00  0.00     0.020 A 
ATOM     68  C   UNL A   1      42.489  22.109  25.689  1.00  0.00     0.020 A 
ATOM     69  C   UNL A   1      42.317  21.313  26.824  1.00  0.00     0.054 A 
BRANCH  69  70
ATOM     70  S   UNL A   1      41.596  19.655  26.682  1.00  0.00     0.124 S 
ATOM     71  O   UNL A   1      40.206  19.898  27.060  1.00  0.00    -0.237 OA
ATOM     72  O   UNL A   1      41.816  19.328  25.276  1.00  0.00    -0.237 OA
ATOM     73  O   UNL A   1      42.368  18.858  27.632  1.00  0.00    -0.744 OA
ENDBRANCH  69  70
ENDBRANCH  50  64
BRANCH  51  74
ATOM     74  C   UNL A   1      47.152  33.052  28.193  1.00  0.00    -0.014 A 
ATOM     75  C   UNL A   1      47.124  33.976  27.133  1.00  0.00     0.010 A 
ATOM     76  C   UNL A   1      47.743  33.428  29.413  1.00  0.00     0.010 A 
ATOM     77  C   UNL A   1      47.694  35.243  27.284  1.00  0.00     0.020 A 
ATOM     78  C   UNL A   1      48.292  34.703  29.575  1.00  0.00     0.020 A 
ATOM     79  C   UNL A   1      48.273  35.599  28.505  1.00  0.00     0.054 A 
BRANCH  79  80
ATOM     80  S   UNL A   1      48.964  37.267  28.697  1.00  0.00     0.124 S 
ATOM     81  O   UNL A   1      50.235  37.151  27.989  1.00  0.00    -0.237 OA
ATOM     82  O   UNL A   1      47.953  38.103  28.053  1.00  0.00    -0.237 OA
ATOM     83  O   UNL A   1      49.064  37.428  30.145  1.00  0.00    -0.744 OA
ENDBRANCH  79  80
ENDBRANCH  51  74
BRANCH  63  84
ATOM     84  C   UNL A   1      49.852  27.009  26.005  1.00  0.00    -0.014 A 
ATOM     85  C   UNL A   1      50.213  27.237  24.666  1.00  0.00     0.010 A 
ATOM     86  C   UNL A   1      50.800  26.449  26.883  1.00  0.00     0.010 A 
ATOM     87  C   UNL A   1      51.482  26.872  24.203  1.00  0.00     0.020 A 
ATOM     88  C   UNL A   1      52.077  26.108  26.432  1.00  0.00     0.020 A 
ATOM     89  C   UNL A   1      52.404  26.304  25.089  1.00  0.00     0.054 A 
BRANCH  89  90
ATOM     90  S   UNL A   1      54.051  25.856  24.474  1.00  0.00     0.124 S 
ATOM     91  O   UNL A   1      54.904  26.826  25.156  1.00  0.00    -0.237 OA
ATOM     92  O   UNL A   1      54.197  24.472  24.919  1.00  0.00    -0.237 OA
ATOM     93  O   UNL A   1      53.941  26.030  23.029  1.00  0.00    -0.744 OA
ENDBRANCH  89  90
ENDBRANCH  63  84
ENDBRANCH  37  38
ENDBRANCH  30  32
ENDBRANCH  29  30
ENDBRANCH  28  29
ENDBRANCH  27  28
ENDBRANCH  26  27
ENDBRANCH  25  26
ENDBRANCH   1  25
TORSDOF 23
ENDMDL
MODEL 3
REMARK VINA RESULT:      -8.5      5.820     12.919
REMARK SMILES O=C(Cc1ccc(-c2ccn(C(F)F)c(=O)c2)cc1)OCCOCCOCCOC(=O)c1ccc(-c2c3nc(c(-c4ccc(S(=O)(=O)[O-])cc4)c4ccc([nH]4)c(-c4ccc(S(=O)(=O)[O-])cc4)c4nc(c(-c5ccc(S(=O)(=O)[O-])cc5)c5ccc2[nH]5)C=C4)C=C3)cc1
REMARK SMILES IDX 24 1 23 2 22 3 21 4 20 5 2 6 1 7 3 8 4 9 5 10 19 11 6 12
REMARK SMILES IDX 18 13 7 14 8 15 9 16 17 17 10 18 15 19 11 20 16 21 12 22
REMARK SMILES IDX 13 23 14 24 25 25 26 26 27 27 28 28 29 29 30 30 31 31 32 32
REMARK SMILES IDX 33 33 91 34 34 35 90 36 35 37 36 38 37 39 84 40 38 41 89 42
REMARK SMILES IDX 83 43 85 44 39 45 88 46 82 47 81 48 40 50 70 51 51 52 69 53
REMARK SMILES IDX 52 54 55 55 68 56 86 57 53 58 54 59 67 61 87 62 56 63 41 64
REMARK SMILES IDX 42 65 50 66 43 67 49 68 44 69 45 70 46 71 47 72 48 73 71 74
REMARK SMILES IDX 72 75 80 76 73 77 79 78 74 79 75 80 76 81 77 82 78 83 57 84
REMARK SMILES IDX 58 85 66 86 59 87 65 88 60 89 61 90 62 91 63 92 64 93
REMARK H PARENT 85 49 55 60
REMARK Flexibility Score: inf
ROOT
ATOM      1  C   UNL A   1      42.557  22.196  25.773  1.00  0.00     0.188 C 
ENDROOT
BRANCH   1   2
ATOM      2  O   UNL A   1      42.999  21.840  27.068  1.00  0.00    -0.376 OA
BRANCH   2   3
ATOM      3  C   UNL A   1      42.189  22.142  28.194  1.00  0.00     0.202 C 
BRANCH   3   4
ATOM      4  C   UNL A   1      42.134  23.581  28.707  1.00  0.00     0.261 C 
BRANCH   4   5
ATOM      5  O   UNL A   1      41.295  24.578  28.054  1.00  0.00    -0.463 OA
BRANCH   5   6
ATOM      6  C   UNL A   1      41.425  25.864  27.670  1.00  0.00     0.310 C 
ATOM      7  O   UNL A   1      42.557  26.338  27.573  1.00  0.00    -0.252 OA
BRANCH   6   8
ATOM      8  C   UNL A   1      40.218  26.711  27.356  1.00  0.00     0.158 C 
BRANCH   8   9
ATOM      9  C   UNL A   1      40.209  28.028  28.087  1.00  0.00    -0.037 A 
ATOM     10  C   UNL A   1      39.255  29.007  27.776  1.00  0.00     0.005 A 
ATOM     11  C   UNL A   1      41.109  28.279  29.126  1.00  0.00     0.005 A 
ATOM     12  C   UNL A   1      39.145  30.163  28.553  1.00  0.00     0.009 A 
ATOM     13  C   UNL A   1      41.014  29.427  29.891  1.00  0.00     0.009 A 
ATOM     14  C   UNL A   1      39.999  30.352  29.643  1.00  0.00    -0.018 A 
BRANCH  14  15
ATOM     15  C   UNL A   1      39.780  31.364  30.683  1.00  0.00    -0.011 A 
ATOM     16  C   UNL A   1      39.576  31.038  32.079  1.00  0.00     0.027 A 
ATOM     17  C   UNL A   1      39.483  32.597  30.237  1.00  0.00     0.080 A 
ATOM     18  C   UNL A   1      39.005  31.928  32.898  1.00  0.00     0.095 A 
ATOM     19  C   UNL A   1      38.888  33.608  31.146  1.00  0.00     0.255 A 
ATOM     20  N   UNL A   1      38.648  33.184  32.443  1.00  0.00    -0.258 N 
ATOM     21  O   UNL A   1      38.596  34.709  30.689  1.00  0.00    -0.269 OA
BRANCH  20  22
ATOM     22  C   UNL A   1      37.962  34.107  33.304  1.00  0.00     0.451 C 
ATOM     23  F   UNL A   1      37.321  33.466  34.310  1.00  0.00    -0.185 F 
ATOM     24  F   UNL A   1      38.831  34.991  33.855  1.00  0.00    -0.185 F 
ENDBRANCH  20  22
ENDBRANCH  14  15
ENDBRANCH   8   9
ENDBRANCH   6   8
ENDBRANCH   5   6
ENDBRANCH   4   5
ENDBRANCH   3   4
ENDBRANCH   2   3
ENDBRANCH   1   2
BRANCH   1  25
ATOM     25  C   UNL A   1      43.624  22.892  24.920  1.00  0.00     0.188 C 
BRANCH  25  26
ATOM     26  O   UNL A   1      44.819  22.174  24.649  1.00  0.00    -0.376 OA
BRANCH  26  27
ATOM     27  C   UNL A   1      46.046  22.906  24.581  1.00  0.00     0.202 C 
BRANCH  27  28
ATOM     28  C   UNL A   1      46.108  24.336  25.147  1.00  0.00     0.261 C 
BRANCH  28  29
ATOM     29  O   UNL A   1      46.629  25.324  24.231  1.00  0.00    -0.460 OA
BRANCH  29  30
ATOM     30  C   UNL A   1      47.554  26.161  24.753  1.00  0.00     0.338 C 
ATOM     31  O   UNL A   1      48.770  26.085  24.613  1.00  0.00    -0.246 OA
BRANCH  30  32
ATOM     32  C   UNL A   1      46.936  27.319  25.424  1.00  0.00     0.060 A 
ATOM     33  C   UNL A   1      47.720  28.038  26.338  1.00  0.00     0.016 A 
ATOM     34  C   UNL A   1      45.563  27.555  25.336  1.00  0.00     0.016 A 
ATOM     35  C   UNL A   1      47.122  28.936  27.221  1.00  0.00     0.010 A 
ATOM     36  C   UNL A   1      44.961  28.446  26.236  1.00  0.00     0.010 A 
ATOM     37  C   UNL A   1      45.731  29.090  27.224  1.00  0.00    -0.014 A 
BRANCH  37  38
ATOM     38  C   UNL A   1      45.083  29.698  28.416  1.00  0.00     0.031 A 
ATOM     39  C   UNL A   1      44.980  28.869  29.676  1.00  0.00     0.074 A 
ATOM     40  C   UNL A   1      44.660  30.975  28.422  1.00  0.00     0.049 A 
ATOM     41  N   UNL A   1      44.510  29.199  30.851  1.00  0.00    -0.248 NA
ATOM     42  C   UNL A   1      45.479  27.487  29.594  1.00  0.00     0.031 C 
ATOM     43  C   UNL A   1      44.743  31.902  27.296  1.00  0.00     0.029 A 
ATOM     44  N   UNL A   1      44.081  31.713  29.426  1.00  0.00    -0.354 N 
ATOM     45  C   UNL A   1      44.650  28.066  31.646  1.00  0.00     0.074 A 
ATOM     46  C   UNL A   1      45.221  27.032  30.811  1.00  0.00     0.031 C 
ATOM     47  C   UNL A   1      44.233  33.090  27.673  1.00  0.00     0.029 A 
ATOM     48  C   UNL A   1      43.773  33.001  29.059  1.00  0.00     0.049 A 
ATOM     49  H   UNL A   1      43.904  31.353  30.326  1.00  0.00     0.167 HD
ATOM     50  C   UNL A   1      44.341  27.896  32.953  1.00  0.00     0.031 A 
ATOM     51  C   UNL A   1      43.186  33.993  29.758  1.00  0.00     0.031 A 
ATOM     52  C   UNL A   1      43.766  28.915  33.790  1.00  0.00     0.049 A 
ATOM     53  C   UNL A   1      42.800  33.766  31.198  1.00  0.00     0.074 A 
ATOM     54  C   UNL A   1      43.430  28.840  35.131  1.00  0.00     0.029 A 
ATOM     55  N   UNL A   1      43.437  30.193  33.367  1.00  0.00    -0.354 N 
ATOM     56  N   UNL A   1      42.964  32.696  31.939  1.00  0.00    -0.248 NA
ATOM     57  C   UNL A   1      42.166  34.892  31.901  1.00  0.00     0.031 C 
ATOM     58  C   UNL A   1      42.852  30.058  35.506  1.00  0.00     0.029 A 
ATOM     59  C   UNL A   1      42.884  30.910  34.413  1.00  0.00     0.049 A 
ATOM     60  H   UNL A   1      43.577  30.539  32.455  1.00  0.00     0.167 HD
ATOM     61  C   UNL A   1      42.490  33.035  33.204  1.00  0.00     0.074 A 
ATOM     62  C   UNL A   1      42.039  34.408  33.128  1.00  0.00     0.031 C 
ATOM     63  C   UNL A   1      42.443  32.278  34.329  1.00  0.00     0.031 A 
BRANCH  50  64
ATOM     64  C   UNL A   1      44.588  26.535  33.550  1.00  0.00    -0.014 A 
ATOM     65  C   UNL A   1      45.705  26.288  34.368  1.00  0.00     0.010 A 
ATOM     66  C   UNL A   1      43.676  25.494  33.302  1.00  0.00     0.010 A 
ATOM     67  C   UNL A   1      45.928  25.012  34.891  1.00  0.00     0.020 A 
ATOM     68  C   UNL A   1      43.882  24.223  33.844  1.00  0.00     0.020 A 
ATOM     69  C   UNL A   1      45.018  23.985  34.621  1.00  0.00     0.054 A 
BRANCH  69  70
ATOM     70  S   UNL A   1      45.324  22.339  35.318  1.00  0.00     0.124 S 
ATOM     71  O   UNL A   1      46.642  22.023  34.772  1.00  0.00    -0.237 OA
ATOM     72  O   UNL A   1      45.283  22.586  36.757  1.00  0.00    -0.237 OA
ATOM     73  O   UNL A   1      44.225  21.531  34.796  1.00  0.00    -0.744 OA
ENDBRANCH  69  70
ENDBRANCH  50  64
BRANCH  51  74
ATOM     74  C   UNL A   1      42.926  35.308  29.110  1.00  0.00    -0.014 A 
ATOM     75  C   UNL A   1      43.810  36.387  29.293  1.00  0.00     0.010 A 
ATOM     76  C   UNL A   1      41.780  35.491  28.317  1.00  0.00     0.010 A 
ATOM     77  C   UNL A   1      43.542  37.629  28.711  1.00  0.00     0.020 A 
ATOM     78  C   UNL A   1      41.521  36.724  27.712  1.00  0.00     0.020 A 
ATOM     79  C   UNL A   1      42.399  37.789  27.922  1.00  0.00     0.054 A 
BRANCH  79  80
ATOM     80  S   UNL A   1      42.093  39.394  27.134  1.00  0.00     0.124 S 
ATOM     81  O   UNL A   1      43.416  39.737  26.621  1.00  0.00    -0.237 OA
ATOM     82  O   UNL A   1      41.088  39.065  26.125  1.00  0.00    -0.237 OA
ATOM     83  O   UNL A   1      41.611  40.227  28.233  1.00  0.00    -0.744 OA
ENDBRANCH  79  80
ENDBRANCH  51  74
BRANCH  63  84
ATOM     84  C   UNL A   1      41.939  32.933  35.589  1.00  0.00    -0.014 A 
ATOM     85  C   UNL A   1      42.813  33.550  36.500  1.00  0.00     0.010 A 
ATOM     86  C   UNL A   1      40.554  32.962  35.844  1.00  0.00     0.010 A 
ATOM     87  C   UNL A   1      42.317  34.146  37.664  1.00  0.00     0.020 A 
ATOM     88  C   UNL A   1      40.052  33.580  36.992  1.00  0.00     0.020 A 
ATOM     89  C   UNL A   1      40.939  34.152  37.906  1.00  0.00     0.054 A 
BRANCH  89  90
ATOM     90  S   UNL A   1      40.313  34.947  39.411  1.00  0.00     0.124 S 
ATOM     91  O   UNL A   1      41.376  35.902  39.714  1.00  0.00    -0.237 OA
ATOM     92  O   UNL A   1      39.051  35.534  38.965  1.00  0.00    -0.237 OA
ATOM     93  O   UNL A   1      40.179  33.842  40.356  1.00  0.00    -0.744 OA
ENDBRANCH  89  90
ENDBRANCH  63  84
ENDBRANCH  37  38
ENDBRANCH  30  32
ENDBRANCH  29  30
ENDBRANCH  28  29
ENDBRANCH  27  28
ENDBRANCH  26  27
ENDBRANCH  25  26
ENDBRANCH   1  25
TORSDOF 23
ENDMDL
