MODEL 1
REMARK VINA RESULT:      -9.1      0.000      0.000
REMARK SMILES C[NH2+][C@]1(C(=O)OCCOCCOCCOC(=O)c2ccc(-c3c4nc(c(-c5ccc(S(=O)(=O)[O-])cc5)c5ccc([nH]5)c(-c5ccc(S(=O)(=O)[O-])cc5)c5nc(c(-c6ccc(S(=O)(=O)[O-])cc6)c6ccc3[nH]6)C=C5)C=C4)cc2)CCC[C@@H](Sc2nncs2)C1
REMARK SMILES IDX 11 1 10 2 9 3 8 4 7 5 6 6 4 7 5 8 3 9 78 10 88 11 79 12
REMARK SMILES IDX 81 13 80 14 2 15 1 16 82 19 83 20 84 21 87 22 85 23 86 24
REMARK SMILES IDX 12 25 13 26 14 27 15 28 16 29 17 30 18 31 19 32 77 33 20 34
REMARK SMILES IDX 76 35 21 36 22 37 23 38 70 39 24 40 75 41 69 42 71 43 25 44
REMARK SMILES IDX 74 45 68 46 67 47 26 49 56 50 37 51 55 52 38 53 41 54 54 55
REMARK SMILES IDX 72 56 39 57 40 58 53 60 73 61 42 62 27 63 28 64 36 65 29 66
REMARK SMILES IDX 35 67 30 68 31 69 32 70 33 71 34 72 57 73 58 74 66 75 59 76
REMARK SMILES IDX 65 77 60 78 61 79 62 80 63 81 64 82 43 83 44 84 52 85 45 86
REMARK SMILES IDX 51 87 46 88 47 89 48 90 49 91 50 92
REMARK H PARENT 2 17 2 18 71 48 41 59
REMARK Flexibility Score: inf
ROOT
ATOM      1  C   UNL A   1      36.197  21.461  25.294  1.00  0.00     0.188 C 
ENDROOT
BRANCH   1   2
ATOM      2  C   UNL A   1      34.672  21.579  25.415  1.00  0.00     0.188 C 
BRANCH   2   3
ATOM      3  O   UNL A   1      34.022  22.745  24.942  1.00  0.00    -0.376 OA
BRANCH   3   4
ATOM      4  C   UNL A   1      34.045  23.065  23.560  1.00  0.00     0.202 C 
BRANCH   4   5
ATOM      5  C   UNL A   1      32.747  23.213  22.752  1.00  0.00     0.261 C 
BRANCH   5   6
ATOM      6  O   UNL A   1      32.231  24.552  22.613  1.00  0.00    -0.459 OA
BRANCH   6   7
ATOM      7  C   UNL A   1      31.489  25.000  23.662  1.00  0.00     0.368 C 
ATOM      8  O   UNL A   1      30.909  24.250  24.446  1.00  0.00    -0.245 OA
BRANCH   7   9
ATOM      9  C   UNL A   1      31.482  26.563  23.853  1.00  0.00     0.195 C 
ATOM     10  C   UNL A   1      32.457  27.328  22.915  1.00  0.00     0.081 C 
ATOM     11  C   UNL A   1      30.040  26.940  23.447  1.00  0.00     0.096 C 
ATOM     12  C   UNL A   1      32.227  28.838  22.829  1.00  0.00     0.008 C 
ATOM     13  C   UNL A   1      29.781  28.445  23.386  1.00  0.00     0.061 C 
ATOM     14  C   UNL A   1      30.784  29.181  22.493  1.00  0.00     0.015 C 
BRANCH   9  15
ATOM     15  N   UNL A   1      31.582  26.813  25.314  1.00  0.00    -0.335 N 
ATOM     16  C   UNL A   1      32.788  26.531  26.049  1.00  0.00     0.331 C 
ATOM     17  H   UNL A   1      31.389  27.806  25.450  1.00  0.00     0.347 HD
ATOM     18  H   UNL A   1      30.928  26.129  25.697  1.00  0.00     0.347 HD
ENDBRANCH   9  15
BRANCH  13  19
ATOM     19  S   UNL A   1      28.053  28.807  22.865  1.00  0.00    -0.090 SA
BRANCH  19  20
ATOM     20  C   UNL A   1      28.138  30.512  22.488  1.00  0.00     0.174 A 
ATOM     21  N   UNL A   1      28.240  31.443  23.411  1.00  0.00    -0.132 NA
ATOM     22  S   UNL A   1      28.048  31.124  20.888  1.00  0.00    -0.094 S 
ATOM     23  N   UNL A   1      28.167  32.718  22.890  1.00  0.00    -0.146 NA
ATOM     24  C   UNL A   1      28.065  32.694  21.579  1.00  0.00     0.203 A 
ENDBRANCH  19  20
ENDBRANCH  13  19
ENDBRANCH   7   9
ENDBRANCH   6   7
ENDBRANCH   5   6
ENDBRANCH   4   5
ENDBRANCH   3   4
ENDBRANCH   2   3
ENDBRANCH   1   2
BRANCH   1  25
ATOM     25  O   UNL A   1      36.738  20.228  24.902  1.00  0.00    -0.376 OA
BRANCH  25  26
ATOM     26  C   UNL A   1      38.117  19.963  25.072  1.00  0.00     0.202 C 
BRANCH  26  27
ATOM     27  C   UNL A   1      39.137  20.877  25.786  1.00  0.00     0.261 C 
BRANCH  27  28
ATOM     28  O   UNL A   1      40.108  20.288  26.655  1.00  0.00    -0.460 OA
BRANCH  28  29
ATOM     29  C   UNL A   1      41.336  20.072  26.127  1.00  0.00     0.338 C 
ATOM     30  O   UNL A   1      41.664  19.154  25.386  1.00  0.00    -0.246 OA
BRANCH  29  31
ATOM     31  C   UNL A   1      42.178  21.253  26.401  1.00  0.00     0.060 A 
ATOM     32  C   UNL A   1      42.492  21.569  27.731  1.00  0.00     0.016 A 
ATOM     33  C   UNL A   1      42.646  22.055  25.359  1.00  0.00     0.016 A 
ATOM     34  C   UNL A   1      43.261  22.695  28.026  1.00  0.00     0.010 A 
ATOM     35  C   UNL A   1      43.391  23.201  25.658  1.00  0.00     0.010 A 
ATOM     36  C   UNL A   1      43.680  23.541  26.993  1.00  0.00    -0.014 A 
BRANCH  36  37
ATOM     37  C   UNL A   1      44.245  24.876  27.314  1.00  0.00     0.031 A 
ATOM     38  C   UNL A   1      43.304  25.962  27.761  1.00  0.00     0.074 A 
ATOM     39  C   UNL A   1      45.566  25.123  27.232  1.00  0.00     0.049 A 
ATOM     40  N   UNL A   1      43.545  27.224  28.001  1.00  0.00    -0.248 NA
ATOM     41  C   UNL A   1      41.900  25.566  27.965  1.00  0.00     0.031 C 
ATOM     42  C   UNL A   1      46.594  24.144  26.886  1.00  0.00     0.029 A 
ATOM     43  N   UNL A   1      46.265  26.290  27.427  1.00  0.00    -0.354 N 
ATOM     44  C   UNL A   1      42.322  27.778  28.364  1.00  0.00     0.074 A 
ATOM     45  C   UNL A   1      41.339  26.719  28.295  1.00  0.00     0.031 C 
ATOM     46  C   UNL A   1      47.792  24.755  26.875  1.00  0.00     0.029 A 
ATOM     47  C   UNL A   1      47.611  26.176  27.170  1.00  0.00     0.049 A 
ATOM     48  H   UNL A   1      45.842  27.128  27.725  1.00  0.00     0.167 HD
ATOM     49  C   UNL A   1      42.043  29.054  28.725  1.00  0.00     0.031 A 
ATOM     50  C   UNL A   1      48.578  27.116  27.140  1.00  0.00     0.031 A 
ATOM     51  C   UNL A   1      43.019  30.109  28.777  1.00  0.00     0.049 A 
ATOM     52  C   UNL A   1      48.227  28.551  27.448  1.00  0.00     0.074 A 
ATOM     53  C   UNL A   1      42.833  31.435  29.126  1.00  0.00     0.029 A 
ATOM     54  N   UNL A   1      44.363  29.962  28.466  1.00  0.00    -0.354 N 
ATOM     55  N   UNL A   1      47.067  29.064  27.786  1.00  0.00    -0.248 NA
ATOM     56  C   UNL A   1      49.318  29.534  27.374  1.00  0.00     0.031 C 
ATOM     57  C   UNL A   1      44.051  32.103  28.965  1.00  0.00     0.029 A 
ATOM     58  C   UNL A   1      45.012  31.178  28.589  1.00  0.00     0.049 A 
ATOM     59  H   UNL A   1      44.791  29.116  28.199  1.00  0.00     0.167 HD
ATOM     60  C   UNL A   1      47.296  30.421  27.994  1.00  0.00     0.074 A 
ATOM     61  C   UNL A   1      48.707  30.647  27.758  1.00  0.00     0.031 C 
ATOM     62  C   UNL A   1      46.418  31.392  28.353  1.00  0.00     0.031 A 
BRANCH  49  63
ATOM     63  C   UNL A   1      40.608  29.385  29.042  1.00  0.00    -0.014 A 
ATOM     64  C   UNL A   1      40.135  29.402  30.366  1.00  0.00     0.010 A 
ATOM     65  C   UNL A   1      39.725  29.710  27.995  1.00  0.00     0.010 A 
ATOM     66  C   UNL A   1      38.795  29.698  30.635  1.00  0.00     0.020 A 
ATOM     67  C   UNL A   1      38.392  30.036  28.261  1.00  0.00     0.020 A 
ATOM     68  C   UNL A   1      37.932  30.011  29.579  1.00  0.00     0.054 A 
BRANCH  68  69
ATOM     69  S   UNL A   1      36.203  30.405  29.959  1.00  0.00     0.124 S 
ATOM     70  O   UNL A   1      35.489  29.647  28.934  1.00  0.00    -0.237 OA
ATOM     71  O   UNL A   1      36.055  29.909  31.324  1.00  0.00    -0.237 OA
ATOM     72  O   UNL A   1      36.138  31.857  29.817  1.00  0.00    -0.744 OA
ENDBRANCH  68  69
ENDBRANCH  49  63
BRANCH  50  73
ATOM     73  C   UNL A   1      49.972  26.742  26.763  1.00  0.00    -0.014 A 
ATOM     74  C   UNL A   1      50.404  26.815  25.428  1.00  0.00     0.010 A 
ATOM     75  C   UNL A   1      50.875  26.297  27.747  1.00  0.00     0.010 A 
ATOM     76  C   UNL A   1      51.705  26.435  25.081  1.00  0.00     0.020 A 
ATOM     77  C   UNL A   1      52.185  25.946  27.410  1.00  0.00     0.020 A 
ATOM     78  C   UNL A   1      52.589  26.007  26.075  1.00  0.00     0.054 A 
BRANCH  78  79
ATOM     79  S   UNL A   1      54.285  25.565  25.607  1.00  0.00     0.124 S 
ATOM     80  O   UNL A   1      54.571  24.455  26.511  1.00  0.00    -0.237 OA
ATOM     81  O   UNL A   1      54.141  25.211  24.198  1.00  0.00    -0.237 OA
ATOM     82  O   UNL A   1      55.040  26.789  25.861  1.00  0.00    -0.744 OA
ENDBRANCH  78  79
ENDBRANCH  50  73
BRANCH  62  83
ATOM     83  C   UNL A   1      46.959  32.785  28.559  1.00  0.00    -0.014 A 
ATOM     84  C   UNL A   1      47.511  33.186  29.789  1.00  0.00     0.010 A 
ATOM     85  C   UNL A   1      46.972  33.687  27.479  1.00  0.00     0.010 A 
ATOM     86  C   UNL A   1      48.036  34.473  29.942  1.00  0.00     0.020 A 
ATOM     87  C   UNL A   1      47.525  34.963  27.618  1.00  0.00     0.020 A 
ATOM     88  C   UNL A   1      48.042  35.353  28.855  1.00  0.00     0.054 A 
BRANCH  88  89
ATOM     89  S   UNL A   1      48.772  37.000  29.067  1.00  0.00     0.124 S 
ATOM     90  O   UNL A   1      48.439  37.305  30.456  1.00  0.00    -0.237 OA
ATOM     91  O   UNL A   1      50.187  36.760  28.798  1.00  0.00    -0.237 OA
ATOM     92  O   UNL A   1      48.083  37.816  28.070  1.00  0.00    -0.744 OA
ENDBRANCH  88  89
ENDBRANCH  62  83
ENDBRANCH  36  37
ENDBRANCH  29  31
ENDBRANCH  28  29
ENDBRANCH  27  28
ENDBRANCH  26  27
ENDBRANCH  25  26
ENDBRANCH   1  25
TORSDOF 23
ENDMDL
MODEL 2
REMARK VINA RESULT:      -9.0      1.882      2.465
REMARK SMILES C[NH2+][C@]1(C(=O)OCCOCCOCCOC(=O)c2ccc(-c3c4nc(c(-c5ccc(S(=O)(=O)[O-])cc5)c5ccc([nH]5)c(-c5ccc(S(=O)(=O)[O-])cc5)c5nc(c(-c6ccc(S(=O)(=O)[O-])cc6)c6ccc3[nH]6)C=C5)C=C4)cc2)CCC[C@@H](Sc2nncs2)C1
REMARK SMILES IDX 11 1 10 2 9 3 8 4 7 5 6 6 4 7 5 8 3 9 78 10 88 11 79 12
REMARK SMILES IDX 81 13 80 14 2 15 1 16 82 19 83 20 84 21 87 22 85 23 86 24
REMARK SMILES IDX 12 25 13 26 14 27 15 28 16 29 17 30 18 31 19 32 77 33 20 34
REMARK SMILES IDX 76 35 21 36 22 37 23 38 70 39 24 40 75 41 69 42 71 43 25 44
REMARK SMILES IDX 74 45 68 46 67 47 26 49 56 50 37 51 55 52 38 53 41 54 54 55
REMARK SMILES IDX 72 56 39 57 40 58 53 60 73 61 42 62 27 63 28 64 36 65 29 66
REMARK SMILES IDX 35 67 30 68 31 69 32 70 33 71 34 72 57 73 58 74 66 75 59 76
REMARK SMILES IDX 65 77 60 78 61 79 62 80 63 81 64 82 43 83 44 84 52 85 45 86
REMARK SMILES IDX 51 87 46 88 47 89 48 90 49 91 50 92
REMARK H PARENT 2 17 2 18 71 48 41 59
REMARK Flexibility Score: inf
ROOT
ATOM      1  C   UNL A   1      37.439  20.964  24.749  1.00  0.00     0.188 C 
ENDROOT
BRANCH   1   2
ATOM      2  C   UNL A   1      36.371  21.570  25.670  1.00  0.00     0.188 C 
BRANCH   2   3
ATOM      3  O   UNL A   1      35.112  20.933  25.792  1.00  0.00    -0.376 OA
BRANCH   3   4
ATOM      4  C   UNL A   1      34.625  20.108  24.746  1.00  0.00     0.202 C 
BRANCH   4   5
ATOM      5  C   UNL A   1      33.118  19.911  24.520  1.00  0.00     0.261 C 
BRANCH   5   6
ATOM      6  O   UNL A   1      32.456  20.913  23.723  1.00  0.00    -0.459 OA
BRANCH   6   7
ATOM      7  C   UNL A   1      32.091  22.039  24.394  1.00  0.00     0.368 C 
ATOM      8  O   UNL A   1      31.381  22.026  25.398  1.00  0.00    -0.245 OA
BRANCH   7   9
ATOM      9  C   UNL A   1      32.708  23.377  23.834  1.00  0.00     0.195 C 
ATOM     10  C   UNL A   1      32.912  23.393  22.294  1.00  0.00     0.081 C 
ATOM     11  C   UNL A   1      31.616  24.414  24.179  1.00  0.00     0.096 C 
ATOM     12  C   UNL A   1      33.175  24.772  21.688  1.00  0.00     0.008 C 
ATOM     13  C   UNL A   1      31.877  25.808  23.608  1.00  0.00     0.061 C 
ATOM     14  C   UNL A   1      32.122  25.791  22.097  1.00  0.00     0.015 C 
BRANCH   9  15
ATOM     15  N   UNL A   1      33.875  23.699  24.696  1.00  0.00    -0.335 N 
ATOM     16  C   UNL A   1      33.719  24.360  25.965  1.00  0.00     0.331 C 
ATOM     17  H   UNL A   1      34.342  22.812  24.889  1.00  0.00     0.347 HD
ATOM     18  H   UNL A   1      34.366  24.402  24.142  1.00  0.00     0.347 HD
ENDBRANCH   9  15
BRANCH  13  19
ATOM     19  S   UNL A   1      30.517  26.972  24.037  1.00  0.00    -0.090 SA
BRANCH  19  20
ATOM     20  C   UNL A   1      31.100  27.678  25.526  1.00  0.00     0.174 A 
ATOM     21  N   UNL A   1      31.006  27.072  26.689  1.00  0.00    -0.132 NA
ATOM     22  S   UNL A   1      31.803  29.241  25.610  1.00  0.00    -0.094 S 
ATOM     23  N   UNL A   1      31.419  27.868  27.738  1.00  0.00    -0.146 NA
ATOM     24  C   UNL A   1      31.860  29.030  27.311  1.00  0.00     0.203 A 
ENDBRANCH  19  20
ENDBRANCH  13  19
ENDBRANCH   7   9
ENDBRANCH   6   7
ENDBRANCH   5   6
ENDBRANCH   4   5
ENDBRANCH   3   4
ENDBRANCH   2   3
ENDBRANCH   1   2
BRANCH   1  25
ATOM     25  O   UNL A   1      37.723  19.596  24.872  1.00  0.00    -0.376 OA
BRANCH  25  26
ATOM     26  C   UNL A   1      38.955  19.165  25.415  1.00  0.00     0.202 C 
BRANCH  26  27
ATOM     27  C   UNL A   1      39.989  20.053  26.142  1.00  0.00     0.261 C 
BRANCH  27  28
ATOM     28  O   UNL A   1      41.162  19.447  26.688  1.00  0.00    -0.460 OA
BRANCH  28  29
ATOM     29  C   UNL A   1      42.337  19.770  26.098  1.00  0.00     0.338 C 
ATOM     30  O   UNL A   1      42.947  19.106  25.269  1.00  0.00    -0.246 OA
BRANCH  29  31
ATOM     31  C   UNL A   1      42.666  21.168  26.440  1.00  0.00     0.060 A 
ATOM     32  C   UNL A   1      42.832  22.098  25.404  1.00  0.00     0.016 A 
ATOM     33  C   UNL A   1      42.826  21.560  27.770  1.00  0.00     0.016 A 
ATOM     34  C   UNL A   1      43.173  23.420  25.691  1.00  0.00     0.010 A 
ATOM     35  C   UNL A   1      43.198  22.879  28.055  1.00  0.00     0.010 A 
ATOM     36  C   UNL A   1      43.399  23.808  27.017  1.00  0.00    -0.014 A 
BRANCH  36  37
ATOM     37  C   UNL A   1      44.031  25.119  27.307  1.00  0.00     0.031 A 
ATOM     38  C   UNL A   1      43.154  26.247  27.782  1.00  0.00     0.074 A 
ATOM     39  C   UNL A   1      45.357  25.311  27.173  1.00  0.00     0.049 A 
ATOM     40  N   UNL A   1      43.457  27.499  28.003  1.00  0.00    -0.248 NA
ATOM     41  C   UNL A   1      41.744  25.911  28.043  1.00  0.00     0.031 C 
ATOM     42  C   UNL A   1      46.329  24.286  26.794  1.00  0.00     0.029 A 
ATOM     43  N   UNL A   1      46.112  26.448  27.333  1.00  0.00    -0.354 N 
ATOM     44  C   UNL A   1      42.274  28.106  28.409  1.00  0.00     0.074 A 
ATOM     45  C   UNL A   1      41.245  27.089  28.385  1.00  0.00     0.031 C 
ATOM     46  C   UNL A   1      47.550  24.846  26.733  1.00  0.00     0.029 A 
ATOM     47  C   UNL A   1      47.440  26.276  27.025  1.00  0.00     0.049 A 
ATOM     48  H   UNL A   1      45.736  27.305  27.640  1.00  0.00     0.167 HD
ATOM     49  C   UNL A   1      42.062  29.394  28.771  1.00  0.00     0.031 A 
ATOM     50  C   UNL A   1      48.444  27.174  26.950  1.00  0.00     0.031 A 
ATOM     51  C   UNL A   1      43.083  30.408  28.778  1.00  0.00     0.049 A 
ATOM     52  C   UNL A   1      48.165  28.624  27.262  1.00  0.00     0.074 A 
ATOM     53  C   UNL A   1      42.967  31.742  29.124  1.00  0.00     0.029 A 
ATOM     54  N   UNL A   1      44.407  30.202  28.417  1.00  0.00    -0.354 N 
ATOM     55  N   UNL A   1      47.042  29.187  27.641  1.00  0.00    -0.248 NA
ATOM     56  C   UNL A   1      49.293  29.559  27.139  1.00  0.00     0.031 C 
ATOM     57  C   UNL A   1      44.204  32.357  28.912  1.00  0.00     0.029 A 
ATOM     58  C   UNL A   1      45.110  31.391  28.506  1.00  0.00     0.049 A 
ATOM     59  H   UNL A   1      44.788  29.338  28.140  1.00  0.00     0.167 HD
ATOM     60  C   UNL A   1      47.336  30.534  27.830  1.00  0.00     0.074 A 
ATOM     61  C   UNL A   1      48.745  30.700  27.538  1.00  0.00     0.031 C 
ATOM     62  C   UNL A   1      46.514  31.544  28.215  1.00  0.00     0.031 A 
BRANCH  49  63
ATOM     63  C   UNL A   1      40.656  29.787  29.141  1.00  0.00    -0.014 A 
ATOM     64  C   UNL A   1      39.629  29.826  28.181  1.00  0.00     0.010 A 
ATOM     65  C   UNL A   1      40.353  30.098  30.479  1.00  0.00     0.010 A 
ATOM     66  C   UNL A   1      38.334  30.208  28.545  1.00  0.00     0.020 A 
ATOM     67  C   UNL A   1      39.054  30.451  30.854  1.00  0.00     0.020 A 
ATOM     68  C   UNL A   1      38.056  30.521  29.880  1.00  0.00     0.054 A 
BRANCH  68  69
ATOM     69  S   UNL A   1      36.365  30.999  30.326  1.00  0.00     0.124 S 
ATOM     70  O   UNL A   1      35.646  30.765  29.076  1.00  0.00    -0.237 OA
ATOM     71  O   UNL A   1      36.049  30.077  31.414  1.00  0.00    -0.237 OA
ATOM     72  O   UNL A   1      36.492  32.400  30.718  1.00  0.00    -0.744 OA
ENDBRANCH  68  69
ENDBRANCH  49  63
BRANCH  50  73
ATOM     73  C   UNL A   1      49.805  26.739  26.524  1.00  0.00    -0.014 A 
ATOM     74  C   UNL A   1      50.775  26.368  27.471  1.00  0.00     0.010 A 
ATOM     75  C   UNL A   1      50.142  26.705  25.157  1.00  0.00     0.010 A 
ATOM     76  C   UNL A   1      52.059  25.989  27.062  1.00  0.00     0.020 A 
ATOM     77  C   UNL A   1      51.412  26.298  24.743  1.00  0.00     0.020 A 
ATOM     78  C   UNL A   1      52.368  25.952  25.699  1.00  0.00     0.054 A 
BRANCH  78  79
ATOM     79  S   UNL A   1      54.023  25.412  25.192  1.00  0.00     0.124 S 
ATOM     80  O   UNL A   1      54.415  26.465  24.260  1.00  0.00    -0.237 OA
ATOM     81  O   UNL A   1      54.749  25.387  26.459  1.00  0.00    -0.237 OA
ATOM     82  O   UNL A   1      53.787  24.101  24.592  1.00  0.00    -0.744 OA
ENDBRANCH  78  79
ENDBRANCH  50  73
BRANCH  62  83
ATOM     83  C   UNL A   1      47.120  32.914  28.390  1.00  0.00    -0.014 A 
ATOM     84  C   UNL A   1      47.572  33.364  29.643  1.00  0.00     0.010 A 
ATOM     85  C   UNL A   1      47.299  33.739  27.264  1.00  0.00     0.010 A 
ATOM     86  C   UNL A   1      48.161  34.626  29.771  1.00  0.00     0.020 A 
ATOM     87  C   UNL A   1      47.916  34.986  27.381  1.00  0.00     0.020 A 
ATOM     88  C   UNL A   1      48.332  35.429  28.639  1.00  0.00     0.054 A 
BRANCH  88  89
ATOM     89  S   UNL A   1      49.141  37.041  28.824  1.00  0.00     0.124 S 
ATOM     90  O   UNL A   1      50.396  36.838  28.105  1.00  0.00    -0.237 OA
ATOM     91  O   UNL A   1      48.193  37.951  28.188  1.00  0.00    -0.237 OA
ATOM     92  O   UNL A   1      49.273  37.200  30.271  1.00  0.00    -0.744 OA
ENDBRANCH  88  89
ENDBRANCH  62  83
ENDBRANCH  36  37
ENDBRANCH  29  31
ENDBRANCH  28  29
ENDBRANCH  27  28
ENDBRANCH  26  27
ENDBRANCH  25  26
ENDBRANCH   1  25
TORSDOF 23
ENDMDL
MODEL 3
REMARK VINA RESULT:      -9.0      2.595      9.320
REMARK SMILES C[NH2+][C@]1(C(=O)OCCOCCOCCOC(=O)c2ccc(-c3c4nc(c(-c5ccc(S(=O)(=O)[O-])cc5)c5ccc([nH]5)c(-c5ccc(S(=O)(=O)[O-])cc5)c5nc(c(-c6ccc(S(=O)(=O)[O-])cc6)c6ccc3[nH]6)C=C5)C=C4)cc2)CCC[C@@H](Sc2nncs2)C1
REMARK SMILES IDX 11 1 10 2 9 3 8 4 7 5 6 6 4 7 5 8 3 9 78 10 88 11 79 12
REMARK SMILES IDX 81 13 80 14 2 15 1 16 82 19 83 20 84 21 87 22 85 23 86 24
REMARK SMILES IDX 12 25 13 26 14 27 15 28 16 29 17 30 18 31 19 32 77 33 20 34
REMARK SMILES IDX 76 35 21 36 22 37 23 38 70 39 24 40 75 41 69 42 71 43 25 44
REMARK SMILES IDX 74 45 68 46 67 47 26 49 56 50 37 51 55 52 38 53 41 54 54 55
REMARK SMILES IDX 72 56 39 57 40 58 53 60 73 61 42 62 27 63 28 64 36 65 29 66
REMARK SMILES IDX 35 67 30 68 31 69 32 70 33 71 34 72 57 73 58 74 66 75 59 76
REMARK SMILES IDX 65 77 60 78 61 79 62 80 63 81 64 82 43 83 44 84 52 85 45 86
REMARK SMILES IDX 51 87 46 88 47 89 48 90 49 91 50 92
REMARK H PARENT 2 17 2 18 71 48 41 59
REMARK Flexibility Score: inf
ROOT
ATOM      1  C   UNL A   1      34.229  33.354  28.789  1.00  0.00     0.188 C 
ENDROOT
BRANCH   1   2
ATOM      2  C   UNL A   1      35.327  32.895  27.820  1.00  0.00     0.188 C 
BRANCH   2   3
ATOM      3  O   UNL A   1      35.499  31.513  27.564  1.00  0.00    -0.376 OA
BRANCH   3   4
ATOM      4  C   UNL A   1      34.601  30.566  28.121  1.00  0.00     0.202 C 
BRANCH   4   5
ATOM      5  C   UNL A   1      34.303  29.235  27.414  1.00  0.00     0.261 C 
BRANCH   5   6
ATOM      6  O   UNL A   1      34.044  29.309  25.998  1.00  0.00    -0.459 OA
BRANCH   6   7
ATOM      7  C   UNL A   1      32.745  29.134  25.636  1.00  0.00     0.368 C 
ATOM      8  O   UNL A   1      31.812  29.751  26.149  1.00  0.00    -0.245 OA
BRANCH   7   9
ATOM      9  C   UNL A   1      32.515  28.127  24.446  1.00  0.00     0.195 C 
ATOM     10  C   UNL A   1      33.612  28.174  23.346  1.00  0.00     0.081 C 
ATOM     11  C   UNL A   1      32.610  26.755  25.151  1.00  0.00     0.096 C 
ATOM     12  C   UNL A   1      33.609  26.993  22.374  1.00  0.00     0.008 C 
ATOM     13  C   UNL A   1      32.577  25.561  24.199  1.00  0.00     0.061 C 
ATOM     14  C   UNL A   1      33.635  25.654  23.096  1.00  0.00     0.015 C 
BRANCH   9  15
ATOM     15  N   UNL A   1      31.099  28.282  24.025  1.00  0.00    -0.335 N 
ATOM     16  C   UNL A   1      30.725  29.146  22.935  1.00  0.00     0.331 C 
ATOM     17  H   UNL A   1      30.768  27.349  23.779  1.00  0.00     0.347 HD
ATOM     18  H   UNL A   1      30.683  28.754  24.829  1.00  0.00     0.347 HD
ENDBRANCH   9  15
BRANCH  13  19
ATOM     19  S   UNL A   1      32.726  23.970  25.114  1.00  0.00    -0.090 SA
BRANCH  19  20
ATOM     20  C   UNL A   1      34.443  23.654  25.013  1.00  0.00     0.174 A 
ATOM     21  N   UNL A   1      35.343  24.395  25.622  1.00  0.00    -0.132 NA
ATOM     22  S   UNL A   1      35.108  22.382  24.073  1.00  0.00    -0.094 S 
ATOM     23  N   UNL A   1      36.634  24.033  25.300  1.00  0.00    -0.146 NA
ATOM     24  C   UNL A   1      36.654  22.993  24.497  1.00  0.00     0.203 A 
ENDBRANCH  19  20
ENDBRANCH  13  19
ENDBRANCH   7   9
ENDBRANCH   6   7
ENDBRANCH   5   6
ENDBRANCH   4   5
ENDBRANCH   3   4
ENDBRANCH   2   3
ENDBRANCH   1   2
BRANCH   1  25
ATOM     25  O   UNL A   1      34.579  34.238  29.819  1.00  0.00    -0.376 OA
BRANCH  25  26
ATOM     26  C   UNL A   1      34.854  33.752  31.119  1.00  0.00     0.202 C 
BRANCH  26  27
ATOM     27  C   UNL A   1      35.276  32.312  31.480  1.00  0.00     0.261 C 
BRANCH  27  28
ATOM     28  O   UNL A   1      36.636  31.917  31.287  1.00  0.00    -0.460 OA
BRANCH  28  29
ATOM     29  C   UNL A   1      36.871  30.587  31.200  1.00  0.00     0.338 C 
ATOM     30  O   UNL A   1      36.043  29.689  31.296  1.00  0.00    -0.246 OA
BRANCH  29  31
ATOM     31  C   UNL A   1      38.259  30.384  30.740  1.00  0.00     0.060 A 
ATOM     32  C   UNL A   1      38.518  30.346  29.361  1.00  0.00     0.016 A 
ATOM     33  C   UNL A   1      39.298  30.217  31.655  1.00  0.00     0.016 A 
ATOM     34  C   UNL A   1      39.813  30.126  28.893  1.00  0.00     0.010 A 
ATOM     35  C   UNL A   1      40.592  29.966  31.184  1.00  0.00     0.010 A 
ATOM     36  C   UNL A   1      40.852  29.893  29.803  1.00  0.00    -0.014 A 
BRANCH  36  37
ATOM     37  C   UNL A   1      42.158  29.381  29.318  1.00  0.00     0.031 A 
ATOM     38  C   UNL A   1      43.319  30.338  29.247  1.00  0.00     0.074 A 
ATOM     39  C   UNL A   1      42.327  28.094  28.965  1.00  0.00     0.049 A 
ATOM     40  N   UNL A   1      44.521  30.152  28.770  1.00  0.00    -0.248 NA
ATOM     41  C   UNL A   1      43.086  31.687  29.791  1.00  0.00     0.031 C 
ATOM     42  C   UNL A   1      41.310  27.047  29.056  1.00  0.00     0.029 A 
ATOM     43  N   UNL A   1      43.425  27.451  28.444  1.00  0.00    -0.354 N 
ATOM     44  C   UNL A   1      45.183  31.364  28.936  1.00  0.00     0.074 A 
ATOM     45  C   UNL A   1      44.243  32.282  29.540  1.00  0.00     0.031 C 
ATOM     46  C   UNL A   1      41.827  25.896  28.590  1.00  0.00     0.029 A 
ATOM     47  C   UNL A   1      43.194  26.134  28.126  1.00  0.00     0.049 A 
ATOM     48  H   UNL A   1      44.295  27.893  28.313  1.00  0.00     0.167 HD
ATOM     49  C   UNL A   1      46.460  31.684  28.615  1.00  0.00     0.031 A 
ATOM     50  C   UNL A   1      43.980  25.235  27.500  1.00  0.00     0.031 A 
ATOM     51  C   UNL A   1      47.388  30.774  27.998  1.00  0.00     0.049 A 
ATOM     52  C   UNL A   1      45.366  25.641  27.062  1.00  0.00     0.074 A 
ATOM     53  C   UNL A   1      48.702  31.005  27.630  1.00  0.00     0.029 A 
ATOM     54  N   UNL A   1      47.101  29.461  27.652  1.00  0.00    -0.354 N 
ATOM     55  N   UNL A   1      45.980  26.790  27.220  1.00  0.00    -0.248 NA
ATOM     56  C   UNL A   1      46.167  24.625  26.362  1.00  0.00     0.031 C 
ATOM     57  C   UNL A   1      49.188  29.853  27.005  1.00  0.00     0.029 A 
ATOM     58  C   UNL A   1      48.203  28.880  27.050  1.00  0.00     0.049 A 
ATOM     59  H   UNL A   1      46.239  29.011  27.812  1.00  0.00     0.167 HD
ATOM     60  C   UNL A   1      47.247  26.625  26.668  1.00  0.00     0.074 A 
ATOM     61  C   UNL A   1      47.317  25.262  26.184  1.00  0.00     0.031 C 
ATOM     62  C   UNL A   1      48.263  27.520  26.574  1.00  0.00     0.031 A 
BRANCH  49  63
ATOM     63  C   UNL A   1      46.908  33.096  28.882  1.00  0.00    -0.014 A 
ATOM     64  C   UNL A   1      46.554  34.153  28.024  1.00  0.00     0.010 A 
ATOM     65  C   UNL A   1      47.675  33.374  30.029  1.00  0.00     0.010 A 
ATOM     66  C   UNL A   1      46.994  35.454  28.285  1.00  0.00     0.020 A 
ATOM     67  C   UNL A   1      48.091  34.678  30.310  1.00  0.00     0.020 A 
ATOM     68  C   UNL A   1      47.762  35.707  29.426  1.00  0.00     0.054 A 
BRANCH  68  69
ATOM     69  S   UNL A   1      48.306  37.407  29.747  1.00  0.00     0.124 S 
ATOM     70  O   UNL A   1      47.967  38.074  28.492  1.00  0.00    -0.237 OA
ATOM     71  O   UNL A   1      47.497  37.789  30.901  1.00  0.00    -0.237 OA
ATOM     72  O   UNL A   1      49.736  37.270  30.012  1.00  0.00    -0.744 OA
ENDBRANCH  68  69
ENDBRANCH  49  63
BRANCH  50  73
ATOM     73  C   UNL A   1      43.465  23.866  27.210  1.00  0.00    -0.014 A 
ATOM     74  C   UNL A   1      43.142  23.478  25.898  1.00  0.00     0.010 A 
ATOM     75  C   UNL A   1      43.284  22.941  28.256  1.00  0.00     0.010 A 
ATOM     76  C   UNL A   1      42.633  22.201  25.639  1.00  0.00     0.020 A 
ATOM     77  C   UNL A   1      42.805  21.654  27.998  1.00  0.00     0.020 A 
ATOM     78  C   UNL A   1      42.471  21.295  26.692  1.00  0.00     0.054 A 
BRANCH  78  79
ATOM     79  S   UNL A   1      41.854  19.629  26.325  1.00  0.00     0.124 S 
ATOM     80  O   UNL A   1      40.409  19.833  26.324  1.00  0.00    -0.237 OA
ATOM     81  O   UNL A   1      42.454  19.350  25.022  1.00  0.00    -0.237 OA
ATOM     82  O   UNL A   1      42.372  18.822  27.427  1.00  0.00    -0.744 OA
ENDBRANCH  78  79
ENDBRANCH  50  73
BRANCH  62  83
ATOM     83  C   UNL A   1      49.560  27.048  25.965  1.00  0.00    -0.014 A 
ATOM     84  C   UNL A   1      49.826  27.197  24.593  1.00  0.00     0.010 A 
ATOM     85  C   UNL A   1      50.556  26.506  26.798  1.00  0.00     0.010 A 
ATOM     86  C   UNL A   1      51.050  26.783  24.060  1.00  0.00     0.020 A 
ATOM     87  C   UNL A   1      51.793  26.119  26.276  1.00  0.00     0.020 A 
ATOM     88  C   UNL A   1      52.028  26.248  24.906  1.00  0.00     0.054 A 
BRANCH  88  89
ATOM     89  S   UNL A   1      53.625  25.761  24.197  1.00  0.00     0.124 S 
ATOM     90  O   UNL A   1      53.374  25.885  22.764  1.00  0.00    -0.237 OA
ATOM     91  O   UNL A   1      54.541  26.747  24.763  1.00  0.00    -0.237 OA
ATOM     92  O   UNL A   1      53.816  24.394  24.678  1.00  0.00    -0.744 OA
ENDBRANCH  88  89
ENDBRANCH  62  83
ENDBRANCH  36  37
ENDBRANCH  29  31
ENDBRANCH  28  29
ENDBRANCH  27  28
ENDBRANCH  26  27
ENDBRANCH  25  26
ENDBRANCH   1  25
TORSDOF 23
ENDMDL
