MODEL 1
REMARK VINA RESULT:     -11.3      0.000      0.000
REMARK SMILES Cc1cc(C(=O)OCCOCCOCCOC(=O)c2ccc(-c3c4nc(c(-c5ccc(S(=O)(=O)[O-])cc5)c5ccc([nH]5)c(-c5ccc(S(=O)(=O)[O-])cc5)c5nc(c(-c6ccc(S(=O)(=O)[O-])cc6)c6ccc3[nH]6)C=C5)C=C4)cc2)ccc1NS(=O)(=O)c1ccc2c(c1)CCC2
REMARK SMILES IDX 11 1 10 2 9 3 8 4 7 5 5 6 6 7 4 8 1 9 2 10 3 11 81 12 80 13
REMARK SMILES IDX 79 14 82 15 83 17 84 18 85 19 86 20 87 21 91 22 88 23 90 24
REMARK SMILES IDX 89 25 92 26 94 27 93 28 12 29 13 30 14 31 15 32 16 33 17 34
REMARK SMILES IDX 18 35 19 36 20 37 78 38 21 39 77 40 22 41 23 42 24 43 71 44
REMARK SMILES IDX 25 45 76 46 70 47 72 48 26 49 75 50 69 51 68 52 27 54 57 55
REMARK SMILES IDX 38 56 56 57 39 58 42 59 55 60 73 61 40 62 41 63 54 65 74 66
REMARK SMILES IDX 43 67 28 68 29 69 37 70 30 71 36 72 31 73 32 74 33 75 34 76
REMARK SMILES IDX 35 77 58 78 59 79 67 80 60 81 66 82 61 83 62 84 63 85 64 86
REMARK SMILES IDX 65 87 44 88 45 89 53 90 46 91 52 92 47 93 48 94 49 95 50 96
REMARK SMILES IDX 51 97
REMARK H PARENT 82 16 72 53 42 64
REMARK Flexibility Score: inf
ROOT
ATOM      1  C   UNL A   1      43.731  23.556  25.966  1.00  0.00     0.188 C 
ENDROOT
BRANCH   1   2
ATOM      2  O   UNL A   1      42.675  22.729  25.491  1.00  0.00    -0.376 OA
BRANCH   2   3
ATOM      3  C   UNL A   1      41.850  21.772  26.155  1.00  0.00     0.202 C 
BRANCH   3   4
ATOM      4  C   UNL A   1      40.222  21.733  26.611  1.00  0.00     0.261 C 
BRANCH   4   5
ATOM      5  O   UNL A   1      38.623  21.732  25.843  1.00  0.00    -0.460 OA
BRANCH   5   6
ATOM      6  C   UNL A   1      37.642  20.958  25.147  1.00  0.00     0.338 C 
ATOM      7  O   UNL A   1      37.692  19.838  24.647  1.00  0.00    -0.246 OA
BRANCH   6   8
ATOM      8  C   UNL A   1      36.215  21.278  25.011  1.00  0.00     0.060 A 
ATOM      9  C   UNL A   1      33.067  19.196  24.314  1.00  0.00     0.046 C 
ATOM     10  C   UNL A   1      33.953  20.394  24.558  1.00  0.00    -0.026 A 
ATOM     11  C   UNL A   1      35.275  20.212  24.992  1.00  0.00     0.021 A 
ATOM     12  C   UNL A   1      33.578  21.694  24.227  1.00  0.00     0.052 A 
ATOM     13  C   UNL A   1      34.559  22.610  23.849  1.00  0.00     0.028 A 
ATOM     14  C   UNL A   1      35.885  22.395  24.241  1.00  0.00     0.018 A 
BRANCH  12  15
ATOM     15  N   UNL A   1      32.214  22.080  24.397  1.00  0.00    -0.279 N 
ATOM     16  H   UNL A   1      31.572  21.944  23.663  1.00  0.00     0.180 HD
BRANCH  15  17
ATOM     17  S   UNL A   1      31.689  22.775  25.862  1.00  0.00     0.261 S 
ATOM     18  O   UNL A   1      30.332  22.299  26.054  1.00  0.00    -0.201 OA
ATOM     19  O   UNL A   1      32.714  22.468  26.839  1.00  0.00    -0.201 OA
BRANCH  17  20
ATOM     20  C   UNL A   1      31.605  24.563  25.750  1.00  0.00     0.088 A 
ATOM     21  C   UNL A   1      30.394  25.275  25.840  1.00  0.00     0.022 A 
ATOM     22  C   UNL A   1      32.827  25.247  25.759  1.00  0.00     0.026 A 
ATOM     23  C   UNL A   1      30.413  26.637  26.194  1.00  0.00     0.005 A 
ATOM     24  C   UNL A   1      32.822  26.595  26.064  1.00  0.00    -0.043 A 
ATOM     25  C   UNL A   1      31.637  27.260  26.376  1.00  0.00    -0.045 A 
ATOM     26  C   UNL A   1      33.989  27.522  26.160  1.00  0.00     0.036 C 
ATOM     27  C   UNL A   1      31.928  28.622  26.937  1.00  0.00     0.036 C 
ATOM     28  C   UNL A   1      33.451  28.544  27.163  1.00  0.00     0.010 C 
ENDBRANCH  17  20
ENDBRANCH  15  17
ENDBRANCH  12  15
ENDBRANCH   6   8
ENDBRANCH   5   6
ENDBRANCH   4   5
ENDBRANCH   3   4
ENDBRANCH   2   3
ENDBRANCH   1   2
BRANCH   1  29
ATOM     29  C   UNL A   1      44.251  24.746  25.194  1.00  0.00     0.188 C 
BRANCH  29  30
ATOM     30  O   UNL A   1      45.317  25.355  25.900  1.00  0.00    -0.376 OA
BRANCH  30  31
ATOM     31  C   UNL A   1      46.340  25.854  25.058  1.00  0.00     0.202 C 
BRANCH  31  32
ATOM     32  C   UNL A   1      46.435  27.388  25.040  1.00  0.00     0.261 C 
BRANCH  32  33
ATOM     33  O   UNL A   1      45.716  27.996  26.133  1.00  0.00    -0.460 OA
BRANCH  33  34
ATOM     34  C   UNL A   1      45.620  29.382  26.137  1.00  0.00     0.338 C 
ATOM     35  O   UNL A   1      46.329  30.080  25.483  1.00  0.00    -0.246 OA
BRANCH  34  36
ATOM     36  C   UNL A   1      44.355  29.788  26.840  1.00  0.00     0.060 A 
ATOM     37  C   UNL A   1      44.073  30.907  27.612  1.00  0.00     0.016 A 
ATOM     38  C   UNL A   1      43.318  28.945  26.709  1.00  0.00     0.016 A 
ATOM     39  C   UNL A   1      42.902  30.990  28.498  1.00  0.00     0.010 A 
ATOM     40  C   UNL A   1      42.228  29.072  27.581  1.00  0.00     0.010 A 
ATOM     41  C   UNL A   1      41.960  29.962  28.670  1.00  0.00    -0.014 A 
BRANCH  41  42
ATOM     42  C   UNL A   1      40.865  29.866  30.039  1.00  0.00     0.031 A 
ATOM     43  C   UNL A   1      39.399  30.656  30.525  1.00  0.00     0.074 A 
ATOM     44  C   UNL A   1      41.209  29.039  31.059  1.00  0.00     0.049 A 
ATOM     45  N   UNL A   1      39.246  31.260  31.704  1.00  0.00    -0.248 NA
ATOM     46  C   UNL A   1      38.179  30.995  29.735  1.00  0.00     0.031 C 
ATOM     47  C   UNL A   1      40.428  28.710  32.256  1.00  0.00     0.029 A 
ATOM     48  N   UNL A   1      42.408  28.369  31.263  1.00  0.00    -0.354 N 
ATOM     49  C   UNL A   1      38.078  32.045  31.680  1.00  0.00     0.074 A 
ATOM     50  C   UNL A   1      37.584  31.991  30.368  1.00  0.00     0.031 C 
ATOM     51  C   UNL A   1      41.248  28.172  33.171  1.00  0.00     0.029 A 
ATOM     52  C   UNL A   1      42.594  28.210  32.634  1.00  0.00     0.049 A 
ATOM     53  H   UNL A   1      43.024  28.060  30.559  1.00  0.00     0.167 HD
ATOM     54  C   UNL A   1      37.416  32.604  32.732  1.00  0.00     0.031 A 
ATOM     55  C   UNL A   1      43.699  28.726  33.236  1.00  0.00     0.031 A 
ATOM     56  C   UNL A   1      37.988  32.122  33.952  1.00  0.00     0.049 A 
ATOM     57  C   UNL A   1      43.352  29.775  34.264  1.00  0.00     0.074 A 
ATOM     58  C   UNL A   1      37.793  30.927  34.621  1.00  0.00     0.029 A 
ATOM     59  N   UNL A   1      39.209  32.624  34.345  1.00  0.00    -0.354 N 
ATOM     60  N   UNL A   1      42.167  30.307  34.412  1.00  0.00    -0.248 NA
ATOM     61  C   UNL A   1      44.319  30.310  35.219  1.00  0.00     0.031 C 
ATOM     62  C   UNL A   1      38.993  30.639  35.320  1.00  0.00     0.029 A 
ATOM     63  C   UNL A   1      39.855  31.708  35.153  1.00  0.00     0.049 A 
ATOM     64  H   UNL A   1      39.569  33.503  34.088  1.00  0.00     0.167 HD
ATOM     65  C   UNL A   1      42.210  31.263  35.389  1.00  0.00     0.074 A 
ATOM     66  C   UNL A   1      43.568  31.196  35.895  1.00  0.00     0.031 C 
ATOM     67  C   UNL A   1      41.149  32.060  35.704  1.00  0.00     0.031 A 
BRANCH  54  68
ATOM     68  C   UNL A   1      36.027  33.224  32.546  1.00  0.00    -0.014 A 
ATOM     69  C   UNL A   1      35.648  33.761  31.304  1.00  0.00     0.010 A 
ATOM     70  C   UNL A   1      35.115  33.425  33.615  1.00  0.00     0.010 A 
ATOM     71  C   UNL A   1      34.511  34.586  31.168  1.00  0.00     0.020 A 
ATOM     72  C   UNL A   1      34.012  34.299  33.506  1.00  0.00     0.020 A 
ATOM     73  C   UNL A   1      33.726  34.891  32.281  1.00  0.00     0.054 A 
BRANCH  73  74
ATOM     74  S   UNL A   1      32.389  36.120  32.127  1.00  0.00     0.124 S 
ATOM     75  O   UNL A   1      32.770  37.140  33.103  1.00  0.00    -0.237 OA
ATOM     76  O   UNL A   1      32.489  36.520  30.727  1.00  0.00    -0.237 OA
ATOM     77  O   UNL A   1      31.185  35.366  32.476  1.00  0.00    -0.744 OA
ENDBRANCH  73  74
ENDBRANCH  54  68
BRANCH  55  78
ATOM     78  C   UNL A   1      44.945  28.608  32.408  1.00  0.00    -0.014 A 
ATOM     79  C   UNL A   1      45.347  29.778  31.714  1.00  0.00     0.010 A 
ATOM     80  C   UNL A   1      45.893  27.581  32.564  1.00  0.00     0.010 A 
ATOM     81  C   UNL A   1      46.673  29.981  31.321  1.00  0.00     0.020 A 
ATOM     82  C   UNL A   1      47.232  27.771  32.143  1.00  0.00     0.020 A 
ATOM     83  C   UNL A   1      47.619  28.991  31.569  1.00  0.00     0.054 A 
BRANCH  83  84
ATOM     84  S   UNL A   1      49.372  29.435  31.312  1.00  0.00     0.124 S 
ATOM     85  O   UNL A   1      49.282  30.584  30.417  1.00  0.00    -0.237 OA
ATOM     86  O   UNL A   1      49.804  29.743  32.677  1.00  0.00    -0.237 OA
ATOM     87  O   UNL A   1      49.942  28.223  30.734  1.00  0.00    -0.744 OA
ENDBRANCH  83  84
ENDBRANCH  55  78
BRANCH  67  88
ATOM     88  C   UNL A   1      41.204  33.274  36.596  1.00  0.00    -0.014 A 
ATOM     89  C   UNL A   1      42.000  34.395  36.325  1.00  0.00     0.010 A 
ATOM     90  C   UNL A   1      40.290  33.370  37.674  1.00  0.00     0.010 A 
ATOM     91  C   UNL A   1      41.947  35.530  37.142  1.00  0.00     0.020 A 
ATOM     92  C   UNL A   1      40.186  34.519  38.456  1.00  0.00     0.020 A 
ATOM     93  C   UNL A   1      41.045  35.581  38.206  1.00  0.00     0.054 A 
BRANCH  93  94
ATOM     94  S   UNL A   1      40.948  37.057  39.245  1.00  0.00     0.124 S 
ATOM     95  O   UNL A   1      39.631  37.581  38.894  1.00  0.00    -0.237 OA
ATOM     96  O   UNL A   1      41.065  36.523  40.600  1.00  0.00    -0.237 OA
ATOM     97  O   UNL A   1      42.085  37.858  38.799  1.00  0.00    -0.744 OA
ENDBRANCH  93  94
ENDBRANCH  67  88
ENDBRANCH  41  42
ENDBRANCH  34  36
ENDBRANCH  33  34
ENDBRANCH  32  33
ENDBRANCH  31  32
ENDBRANCH  30  31
ENDBRANCH  29  30
ENDBRANCH   1  29
TORSDOF 23
ENDMDL
MODEL 2
REMARK VINA RESULT:     -10.3      4.426      7.141
REMARK SMILES Cc1cc(C(=O)OCCOCCOCCOC(=O)c2ccc(-c3c4nc(c(-c5ccc(S(=O)(=O)[O-])cc5)c5ccc([nH]5)c(-c5ccc(S(=O)(=O)[O-])cc5)c5nc(c(-c6ccc(S(=O)(=O)[O-])cc6)c6ccc3[nH]6)C=C5)C=C4)cc2)ccc1NS(=O)(=O)c1ccc2c(c1)CCC2
REMARK SMILES IDX 11 1 10 2 9 3 8 4 7 5 5 6 6 7 4 8 1 9 2 10 3 11 81 12 80 13
REMARK SMILES IDX 79 14 82 15 83 17 84 18 85 19 86 20 87 21 91 22 88 23 90 24
REMARK SMILES IDX 89 25 92 26 94 27 93 28 12 29 13 30 14 31 15 32 16 33 17 34
REMARK SMILES IDX 18 35 19 36 20 37 78 38 21 39 77 40 22 41 23 42 24 43 71 44
REMARK SMILES IDX 25 45 76 46 70 47 72 48 26 49 75 50 69 51 68 52 27 54 57 55
REMARK SMILES IDX 38 56 56 57 39 58 42 59 55 60 73 61 40 62 41 63 54 65 74 66
REMARK SMILES IDX 43 67 28 68 29 69 37 70 30 71 36 72 31 73 32 74 33 75 34 76
REMARK SMILES IDX 35 77 58 78 59 79 67 80 60 81 66 82 61 83 62 84 63 85 64 86
REMARK SMILES IDX 65 87 44 88 45 89 53 90 46 91 52 92 47 93 48 94 49 95 50 96
REMARK SMILES IDX 51 97
REMARK H PARENT 82 16 72 53 42 64
REMARK Flexibility Score: inf
ROOT
ATOM      1  C   UNL A   1      39.673  26.980  28.652  1.00  0.00     0.188 C 
ENDROOT
BRANCH   1   2
ATOM      2  O   UNL A   1      39.280  25.618  28.778  1.00  0.00    -0.376 OA
BRANCH   2   3
ATOM      3  C   UNL A   1      39.301  24.537  27.847  1.00  0.00     0.202 C 
BRANCH   3   4
ATOM      4  C   UNL A   1      38.656  24.298  26.302  1.00  0.00     0.261 C 
BRANCH   4   5
ATOM      5  O   UNL A   1      37.243  23.531  25.553  1.00  0.00    -0.460 OA
BRANCH   5   6
ATOM      6  C   UNL A   1      36.251  23.619  24.526  1.00  0.00     0.338 C 
ATOM      7  O   UNL A   1      36.103  22.994  23.480  1.00  0.00    -0.246 OA
BRANCH   6   8
ATOM      8  C   UNL A   1      35.013  24.409  24.574  1.00  0.00     0.060 A 
ATOM      9  C   UNL A   1      33.154  26.617  22.044  1.00  0.00     0.046 C 
ATOM     10  C   UNL A   1      33.504  25.927  23.341  1.00  0.00    -0.026 A 
ATOM     11  C   UNL A   1      34.481  24.921  23.360  1.00  0.00     0.021 A 
ATOM     12  C   UNL A   1      33.012  26.342  24.577  1.00  0.00     0.052 A 
ATOM     13  C   UNL A   1      33.797  26.166  25.715  1.00  0.00     0.028 A 
ATOM     14  C   UNL A   1      34.805  25.195  25.710  1.00  0.00     0.018 A 
BRANCH  12  15
ATOM     15  N   UNL A   1      31.673  26.831  24.654  1.00  0.00    -0.279 N 
ATOM     16  H   UNL A   1      31.497  27.794  24.547  1.00  0.00     0.180 HD
BRANCH  15  17
ATOM     17  S   UNL A   1      30.377  25.759  24.931  1.00  0.00     0.261 S 
ATOM     18  O   UNL A   1      30.044  25.906  26.335  1.00  0.00    -0.201 OA
ATOM     19  O   UNL A   1      29.390  26.055  23.913  1.00  0.00    -0.201 OA
BRANCH  17  20
ATOM     20  C   UNL A   1      30.872  24.052  24.687  1.00  0.00     0.088 A 
ATOM     21  C   UNL A   1      30.866  23.432  23.424  1.00  0.00     0.022 A 
ATOM     22  C   UNL A   1      31.453  23.408  25.787  1.00  0.00     0.026 A 
ATOM     23  C   UNL A   1      31.660  22.289  23.207  1.00  0.00     0.005 A 
ATOM     24  C   UNL A   1      32.191  22.261  25.561  1.00  0.00    -0.043 A 
ATOM     25  C   UNL A   1      32.375  21.764  24.271  1.00  0.00    -0.045 A 
ATOM     26  C   UNL A   1      32.918  21.422  26.560  1.00  0.00     0.036 C 
ATOM     27  C   UNL A   1      33.429  20.696  24.264  1.00  0.00     0.036 C 
ATOM     28  C   UNL A   1      34.024  20.837  25.679  1.00  0.00     0.010 C 
ENDBRANCH  17  20
ENDBRANCH  15  17
ENDBRANCH  12  15
ENDBRANCH   6   8
ENDBRANCH   5   6
ENDBRANCH   4   5
ENDBRANCH   3   4
ENDBRANCH   2   3
ENDBRANCH   1   2
BRANCH   1  29
ATOM     29  C   UNL A   1      38.724  28.131  28.891  1.00  0.00     0.188 C 
BRANCH  29  30
ATOM     30  O   UNL A   1      38.622  28.926  27.723  1.00  0.00    -0.376 OA
BRANCH  30  31
ATOM     31  C   UNL A   1      37.422  29.675  27.651  1.00  0.00     0.202 C 
BRANCH  31  32
ATOM     32  C   UNL A   1      37.523  31.070  28.287  1.00  0.00     0.261 C 
BRANCH  32  33
ATOM     33  O   UNL A   1      36.250  31.747  28.332  1.00  0.00    -0.460 OA
BRANCH  33  34
ATOM     34  C   UNL A   1      36.271  33.129  28.478  1.00  0.00     0.338 C 
ATOM     35  O   UNL A   1      35.675  33.864  27.756  1.00  0.00    -0.246 OA
BRANCH  34  36
ATOM     36  C   UNL A   1      36.900  33.477  29.798  1.00  0.00     0.060 A 
ATOM     37  C   UNL A   1      38.057  34.188  30.085  1.00  0.00     0.016 A 
ATOM     38  C   UNL A   1      36.250  33.039  30.889  1.00  0.00     0.016 A 
ATOM     39  C   UNL A   1      38.709  34.154  31.404  1.00  0.00     0.010 A 
ATOM     40  C   UNL A   1      36.921  33.029  32.119  1.00  0.00     0.010 A 
ATOM     41  C   UNL A   1      38.250  33.402  32.498  1.00  0.00    -0.014 A 
BRANCH  41  42
ATOM     42  C   UNL A   1      39.250  32.986  33.880  1.00  0.00     0.031 A 
ATOM     43  C   UNL A   1      39.129  33.143  35.603  1.00  0.00     0.074 A 
ATOM     44  C   UNL A   1      40.481  32.469  33.629  1.00  0.00     0.049 A 
ATOM     45  N   UNL A   1      40.059  33.732  36.355  1.00  0.00    -0.248 NA
ATOM     46  C   UNL A   1      37.979  32.876  36.517  1.00  0.00     0.031 C 
ATOM     47  C   UNL A   1      41.457  31.957  34.594  1.00  0.00     0.029 A 
ATOM     48  N   UNL A   1      41.148  32.375  32.415  1.00  0.00    -0.354 N 
ATOM     49  C   UNL A   1      39.544  33.961  37.644  1.00  0.00     0.074 A 
ATOM     50  C   UNL A   1      38.190  33.591  37.608  1.00  0.00     0.031 C 
ATOM     51  C   UNL A   1      42.657  31.889  34.000  1.00  0.00     0.029 A 
ATOM     52  C   UNL A   1      42.517  32.430  32.662  1.00  0.00     0.049 A 
ATOM     53  H   UNL A   1      40.725  32.285  31.530  1.00  0.00     0.167 HD
ATOM     54  C   UNL A   1      40.224  34.290  38.779  1.00  0.00     0.031 A 
ATOM     55  C   UNL A   1      43.273  33.407  32.092  1.00  0.00     0.031 A 
ATOM     56  C   UNL A   1      41.629  34.198  38.522  1.00  0.00     0.049 A 
ATOM     57  C   UNL A   1      43.912  34.308  33.122  1.00  0.00     0.074 A 
ATOM     58  C   UNL A   1      42.462  33.094  38.487  1.00  0.00     0.029 A 
ATOM     59  N   UNL A   1      42.224  35.191  37.776  1.00  0.00    -0.354 N 
ATOM     60  N   UNL A   1      43.607  34.315  34.394  1.00  0.00    -0.248 NA
ATOM     61  C   UNL A   1      44.955  35.277  32.800  1.00  0.00     0.031 C 
ATOM     62  C   UNL A   1      43.510  33.390  37.579  1.00  0.00     0.029 A 
ATOM     63  C   UNL A   1      43.359  34.700  37.159  1.00  0.00     0.049 A 
ATOM     64  H   UNL A   1      41.891  36.114  37.694  1.00  0.00     0.167 HD
ATOM     65  C   UNL A   1      44.326  35.287  35.034  1.00  0.00     0.074 A 
ATOM     66  C   UNL A   1      45.188  35.831  34.002  1.00  0.00     0.031 C 
ATOM     67  C   UNL A   1      44.154  35.602  36.350  1.00  0.00     0.031 A 
BRANCH  54  68
ATOM     68  C   UNL A   1      39.532  34.262  40.146  1.00  0.00    -0.014 A 
ATOM     69  C   UNL A   1      39.444  33.063  40.874  1.00  0.00     0.010 A 
ATOM     70  C   UNL A   1      38.827  35.370  40.684  1.00  0.00     0.010 A 
ATOM     71  C   UNL A   1      38.579  32.930  41.981  1.00  0.00     0.020 A 
ATOM     72  C   UNL A   1      37.912  35.233  41.748  1.00  0.00     0.020 A 
ATOM     73  C   UNL A   1      37.780  34.002  42.383  1.00  0.00     0.054 A 
BRANCH  73  74
ATOM     74  S   UNL A   1      36.522  33.749  43.678  1.00  0.00     0.124 S 
ATOM     75  O   UNL A   1      36.589  32.309  43.920  1.00  0.00    -0.237 OA
ATOM     76  O   UNL A   1      37.014  34.593  44.763  1.00  0.00    -0.237 OA
ATOM     77  O   UNL A   1      35.283  34.202  43.048  1.00  0.00    -0.744 OA
ENDBRANCH  73  74
ENDBRANCH  54  68
BRANCH  55  78
ATOM     78  C   UNL A   1      42.867  33.739  30.687  1.00  0.00    -0.014 A 
ATOM     79  C   UNL A   1      42.229  34.993  30.501  1.00  0.00     0.010 A 
ATOM     80  C   UNL A   1      43.384  33.092  29.550  1.00  0.00     0.010 A 
ATOM     81  C   UNL A   1      42.233  35.643  29.264  1.00  0.00     0.020 A 
ATOM     82  C   UNL A   1      43.367  33.737  28.289  1.00  0.00     0.020 A 
ATOM     83  C   UNL A   1      42.835  35.028  28.169  1.00  0.00     0.054 A 
BRANCH  83  84
ATOM     84  S   UNL A   1      43.075  36.048  26.673  1.00  0.00     0.124 S 
ATOM     85  O   UNL A   1      44.447  36.518  26.824  1.00  0.00    -0.237 OA
ATOM     86  O   UNL A   1      42.867  35.066  25.607  1.00  0.00    -0.237 OA
ATOM     87  O   UNL A   1      42.037  37.068  26.795  1.00  0.00    -0.744 OA
ENDBRANCH  83  84
ENDBRANCH  55  78
BRANCH  67  88
ATOM     88  C   UNL A   1      44.740  36.805  37.043  1.00  0.00    -0.014 A 
ATOM     89  C   UNL A   1      45.909  36.758  37.812  1.00  0.00     0.010 A 
ATOM     90  C   UNL A   1      44.186  38.082  36.777  1.00  0.00     0.010 A 
ATOM     91  C   UNL A   1      46.457  37.923  38.362  1.00  0.00     0.020 A 
ATOM     92  C   UNL A   1      44.758  39.254  37.270  1.00  0.00     0.020 A 
ATOM     93  C   UNL A   1      45.873  39.162  38.092  1.00  0.00     0.054 A 
BRANCH  93  94
ATOM     94  S   UNL A   1      46.594  40.674  38.772  1.00  0.00     0.124 S 
ATOM     95  O   UNL A   1      46.656  40.359  40.197  1.00  0.00    -0.237 OA
ATOM     96  O   UNL A   1      47.887  40.764  38.097  1.00  0.00    -0.237 OA
ATOM     97  O   UNL A   1      45.630  41.704  38.395  1.00  0.00    -0.744 OA
ENDBRANCH  93  94
ENDBRANCH  67  88
ENDBRANCH  41  42
ENDBRANCH  34  36
ENDBRANCH  33  34
ENDBRANCH  32  33
ENDBRANCH  31  32
ENDBRANCH  30  31
ENDBRANCH  29  30
ENDBRANCH   1  29
TORSDOF 23
ENDMDL
MODEL 3
REMARK VINA RESULT:     -10.0      6.464     11.224
REMARK SMILES Cc1cc(C(=O)OCCOCCOCCOC(=O)c2ccc(-c3c4nc(c(-c5ccc(S(=O)(=O)[O-])cc5)c5ccc([nH]5)c(-c5ccc(S(=O)(=O)[O-])cc5)c5nc(c(-c6ccc(S(=O)(=O)[O-])cc6)c6ccc3[nH]6)C=C5)C=C4)cc2)ccc1NS(=O)(=O)c1ccc2c(c1)CCC2
REMARK SMILES IDX 11 1 10 2 9 3 8 4 7 5 5 6 6 7 4 8 1 9 2 10 3 11 81 12 80 13
REMARK SMILES IDX 79 14 82 15 83 17 84 18 85 19 86 20 87 21 91 22 88 23 90 24
REMARK SMILES IDX 89 25 92 26 94 27 93 28 12 29 13 30 14 31 15 32 16 33 17 34
REMARK SMILES IDX 18 35 19 36 20 37 78 38 21 39 77 40 22 41 23 42 24 43 71 44
REMARK SMILES IDX 25 45 76 46 70 47 72 48 26 49 75 50 69 51 68 52 27 54 57 55
REMARK SMILES IDX 38 56 56 57 39 58 42 59 55 60 73 61 40 62 41 63 54 65 74 66
REMARK SMILES IDX 43 67 28 68 29 69 37 70 30 71 36 72 31 73 32 74 33 75 34 76
REMARK SMILES IDX 35 77 58 78 59 79 67 80 60 81 66 82 61 83 62 84 63 85 64 86
REMARK SMILES IDX 65 87 44 88 45 89 53 90 46 91 52 92 47 93 48 94 49 95 50 96
REMARK SMILES IDX 51 97
REMARK H PARENT 82 16 72 53 42 64
REMARK Flexibility Score: inf
ROOT
ATOM      1  C   UNL A   1      43.741  24.359  36.021  1.00  0.00     0.188 C 
ENDROOT
BRANCH   1   2
ATOM      2  O   UNL A   1      43.693  24.712  34.644  1.00  0.00    -0.376 OA
BRANCH   2   3
ATOM      3  C   UNL A   1      44.285  24.113  33.492  1.00  0.00     0.202 C 
BRANCH   3   4
ATOM      4  C   UNL A   1      43.749  23.007  32.331  1.00  0.00     0.261 C 
BRANCH   4   5
ATOM      5  O   UNL A   1      43.540  22.918  30.572  1.00  0.00    -0.460 OA
BRANCH   5   6
ATOM      6  C   UNL A   1      43.180  23.628  29.383  1.00  0.00     0.338 C 
ATOM      7  O   UNL A   1      42.115  23.718  28.778  1.00  0.00    -0.246 OA
BRANCH   6   8
ATOM      8  C   UNL A   1      44.009  24.606  28.666  1.00  0.00     0.060 A 
ATOM      9  C   UNL A   1      47.587  24.564  27.277  1.00  0.00     0.046 C 
ATOM     10  C   UNL A   1      46.216  25.070  27.657  1.00  0.00    -0.026 A 
ATOM     11  C   UNL A   1      45.227  24.168  28.078  1.00  0.00     0.021 A 
ATOM     12  C   UNL A   1      45.910  26.425  27.763  1.00  0.00     0.052 A 
ATOM     13  C   UNL A   1      44.953  26.837  28.689  1.00  0.00     0.028 A 
ATOM     14  C   UNL A   1      44.000  25.918  29.144  1.00  0.00     0.018 A 
BRANCH  12  15
ATOM     15  N   UNL A   1      46.505  27.338  26.840  1.00  0.00    -0.279 N 
ATOM     16  H   UNL A   1      47.375  27.749  27.050  1.00  0.00     0.180 HD
BRANCH  15  17
ATOM     17  S   UNL A   1      45.720  27.720  25.377  1.00  0.00     0.261 S 
ATOM     18  O   UNL A   1      45.699  29.169  25.314  1.00  0.00    -0.201 OA
ATOM     19  O   UNL A   1      46.397  26.956  24.349  1.00  0.00    -0.201 OA
BRANCH  17  20
ATOM     20  C   UNL A   1      44.011  27.173  25.384  1.00  0.00     0.088 A 
ATOM     21  C   UNL A   1      43.637  25.844  25.110  1.00  0.00     0.022 A 
ATOM     22  C   UNL A   1      43.065  28.087  25.865  1.00  0.00     0.026 A 
ATOM     23  C   UNL A   1      42.390  25.367  25.555  1.00  0.00     0.005 A 
ATOM     24  C   UNL A   1      41.829  27.608  26.255  1.00  0.00    -0.043 A 
ATOM     25  C   UNL A   1      41.531  26.247  26.194  1.00  0.00    -0.045 A 
ATOM     26  C   UNL A   1      40.679  28.376  26.818  1.00  0.00     0.036 C 
ATOM     27  C   UNL A   1      40.254  25.953  26.926  1.00  0.00     0.036 C 
ATOM     28  C   UNL A   1      40.000  27.288  27.654  1.00  0.00     0.010 C 
ENDBRANCH  17  20
ENDBRANCH  15  17
ENDBRANCH  12  15
ENDBRANCH   6   8
ENDBRANCH   5   6
ENDBRANCH   4   5
ENDBRANCH   3   4
ENDBRANCH   2   3
ENDBRANCH   1   2
BRANCH   1  29
ATOM     29  C   UNL A   1      44.513  25.157  37.046  1.00  0.00     0.188 C 
BRANCH  29  30
ATOM     30  O   UNL A   1      45.819  25.424  36.568  1.00  0.00    -0.376 OA
BRANCH  30  31
ATOM     31  C   UNL A   1      46.095  26.805  36.416  1.00  0.00     0.202 C 
BRANCH  31  32
ATOM     32  C   UNL A   1      45.851  27.333  34.994  1.00  0.00     0.261 C 
BRANCH  32  33
ATOM     33  O   UNL A   1      47.061  27.805  34.367  1.00  0.00    -0.460 OA
BRANCH  33  34
ATOM     34  C   UNL A   1      47.513  27.107  33.253  1.00  0.00     0.338 C 
ATOM     35  O   UNL A   1      47.365  25.932  33.123  1.00  0.00    -0.246 OA
BRANCH  34  36
ATOM     36  C   UNL A   1      47.926  28.085  32.190  1.00  0.00     0.060 A 
ATOM     37  C   UNL A   1      48.420  29.378  32.299  1.00  0.00     0.016 A 
ATOM     38  C   UNL A   1      47.807  27.657  30.923  1.00  0.00     0.016 A 
ATOM     39  C   UNL A   1      48.461  30.316  31.166  1.00  0.00     0.010 A 
ATOM     40  C   UNL A   1      47.853  28.595  29.883  1.00  0.00     0.010 A 
ATOM     41  C   UNL A   1      48.000  30.019  29.872  1.00  0.00    -0.014 A 
BRANCH  41  42
ATOM     42  C   UNL A   1      47.610  31.244  28.676  1.00  0.00     0.031 A 
ATOM     43  C   UNL A   1      48.388  32.653  28.030  1.00  0.00     0.074 A 
ATOM     44  C   UNL A   1      46.377  31.195  28.109  1.00  0.00     0.049 A 
ATOM     45  N   UNL A   1      47.822  33.860  28.008  1.00  0.00    -0.248 NA
ATOM     46  C   UNL A   1      49.801  32.860  27.595  1.00  0.00     0.031 C 
ATOM     47  C   UNL A   1      45.848  32.030  27.027  1.00  0.00     0.029 A 
ATOM     48  N   UNL A   1      45.292  30.405  28.465  1.00  0.00    -0.354 N 
ATOM     49  C   UNL A   1      48.796  34.829  27.703  1.00  0.00     0.074 A 
ATOM     50  C   UNL A   1      50.030  34.160  27.662  1.00  0.00     0.031 C 
ATOM     51  C   UNL A   1      44.511  31.925  27.015  1.00  0.00     0.029 A 
ATOM     52  C   UNL A   1      44.124  31.087  28.133  1.00  0.00     0.049 A 
ATOM     53  H   UNL A   1      45.339  29.513  28.883  1.00  0.00     0.167 HD
ATOM     54  C   UNL A   1      48.608  36.125  27.326  1.00  0.00     0.031 A 
ATOM     55  C   UNL A   1      43.210  31.381  29.096  1.00  0.00     0.031 A 
ATOM     56  C   UNL A   1      47.213  36.345  27.094  1.00  0.00     0.049 A 
ATOM     57  C   UNL A   1      43.021  32.869  29.269  1.00  0.00     0.074 A 
ATOM     58  C   UNL A   1      46.428  36.038  25.997  1.00  0.00     0.029 A 
ATOM     59  N   UNL A   1      46.378  36.452  28.185  1.00  0.00    -0.354 N 
ATOM     60  N   UNL A   1      43.794  33.781  28.740  1.00  0.00    -0.248 NA
ATOM     61  C   UNL A   1      41.936  33.451  30.054  1.00  0.00     0.031 C 
ATOM     62  C   UNL A   1      45.112  35.815  26.474  1.00  0.00     0.029 A 
ATOM     63  C   UNL A   1      45.092  36.092  27.830  1.00  0.00     0.049 A 
ATOM     64  H   UNL A   1      46.656  36.741  29.084  1.00  0.00     0.167 HD
ATOM     65  C   UNL A   1      43.381  35.023  29.142  1.00  0.00     0.074 A 
ATOM     66  C   UNL A   1      42.187  34.765  29.926  1.00  0.00     0.031 C 
ATOM     67  C   UNL A   1      44.048  36.171  28.832  1.00  0.00     0.031 A 
BRANCH  54  68
ATOM     68  C   UNL A   1      49.774  36.966  26.798  1.00  0.00    -0.014 A 
ATOM     69  C   UNL A   1      50.319  36.710  25.528  1.00  0.00     0.010 A 
ATOM     70  C   UNL A   1      50.459  37.929  27.585  1.00  0.00     0.010 A 
ATOM     71  C   UNL A   1      51.557  37.256  25.127  1.00  0.00     0.020 A 
ATOM     72  C   UNL A   1      51.726  38.431  27.222  1.00  0.00     0.020 A 
ATOM     73  C   UNL A   1      52.279  38.075  25.997  1.00  0.00     0.054 A 
BRANCH  73  74
ATOM     74  S   UNL A   1      53.965  38.601  25.545  1.00  0.00     0.124 S 
ATOM     75  O   UNL A   1      54.802  37.571  26.159  1.00  0.00    -0.237 OA
ATOM     76  O   UNL A   1      53.918  38.585  24.086  1.00  0.00    -0.237 OA
ATOM     77  O   UNL A   1      54.088  39.925  26.151  1.00  0.00    -0.744 OA
ENDBRANCH  73  74
ENDBRANCH  54  68
BRANCH  55  78
ATOM     78  C   UNL A   1      43.042  30.294  30.117  1.00  0.00    -0.014 A 
ATOM     79  C   UNL A   1      43.446  30.612  31.439  1.00  0.00     0.010 A 
ATOM     80  C   UNL A   1      42.210  29.175  29.938  1.00  0.00     0.010 A 
ATOM     81  C   UNL A   1      42.929  29.936  32.548  1.00  0.00     0.020 A 
ATOM     82  C   UNL A   1      41.704  28.470  31.058  1.00  0.00     0.020 A 
ATOM     83  C   UNL A   1      42.031  28.890  32.355  1.00  0.00     0.054 A 
BRANCH  83  84
ATOM     84  S   UNL A   1      41.167  28.256  33.833  1.00  0.00     0.124 S 
ATOM     85  O   UNL A   1      42.163  27.377  34.434  1.00  0.00    -0.237 OA
ATOM     86  O   UNL A   1      40.899  29.491  34.574  1.00  0.00    -0.237 OA
ATOM     87  O   UNL A   1      39.991  27.595  33.274  1.00  0.00    -0.744 OA
ENDBRANCH  83  84
ENDBRANCH  55  78
BRANCH  67  88
ATOM     88  C   UNL A   1      43.779  37.526  29.434  1.00  0.00    -0.014 A 
ATOM     89  C   UNL A   1      44.182  37.891  30.725  1.00  0.00     0.010 A 
ATOM     90  C   UNL A   1      43.240  38.543  28.608  1.00  0.00     0.010 A 
ATOM     91  C   UNL A   1      43.983  39.192  31.201  1.00  0.00     0.020 A 
ATOM     92  C   UNL A   1      43.093  39.856  29.053  1.00  0.00     0.020 A 
ATOM     93  C   UNL A   1      43.433  40.164  30.364  1.00  0.00     0.054 A 
BRANCH  93  94
ATOM     94  S   UNL A   1      43.202  41.854  30.961  1.00  0.00     0.124 S 
ATOM     95  O   UNL A   1      43.751  41.769  32.312  1.00  0.00    -0.237 OA
ATOM     96  O   UNL A   1      43.984  42.654  30.020  1.00  0.00    -0.237 OA
ATOM     97  O   UNL A   1      41.757  42.045  30.879  1.00  0.00    -0.744 OA
ENDBRANCH  93  94
ENDBRANCH  67  88
ENDBRANCH  41  42
ENDBRANCH  34  36
ENDBRANCH  33  34
ENDBRANCH  32  33
ENDBRANCH  31  32
ENDBRANCH  30  31
ENDBRANCH  29  30
ENDBRANCH   1  29
TORSDOF 23
ENDMDL
