MODEL 1
REMARK VINA RESULT:      -9.5      0.000      0.000
REMARK SMILES Cc1cccc(CS(=O)(=O)c2ccc(C(=O)OCCOCCOCCOC(=O)c3ccc(-c4c5nc(c(-c6ccc(S(=O)(=O)[O-])cc6)c6ccc([nH]6)c(-c6ccc(S(=O)(=O)[O-])cc6)c6nc(c(-c7ccc(S(=O)(=O)[O-])cc7)c7ccc4[nH]7)C=C6)C=C5)cc3)cc2F)n1
REMARK SMILES IDX 21 1 20 2 19 3 18 4 17 5 15 6 16 7 14 8 11 9 12 10 90 11
REMARK SMILES IDX 13 12 89 13 91 14 8 15 9 16 10 17 7 18 6 19 1 20 2 21 3 22
REMARK SMILES IDX 92 23 4 24 5 25 22 26 23 27 24 28 25 29 26 30 27 31 28 32
REMARK SMILES IDX 29 33 30 34 88 35 31 36 87 37 32 38 33 39 34 40 81 41 35 42
REMARK SMILES IDX 86 43 80 44 82 45 36 46 85 47 79 48 78 49 37 51 67 52 48 53
REMARK SMILES IDX 66 54 49 55 52 56 65 57 83 58 50 59 51 60 64 62 84 63 53 64
REMARK SMILES IDX 38 65 39 66 47 67 40 68 46 69 41 70 42 71 43 72 44 73 45 74
REMARK SMILES IDX 68 75 69 76 77 77 70 78 76 79 71 80 72 81 73 82 74 83 75 84
REMARK SMILES IDX 54 85 55 86 63 87 56 88 62 89 57 90 58 91 59 92 60 93 61 94
REMARK H PARENT 82 50 52 61
REMARK Flexibility Score: inf
ROOT
ATOM      1  C   UNL A   1      33.945  24.138  26.119  1.00  0.00     0.188 C 
ENDROOT
BRANCH   1   2
ATOM      2  O   UNL A   1      33.231  22.934  26.268  1.00  0.00    -0.376 OA
BRANCH   2   3
ATOM      3  C   UNL A   1      33.798  21.699  25.865  1.00  0.00     0.202 C 
BRANCH   3   4
ATOM      4  C   UNL A   1      33.485  20.932  24.565  1.00  0.00     0.261 C 
BRANCH   4   5
ATOM      5  O   UNL A   1      32.168  21.041  24.017  1.00  0.00    -0.460 OA
BRANCH   5   6
ATOM      6  C   UNL A   1      32.095  21.696  22.831  1.00  0.00     0.338 C 
ATOM      7  O   UNL A   1      32.047  21.191  21.722  1.00  0.00    -0.246 OA
BRANCH   6   8
ATOM      8  C   UNL A   1      31.889  23.143  23.052  1.00  0.00     0.063 A 
ATOM      9  C   UNL A   1      31.722  25.902  23.556  1.00  0.00     0.103 A 
ATOM     10  C   UNL A   1      32.755  25.389  22.767  1.00  0.00     0.024 A 
ATOM     11  C   UNL A   1      30.753  25.021  24.051  1.00  0.00     0.142 A 
ATOM     12  C   UNL A   1      32.832  24.020  22.507  1.00  0.00     0.017 A 
ATOM     13  C   UNL A   1      30.825  23.646  23.800  1.00  0.00     0.056 A 
ATOM     14  F   UNL A   1      29.753  25.441  24.836  1.00  0.00    -0.206 F 
BRANCH   9  15
ATOM     15  S   UNL A   1      31.754  27.581  24.148  1.00  0.00     0.186 S 
ATOM     16  O   UNL A   1      30.540  28.198  23.644  1.00  0.00    -0.223 OA
ATOM     17  O   UNL A   1      33.038  28.138  23.741  1.00  0.00    -0.223 OA
BRANCH  15  18
ATOM     18  C   UNL A   1      31.807  27.659  25.918  1.00  0.00     0.198 C 
BRANCH  18  19
ATOM     19  C   UNL A   1      32.576  28.815  26.471  1.00  0.00     0.056 A 
ATOM     20  C   UNL A   1      36.006  29.386  27.695  1.00  0.00     0.067 C 
ATOM     21  C   UNL A   1      34.573  29.656  27.341  1.00  0.00     0.038 A 
ATOM     22  C   UNL A   1      34.017  30.914  27.521  1.00  0.00     0.023 A 
ATOM     23  N   UNL A   1      33.864  28.615  26.833  1.00  0.00    -0.257 NA
ATOM     24  C   UNL A   1      32.683  31.106  27.183  1.00  0.00     0.004 A 
ATOM     25  C   UNL A   1      31.948  30.045  26.659  1.00  0.00     0.025 A 
ENDBRANCH  18  19
ENDBRANCH  15  18
ENDBRANCH   9  15
ENDBRANCH   6   8
ENDBRANCH   5   6
ENDBRANCH   4   5
ENDBRANCH   3   4
ENDBRANCH   2   3
ENDBRANCH   1   2
BRANCH   1  26
ATOM     26  C   UNL A   1      35.408  24.005  25.648  1.00  0.00     0.188 C 
BRANCH  26  27
ATOM     27  O   UNL A   1      35.708  23.864  24.273  1.00  0.00    -0.376 OA
BRANCH  27  28
ATOM     28  C   UNL A   1      36.758  22.994  23.875  1.00  0.00     0.202 C 
BRANCH  28  29
ATOM     29  C   UNL A   1      37.441  22.003  24.840  1.00  0.00     0.261 C 
BRANCH  29  30
ATOM     30  O   UNL A   1      37.962  22.534  26.065  1.00  0.00    -0.460 OA
BRANCH  30  31
ATOM     31  C   UNL A   1      39.263  22.254  26.327  1.00  0.00     0.338 C 
ATOM     32  O   UNL A   1      39.874  21.233  26.045  1.00  0.00    -0.246 OA
BRANCH  31  33
ATOM     33  C   UNL A   1      39.911  23.466  26.860  1.00  0.00     0.060 A 
ATOM     34  C   UNL A   1      39.718  24.691  26.205  1.00  0.00     0.016 A 
ATOM     35  C   UNL A   1      40.713  23.391  27.998  1.00  0.00     0.016 A 
ATOM     36  C   UNL A   1      40.302  25.855  26.707  1.00  0.00     0.010 A 
ATOM     37  C   UNL A   1      41.324  24.552  28.479  1.00  0.00     0.010 A 
ATOM     38  C   UNL A   1      41.124  25.788  27.838  1.00  0.00    -0.014 A 
BRANCH  38  39
ATOM     39  C   UNL A   1      41.853  26.987  28.316  1.00  0.00     0.031 A 
ATOM     40  C   UNL A   1      41.071  28.169  28.814  1.00  0.00     0.074 A 
ATOM     41  C   UNL A   1      43.197  27.035  28.268  1.00  0.00     0.049 A 
ATOM     42  N   UNL A   1      41.498  29.356  29.152  1.00  0.00    -0.248 NA
ATOM     43  C   UNL A   1      39.617  27.985  28.949  1.00  0.00     0.031 C 
ATOM     44  C   UNL A   1      44.068  25.936  27.853  1.00  0.00     0.029 A 
ATOM     45  N   UNL A   1      44.061  28.065  28.547  1.00  0.00    -0.354 N 
ATOM     46  C   UNL A   1      40.365  30.073  29.522  1.00  0.00     0.074 A 
ATOM     47  C   UNL A   1      39.232  29.186  29.356  1.00  0.00     0.031 C 
ATOM     48  C   UNL A   1      45.344  26.361  27.876  1.00  0.00     0.029 A 
ATOM     49  C   UNL A   1      45.374  27.772  28.259  1.00  0.00     0.049 A 
ATOM     50  H   UNL A   1      43.769  28.929  28.918  1.00  0.00     0.167 HD
ATOM     51  C   UNL A   1      40.278  31.353  29.954  1.00  0.00     0.031 A 
ATOM     52  C   UNL A   1      46.466  28.563  28.258  1.00  0.00     0.031 A 
ATOM     53  C   UNL A   1      41.404  32.239  30.085  1.00  0.00     0.049 A 
ATOM     54  C   UNL A   1      46.328  30.016  28.634  1.00  0.00     0.074 A 
ATOM     55  C   UNL A   1      41.421  33.548  30.535  1.00  0.00     0.029 A 
ATOM     56  N   UNL A   1      42.711  31.918  29.747  1.00  0.00    -0.354 N 
ATOM     57  N   UNL A   1      45.259  30.668  29.025  1.00  0.00    -0.248 NA
ATOM     58  C   UNL A   1      47.544  30.840  28.566  1.00  0.00     0.031 C 
ATOM     59  C   UNL A   1      42.722  34.040  30.402  1.00  0.00     0.029 A 
ATOM     60  C   UNL A   1      43.532  33.016  29.936  1.00  0.00     0.049 A 
ATOM     61  H   UNL A   1      43.010  31.038  29.420  1.00  0.00     0.167 HD
ATOM     62  C   UNL A   1      45.677  31.973  29.264  1.00  0.00     0.074 A 
ATOM     63  C   UNL A   1      47.101  32.013  28.999  1.00  0.00     0.031 C 
ATOM     64  C   UNL A   1      44.948  33.046  29.664  1.00  0.00     0.031 A 
BRANCH  51  65
ATOM     65  C   UNL A   1      38.908  31.891  30.273  1.00  0.00    -0.014 A 
ATOM     66  C   UNL A   1      37.989  32.199  29.254  1.00  0.00     0.010 A 
ATOM     67  C   UNL A   1      38.518  32.047  31.615  1.00  0.00     0.010 A 
ATOM     68  C   UNL A   1      36.718  32.686  29.571  1.00  0.00     0.020 A 
ATOM     69  C   UNL A   1      37.238  32.506  31.938  1.00  0.00     0.020 A 
ATOM     70  C   UNL A   1      36.351  32.837  30.912  1.00  0.00     0.054 A 
BRANCH  70  71
ATOM     71  S   UNL A   1      34.686  33.450  31.292  1.00  0.00     0.124 S 
ATOM     72  O   UNL A   1      34.980  34.666  32.046  1.00  0.00    -0.237 OA
ATOM     73  O   UNL A   1      34.114  33.657  29.964  1.00  0.00    -0.237 OA
ATOM     74  O   UNL A   1      34.086  32.367  32.066  1.00  0.00    -0.744 OA
ENDBRANCH  70  71
ENDBRANCH  51  65
BRANCH  52  75
ATOM     75  C   UNL A   1      47.786  28.010  27.842  1.00  0.00    -0.014 A 
ATOM     76  C   UNL A   1      48.720  27.589  28.805  1.00  0.00     0.010 A 
ATOM     77  C   UNL A   1      48.118  27.906  26.478  1.00  0.00     0.010 A 
ATOM     78  C   UNL A   1      49.964  27.088  28.412  1.00  0.00     0.020 A 
ATOM     79  C   UNL A   1      49.349  27.376  26.081  1.00  0.00     0.020 A 
ATOM     80  C   UNL A   1      50.268  26.980  27.052  1.00  0.00     0.054 A 
BRANCH  80  81
ATOM     81  S   UNL A   1      51.869  26.273  26.569  1.00  0.00     0.124 S 
ATOM     82  O   UNL A   1      52.744  26.749  27.635  1.00  0.00    -0.237 OA
ATOM     83  O   UNL A   1      51.589  24.839  26.571  1.00  0.00    -0.237 OA
ATOM     84  O   UNL A   1      52.114  26.852  25.251  1.00  0.00    -0.744 OA
ENDBRANCH  80  81
ENDBRANCH  52  75
BRANCH  64  85
ATOM     85  C   UNL A   1      45.671  34.354  29.857  1.00  0.00    -0.014 A 
ATOM     86  C   UNL A   1      46.301  34.662  31.076  1.00  0.00     0.010 A 
ATOM     87  C   UNL A   1      45.792  35.252  28.780  1.00  0.00     0.010 A 
ATOM     88  C   UNL A   1      47.021  35.852  31.220  1.00  0.00     0.020 A 
ATOM     89  C   UNL A   1      46.535  36.427  28.910  1.00  0.00     0.020 A 
ATOM     90  C   UNL A   1      47.139  36.724  30.133  1.00  0.00     0.054 A 
BRANCH  90  91
ATOM     91  S   UNL A   1      48.137  38.227  30.328  1.00  0.00     0.124 S 
ATOM     92  O   UNL A   1      49.439  37.681  30.704  1.00  0.00    -0.237 OA
ATOM     93  O   UNL A   1      48.067  38.829  28.999  1.00  0.00    -0.237 OA
ATOM     94  O   UNL A   1      47.447  38.968  31.381  1.00  0.00    -0.744 OA
ENDBRANCH  90  91
ENDBRANCH  64  85
ENDBRANCH  38  39
ENDBRANCH  31  33
ENDBRANCH  30  31
ENDBRANCH  29  30
ENDBRANCH  28  29
ENDBRANCH  27  28
ENDBRANCH  26  27
ENDBRANCH   1  26
TORSDOF 23
ENDMDL
MODEL 2
REMARK VINA RESULT:      -9.4      2.975      9.474
REMARK SMILES Cc1cccc(CS(=O)(=O)c2ccc(C(=O)OCCOCCOCCOC(=O)c3ccc(-c4c5nc(c(-c6ccc(S(=O)(=O)[O-])cc6)c6ccc([nH]6)c(-c6ccc(S(=O)(=O)[O-])cc6)c6nc(c(-c7ccc(S(=O)(=O)[O-])cc7)c7ccc4[nH]7)C=C6)C=C5)cc3)cc2F)n1
REMARK SMILES IDX 21 1 20 2 19 3 18 4 17 5 15 6 16 7 14 8 11 9 12 10 90 11
REMARK SMILES IDX 13 12 89 13 91 14 8 15 9 16 10 17 7 18 6 19 1 20 2 21 3 22
REMARK SMILES IDX 92 23 4 24 5 25 22 26 23 27 24 28 25 29 26 30 27 31 28 32
REMARK SMILES IDX 29 33 30 34 88 35 31 36 87 37 32 38 33 39 34 40 81 41 35 42
REMARK SMILES IDX 86 43 80 44 82 45 36 46 85 47 79 48 78 49 37 51 67 52 48 53
REMARK SMILES IDX 66 54 49 55 52 56 65 57 83 58 50 59 51 60 64 62 84 63 53 64
REMARK SMILES IDX 38 65 39 66 47 67 40 68 46 69 41 70 42 71 43 72 44 73 45 74
REMARK SMILES IDX 68 75 69 76 77 77 70 78 76 79 71 80 72 81 73 82 74 83 75 84
REMARK SMILES IDX 54 85 55 86 63 87 56 88 62 89 57 90 58 91 59 92 60 93 61 94
REMARK H PARENT 82 50 52 61
REMARK Flexibility Score: inf
ROOT
ATOM      1  C   UNL A   1      33.274  35.594  30.818  1.00  0.00     0.188 C 
ENDROOT
BRANCH   1   2
ATOM      2  O   UNL A   1      33.817  35.570  29.520  1.00  0.00    -0.376 OA
BRANCH   2   3
ATOM      3  C   UNL A   1      34.651  34.504  29.101  1.00  0.00     0.202 C 
BRANCH   3   4
ATOM      4  C   UNL A   1      34.451  33.624  27.851  1.00  0.00     0.261 C 
BRANCH   4   5
ATOM      5  O   UNL A   1      33.808  32.357  28.012  1.00  0.00    -0.460 OA
BRANCH   5   6
ATOM      6  C   UNL A   1      34.577  31.282  27.710  1.00  0.00     0.338 C 
ATOM      7  O   UNL A   1      35.717  31.072  28.090  1.00  0.00    -0.246 OA
BRANCH   6   8
ATOM      8  C   UNL A   1      33.783  30.265  26.987  1.00  0.00     0.063 A 
ATOM      9  C   UNL A   1      32.459  28.312  25.463  1.00  0.00     0.103 A 
ATOM     10  C   UNL A   1      33.730  28.058  25.985  1.00  0.00     0.024 A 
ATOM     11  C   UNL A   1      31.845  29.536  25.751  1.00  0.00     0.142 A 
ATOM     12  C   UNL A   1      34.384  29.025  26.752  1.00  0.00     0.017 A 
ATOM     13  C   UNL A   1      32.495  30.512  26.515  1.00  0.00     0.056 A 
ATOM     14  F   UNL A   1      30.641  29.854  25.260  1.00  0.00    -0.206 F 
BRANCH   9  15
ATOM     15  S   UNL A   1      31.724  27.234  24.250  1.00  0.00     0.186 S 
ATOM     16  O   UNL A   1      30.487  26.761  24.844  1.00  0.00    -0.223 OA
ATOM     17  O   UNL A   1      32.744  26.255  23.895  1.00  0.00    -0.223 OA
BRANCH  15  18
ATOM     18  C   UNL A   1      31.404  28.077  22.724  1.00  0.00     0.198 C 
BRANCH  18  19
ATOM     19  C   UNL A   1      30.065  28.737  22.643  1.00  0.00     0.056 A 
ATOM     20  C   UNL A   1      28.775  32.009  21.542  1.00  0.00     0.067 C 
ATOM     21  C   UNL A   1      28.792  30.617  22.099  1.00  0.00     0.038 A 
ATOM     22  C   UNL A   1      27.620  29.996  22.507  1.00  0.00     0.023 A 
ATOM     23  N   UNL A   1      30.001  30.004  22.174  1.00  0.00    -0.257 NA
ATOM     24  C   UNL A   1      27.694  28.708  23.024  1.00  0.00     0.004 A 
ATOM     25  C   UNL A   1      28.930  28.071  23.102  1.00  0.00     0.025 A 
ENDBRANCH  18  19
ENDBRANCH  15  18
ENDBRANCH   9  15
ENDBRANCH   6   8
ENDBRANCH   5   6
ENDBRANCH   4   5
ENDBRANCH   3   4
ENDBRANCH   2   3
ENDBRANCH   1   2
BRANCH   1  26
ATOM     26  C   UNL A   1      34.067  34.830  31.898  1.00  0.00     0.188 C 
BRANCH  26  27
ATOM     27  O   UNL A   1      35.399  35.197  32.204  1.00  0.00    -0.376 OA
BRANCH  27  28
ATOM     28  C   UNL A   1      36.329  34.193  32.578  1.00  0.00     0.202 C 
BRANCH  28  29
ATOM     29  C   UNL A   1      36.164  32.707  32.197  1.00  0.00     0.261 C 
BRANCH  29  30
ATOM     30  O   UNL A   1      37.324  31.871  32.302  1.00  0.00    -0.460 OA
BRANCH  30  31
ATOM     31  C   UNL A   1      37.235  30.656  31.706  1.00  0.00     0.338 C 
ATOM     32  O   UNL A   1      36.244  29.946  31.610  1.00  0.00    -0.246 OA
BRANCH  31  33
ATOM     33  C   UNL A   1      38.502  30.376  31.008  1.00  0.00     0.060 A 
ATOM     34  C   UNL A   1      38.556  30.491  29.611  1.00  0.00     0.016 A 
ATOM     35  C   UNL A   1      39.633  29.994  31.729  1.00  0.00     0.016 A 
ATOM     36  C   UNL A   1      39.752  30.256  28.933  1.00  0.00     0.010 A 
ATOM     37  C   UNL A   1      40.820  29.724  31.044  1.00  0.00     0.010 A 
ATOM     38  C   UNL A   1      40.888  29.853  29.645  1.00  0.00    -0.014 A 
BRANCH  38  39
ATOM     39  C   UNL A   1      42.133  29.477  28.934  1.00  0.00     0.031 A 
ATOM     40  C   UNL A   1      42.307  28.062  28.461  1.00  0.00     0.074 A 
ATOM     41  C   UNL A   1      43.114  30.379  28.749  1.00  0.00     0.049 A 
ATOM     42  N   UNL A   1      43.360  27.491  27.939  1.00  0.00    -0.248 NA
ATOM     43  C   UNL A   1      41.138  27.178  28.592  1.00  0.00     0.031 C 
ATOM     44  C   UNL A   1      43.045  31.792  29.118  1.00  0.00     0.029 A 
ATOM     45  N   UNL A   1      44.376  30.228  28.227  1.00  0.00    -0.354 N 
ATOM     46  C   UNL A   1      42.992  26.172  27.697  1.00  0.00     0.074 A 
ATOM     47  C   UNL A   1      41.621  26.029  28.139  1.00  0.00     0.031 C 
ATOM     48  C   UNL A   1      44.225  32.373  28.838  1.00  0.00     0.029 A 
ATOM     49  C   UNL A   1      45.146  31.364  28.318  1.00  0.00     0.049 A 
ATOM     50  H   UNL A   1      44.697  29.387  27.828  1.00  0.00     0.167 HD
ATOM     51  C   UNL A   1      43.731  25.173  27.162  1.00  0.00     0.031 A 
ATOM     52  C   UNL A   1      46.455  31.556  28.056  1.00  0.00     0.031 A 
ATOM     53  C   UNL A   1      45.105  25.314  26.755  1.00  0.00     0.049 A 
ATOM     54  C   UNL A   1      47.289  30.400  27.566  1.00  0.00     0.074 A 
ATOM     55  C   UNL A   1      45.933  24.365  26.181  1.00  0.00     0.029 A 
ATOM     56  N   UNL A   1      45.861  26.468  26.897  1.00  0.00    -0.354 N 
ATOM     57  N   UNL A   1      46.917  29.170  27.299  1.00  0.00    -0.248 NA
ATOM     58  C   UNL A   1      48.720  30.657  27.345  1.00  0.00     0.031 C 
ATOM     59  C   UNL A   1      47.208  24.923  26.043  1.00  0.00     0.029 A 
ATOM     60  C   UNL A   1      47.156  26.242  26.464  1.00  0.00     0.049 A 
ATOM     61  H   UNL A   1      45.525  27.322  27.254  1.00  0.00     0.167 HD
ATOM     62  C   UNL A   1      48.064  28.513  26.864  1.00  0.00     0.074 A 
ATOM     63  C   UNL A   1      49.136  29.487  26.879  1.00  0.00     0.031 C 
ATOM     64  C   UNL A   1      48.218  27.218  26.489  1.00  0.00     0.031 A 
BRANCH  51  65
ATOM     65  C   UNL A   1      43.085  23.820  27.027  1.00  0.00    -0.014 A 
ATOM     66  C   UNL A   1      42.515  23.400  25.812  1.00  0.00     0.010 A 
ATOM     67  C   UNL A   1      43.089  22.935  28.121  1.00  0.00     0.010 A 
ATOM     68  C   UNL A   1      41.930  22.136  25.704  1.00  0.00     0.020 A 
ATOM     69  C   UNL A   1      42.531  21.659  28.009  1.00  0.00     0.020 A 
ATOM     70  C   UNL A   1      41.941  21.273  26.804  1.00  0.00     0.054 A 
BRANCH  70  71
ATOM     71  S   UNL A   1      41.195  19.629  26.626  1.00  0.00     0.124 S 
ATOM     72  O   UNL A   1      40.911  19.277  28.015  1.00  0.00    -0.237 OA
ATOM     73  O   UNL A   1      40.024  19.901  25.796  1.00  0.00    -0.237 OA
ATOM     74  O   UNL A   1      42.242  18.839  25.985  1.00  0.00    -0.744 OA
ENDBRANCH  70  71
ENDBRANCH  51  65
BRANCH  52  75
ATOM     75  C   UNL A   1      47.074  32.889  28.295  1.00  0.00    -0.014 A 
ATOM     76  C   UNL A   1      47.624  33.208  29.549  1.00  0.00     0.010 A 
ATOM     77  C   UNL A   1      47.113  33.852  27.269  1.00  0.00     0.010 A 
ATOM     78  C   UNL A   1      48.188  34.466  29.776  1.00  0.00     0.020 A 
ATOM     79  C   UNL A   1      47.705  35.100  27.482  1.00  0.00     0.020 A 
ATOM     80  C   UNL A   1      48.230  35.403  28.739  1.00  0.00     0.054 A 
BRANCH  80  81
ATOM     81  S   UNL A   1      49.019  37.008  29.044  1.00  0.00     0.124 S 
ATOM     82  O   UNL A   1      49.783  36.744  30.259  1.00  0.00    -0.237 OA
ATOM     83  O   UNL A   1      49.807  37.204  27.829  1.00  0.00    -0.237 OA
ATOM     84  O   UNL A   1      47.888  37.920  29.200  1.00  0.00    -0.744 OA
ENDBRANCH  80  81
ENDBRANCH  52  75
BRANCH  64  85
ATOM     85  C   UNL A   1      49.588  26.773  26.048  1.00  0.00    -0.014 A 
ATOM     86  C   UNL A   1      50.014  26.943  24.718  1.00  0.00     0.010 A 
ATOM     87  C   UNL A   1      50.492  26.252  26.993  1.00  0.00     0.010 A 
ATOM     88  C   UNL A   1      51.311  26.583  24.338  1.00  0.00     0.020 A 
ATOM     89  C   UNL A   1      51.798  25.919  26.624  1.00  0.00     0.020 A 
ATOM     90  C   UNL A   1      52.196  26.079  25.295  1.00  0.00     0.054 A 
BRANCH  90  91
ATOM     91  S   UNL A   1      53.894  25.685  24.788  1.00  0.00     0.124 S 
ATOM     92  O   UNL A   1      53.937  26.220  23.430  1.00  0.00    -0.237 OA
ATOM     93  O   UNL A   1      54.695  26.405  25.774  1.00  0.00    -0.237 OA
ATOM     94  O   UNL A   1      53.955  24.228  24.885  1.00  0.00    -0.744 OA
ENDBRANCH  90  91
ENDBRANCH  64  85
ENDBRANCH  38  39
ENDBRANCH  31  33
ENDBRANCH  30  31
ENDBRANCH  29  30
ENDBRANCH  28  29
ENDBRANCH  27  28
ENDBRANCH  26  27
ENDBRANCH   1  26
TORSDOF 23
ENDMDL
MODEL 3
REMARK VINA RESULT:      -9.2      5.254      7.112
REMARK SMILES Cc1cccc(CS(=O)(=O)c2ccc(C(=O)OCCOCCOCCOC(=O)c3ccc(-c4c5nc(c(-c6ccc(S(=O)(=O)[O-])cc6)c6ccc([nH]6)c(-c6ccc(S(=O)(=O)[O-])cc6)c6nc(c(-c7ccc(S(=O)(=O)[O-])cc7)c7ccc4[nH]7)C=C6)C=C5)cc3)cc2F)n1
REMARK SMILES IDX 21 1 20 2 19 3 18 4 17 5 15 6 16 7 14 8 11 9 12 10 90 11
REMARK SMILES IDX 13 12 89 13 91 14 8 15 9 16 10 17 7 18 6 19 1 20 2 21 3 22
REMARK SMILES IDX 92 23 4 24 5 25 22 26 23 27 24 28 25 29 26 30 27 31 28 32
REMARK SMILES IDX 29 33 30 34 88 35 31 36 87 37 32 38 33 39 34 40 81 41 35 42
REMARK SMILES IDX 86 43 80 44 82 45 36 46 85 47 79 48 78 49 37 51 67 52 48 53
REMARK SMILES IDX 66 54 49 55 52 56 65 57 83 58 50 59 51 60 64 62 84 63 53 64
REMARK SMILES IDX 38 65 39 66 47 67 40 68 46 69 41 70 42 71 43 72 44 73 45 74
REMARK SMILES IDX 68 75 69 76 77 77 70 78 76 79 71 80 72 81 73 82 74 83 75 84
REMARK SMILES IDX 54 85 55 86 63 87 56 88 62 89 57 90 58 91 59 92 60 93 61 94
REMARK H PARENT 82 50 52 61
REMARK Flexibility Score: inf
ROOT
ATOM      1  C   UNL A   1      40.624  21.966  27.191  1.00  0.00     0.188 C 
ENDROOT
BRANCH   1   2
ATOM      2  O   UNL A   1      39.756  21.987  26.084  1.00  0.00    -0.376 OA
BRANCH   2   3
ATOM      3  C   UNL A   1      38.801  20.957  25.890  1.00  0.00     0.202 C 
BRANCH   3   4
ATOM      4  C   UNL A   1      37.537  21.038  25.011  1.00  0.00     0.261 C 
BRANCH   4   5
ATOM      5  O   UNL A   1      37.327  22.222  24.237  1.00  0.00    -0.460 OA
BRANCH   5   6
ATOM      6  C   UNL A   1      36.881  23.294  24.939  1.00  0.00     0.338 C 
ATOM      7  O   UNL A   1      37.563  24.172  25.439  1.00  0.00    -0.246 OA
BRANCH   6   8
ATOM      8  C   UNL A   1      35.406  23.377  24.872  1.00  0.00     0.063 A 
ATOM      9  C   UNL A   1      32.631  23.668  24.548  1.00  0.00     0.103 A 
ATOM     10  C   UNL A   1      33.415  23.168  23.506  1.00  0.00     0.024 A 
ATOM     11  C   UNL A   1      33.248  23.978  25.765  1.00  0.00     0.142 A 
ATOM     12  C   UNL A   1      34.793  23.013  23.670  1.00  0.00     0.017 A 
ATOM     13  C   UNL A   1      34.629  23.830  25.938  1.00  0.00     0.056 A 
ATOM     14  F   UNL A   1      32.561  24.486  26.795  1.00  0.00    -0.206 F 
BRANCH   9  15
ATOM     15  S   UNL A   1      30.937  24.152  24.283  1.00  0.00     0.186 S 
ATOM     16  O   UNL A   1      30.266  23.941  25.553  1.00  0.00    -0.223 OA
ATOM     17  O   UNL A   1      30.473  23.410  23.119  1.00  0.00    -0.223 OA
BRANCH  15  18
ATOM     18  C   UNL A   1      30.805  25.847  23.779  1.00  0.00     0.198 C 
BRANCH  18  19
ATOM     19  C   UNL A   1      31.829  26.759  24.376  1.00  0.00     0.056 A 
ATOM     20  C   UNL A   1      31.986  29.063  27.248  1.00  0.00     0.067 C 
ATOM     21  C   UNL A   1      32.407  28.314  26.018  1.00  0.00     0.038 A 
ATOM     22  C   UNL A   1      33.677  28.471  25.485  1.00  0.00     0.023 A 
ATOM     23  N   UNL A   1      31.488  27.478  25.469  1.00  0.00    -0.257 NA
ATOM     24  C   UNL A   1      34.011  27.758  24.339  1.00  0.00     0.004 A 
ATOM     25  C   UNL A   1      33.076  26.897  23.771  1.00  0.00     0.025 A 
ENDBRANCH  18  19
ENDBRANCH  15  18
ENDBRANCH   9  15
ENDBRANCH   6   8
ENDBRANCH   5   6
ENDBRANCH   4   5
ENDBRANCH   3   4
ENDBRANCH   2   3
ENDBRANCH   1   2
BRANCH   1  26
ATOM     26  C   UNL A   1      41.988  21.279  26.971  1.00  0.00     0.188 C 
BRANCH  26  27
ATOM     27  O   UNL A   1      42.733  21.527  25.794  1.00  0.00    -0.376 OA
BRANCH  27  28
ATOM     28  C   UNL A   1      43.149  22.852  25.501  1.00  0.00     0.202 C 
BRANCH  28  29
ATOM     29  C   UNL A   1      43.356  23.930  26.585  1.00  0.00     0.261 C 
BRANCH  29  30
ATOM     30  O   UNL A   1      43.369  25.298  26.156  1.00  0.00    -0.460 OA
BRANCH  30  31
ATOM     31  C   UNL A   1      42.161  25.912  26.096  1.00  0.00     0.338 C 
ATOM     32  O   UNL A   1      41.320  25.813  25.214  1.00  0.00    -0.246 OA
BRANCH  31  33
ATOM     33  C   UNL A   1      41.918  26.605  27.375  1.00  0.00     0.060 A 
ATOM     34  C   UNL A   1      40.901  26.141  28.222  1.00  0.00     0.016 A 
ATOM     35  C   UNL A   1      42.686  27.712  27.732  1.00  0.00     0.016 A 
ATOM     36  C   UNL A   1      40.670  26.766  29.448  1.00  0.00     0.010 A 
ATOM     37  C   UNL A   1      42.430  28.357  28.944  1.00  0.00     0.010 A 
ATOM     38  C   UNL A   1      41.423  27.890  29.809  1.00  0.00    -0.014 A 
BRANCH  38  39
ATOM     39  C   UNL A   1      41.113  28.644  31.046  1.00  0.00     0.031 A 
ATOM     40  C   UNL A   1      40.020  29.675  31.021  1.00  0.00     0.074 A 
ATOM     41  C   UNL A   1      41.825  28.439  32.169  1.00  0.00     0.049 A 
ATOM     42  N   UNL A   1      39.674  30.532  31.945  1.00  0.00    -0.248 NA
ATOM     43  C   UNL A   1      39.212  29.745  29.794  1.00  0.00     0.031 C 
ATOM     44  C   UNL A   1      42.875  27.434  32.333  1.00  0.00     0.029 A 
ATOM     45  N   UNL A   1      41.789  29.090  33.378  1.00  0.00    -0.354 N 
ATOM     46  C   UNL A   1      38.621  31.261  31.405  1.00  0.00     0.074 A 
ATOM     47  C   UNL A   1      38.392  30.750  30.071  1.00  0.00     0.031 C 
ATOM     48  C   UNL A   1      43.405  27.556  33.564  1.00  0.00     0.029 A 
ATOM     49  C   UNL A   1      42.766  28.676  34.253  1.00  0.00     0.049 A 
ATOM     50  H   UNL A   1      41.128  29.785  33.596  1.00  0.00     0.167 HD
ATOM     51  C   UNL A   1      37.913  32.268  31.970  1.00  0.00     0.031 A 
ATOM     52  C   UNL A   1      43.134  29.173  35.451  1.00  0.00     0.031 A 
ATOM     53  C   UNL A   1      38.166  32.793  33.286  1.00  0.00     0.049 A 
ATOM     54  C   UNL A   1      42.406  30.367  36.013  1.00  0.00     0.074 A 
ATOM     55  C   UNL A   1      37.490  33.799  33.955  1.00  0.00     0.029 A 
ATOM     56  N   UNL A   1      39.188  32.374  34.125  1.00  0.00    -0.354 N 
ATOM     57  N   UNL A   1      41.382  31.018  35.512  1.00  0.00    -0.248 NA
ATOM     58  C   UNL A   1      42.884  30.895  37.299  1.00  0.00     0.031 C 
ATOM     59  C   UNL A   1      38.146  34.036  35.167  1.00  0.00     0.029 A 
ATOM     60  C   UNL A   1      39.188  33.130  35.286  1.00  0.00     0.049 A 
ATOM     61  H   UNL A   1      39.821  31.647  33.925  1.00  0.00     0.167 HD
ATOM     62  C   UNL A   1      41.086  32.021  36.430  1.00  0.00     0.074 A 
ATOM     63  C   UNL A   1      42.020  31.875  37.527  1.00  0.00     0.031 C 
ATOM     64  C   UNL A   1      40.127  32.980  36.370  1.00  0.00     0.031 A 
BRANCH  51  65
ATOM     65  C   UNL A   1      36.823  32.903  31.148  1.00  0.00    -0.014 A 
ATOM     66  C   UNL A   1      37.123  33.699  30.028  1.00  0.00     0.010 A 
ATOM     67  C   UNL A   1      35.476  32.661  31.473  1.00  0.00     0.010 A 
ATOM     68  C   UNL A   1      36.097  34.270  29.271  1.00  0.00     0.020 A 
ATOM     69  C   UNL A   1      34.446  33.206  30.702  1.00  0.00     0.020 A 
ATOM     70  C   UNL A   1      34.764  34.020  29.614  1.00  0.00     0.054 A 
BRANCH  70  71
ATOM     71  S   UNL A   1      33.454  34.756  28.597  1.00  0.00     0.124 S 
ATOM     72  O   UNL A   1      34.146  35.892  27.994  1.00  0.00    -0.237 OA
ATOM     73  O   UNL A   1      33.114  33.669  27.682  1.00  0.00    -0.237 OA
ATOM     74  O   UNL A   1      32.416  35.102  29.564  1.00  0.00    -0.744 OA
ENDBRANCH  70  71
ENDBRANCH  51  65
BRANCH  52  75
ATOM     75  C   UNL A   1      44.282  28.572  36.186  1.00  0.00    -0.014 A 
ATOM     76  C   UNL A   1      45.591  29.040  35.976  1.00  0.00     0.010 A 
ATOM     77  C   UNL A   1      44.073  27.520  37.099  1.00  0.00     0.010 A 
ATOM     78  C   UNL A   1      46.668  28.461  36.654  1.00  0.00     0.020 A 
ATOM     79  C   UNL A   1      45.143  26.960  37.802  1.00  0.00     0.020 A 
ATOM     80  C   UNL A   1      46.436  27.428  37.566  1.00  0.00     0.054 A 
BRANCH  80  81
ATOM     81  S   UNL A   1      47.845  26.734  38.474  1.00  0.00     0.124 S 
ATOM     82  O   UNL A   1      48.881  27.734  38.237  1.00  0.00    -0.237 OA
ATOM     83  O   UNL A   1      47.332  26.663  39.839  1.00  0.00    -0.237 OA
ATOM     84  O   UNL A   1      48.063  25.441  37.828  1.00  0.00    -0.744 OA
ENDBRANCH  80  81
ENDBRANCH  52  75
BRANCH  64  85
ATOM     85  C   UNL A   1      40.023  33.942  37.524  1.00  0.00    -0.014 A 
ATOM     86  C   UNL A   1      40.797  35.116  37.564  1.00  0.00     0.010 A 
ATOM     87  C   UNL A   1      39.082  33.711  38.545  1.00  0.00     0.010 A 
ATOM     88  C   UNL A   1      40.644  36.030  38.611  1.00  0.00     0.020 A 
ATOM     89  C   UNL A   1      38.904  34.636  39.577  1.00  0.00     0.020 A 
ATOM     90  C   UNL A   1      39.693  35.787  39.607  1.00  0.00     0.054 A 
BRANCH  90  91
ATOM     91  S   UNL A   1      39.469  37.024  40.915  1.00  0.00     0.124 S 
ATOM     92  O   UNL A   1      38.922  36.219  42.005  1.00  0.00    -0.237 OA
ATOM     93  O   UNL A   1      40.827  37.521  41.120  1.00  0.00    -0.237 OA
ATOM     94  O   UNL A   1      38.540  37.987  40.327  1.00  0.00    -0.744 OA
ENDBRANCH  90  91
ENDBRANCH  64  85
ENDBRANCH  38  39
ENDBRANCH  31  33
ENDBRANCH  30  31
ENDBRANCH  29  30
ENDBRANCH  28  29
ENDBRANCH  27  28
ENDBRANCH  26  27
ENDBRANCH   1  26
TORSDOF 23
ENDMDL
