MODEL 1
REMARK VINA RESULT:      -7.7      0.000      0.000
REMARK SMILES COc1ccc(OC)c([C@@](C)(O)[C@H](F)C(=O)OCCOCCOCCOC(=O)c2ccc(-c3c4nc(c(-c5ccc(S(=O)(=O)[O-])cc5)c5ccc([nH]5)c(-c5ccc(S(=O)(=O)[O-])cc5)c5nc(c(-c6ccc(S(=O)(=O)[O-])cc6)c6ccc3[nH]6)C=C5)C=C4)cc2)c1
REMARK SMILES IDX 21 1 20 2 19 3 18 4 17 5 15 6 16 7 13 8 14 9 10 10 11 11
REMARK SMILES IDX 9 12 3 13 4 14 89 15 5 16 6 17 2 18 1 19 7 20 8 21 12 22
REMARK SMILES IDX 22 24 23 25 24 26 25 27 26 28 27 29 28 30 29 31 30 32 88 33
REMARK SMILES IDX 31 34 87 35 32 36 33 37 34 38 81 39 35 40 86 41 80 42 82 43
REMARK SMILES IDX 36 44 85 45 79 46 78 47 37 49 67 50 48 51 66 52 49 53 52 54
REMARK SMILES IDX 65 55 83 56 50 57 51 58 64 60 84 61 53 62 38 63 39 64 47 65
REMARK SMILES IDX 40 66 46 67 41 68 42 69 43 70 44 71 45 72 68 73 69 74 77 75
REMARK SMILES IDX 70 76 76 77 71 78 72 79 73 80 74 81 75 82 54 83 55 84 63 85
REMARK SMILES IDX 56 86 62 87 57 88 58 89 59 90 60 91 61 92
REMARK H PARENT 12 23 82 48 52 59
REMARK Flexibility Score: inf
ROOT
ATOM      1  C   UNL A   1      45.077  42.810  25.542  1.00  0.00     0.188 C 
ENDROOT
BRANCH   1   2
ATOM      2  O   UNL A   1      46.142  42.944  24.629  1.00  0.00    -0.376 OA
BRANCH   2   3
ATOM      3  C   UNL A   1      46.222  42.151  23.460  1.00  0.00     0.202 C 
BRANCH   3   4
ATOM      4  C   UNL A   1      47.082  42.458  22.224  1.00  0.00     0.261 C 
BRANCH   4   5
ATOM      5  O   UNL A   1      46.772  43.621  21.463  1.00  0.00    -0.461 OA
BRANCH   5   6
ATOM      6  C   UNL A   1      46.495  43.414  20.152  1.00  0.00     0.344 C 
ATOM      7  O   UNL A   1      46.695  42.360  19.560  1.00  0.00    -0.249 OA
BRANCH   6   8
ATOM      8  C   UNL A   1      45.936  44.656  19.488  1.00  0.00     0.311 C 
ATOM      9  F   UNL A   1      46.635  45.025  18.363  1.00  0.00    -0.231 F 
BRANCH   8  10
ATOM     10  C   UNL A   1      44.427  44.516  19.118  1.00  0.00     0.133 C 
ATOM     11  C   UNL A   1      43.642  44.237  20.422  1.00  0.00     0.051 C 
BRANCH  10  12
ATOM     12  C   UNL A   1      43.821  45.736  18.389  1.00  0.00     0.033 A 
ATOM     13  C   UNL A   1      43.667  48.193  18.284  1.00  0.00     0.119 A 
ATOM     14  C   UNL A   1      42.437  48.089  17.656  1.00  0.00     0.050 A 
ATOM     15  C   UNL A   1      44.370  47.029  18.608  1.00  0.00     0.057 A 
ATOM     16  C   UNL A   1      41.945  46.840  17.291  1.00  0.00     0.050 A 
ATOM     17  C   UNL A   1      42.633  45.665  17.626  1.00  0.00     0.125 A 
BRANCH  13  18
ATOM     18  O   UNL A   1      44.023  49.462  18.649  1.00  0.00    -0.497 OA
ATOM     19  C   UNL A   1      44.979  50.123  17.829  1.00  0.00     0.278 C 
ENDBRANCH  13  18
BRANCH  17  20
ATOM     20  O   UNL A   1      41.922  44.542  17.287  1.00  0.00    -0.496 OA
ATOM     21  C   UNL A   1      40.770  44.238  18.068  1.00  0.00     0.278 C 
ENDBRANCH  17  20
ENDBRANCH  10  12
BRANCH  10  22
ATOM     22  O   UNL A   1      44.302  43.389  18.232  1.00  0.00    -0.382 OA
ATOM     23  H   UNL A   1      45.111  43.301  17.704  1.00  0.00     0.212 HD
ENDBRANCH  10  22
ENDBRANCH   8  10
ENDBRANCH   6   8
ENDBRANCH   5   6
ENDBRANCH   4   5
ENDBRANCH   3   4
ENDBRANCH   2   3
ENDBRANCH   1   2
BRANCH   1  24
ATOM     24  C   UNL A   1      43.670  42.633  24.938  1.00  0.00     0.188 C 
BRANCH  24  25
ATOM     25  O   UNL A   1      43.132  41.329  24.895  1.00  0.00    -0.376 OA
BRANCH  25  26
ATOM     26  C   UNL A   1      41.943  41.022  25.601  1.00  0.00     0.202 C 
BRANCH  26  27
ATOM     27  C   UNL A   1      41.652  39.710  26.367  1.00  0.00     0.261 C 
BRANCH  27  28
ATOM     28  O   UNL A   1      42.708  38.757  26.527  1.00  0.00    -0.460 OA
BRANCH  28  29
ATOM     29  C   UNL A   1      43.372  38.795  27.711  1.00  0.00     0.338 C 
ATOM     30  O   UNL A   1      43.823  39.777  28.265  1.00  0.00    -0.246 OA
BRANCH  29  31
ATOM     31  C   UNL A   1      43.298  37.458  28.346  1.00  0.00     0.060 A 
ATOM     32  C   UNL A   1      43.981  37.245  29.553  1.00  0.00     0.016 A 
ATOM     33  C   UNL A   1      42.572  36.423  27.757  1.00  0.00     0.016 A 
ATOM     34  C   UNL A   1      43.960  35.988  30.162  1.00  0.00     0.010 A 
ATOM     35  C   UNL A   1      42.575  35.156  28.356  1.00  0.00     0.010 A 
ATOM     36  C   UNL A   1      43.292  34.922  29.545  1.00  0.00    -0.014 A 
BRANCH  36  37
ATOM     37  C   UNL A   1      43.499  33.530  30.023  1.00  0.00     0.031 A 
ATOM     38  C   UNL A   1      42.686  33.055  31.201  1.00  0.00     0.074 A 
ATOM     39  C   UNL A   1      44.386  32.700  29.441  1.00  0.00     0.049 A 
ATOM     40  N   UNL A   1      42.751  31.923  31.851  1.00  0.00    -0.248 NA
ATOM     41  C   UNL A   1      41.668  33.985  31.718  1.00  0.00     0.031 C 
ATOM     42  C   UNL A   1      45.200  33.012  28.268  1.00  0.00     0.029 A 
ATOM     43  N   UNL A   1      44.761  31.421  29.778  1.00  0.00    -0.354 N 
ATOM     44  C   UNL A   1      41.809  32.016  32.869  1.00  0.00     0.074 A 
ATOM     45  C   UNL A   1      41.189  33.317  32.757  1.00  0.00     0.031 C 
ATOM     46  C   UNL A   1      45.994  31.960  27.994  1.00  0.00     0.029 A 
ATOM     47  C   UNL A   1      45.774  30.915  28.994  1.00  0.00     0.049 A 
ATOM     48  H   UNL A   1      44.344  30.912  30.510  1.00  0.00     0.167 HD
ATOM     49  C   UNL A   1      41.491  31.104  33.817  1.00  0.00     0.031 A 
ATOM     50  C   UNL A   1      46.466  29.760  29.094  1.00  0.00     0.031 A 
ATOM     51  C   UNL A   1      42.102  29.805  33.926  1.00  0.00     0.049 A 
ATOM     52  C   UNL A   1      46.135  28.789  30.205  1.00  0.00     0.074 A 
ATOM     53  C   UNL A   1      41.810  28.796  34.828  1.00  0.00     0.029 A 
ATOM     54  N   UNL A   1      43.133  29.342  33.127  1.00  0.00    -0.354 N 
ATOM     55  N   UNL A   1      45.204  28.871  31.125  1.00  0.00    -0.248 NA
ATOM     56  C   UNL A   1      46.947  27.564  30.284  1.00  0.00     0.031 C 
ATOM     57  C   UNL A   1      42.714  27.752  34.621  1.00  0.00     0.029 A 
ATOM     58  C   UNL A   1      43.516  28.077  33.539  1.00  0.00     0.049 A 
ATOM     59  H   UNL A   1      43.535  29.837  32.376  1.00  0.00     0.167 HD
ATOM     60  C   UNL A   1      45.295  27.693  31.863  1.00  0.00     0.074 A 
ATOM     61  C   UNL A   1      46.358  26.909  31.274  1.00  0.00     0.031 C 
ATOM     62  C   UNL A   1      44.563  27.294  32.933  1.00  0.00     0.031 A 
BRANCH  49  63
ATOM     63  C   UNL A   1      40.463  31.479  34.850  1.00  0.00    -0.014 A 
ATOM     64  C   UNL A   1      39.139  31.012  34.775  1.00  0.00     0.010 A 
ATOM     65  C   UNL A   1      40.861  32.234  35.970  1.00  0.00     0.010 A 
ATOM     66  C   UNL A   1      38.231  31.301  35.798  1.00  0.00     0.020 A 
ATOM     67  C   UNL A   1      39.965  32.501  37.007  1.00  0.00     0.020 A 
ATOM     68  C   UNL A   1      38.652  32.036  36.911  1.00  0.00     0.054 A 
BRANCH  68  69
ATOM     69  S   UNL A   1      37.472  32.327  38.258  1.00  0.00     0.124 S 
ATOM     70  O   UNL A   1      38.309  32.999  39.251  1.00  0.00    -0.237 OA
ATOM     71  O   UNL A   1      36.461  33.165  37.620  1.00  0.00    -0.237 OA
ATOM     72  O   UNL A   1      37.025  30.987  38.626  1.00  0.00    -0.744 OA
ENDBRANCH  68  69
ENDBRANCH  49  63
BRANCH  50  73
ATOM     73  C   UNL A   1      47.581  29.454  28.148  1.00  0.00    -0.014 A 
ATOM     74  C   UNL A   1      47.359  28.678  26.996  1.00  0.00     0.010 A 
ATOM     75  C   UNL A   1      48.892  29.879  28.436  1.00  0.00     0.010 A 
ATOM     76  C   UNL A   1      48.427  28.294  26.179  1.00  0.00     0.020 A 
ATOM     77  C   UNL A   1      49.958  29.529  27.602  1.00  0.00     0.020 A 
ATOM     78  C   UNL A   1      49.722  28.719  26.489  1.00  0.00     0.054 A 
BRANCH  78  79
ATOM     79  S   UNL A   1      51.092  28.210  25.415  1.00  0.00     0.124 S 
ATOM     80  O   UNL A   1      52.195  28.094  26.366  1.00  0.00    -0.237 OA
ATOM     81  O   UNL A   1      50.603  26.953  24.856  1.00  0.00    -0.237 OA
ATOM     82  O   UNL A   1      51.203  29.310  24.459  1.00  0.00    -0.744 OA
ENDBRANCH  78  79
ENDBRANCH  50  73
BRANCH  62  83
ATOM     83  C   UNL A   1      44.832  25.926  33.506  1.00  0.00    -0.014 A 
ATOM     84  C   UNL A   1      44.114  24.793  33.084  1.00  0.00     0.010 A 
ATOM     85  C   UNL A   1      45.871  25.764  34.442  1.00  0.00     0.010 A 
ATOM     86  C   UNL A   1      44.407  23.532  33.614  1.00  0.00     0.020 A 
ATOM     87  C   UNL A   1      46.191  24.501  34.948  1.00  0.00     0.020 A 
ATOM     88  C   UNL A   1      45.445  23.394  34.541  1.00  0.00     0.054 A 
BRANCH  88  89
ATOM     89  S   UNL A   1      45.833  21.741  35.179  1.00  0.00     0.124 S 
ATOM     90  O   UNL A   1      44.746  20.938  34.625  1.00  0.00    -0.237 OA
ATOM     91  O   UNL A   1      47.156  21.483  34.615  1.00  0.00    -0.237 OA
ATOM     92  O   UNL A   1      45.803  21.912  36.630  1.00  0.00    -0.744 OA
ENDBRANCH  88  89
ENDBRANCH  62  83
ENDBRANCH  36  37
ENDBRANCH  29  31
ENDBRANCH  28  29
ENDBRANCH  27  28
ENDBRANCH  26  27
ENDBRANCH  25  26
ENDBRANCH  24  25
ENDBRANCH   1  24
TORSDOF 25
ENDMDL
MODEL 2
REMARK VINA RESULT:      -7.5     10.990     14.285
REMARK SMILES COc1ccc(OC)c([C@@](C)(O)[C@H](F)C(=O)OCCOCCOCCOC(=O)c2ccc(-c3c4nc(c(-c5ccc(S(=O)(=O)[O-])cc5)c5ccc([nH]5)c(-c5ccc(S(=O)(=O)[O-])cc5)c5nc(c(-c6ccc(S(=O)(=O)[O-])cc6)c6ccc3[nH]6)C=C5)C=C4)cc2)c1
REMARK SMILES IDX 21 1 20 2 19 3 18 4 17 5 15 6 16 7 13 8 14 9 10 10 11 11
REMARK SMILES IDX 9 12 3 13 4 14 89 15 5 16 6 17 2 18 1 19 7 20 8 21 12 22
REMARK SMILES IDX 22 24 23 25 24 26 25 27 26 28 27 29 28 30 29 31 30 32 88 33
REMARK SMILES IDX 31 34 87 35 32 36 33 37 34 38 81 39 35 40 86 41 80 42 82 43
REMARK SMILES IDX 36 44 85 45 79 46 78 47 37 49 67 50 48 51 66 52 49 53 52 54
REMARK SMILES IDX 65 55 83 56 50 57 51 58 64 60 84 61 53 62 38 63 39 64 47 65
REMARK SMILES IDX 40 66 46 67 41 68 42 69 43 70 44 71 45 72 68 73 69 74 77 75
REMARK SMILES IDX 70 76 76 77 71 78 72 79 73 80 74 81 75 82 54 83 55 84 63 85
REMARK SMILES IDX 56 86 62 87 57 88 58 89 59 90 60 91 61 92
REMARK H PARENT 12 23 82 48 52 59
REMARK Flexibility Score: inf
ROOT
ATOM      1  C   UNL A   1      35.877  32.001  28.039  1.00  0.00     0.188 C 
ENDROOT
BRANCH   1   2
ATOM      2  O   UNL A   1      36.114  30.661  27.672  1.00  0.00    -0.376 OA
BRANCH   2   3
ATOM      3  C   UNL A   1      35.062  29.720  27.583  1.00  0.00     0.202 C 
BRANCH   3   4
ATOM      4  C   UNL A   1      34.396  29.237  26.284  1.00  0.00     0.261 C 
BRANCH   4   5
ATOM      5  O   UNL A   1      33.139  28.575  26.380  1.00  0.00    -0.461 OA
BRANCH   5   6
ATOM      6  C   UNL A   1      33.186  27.221  26.417  1.00  0.00     0.344 C 
ATOM      7  O   UNL A   1      34.171  26.553  26.123  1.00  0.00    -0.249 OA
BRANCH   6   8
ATOM      8  C   UNL A   1      31.859  26.619  26.833  1.00  0.00     0.311 C 
ATOM      9  F   UNL A   1      30.903  27.567  27.115  1.00  0.00    -0.231 F 
BRANCH   8  10
ATOM     10  C   UNL A   1      31.285  25.629  25.772  1.00  0.00     0.133 C 
ATOM     11  C   UNL A   1      29.762  25.502  26.016  1.00  0.00     0.051 C 
BRANCH  10  12
ATOM     12  C   UNL A   1      31.552  26.024  24.303  1.00  0.00     0.033 A 
ATOM     13  C   UNL A   1      30.852  27.419  22.395  1.00  0.00     0.119 A 
ATOM     14  C   UNL A   1      31.420  26.508  21.520  1.00  0.00     0.050 A 
ATOM     15  C   UNL A   1      30.955  27.201  23.772  1.00  0.00     0.057 A 
ATOM     16  C   UNL A   1      32.143  25.427  22.014  1.00  0.00     0.050 A 
ATOM     17  C   UNL A   1      32.238  25.188  23.392  1.00  0.00     0.125 A 
BRANCH  13  18
ATOM     18  O   UNL A   1      30.116  28.407  21.802  1.00  0.00    -0.497 OA
ATOM     19  C   UNL A   1      29.098  29.013  22.588  1.00  0.00     0.278 C 
ENDBRANCH  13  18
BRANCH  17  20
ATOM     20  O   UNL A   1      32.886  24.010  23.664  1.00  0.00    -0.496 OA
ATOM     21  C   UNL A   1      33.479  23.323  22.565  1.00  0.00     0.278 C 
ENDBRANCH  17  20
ENDBRANCH  10  12
BRANCH  10  22
ATOM     22  O   UNL A   1      31.914  24.354  25.987  1.00  0.00    -0.382 OA
ATOM     23  H   UNL A   1      31.942  24.162  26.938  1.00  0.00     0.212 HD
ENDBRANCH  10  22
ENDBRANCH   8  10
ENDBRANCH   6   8
ENDBRANCH   5   6
ENDBRANCH   4   5
ENDBRANCH   3   4
ENDBRANCH   2   3
ENDBRANCH   1   2
BRANCH   1  24
ATOM     24  C   UNL A   1      34.404  32.422  28.199  1.00  0.00     0.188 C 
BRANCH  24  25
ATOM     25  O   UNL A   1      34.114  33.802  28.236  1.00  0.00    -0.376 OA
BRANCH  25  26
ATOM     26  C   UNL A   1      34.285  34.538  29.434  1.00  0.00     0.202 C 
BRANCH  26  27
ATOM     27  C   UNL A   1      34.373  33.946  30.860  1.00  0.00     0.261 C 
BRANCH  27  28
ATOM     28  O   UNL A   1      35.344  34.477  31.768  1.00  0.00    -0.460 OA
BRANCH  28  29
ATOM     29  C   UNL A   1      36.612  34.007  31.629  1.00  0.00     0.338 C 
ATOM     30  O   UNL A   1      37.288  34.019  30.622  1.00  0.00    -0.246 OA
BRANCH  29  31
ATOM     31  C   UNL A   1      37.138  33.645  32.966  1.00  0.00     0.060 A 
ATOM     32  C   UNL A   1      37.761  34.637  33.738  1.00  0.00     0.016 A 
ATOM     33  C   UNL A   1      37.028  32.343  33.453  1.00  0.00     0.016 A 
ATOM     34  C   UNL A   1      38.297  34.324  34.990  1.00  0.00     0.010 A 
ATOM     35  C   UNL A   1      37.591  32.025  34.696  1.00  0.00     0.010 A 
ATOM     36  C   UNL A   1      38.254  33.005  35.459  1.00  0.00    -0.014 A 
BRANCH  36  37
ATOM     37  C   UNL A   1      39.064  32.602  36.639  1.00  0.00     0.031 A 
ATOM     38  C   UNL A   1      38.378  32.530  37.980  1.00  0.00     0.074 A 
ATOM     39  C   UNL A   1      40.375  32.313  36.539  1.00  0.00     0.049 A 
ATOM     40  N   UNL A   1      38.887  32.291  39.160  1.00  0.00    -0.248 NA
ATOM     41  C   UNL A   1      36.924  32.762  37.990  1.00  0.00     0.031 C 
ATOM     42  C   UNL A   1      41.152  32.296  35.301  1.00  0.00     0.029 A 
ATOM     43  N   UNL A   1      41.293  31.992  37.512  1.00  0.00    -0.354 N 
ATOM     44  C   UNL A   1      37.826  32.376  40.054  1.00  0.00     0.074 A 
ATOM     45  C   UNL A   1      36.645  32.694  39.284  1.00  0.00     0.031 C 
ATOM     46  C   UNL A   1      42.432  32.001  35.591  1.00  0.00     0.029 A 
ATOM     47  C   UNL A   1      42.577  31.847  37.038  1.00  0.00     0.049 A 
ATOM     48  H   UNL A   1      41.055  31.877  38.461  1.00  0.00     0.167 HD
ATOM     49  C   UNL A   1      37.833  32.211  41.398  1.00  0.00     0.031 A 
ATOM     50  C   UNL A   1      43.738  31.647  37.698  1.00  0.00     0.031 A 
ATOM     51  C   UNL A   1      39.007  31.888  42.166  1.00  0.00     0.049 A 
ATOM     52  C   UNL A   1      43.726  31.534  39.206  1.00  0.00     0.074 A 
ATOM     53  C   UNL A   1      39.100  31.655  43.527  1.00  0.00     0.029 A 
ATOM     54  N   UNL A   1      40.286  31.768  41.650  1.00  0.00    -0.354 N 
ATOM     55  N   UNL A   1      42.704  31.563  40.030  1.00  0.00    -0.248 NA
ATOM     56  C   UNL A   1      45.024  31.353  39.873  1.00  0.00     0.031 C 
ATOM     57  C   UNL A   1      40.446  31.467  43.846  1.00  0.00     0.029 A 
ATOM     58  C   UNL A   1      41.182  31.503  42.672  1.00  0.00     0.049 A 
ATOM     59  H   UNL A   1      40.524  31.856  40.699  1.00  0.00     0.167 HD
ATOM     60  C   UNL A   1      43.236  31.365  41.302  1.00  0.00     0.074 A 
ATOM     61  C   UNL A   1      44.664  31.200  41.139  1.00  0.00     0.031 C 
ATOM     62  C   UNL A   1      42.600  31.320  42.499  1.00  0.00     0.031 A 
BRANCH  49  63
ATOM     63  C   UNL A   1      36.545  32.416  42.147  1.00  0.00    -0.014 A 
ATOM     64  C   UNL A   1      35.654  31.354  42.384  1.00  0.00     0.010 A 
ATOM     65  C   UNL A   1      36.272  33.678  42.709  1.00  0.00     0.010 A 
ATOM     66  C   UNL A   1      34.510  31.555  43.163  1.00  0.00     0.020 A 
ATOM     67  C   UNL A   1      35.146  33.875  43.510  1.00  0.00     0.020 A 
ATOM     68  C   UNL A   1      34.268  32.812  43.727  1.00  0.00     0.054 A 
BRANCH  68  69
ATOM     69  S   UNL A   1      32.818  33.020  44.798  1.00  0.00     0.124 S 
ATOM     70  O   UNL A   1      31.773  33.344  43.829  1.00  0.00    -0.237 OA
ATOM     71  O   UNL A   1      32.701  31.710  45.432  1.00  0.00    -0.237 OA
ATOM     72  O   UNL A   1      33.198  34.110  45.692  1.00  0.00    -0.744 OA
ENDBRANCH  68  69
ENDBRANCH  49  63
BRANCH  50  73
ATOM     73  C   UNL A   1      45.035  31.583  36.960  1.00  0.00    -0.014 A 
ATOM     74  C   UNL A   1      45.560  30.352  36.529  1.00  0.00     0.010 A 
ATOM     75  C   UNL A   1      45.789  32.753  36.749  1.00  0.00     0.010 A 
ATOM     76  C   UNL A   1      46.830  30.284  35.945  1.00  0.00     0.020 A 
ATOM     77  C   UNL A   1      47.043  32.695  36.132  1.00  0.00     0.020 A 
ATOM     78  C   UNL A   1      47.565  31.457  35.754  1.00  0.00     0.054 A 
BRANCH  78  79
ATOM     79  S   UNL A   1      49.210  31.346  34.995  1.00  0.00     0.124 S 
ATOM     80  O   UNL A   1      49.333  29.912  34.749  1.00  0.00    -0.237 OA
ATOM     81  O   UNL A   1      49.065  32.182  33.806  1.00  0.00    -0.237 OA
ATOM     82  O   UNL A   1      50.097  31.883  36.024  1.00  0.00    -0.744 OA
ENDBRANCH  78  79
ENDBRANCH  50  73
BRANCH  62  83
ATOM     83  C   UNL A   1      43.422  31.023  43.727  1.00  0.00    -0.014 A 
ATOM     84  C   UNL A   1      43.653  29.705  44.161  1.00  0.00     0.010 A 
ATOM     85  C   UNL A   1      44.026  32.086  44.425  1.00  0.00     0.010 A 
ATOM     86  C   UNL A   1      44.444  29.459  45.288  1.00  0.00     0.020 A 
ATOM     87  C   UNL A   1      44.845  31.843  45.531  1.00  0.00     0.020 A 
ATOM     88  C   UNL A   1      45.036  30.530  45.965  1.00  0.00     0.054 A 
BRANCH  88  89
ATOM     89  S   UNL A   1      46.092  30.182  47.398  1.00  0.00     0.124 S 
ATOM     90  O   UNL A   1      47.107  29.304  46.822  1.00  0.00    -0.237 OA
ATOM     91  O   UNL A   1      46.558  31.513  47.783  1.00  0.00    -0.237 OA
ATOM     92  O   UNL A   1      45.187  29.545  48.352  1.00  0.00    -0.744 OA
ENDBRANCH  88  89
ENDBRANCH  62  83
ENDBRANCH  36  37
ENDBRANCH  29  31
ENDBRANCH  28  29
ENDBRANCH  27  28
ENDBRANCH  26  27
ENDBRANCH  25  26
ENDBRANCH  24  25
ENDBRANCH   1  24
TORSDOF 25
ENDMDL
MODEL 3
REMARK VINA RESULT:      -7.4     10.729     16.991
REMARK SMILES COc1ccc(OC)c([C@@](C)(O)[C@H](F)C(=O)OCCOCCOCCOC(=O)c2ccc(-c3c4nc(c(-c5ccc(S(=O)(=O)[O-])cc5)c5ccc([nH]5)c(-c5ccc(S(=O)(=O)[O-])cc5)c5nc(c(-c6ccc(S(=O)(=O)[O-])cc6)c6ccc3[nH]6)C=C5)C=C4)cc2)c1
REMARK SMILES IDX 21 1 20 2 19 3 18 4 17 5 15 6 16 7 13 8 14 9 10 10 11 11
REMARK SMILES IDX 9 12 3 13 4 14 89 15 5 16 6 17 2 18 1 19 7 20 8 21 12 22
REMARK SMILES IDX 22 24 23 25 24 26 25 27 26 28 27 29 28 30 29 31 30 32 88 33
REMARK SMILES IDX 31 34 87 35 32 36 33 37 34 38 81 39 35 40 86 41 80 42 82 43
REMARK SMILES IDX 36 44 85 45 79 46 78 47 37 49 67 50 48 51 66 52 49 53 52 54
REMARK SMILES IDX 65 55 83 56 50 57 51 58 64 60 84 61 53 62 38 63 39 64 47 65
REMARK SMILES IDX 40 66 46 67 41 68 42 69 43 70 44 71 45 72 68 73 69 74 77 75
REMARK SMILES IDX 70 76 76 77 71 78 72 79 73 80 74 81 75 82 54 83 55 84 63 85
REMARK SMILES IDX 56 86 62 87 57 88 58 89 59 90 60 91 61 92
REMARK H PARENT 12 23 82 48 52 59
REMARK Flexibility Score: inf
ROOT
ATOM      1  C   UNL A   1      41.849  24.441  26.822  1.00  0.00     0.188 C 
ENDROOT
BRANCH   1   2
ATOM      2  O   UNL A   1      40.469  24.647  27.024  1.00  0.00    -0.376 OA
BRANCH   2   3
ATOM      3  C   UNL A   1      39.523  23.622  26.787  1.00  0.00     0.202 C 
BRANCH   3   4
ATOM      4  C   UNL A   1      38.025  23.830  26.514  1.00  0.00     0.261 C 
BRANCH   4   5
ATOM      5  O   UNL A   1      37.571  23.749  25.167  1.00  0.00    -0.461 OA
BRANCH   5   6
ATOM      6  C   UNL A   1      36.228  23.669  25.000  1.00  0.00     0.344 C 
ATOM      7  O   UNL A   1      35.428  24.500  25.413  1.00  0.00    -0.249 OA
BRANCH   6   8
ATOM      8  C   UNL A   1      35.822  22.406  24.268  1.00  0.00     0.311 C 
ATOM      9  F   UNL A   1      36.814  21.914  23.452  1.00  0.00    -0.231 F 
BRANCH   8  10
ATOM     10  C   UNL A   1      35.357  21.271  25.232  1.00  0.00     0.133 C 
ATOM     11  C   UNL A   1      34.949  21.926  26.573  1.00  0.00     0.051 C 
BRANCH  10  12
ATOM     12  C   UNL A   1      34.200  20.398  24.698  1.00  0.00     0.033 A 
ATOM     13  C   UNL A   1      33.503  18.161  23.933  1.00  0.00     0.119 A 
ATOM     14  C   UNL A   1      32.486  18.733  23.187  1.00  0.00     0.050 A 
ATOM     15  C   UNL A   1      34.324  18.981  24.713  1.00  0.00     0.057 A 
ATOM     16  C   UNL A   1      32.245  20.100  23.273  1.00  0.00     0.050 A 
ATOM     17  C   UNL A   1      33.071  20.935  24.038  1.00  0.00     0.125 A 
BRANCH  13  18
ATOM     18  O   UNL A   1      33.687  16.822  23.727  1.00  0.00    -0.497 OA
ATOM     19  C   UNL A   1      33.314  15.950  24.786  1.00  0.00     0.278 C 
ENDBRANCH  13  18
BRANCH  17  20
ATOM     20  O   UNL A   1      32.739  22.258  23.890  1.00  0.00    -0.496 OA
ATOM     21  C   UNL A   1      31.755  22.787  24.775  1.00  0.00     0.278 C 
ENDBRANCH  17  20
ENDBRANCH  10  12
BRANCH  10  22
ATOM     22  O   UNL A   1      36.480  20.399  25.446  1.00  0.00    -0.382 OA
ATOM     23  H   UNL A   1      36.558  20.197  26.392  1.00  0.00     0.212 HD
ENDBRANCH  10  22
ENDBRANCH   8  10
ENDBRANCH   6   8
ENDBRANCH   5   6
ENDBRANCH   4   5
ENDBRANCH   3   4
ENDBRANCH   2   3
ENDBRANCH   1   2
BRANCH   1  24
ATOM     24  C   UNL A   1      42.358  22.995  26.973  1.00  0.00     0.188 C 
BRANCH  24  25
ATOM     25  O   UNL A   1      42.871  22.606  28.229  1.00  0.00    -0.376 OA
BRANCH  25  26
ATOM     26  C   UNL A   1      43.516  23.552  29.064  1.00  0.00     0.202 C 
BRANCH  26  27
ATOM     27  C   UNL A   1      43.869  23.357  30.556  1.00  0.00     0.261 C 
BRANCH  27  28
ATOM     28  O   UNL A   1      44.609  24.380  31.229  1.00  0.00    -0.460 OA
BRANCH  28  29
ATOM     29  C   UNL A   1      44.714  24.253  32.578  1.00  0.00     0.338 C 
ATOM     30  O   UNL A   1      45.317  23.393  33.186  1.00  0.00    -0.246 OA
BRANCH  29  31
ATOM     31  C   UNL A   1      44.133  25.456  33.219  1.00  0.00     0.060 A 
ATOM     32  C   UNL A   1      44.517  26.722  32.751  1.00  0.00     0.016 A 
ATOM     33  C   UNL A   1      43.229  25.342  34.275  1.00  0.00     0.016 A 
ATOM     34  C   UNL A   1      44.015  27.879  33.353  1.00  0.00     0.010 A 
ATOM     35  C   UNL A   1      42.749  26.503  34.895  1.00  0.00     0.010 A 
ATOM     36  C   UNL A   1      43.160  27.777  34.459  1.00  0.00    -0.014 A 
BRANCH  36  37
ATOM     37  C   UNL A   1      42.852  28.977  35.280  1.00  0.00     0.031 A 
ATOM     38  C   UNL A   1      41.703  29.855  34.853  1.00  0.00     0.074 A 
ATOM     39  C   UNL A   1      43.568  29.295  36.375  1.00  0.00     0.049 A 
ATOM     40  N   UNL A   1      41.299  30.994  35.351  1.00  0.00    -0.248 NA
ATOM     41  C   UNL A   1      40.907  29.387  33.705  1.00  0.00     0.031 C 
ATOM     42  C   UNL A   1      44.671  28.511  36.928  1.00  0.00     0.029 A 
ATOM     43  N   UNL A   1      43.480  30.383  37.212  1.00  0.00    -0.354 N 
ATOM     44  C   UNL A   1      40.226  31.394  34.562  1.00  0.00     0.074 A 
ATOM     45  C   UNL A   1      40.044  30.380  33.548  1.00  0.00     0.031 C 
ATOM     46  C   UNL A   1      45.170  29.153  38.001  1.00  0.00     0.029 A 
ATOM     47  C   UNL A   1      44.450  30.413  38.188  1.00  0.00     0.049 A 
ATOM     48  H   UNL A   1      42.787  31.077  37.123  1.00  0.00     0.167 HD
ATOM     49  C   UNL A   1      39.464  32.507  34.668  1.00  0.00     0.031 A 
ATOM     50  C   UNL A   1      44.744  31.361  39.103  1.00  0.00     0.031 A 
ATOM     51  C   UNL A   1      39.640  33.514  35.682  1.00  0.00     0.049 A 
ATOM     52  C   UNL A   1      43.918  32.626  39.155  1.00  0.00     0.074 A 
ATOM     53  C   UNL A   1      38.884  34.653  35.894  1.00  0.00     0.029 A 
ATOM     54  N   UNL A   1      40.643  33.514  36.636  1.00  0.00    -0.354 N 
ATOM     55  N   UNL A   1      42.873  32.962  38.435  1.00  0.00    -0.248 NA
ATOM     56  C   UNL A   1      44.308  33.638  40.148  1.00  0.00     0.031 C 
ATOM     57  C   UNL A   1      39.474  35.380  36.931  1.00  0.00     0.029 A 
ATOM     58  C   UNL A   1      40.549  34.654  37.417  1.00  0.00     0.049 A 
ATOM     59  H   UNL A   1      41.321  32.809  36.746  1.00  0.00     0.167 HD
ATOM     60  C   UNL A   1      42.462  34.201  38.918  1.00  0.00     0.074 A 
ATOM     61  C   UNL A   1      43.357  34.549  40.000  1.00  0.00     0.031 C 
ATOM     62  C   UNL A   1      41.433  34.983  38.505  1.00  0.00     0.031 A 
BRANCH  49  63
ATOM     63  C   UNL A   1      38.389  32.734  33.640  1.00  0.00    -0.014 A 
ATOM     64  C   UNL A   1      38.616  33.524  32.500  1.00  0.00     0.010 A 
ATOM     65  C   UNL A   1      37.160  32.059  33.773  1.00  0.00     0.010 A 
ATOM     66  C   UNL A   1      37.629  33.642  31.516  1.00  0.00     0.020 A 
ATOM     67  C   UNL A   1      36.183  32.151  32.780  1.00  0.00     0.020 A 
ATOM     68  C   UNL A   1      36.423  32.948  31.659  1.00  0.00     0.054 A 
BRANCH  68  69
ATOM     69  S   UNL A   1      35.194  33.056  30.328  1.00  0.00     0.124 S 
ATOM     70  O   UNL A   1      34.015  33.535  31.046  1.00  0.00    -0.237 OA
ATOM     71  O   UNL A   1      35.803  34.016  29.411  1.00  0.00    -0.237 OA
ATOM     72  O   UNL A   1      35.103  31.689  29.825  1.00  0.00    -0.744 OA
ENDBRANCH  68  69
ENDBRANCH  49  63
BRANCH  50  73
ATOM     73  C   UNL A   1      45.902  31.192  40.032  1.00  0.00    -0.014 A 
ATOM     74  C   UNL A   1      47.195  31.599  39.655  1.00  0.00     0.010 A 
ATOM     75  C   UNL A   1      45.728  30.554  41.275  1.00  0.00     0.010 A 
ATOM     76  C   UNL A   1      48.294  31.331  40.478  1.00  0.00     0.020 A 
ATOM     77  C   UNL A   1      46.819  30.317  42.117  1.00  0.00     0.020 A 
ATOM     78  C   UNL A   1      48.099  30.688  41.703  1.00  0.00     0.054 A 
BRANCH  78  79
ATOM     79  S   UNL A   1      49.539  30.350  42.754  1.00  0.00     0.124 S 
ATOM     80  O   UNL A   1      50.061  29.120  42.167  1.00  0.00    -0.237 OA
ATOM     81  O   UNL A   1      50.358  31.543  42.559  1.00  0.00    -0.237 OA
ATOM     82  O   UNL A   1      48.961  30.209  44.089  1.00  0.00    -0.744 OA
ENDBRANCH  78  79
ENDBRANCH  50  73
BRANCH  62  83
ATOM     83  C   UNL A   1      41.170  36.264  39.256  1.00  0.00    -0.014 A 
ATOM     84  C   UNL A   1      41.966  37.407  39.069  1.00  0.00     0.010 A 
ATOM     85  C   UNL A   1      40.062  36.339  40.121  1.00  0.00     0.010 A 
ATOM     86  C   UNL A   1      41.680  38.590  39.760  1.00  0.00     0.020 A 
ATOM     87  C   UNL A   1      39.751  37.528  40.786  1.00  0.00     0.020 A 
ATOM     88  C   UNL A   1      40.573  38.643  40.612  1.00  0.00     0.054 A 
BRANCH  88  89
ATOM     89  S   UNL A   1      40.197  40.201  41.462  1.00  0.00     0.124 S 
ATOM     90  O   UNL A   1      39.465  40.938  40.435  1.00  0.00    -0.237 OA
ATOM     91  O   UNL A   1      39.402  39.758  42.605  1.00  0.00    -0.237 OA
ATOM     92  O   UNL A   1      41.513  40.741  41.797  1.00  0.00    -0.744 OA
ENDBRANCH  88  89
ENDBRANCH  62  83
ENDBRANCH  36  37
ENDBRANCH  29  31
ENDBRANCH  28  29
ENDBRANCH  27  28
ENDBRANCH  26  27
ENDBRANCH  25  26
ENDBRANCH  24  25
ENDBRANCH   1  24
TORSDOF 25
ENDMDL
