MODEL 1
REMARK VINA RESULT:      -9.8      0.000      0.000
REMARK SMILES C[C@H]1[C@H](C(=O)OCCOCCOCCOC(=O)c2ccc(-c3c4nc(c(-c5ccc(S(=O)(=O)[O-])cc5)c5ccc([nH]5)c(-c5ccc(S(=O)(=O)[O-])cc5)c5nc(c(-c6ccc(S(=O)(=O)[O-])cc6)c6ccc3[nH]6)C=C5)C=C4)cc2)CC[N@H+]1[C@@H]1CCCC1(C)C
REMARK SMILES IDX 11 1 10 2 9 3 8 4 7 5 6 6 4 7 5 8 3 9 1 10 2 11 80 12 78 13
REMARK SMILES IDX 79 14 81 16 82 17 85 18 83 19 84 20 86 21 87 22 12 23 13 24
REMARK SMILES IDX 14 25 15 26 16 27 17 28 18 29 19 30 77 31 20 32 76 33 21 34
REMARK SMILES IDX 22 35 23 36 70 37 24 38 75 39 69 40 71 41 25 42 74 43 68 44
REMARK SMILES IDX 67 45 26 47 56 48 37 49 55 50 38 51 41 52 54 53 72 54 39 55
REMARK SMILES IDX 40 56 53 58 73 59 42 60 27 61 28 62 36 63 29 64 35 65 30 66
REMARK SMILES IDX 31 67 32 68 33 69 34 70 57 71 58 72 66 73 59 74 65 75 60 76
REMARK SMILES IDX 61 77 62 78 63 79 64 80 43 81 44 82 52 83 45 84 51 85 46 86
REMARK SMILES IDX 47 87 48 88 49 89 50 90
REMARK H PARENT 80 15 71 46 41 57
REMARK Flexibility Score: inf
ROOT
ATOM      1  C   UNL A   1      34.433  19.878  24.695  1.00  0.00     0.188 C 
ENDROOT
BRANCH   1   2
ATOM      2  C   UNL A   1      32.926  20.172  24.786  1.00  0.00     0.188 C 
BRANCH   2   3
ATOM      3  O   UNL A   1      32.432  21.447  24.389  1.00  0.00    -0.376 OA
BRANCH   3   4
ATOM      4  C   UNL A   1      32.177  21.708  23.018  1.00  0.00     0.202 C 
BRANCH   4   5
ATOM      5  C   UNL A   1      32.905  22.890  22.357  1.00  0.00     0.261 C 
BRANCH   5   6
ATOM      6  O   UNL A   1      32.361  24.210  22.602  1.00  0.00    -0.463 OA
BRANCH   6   7
ATOM      7  C   UNL A   1      33.109  25.248  22.152  1.00  0.00     0.315 C 
ATOM      8  O   UNL A   1      33.313  25.469  20.961  1.00  0.00    -0.252 OA
BRANCH   7   9
ATOM      9  C   UNL A   1      33.769  26.123  23.213  1.00  0.00     0.162 C 
ATOM     10  C   UNL A   1      34.157  28.585  22.902  1.00  0.00     0.076 C 
ATOM     11  C   UNL A   1      33.281  27.536  23.606  1.00  0.00     0.195 C 
ATOM     12  N   UNL A   1      33.295  27.591  25.094  1.00  0.00    -0.329 N 
ATOM     13  C   UNL A   1      33.758  25.349  24.514  1.00  0.00     0.083 C 
ATOM     14  C   UNL A   1      33.983  26.400  25.576  1.00  0.00     0.263 C 
ATOM     15  H   UNL A   1      32.323  27.576  25.402  1.00  0.00     0.348 HD
BRANCH  12  16
ATOM     16  C   UNL A   1      33.601  28.869  25.769  1.00  0.00     0.189 C 
ATOM     17  C   UNL A   1      34.758  28.892  26.801  1.00  0.00     0.066 C 
ATOM     18  C   UNL A   1      32.438  29.626  26.503  1.00  0.00     0.017 C 
ATOM     19  C   UNL A   1      34.446  29.998  27.809  1.00  0.00     0.007 C 
ATOM     20  C   UNL A   1      33.218  30.715  27.271  1.00  0.00     0.013 C 
ATOM     21  C   UNL A   1      31.459  30.273  25.515  1.00  0.00     0.017 C 
ATOM     22  C   UNL A   1      31.636  28.790  27.516  1.00  0.00     0.017 C 
ENDBRANCH  12  16
ENDBRANCH   7   9
ENDBRANCH   6   7
ENDBRANCH   5   6
ENDBRANCH   4   5
ENDBRANCH   3   4
ENDBRANCH   2   3
ENDBRANCH   1   2
BRANCH   1  23
ATOM     23  O   UNL A   1      35.219  20.738  25.490  1.00  0.00    -0.376 OA
BRANCH  23  24
ATOM     24  C   UNL A   1      36.372  21.286  24.895  1.00  0.00     0.202 C 
BRANCH  24  25
ATOM     25  C   UNL A   1      36.995  22.466  25.650  1.00  0.00     0.261 C 
BRANCH  25  26
ATOM     26  O   UNL A   1      38.384  22.737  25.385  1.00  0.00    -0.460 OA
BRANCH  26  27
ATOM     27  C   UNL A   1      39.249  22.639  26.418  1.00  0.00     0.338 C 
ATOM     28  O   UNL A   1      39.837  21.631  26.785  1.00  0.00    -0.246 OA
BRANCH  27  29
ATOM     29  C   UNL A   1      39.526  24.007  26.909  1.00  0.00     0.060 A 
ATOM     30  C   UNL A   1      40.189  24.924  26.080  1.00  0.00     0.016 A 
ATOM     31  C   UNL A   1      39.126  24.385  28.191  1.00  0.00     0.016 A 
ATOM     32  C   UNL A   1      40.458  26.221  26.531  1.00  0.00     0.010 A 
ATOM     33  C   UNL A   1      39.422  25.670  28.651  1.00  0.00     0.010 A 
ATOM     34  C   UNL A   1      40.107  26.590  27.833  1.00  0.00    -0.014 A 
BRANCH  34  35
ATOM     35  C   UNL A   1      40.605  27.848  28.444  1.00  0.00     0.031 A 
ATOM     36  C   UNL A   1      42.013  27.864  28.971  1.00  0.00     0.074 A 
ATOM     37  C   UNL A   1      39.820  28.932  28.586  1.00  0.00     0.049 A 
ATOM     38  N   UNL A   1      42.600  28.732  29.751  1.00  0.00    -0.248 NA
ATOM     39  C   UNL A   1      42.870  26.735  28.569  1.00  0.00     0.031 C 
ATOM     40  C   UNL A   1      38.471  29.081  28.047  1.00  0.00     0.029 A 
ATOM     41  N   UNL A   1      40.044  30.108  29.263  1.00  0.00    -0.354 N 
ATOM     42  C   UNL A   1      43.881  28.235  29.967  1.00  0.00     0.074 A 
ATOM     43  C   UNL A   1      43.983  26.988  29.240  1.00  0.00     0.031 C 
ATOM     44  C   UNL A   1      37.974  30.269  28.437  1.00  0.00     0.029 A 
ATOM     45  C   UNL A   1      38.944  30.934  29.307  1.00  0.00     0.049 A 
ATOM     46  H   UNL A   1      40.908  30.337  29.676  1.00  0.00     0.167 HD
ATOM     47  C   UNL A   1      44.877  28.765  30.716  1.00  0.00     0.031 A 
ATOM     48  C   UNL A   1      38.727  32.066  30.010  1.00  0.00     0.031 A 
ATOM     49  C   UNL A   1      44.759  29.999  31.443  1.00  0.00     0.049 A 
ATOM     50  C   UNL A   1      39.814  32.591  30.918  1.00  0.00     0.074 A 
ATOM     51  C   UNL A   1      45.707  30.625  32.232  1.00  0.00     0.029 A 
ATOM     52  N   UNL A   1      43.621  30.793  31.475  1.00  0.00    -0.354 N 
ATOM     53  N   UNL A   1      41.015  32.106  31.133  1.00  0.00    -0.248 NA
ATOM     54  C   UNL A   1      39.516  33.811  31.684  1.00  0.00     0.031 C 
ATOM     55  C   UNL A   1      45.122  31.763  32.793  1.00  0.00     0.029 A 
ATOM     56  C   UNL A   1      43.837  31.889  32.290  1.00  0.00     0.049 A 
ATOM     57  H   UNL A   1      42.785  30.603  30.991  1.00  0.00     0.167 HD
ATOM     58  C   UNL A   1      41.628  32.985  32.021  1.00  0.00     0.074 A 
ATOM     59  C   UNL A   1      40.667  34.029  32.308  1.00  0.00     0.031 C 
ATOM     60  C   UNL A   1      42.878  32.937  32.544  1.00  0.00     0.031 A 
BRANCH  47  61
ATOM     61  C   UNL A   1      46.158  27.982  30.832  1.00  0.00    -0.014 A 
ATOM     62  C   UNL A   1      46.308  26.950  31.775  1.00  0.00     0.010 A 
ATOM     63  C   UNL A   1      47.220  28.264  29.952  1.00  0.00     0.010 A 
ATOM     64  C   UNL A   1      47.510  26.242  31.863  1.00  0.00     0.020 A 
ATOM     65  C   UNL A   1      48.411  27.537  30.014  1.00  0.00     0.020 A 
ATOM     66  C   UNL A   1      48.554  26.541  30.982  1.00  0.00     0.054 A 
BRANCH  66  67
ATOM     67  S   UNL A   1      50.093  25.591  31.105  1.00  0.00     0.124 S 
ATOM     68  O   UNL A   1      51.075  26.642  31.365  1.00  0.00    -0.237 OA
ATOM     69  O   UNL A   1      49.825  24.691  32.224  1.00  0.00    -0.237 OA
ATOM     70  O   UNL A   1      50.209  24.943  29.800  1.00  0.00    -0.744 OA
ENDBRANCH  66  67
ENDBRANCH  47  61
BRANCH  48  71
ATOM     71  C   UNL A   1      37.411  32.760  29.922  1.00  0.00    -0.014 A 
ATOM     72  C   UNL A   1      36.405  32.515  30.875  1.00  0.00     0.010 A 
ATOM     73  C   UNL A   1      37.151  33.669  28.879  1.00  0.00     0.010 A 
ATOM     74  C   UNL A   1      35.164  33.153  30.778  1.00  0.00     0.020 A 
ATOM     75  C   UNL A   1      35.923  34.333  28.797  1.00  0.00     0.020 A 
ATOM     76  C   UNL A   1      34.933  34.063  29.742  1.00  0.00     0.054 A 
BRANCH  76  77
ATOM     77  S   UNL A   1      33.331  34.914  29.668  1.00  0.00     0.124 S 
ATOM     78  O   UNL A   1      32.875  34.823  31.052  1.00  0.00    -0.237 OA
ATOM     79  O   UNL A   1      33.706  36.249  29.212  1.00  0.00    -0.237 OA
ATOM     80  O   UNL A   1      32.567  34.125  28.705  1.00  0.00    -0.744 OA
ENDBRANCH  76  77
ENDBRANCH  48  71
BRANCH  60  81
ATOM     81  C   UNL A   1      43.331  34.075  33.422  1.00  0.00    -0.014 A 
ATOM     82  C   UNL A   1      43.858  35.260  32.882  1.00  0.00     0.010 A 
ATOM     83  C   UNL A   1      43.098  33.997  34.808  1.00  0.00     0.010 A 
ATOM     84  C   UNL A   1      44.143  36.346  33.715  1.00  0.00     0.020 A 
ATOM     85  C   UNL A   1      43.355  35.090  35.639  1.00  0.00     0.020 A 
ATOM     86  C   UNL A   1      43.879  36.259  35.086  1.00  0.00     0.054 A 
BRANCH  86  87
ATOM     87  S   UNL A   1      44.160  37.718  36.127  1.00  0.00     0.124 S 
ATOM     88  O   UNL A   1      43.794  38.809  35.229  1.00  0.00    -0.237 OA
ATOM     89  O   UNL A   1      43.249  37.492  37.247  1.00  0.00    -0.237 OA
ATOM     90  O   UNL A   1      45.580  37.639  36.462  1.00  0.00    -0.744 OA
ENDBRANCH  86  87
ENDBRANCH  60  81
ENDBRANCH  34  35
ENDBRANCH  27  29
ENDBRANCH  26  27
ENDBRANCH  25  26
ENDBRANCH  24  25
ENDBRANCH  23  24
ENDBRANCH   1  23
TORSDOF 21
ENDMDL
MODEL 2
REMARK VINA RESULT:      -9.1      1.128      8.257
REMARK SMILES C[C@H]1[C@H](C(=O)OCCOCCOCCOC(=O)c2ccc(-c3c4nc(c(-c5ccc(S(=O)(=O)[O-])cc5)c5ccc([nH]5)c(-c5ccc(S(=O)(=O)[O-])cc5)c5nc(c(-c6ccc(S(=O)(=O)[O-])cc6)c6ccc3[nH]6)C=C5)C=C4)cc2)CC[N@H+]1[C@@H]1CCCC1(C)C
REMARK SMILES IDX 11 1 10 2 9 3 8 4 7 5 6 6 4 7 5 8 3 9 1 10 2 11 80 12 78 13
REMARK SMILES IDX 79 14 81 16 82 17 85 18 83 19 84 20 86 21 87 22 12 23 13 24
REMARK SMILES IDX 14 25 15 26 16 27 17 28 18 29 19 30 77 31 20 32 76 33 21 34
REMARK SMILES IDX 22 35 23 36 70 37 24 38 75 39 69 40 71 41 25 42 74 43 68 44
REMARK SMILES IDX 67 45 26 47 56 48 37 49 55 50 38 51 41 52 54 53 72 54 39 55
REMARK SMILES IDX 40 56 53 58 73 59 42 60 27 61 28 62 36 63 29 64 35 65 30 66
REMARK SMILES IDX 31 67 32 68 33 69 34 70 57 71 58 72 66 73 59 74 65 75 60 76
REMARK SMILES IDX 61 77 62 78 63 79 64 80 43 81 44 82 52 83 45 84 51 85 46 86
REMARK SMILES IDX 47 87 48 88 49 89 50 90
REMARK H PARENT 80 15 71 46 41 57
REMARK Flexibility Score: inf
ROOT
ATOM      1  C   UNL A   1      33.690  21.453  23.870  1.00  0.00     0.188 C 
ENDROOT
BRANCH   1   2
ATOM      2  C   UNL A   1      32.283  21.611  24.469  1.00  0.00     0.188 C 
BRANCH   2   3
ATOM      3  O   UNL A   1      31.840  22.895  24.899  1.00  0.00    -0.376 OA
BRANCH   3   4
ATOM      4  C   UNL A   1      30.798  23.552  24.197  1.00  0.00     0.202 C 
BRANCH   4   5
ATOM      5  C   UNL A   1      31.174  24.413  22.979  1.00  0.00     0.261 C 
BRANCH   5   6
ATOM      6  O   UNL A   1      32.527  24.278  22.478  1.00  0.00    -0.463 OA
BRANCH   6   7
ATOM      7  C   UNL A   1      33.103  25.419  22.023  1.00  0.00     0.315 C 
ATOM      8  O   UNL A   1      33.133  25.733  20.835  1.00  0.00    -0.252 OA
BRANCH   7   9
ATOM      9  C   UNL A   1      33.794  26.295  23.062  1.00  0.00     0.162 C 
ATOM     10  C   UNL A   1      33.988  28.788  22.831  1.00  0.00     0.076 C 
ATOM     11  C   UNL A   1      33.251  27.654  23.559  1.00  0.00     0.195 C 
ATOM     12  N   UNL A   1      33.393  27.651  25.042  1.00  0.00    -0.329 N 
ATOM     13  C   UNL A   1      33.951  25.472  24.322  1.00  0.00     0.083 C 
ATOM     14  C   UNL A   1      34.199  26.493  25.407  1.00  0.00     0.263 C 
ATOM     15  H   UNL A   1      32.455  27.556  25.431  1.00  0.00     0.348 HD
BRANCH  12  16
ATOM     16  C   UNL A   1      33.672  28.919  25.745  1.00  0.00     0.189 C 
ATOM     17  C   UNL A   1      34.862  28.958  26.738  1.00  0.00     0.066 C 
ATOM     18  C   UNL A   1      32.506  29.608  26.540  1.00  0.00     0.017 C 
ATOM     19  C   UNL A   1      34.542  30.021  27.789  1.00  0.00     0.007 C 
ATOM     20  C   UNL A   1      33.269  30.704  27.315  1.00  0.00     0.013 C 
ATOM     21  C   UNL A   1      31.470  30.245  25.605  1.00  0.00     0.017 C 
ATOM     22  C   UNL A   1      31.773  28.712  27.552  1.00  0.00     0.017 C 
ENDBRANCH  12  16
ENDBRANCH   7   9
ENDBRANCH   6   7
ENDBRANCH   5   6
ENDBRANCH   4   5
ENDBRANCH   3   4
ENDBRANCH   2   3
ENDBRANCH   1   2
BRANCH   1  23
ATOM     23  O   UNL A   1      34.698  22.066  24.643  1.00  0.00    -0.376 OA
BRANCH  23  24
ATOM     24  C   UNL A   1      35.840  22.527  23.959  1.00  0.00     0.202 C 
BRANCH  24  25
ATOM     25  C   UNL A   1      37.178  22.191  24.627  1.00  0.00     0.261 C 
BRANCH  25  26
ATOM     26  O   UNL A   1      37.629  23.094  25.653  1.00  0.00    -0.460 OA
BRANCH  26  27
ATOM     27  C   UNL A   1      38.881  22.923  26.131  1.00  0.00     0.338 C 
ATOM     28  O   UNL A   1      39.631  21.987  25.894  1.00  0.00    -0.246 OA
BRANCH  27  29
ATOM     29  C   UNL A   1      39.274  24.167  26.830  1.00  0.00     0.060 A 
ATOM     30  C   UNL A   1      40.065  25.117  26.169  1.00  0.00     0.016 A 
ATOM     31  C   UNL A   1      38.855  24.394  28.141  1.00  0.00     0.016 A 
ATOM     32  C   UNL A   1      40.444  26.298  26.818  1.00  0.00     0.010 A 
ATOM     33  C   UNL A   1      39.259  25.558  28.799  1.00  0.00     0.010 A 
ATOM     34  C   UNL A   1      40.072  26.508  28.150  1.00  0.00    -0.014 A 
BRANCH  34  35
ATOM     35  C   UNL A   1      40.667  27.603  28.957  1.00  0.00     0.031 A 
ATOM     36  C   UNL A   1      39.836  28.835  29.188  1.00  0.00     0.074 A 
ATOM     37  C   UNL A   1      41.927  27.542  29.426  1.00  0.00     0.049 A 
ATOM     38  N   UNL A   1      40.194  30.007  29.639  1.00  0.00    -0.248 NA
ATOM     39  C   UNL A   1      38.406  28.727  28.852  1.00  0.00     0.031 C 
ATOM     40  C   UNL A   1      42.807  26.379  29.348  1.00  0.00     0.029 A 
ATOM     41  N   UNL A   1      42.695  28.506  30.037  1.00  0.00    -0.354 N 
ATOM     42  C   UNL A   1      39.045  30.789  29.602  1.00  0.00     0.074 A 
ATOM     43  C   UNL A   1      37.981  29.960  29.081  1.00  0.00     0.031 C 
ATOM     44  C   UNL A   1      44.007  26.704  29.865  1.00  0.00     0.029 A 
ATOM     45  C   UNL A   1      43.997  28.116  30.249  1.00  0.00     0.049 A 
ATOM     46  H   UNL A   1      42.346  29.389  30.297  1.00  0.00     0.167 HD
ATOM     47  C   UNL A   1      38.896  32.087  29.959  1.00  0.00     0.031 A 
ATOM     48  C   UNL A   1      45.069  28.829  30.654  1.00  0.00     0.031 A 
ATOM     49  C   UNL A   1      39.964  32.905  30.464  1.00  0.00     0.049 A 
ATOM     50  C   UNL A   1      44.907  30.301  30.953  1.00  0.00     0.074 A 
ATOM     51  C   UNL A   1      39.920  34.231  30.855  1.00  0.00     0.029 A 
ATOM     52  N   UNL A   1      41.272  32.476  30.645  1.00  0.00    -0.354 N 
ATOM     53  N   UNL A   1      43.822  31.039  30.897  1.00  0.00    -0.248 NA
ATOM     54  C   UNL A   1      46.111  31.039  31.363  1.00  0.00     0.031 C 
ATOM     55  C   UNL A   1      41.214  34.622  31.210  1.00  0.00     0.029 A 
ATOM     56  C   UNL A   1      42.047  33.519  31.118  1.00  0.00     0.049 A 
ATOM     57  H   UNL A   1      41.598  31.565  30.462  1.00  0.00     0.167 HD
ATOM     58  C   UNL A   1      44.206  32.313  31.308  1.00  0.00     0.074 A 
ATOM     59  C   UNL A   1      45.622  32.249  31.604  1.00  0.00     0.031 C 
ATOM     60  C   UNL A   1      43.451  33.432  31.436  1.00  0.00     0.031 A 
BRANCH  47  61
ATOM     61  C   UNL A   1      37.543  32.717  29.758  1.00  0.00    -0.014 A 
ATOM     62  C   UNL A   1      36.592  32.766  30.792  1.00  0.00     0.010 A 
ATOM     63  C   UNL A   1      37.232  33.303  28.516  1.00  0.00     0.010 A 
ATOM     64  C   UNL A   1      35.342  33.353  30.577  1.00  0.00     0.020 A 
ATOM     65  C   UNL A   1      35.997  33.920  28.306  1.00  0.00     0.020 A 
ATOM     66  C   UNL A   1      35.053  33.926  29.335  1.00  0.00     0.054 A 
BRANCH  66  67
ATOM     67  S   UNL A   1      33.432  34.700  29.091  1.00  0.00     0.124 S 
ATOM     68  O   UNL A   1      32.870  34.654  30.439  1.00  0.00    -0.237 OA
ATOM     69  O   UNL A   1      33.783  36.031  28.602  1.00  0.00    -0.237 OA
ATOM     70  O   UNL A   1      32.774  33.834  28.115  1.00  0.00    -0.744 OA
ENDBRANCH  66  67
ENDBRANCH  47  61
BRANCH  48  71
ATOM     71  C   UNL A   1      46.406  28.177  30.760  1.00  0.00    -0.014 A 
ATOM     72  C   UNL A   1      47.269  28.127  29.650  1.00  0.00     0.010 A 
ATOM     73  C   UNL A   1      46.822  27.594  31.972  1.00  0.00     0.010 A 
ATOM     74  C   UNL A   1      48.514  27.497  29.748  1.00  0.00     0.020 A 
ATOM     75  C   UNL A   1      48.080  26.991  32.082  1.00  0.00     0.020 A 
ATOM     76  C   UNL A   1      48.914  26.937  30.965  1.00  0.00     0.054 A 
BRANCH  76  77
ATOM     77  S   UNL A   1      50.554  26.169  31.076  1.00  0.00     0.124 S 
ATOM     78  O   UNL A   1      50.752  26.082  32.520  1.00  0.00    -0.237 OA
ATOM     79  O   UNL A   1      50.353  24.897  30.388  1.00  0.00    -0.237 OA
ATOM     80  O   UNL A   1      51.425  27.115  30.382  1.00  0.00    -0.744 OA
ENDBRANCH  76  77
ENDBRANCH  48  71
BRANCH  60  81
ATOM     81  C   UNL A   1      44.101  34.673  31.992  1.00  0.00    -0.014 A 
ATOM     82  C   UNL A   1      44.100  34.955  33.368  1.00  0.00     0.010 A 
ATOM     83  C   UNL A   1      44.838  35.500  31.122  1.00  0.00     0.010 A 
ATOM     84  C   UNL A   1      44.825  36.043  33.863  1.00  0.00     0.020 A 
ATOM     85  C   UNL A   1      45.586  36.570  31.618  1.00  0.00     0.020 A 
ATOM     86  C   UNL A   1      45.573  36.837  32.987  1.00  0.00     0.054 A 
BRANCH  86  87
ATOM     87  S   UNL A   1      46.587  38.177  33.670  1.00  0.00     0.124 S 
ATOM     88  O   UNL A   1      46.697  37.793  35.074  1.00  0.00    -0.237 OA
ATOM     89  O   UNL A   1      47.820  38.073  32.891  1.00  0.00    -0.237 OA
ATOM     90  O   UNL A   1      45.796  39.378  33.413  1.00  0.00    -0.744 OA
ENDBRANCH  86  87
ENDBRANCH  60  81
ENDBRANCH  34  35
ENDBRANCH  27  29
ENDBRANCH  26  27
ENDBRANCH  25  26
ENDBRANCH  24  25
ENDBRANCH  23  24
ENDBRANCH   1  23
TORSDOF 21
ENDMDL
MODEL 3
REMARK VINA RESULT:      -9.0      2.687      8.468
REMARK SMILES C[C@H]1[C@H](C(=O)OCCOCCOCCOC(=O)c2ccc(-c3c4nc(c(-c5ccc(S(=O)(=O)[O-])cc5)c5ccc([nH]5)c(-c5ccc(S(=O)(=O)[O-])cc5)c5nc(c(-c6ccc(S(=O)(=O)[O-])cc6)c6ccc3[nH]6)C=C5)C=C4)cc2)CC[N@H+]1[C@@H]1CCCC1(C)C
REMARK SMILES IDX 11 1 10 2 9 3 8 4 7 5 6 6 4 7 5 8 3 9 1 10 2 11 80 12 78 13
REMARK SMILES IDX 79 14 81 16 82 17 85 18 83 19 84 20 86 21 87 22 12 23 13 24
REMARK SMILES IDX 14 25 15 26 16 27 17 28 18 29 19 30 77 31 20 32 76 33 21 34
REMARK SMILES IDX 22 35 23 36 70 37 24 38 75 39 69 40 71 41 25 42 74 43 68 44
REMARK SMILES IDX 67 45 26 47 56 48 37 49 55 50 38 51 41 52 54 53 72 54 39 55
REMARK SMILES IDX 40 56 53 58 73 59 42 60 27 61 28 62 36 63 29 64 35 65 30 66
REMARK SMILES IDX 31 67 32 68 33 69 34 70 57 71 58 72 66 73 59 74 65 75 60 76
REMARK SMILES IDX 61 77 62 78 63 79 64 80 43 81 44 82 52 83 45 84 51 85 46 86
REMARK SMILES IDX 47 87 48 88 49 89 50 90
REMARK H PARENT 80 15 71 46 41 57
REMARK Flexibility Score: inf
ROOT
ATOM      1  C   UNL A   1      33.972  21.146  23.919  1.00  0.00     0.188 C 
ENDROOT
BRANCH   1   2
ATOM      2  C   UNL A   1      32.542  21.162  24.483  1.00  0.00     0.188 C 
BRANCH   2   3
ATOM      3  O   UNL A   1      31.926  22.405  24.808  1.00  0.00    -0.376 OA
BRANCH   3   4
ATOM      4  C   UNL A   1      30.976  22.972  23.921  1.00  0.00     0.202 C 
BRANCH   4   5
ATOM      5  C   UNL A   1      31.466  24.020  22.907  1.00  0.00     0.261 C 
BRANCH   5   6
ATOM      6  O   UNL A   1      32.898  24.131  22.725  1.00  0.00    -0.463 OA
BRANCH   6   7
ATOM      7  C   UNL A   1      33.344  25.332  22.278  1.00  0.00     0.315 C 
ATOM      8  O   UNL A   1      33.325  25.662  21.095  1.00  0.00    -0.252 OA
BRANCH   7   9
ATOM      9  C   UNL A   1      33.953  26.263  23.321  1.00  0.00     0.162 C 
ATOM     10  C   UNL A   1      34.185  28.739  22.968  1.00  0.00     0.076 C 
ATOM     11  C   UNL A   1      33.380  27.650  23.693  1.00  0.00     0.195 C 
ATOM     12  N   UNL A   1      33.397  27.729  25.181  1.00  0.00    -0.329 N 
ATOM     13  C   UNL A   1      33.997  25.512  24.634  1.00  0.00     0.083 C 
ATOM     14  C   UNL A   1      34.161  26.592  25.677  1.00  0.00     0.263 C 
ATOM     15  H   UNL A   1      32.430  27.659  25.495  1.00  0.00     0.348 HD
BRANCH  12  16
ATOM     16  C   UNL A   1      33.627  29.035  25.834  1.00  0.00     0.189 C 
ATOM     17  C   UNL A   1      34.770  29.142  26.874  1.00  0.00     0.066 C 
ATOM     18  C   UNL A   1      32.416  29.741  26.542  1.00  0.00     0.017 C 
ATOM     19  C   UNL A   1      34.389  30.248  27.858  1.00  0.00     0.007 C 
ATOM     20  C   UNL A   1      33.128  30.886  27.296  1.00  0.00     0.013 C 
ATOM     21  C   UNL A   1      31.413  30.314  25.534  1.00  0.00     0.017 C 
ATOM     22  C   UNL A   1      31.653  28.882  27.565  1.00  0.00     0.017 C 
ENDBRANCH  12  16
ENDBRANCH   7   9
ENDBRANCH   6   7
ENDBRANCH   5   6
ENDBRANCH   4   5
ENDBRANCH   3   4
ENDBRANCH   2   3
ENDBRANCH   1   2
BRANCH   1  23
ATOM     23  O   UNL A   1      34.923  21.716  24.791  1.00  0.00    -0.376 OA
BRANCH  23  24
ATOM     24  C   UNL A   1      36.058  22.307  24.204  1.00  0.00     0.202 C 
BRANCH  24  25
ATOM     25  C   UNL A   1      37.404  21.799  24.733  1.00  0.00     0.261 C 
BRANCH  25  26
ATOM     26  O   UNL A   1      37.917  22.447  25.911  1.00  0.00    -0.460 OA
BRANCH  26  27
ATOM     27  C   UNL A   1      39.203  22.206  26.248  1.00  0.00     0.338 C 
ATOM     28  O   UNL A   1      39.853  21.205  25.979  1.00  0.00    -0.246 OA
BRANCH  27  29
ATOM     29  C   UNL A   1      39.762  23.448  26.826  1.00  0.00     0.060 A 
ATOM     30  C   UNL A   1      39.682  24.648  26.106  1.00  0.00     0.016 A 
ATOM     31  C   UNL A   1      40.363  23.425  28.085  1.00  0.00     0.016 A 
ATOM     32  C   UNL A   1      40.206  25.831  26.640  1.00  0.00     0.010 A 
ATOM     33  C   UNL A   1      40.913  24.599  28.604  1.00  0.00     0.010 A 
ATOM     34  C   UNL A   1      40.857  25.805  27.878  1.00  0.00    -0.014 A 
BRANCH  34  35
ATOM     35  C   UNL A   1      41.656  26.960  28.358  1.00  0.00     0.031 A 
ATOM     36  C   UNL A   1      40.914  28.144  28.913  1.00  0.00     0.074 A 
ATOM     37  C   UNL A   1      42.998  26.994  28.255  1.00  0.00     0.049 A 
ATOM     38  N   UNL A   1      41.344  29.351  29.169  1.00  0.00    -0.248 NA
ATOM     39  C   UNL A   1      39.486  27.936  29.209  1.00  0.00     0.031 C 
ATOM     40  C   UNL A   1      43.844  25.886  27.818  1.00  0.00     0.029 A 
ATOM     41  N   UNL A   1      43.881  28.023  28.485  1.00  0.00    -0.354 N 
ATOM     42  C   UNL A   1      40.233  30.058  29.615  1.00  0.00     0.074 A 
ATOM     43  C   UNL A   1      39.110  29.146  29.591  1.00  0.00     0.031 C 
ATOM     44  C   UNL A   1      45.124  26.303  27.783  1.00  0.00     0.029 A 
ATOM     45  C   UNL A   1      45.177  27.723  28.132  1.00  0.00     0.049 A 
ATOM     46  H   UNL A   1      43.611  28.890  28.865  1.00  0.00     0.167 HD
ATOM     47  C   UNL A   1      40.156  31.355  29.998  1.00  0.00     0.031 A 
ATOM     48  C   UNL A   1      46.267  28.514  28.048  1.00  0.00     0.031 A 
ATOM     49  C   UNL A   1      41.277  32.254  30.006  1.00  0.00     0.049 A 
ATOM     50  C   UNL A   1      46.140  29.982  28.383  1.00  0.00     0.074 A 
ATOM     51  C   UNL A   1      41.307  33.586  30.376  1.00  0.00     0.029 A 
ATOM     52  N   UNL A   1      42.566  31.913  29.623  1.00  0.00    -0.354 N 
ATOM     53  N   UNL A   1      45.083  30.648  28.786  1.00  0.00    -0.248 NA
ATOM     54  C   UNL A   1      47.351  30.807  28.248  1.00  0.00     0.031 C 
ATOM     55  C   UNL A   1      42.599  34.069  30.154  1.00  0.00     0.029 A 
ATOM     56  C   UNL A   1      43.393  33.017  29.724  1.00  0.00     0.049 A 
ATOM     57  H   UNL A   1      42.850  31.019  29.323  1.00  0.00     0.167 HD
ATOM     58  C   UNL A   1      45.512  31.956  28.994  1.00  0.00     0.074 A 
ATOM     59  C   UNL A   1      46.923  31.991  28.669  1.00  0.00     0.031 C 
ATOM     60  C   UNL A   1      44.804  33.029  29.424  1.00  0.00     0.031 A 
BRANCH  47  61
ATOM     61  C   UNL A   1      38.802  31.891  30.382  1.00  0.00    -0.014 A 
ATOM     62  C   UNL A   1      38.337  31.837  31.707  1.00  0.00     0.010 A 
ATOM     63  C   UNL A   1      37.995  32.493  29.398  1.00  0.00     0.010 A 
ATOM     64  C   UNL A   1      37.074  32.340  32.034  1.00  0.00     0.020 A 
ATOM     65  C   UNL A   1      36.746  33.026  29.726  1.00  0.00     0.020 A 
ATOM     66  C   UNL A   1      36.287  32.930  31.041  1.00  0.00     0.054 A 
BRANCH  66  67
ATOM     67  S   UNL A   1      34.663  33.593  31.499  1.00  0.00     0.124 S 
ATOM     68  O   UNL A   1      35.023  34.854  32.145  1.00  0.00    -0.237 OA
ATOM     69  O   UNL A   1      33.993  33.718  30.207  1.00  0.00    -0.237 OA
ATOM     70  O   UNL A   1      34.109  32.576  32.390  1.00  0.00    -0.744 OA
ENDBRANCH  66  67
ENDBRANCH  47  61
BRANCH  48  71
ATOM     71  C   UNL A   1      47.567  27.952  27.585  1.00  0.00    -0.014 A 
ATOM     72  C   UNL A   1      47.918  27.982  26.223  1.00  0.00     0.010 A 
ATOM     73  C   UNL A   1      48.462  27.373  28.504  1.00  0.00     0.010 A 
ATOM     74  C   UNL A   1      49.130  27.435  25.790  1.00  0.00     0.020 A 
ATOM     75  C   UNL A   1      49.690  26.854  28.079  1.00  0.00     0.020 A 
ATOM     76  C   UNL A   1      50.011  26.878  26.721  1.00  0.00     0.054 A 
BRANCH  76  77
ATOM     77  S   UNL A   1      51.598  26.220  26.138  1.00  0.00     0.124 S 
ATOM     78  O   UNL A   1      52.556  27.020  26.894  1.00  0.00    -0.237 OA
ATOM     79  O   UNL A   1      51.512  24.812  26.516  1.00  0.00    -0.237 OA
ATOM     80  O   UNL A   1      51.568  26.475  24.699  1.00  0.00    -0.744 OA
ENDBRANCH  76  77
ENDBRANCH  48  71
BRANCH  60  81
ATOM     81  C   UNL A   1      45.537  34.326  29.652  1.00  0.00    -0.014 A 
ATOM     82  C   UNL A   1      46.186  34.604  30.866  1.00  0.00     0.010 A 
ATOM     83  C   UNL A   1      45.684  35.221  28.575  1.00  0.00     0.010 A 
ATOM     84  C   UNL A   1      46.968  35.756  30.998  1.00  0.00     0.020 A 
ATOM     85  C   UNL A   1      46.488  36.357  28.695  1.00  0.00     0.020 A 
ATOM     86  C   UNL A   1      47.123  36.619  29.908  1.00  0.00     0.054 A 
BRANCH  86  87
ATOM     87  S   UNL A   1      48.227  38.049  30.075  1.00  0.00     0.124 S 
ATOM     88  O   UNL A   1      49.395  37.625  29.308  1.00  0.00    -0.237 OA
ATOM     89  O   UNL A   1      47.443  39.128  29.479  1.00  0.00    -0.237 OA
ATOM     90  O   UNL A   1      48.436  38.162  31.516  1.00  0.00    -0.744 OA
ENDBRANCH  86  87
ENDBRANCH  60  81
ENDBRANCH  34  35
ENDBRANCH  27  29
ENDBRANCH  26  27
ENDBRANCH  25  26
ENDBRANCH  24  25
ENDBRANCH  23  24
ENDBRANCH   1  23
TORSDOF 21
ENDMDL
