MODEL 1
REMARK VINA RESULT:     -10.6      0.000      0.000
REMARK SMILES Cc1nsc(N(C)S(=O)(=O)c2cn[nH]c2C)c1C(=O)OCCOCCOCCOC(=O)c1ccc(-c2c3nc(c(-c4ccc(S(=O)(=O)[O-])cc4)c4ccc([nH]4)c(-c4ccc(S(=O)(=O)[O-])cc4)c4nc(c(-c5ccc(S(=O)(=O)[O-])cc5)c5ccc2[nH]5)C=C4)C=C3)cc1
REMARK SMILES IDX 24 1 23 2 22 3 21 4 20 5 18 6 19 7 17 8 1 9 2 10 3 11 4 12
REMARK SMILES IDX 5 13 6 14 7 15 8 16 9 17 10 18 11 19 12 20 15 21 13 22 14 23
REMARK SMILES IDX 16 24 25 26 26 27 27 28 28 29 29 30 30 31 31 32 32 33 33 34
REMARK SMILES IDX 91 35 34 36 90 37 35 38 36 39 37 40 84 41 38 42 89 43 83 44
REMARK SMILES IDX 85 45 39 46 88 47 82 48 81 49 40 51 70 52 51 53 69 54 52 55
REMARK SMILES IDX 55 56 68 57 86 58 53 59 54 60 67 62 87 63 56 64 41 65 42 66
REMARK SMILES IDX 50 67 43 68 49 69 44 70 45 71 46 72 47 73 48 74 71 75 72 76
REMARK SMILES IDX 80 77 73 78 79 79 74 80 75 81 76 82 77 83 78 84 57 85 58 86
REMARK SMILES IDX 66 87 59 88 65 89 60 90 61 91 62 92 63 93 64 94
REMARK H PARENT 14 25 85 50 55 61
REMARK Flexibility Score: inf
ROOT
ATOM      1  C   UNL A   1      41.033  21.385  26.597  1.00  0.00     0.188 C 
ENDROOT
BRANCH   1   2
ATOM      2  O   UNL A   1      39.638  21.390  26.856  1.00  0.00    -0.376 OA
BRANCH   2   3
ATOM      3  C   UNL A   1      38.890  22.483  26.331  1.00  0.00     0.202 C 
BRANCH   3   4
ATOM      4  C   UNL A   1      38.008  22.111  25.137  1.00  0.00     0.261 C 
BRANCH   4   5
ATOM      5  O   UNL A   1      37.077  23.155  24.822  1.00  0.00    -0.460 OA
BRANCH   5   6
ATOM      6  C   UNL A   1      36.077  22.890  23.932  1.00  0.00     0.343 C 
ATOM      7  O   UNL A   1      36.182  22.948  22.729  1.00  0.00    -0.246 OA
BRANCH   6   8
ATOM      8  C   UNL A   1      34.849  22.556  24.651  1.00  0.00     0.118 A 
ATOM      9  C   UNL A   1      35.501  20.006  24.971  1.00  0.00     0.069 C 
ATOM     10  C   UNL A   1      34.616  21.202  25.154  1.00  0.00     0.068 A 
ATOM     11  N   UNL A   1      33.484  21.004  25.818  1.00  0.00    -0.195 NA
ATOM     12  S   UNL A   1      32.610  22.384  25.806  1.00  0.00    -0.017 S 
ATOM     13  C   UNL A   1      33.736  23.365  24.911  1.00  0.00     0.140 A 
BRANCH  13  14
ATOM     14  N   UNL A   1      33.333  24.729  24.534  1.00  0.00    -0.258 N 
ATOM     15  C   UNL A   1      34.008  25.866  25.205  1.00  0.00     0.165 C 
BRANCH  14  16
ATOM     16  S   UNL A   1      32.692  25.070  23.011  1.00  0.00     0.268 S 
ATOM     17  O   UNL A   1      33.729  25.695  22.217  1.00  0.00    -0.201 OA
ATOM     18  O   UNL A   1      31.923  23.942  22.547  1.00  0.00    -0.201 OA
BRANCH  16  19
ATOM     19  C   UNL A   1      31.465  26.278  23.074  1.00  0.00     0.128 A 
ATOM     20  C   UNL A   1      31.274  27.201  22.030  1.00  0.00     0.157 A 
ATOM     21  C   UNL A   1      30.434  26.527  23.966  1.00  0.00     0.053 A 
ATOM     22  N   UNL A   1      30.250  28.025  22.260  1.00  0.00    -0.183 NA
ATOM     23  N   UNL A   1      29.754  27.595  23.432  1.00  0.00    -0.281 N 
ATOM     24  C   UNL A   1      29.977  25.897  25.225  1.00  0.00     0.067 C 
ATOM     25  H   UNL A   1      28.974  28.008  23.869  1.00  0.00     0.190 HD
ENDBRANCH  16  19
ENDBRANCH  14  16
ENDBRANCH  13  14
ENDBRANCH   6   8
ENDBRANCH   5   6
ENDBRANCH   4   5
ENDBRANCH   3   4
ENDBRANCH   2   3
ENDBRANCH   1   2
BRANCH   1  26
ATOM     26  C   UNL A   1      41.718  20.006  26.711  1.00  0.00     0.188 C 
BRANCH  26  27
ATOM     27  O   UNL A   1      42.149  19.288  25.564  1.00  0.00    -0.376 OA
BRANCH  27  28
ATOM     28  C   UNL A   1      43.392  18.605  25.571  1.00  0.00     0.202 C 
BRANCH  28  29
ATOM     29  C   UNL A   1      44.513  19.113  24.671  1.00  0.00     0.261 C 
BRANCH  29  30
ATOM     30  O   UNL A   1      44.268  20.381  24.073  1.00  0.00    -0.460 OA
BRANCH  30  31
ATOM     31  C   UNL A   1      45.097  21.365  24.487  1.00  0.00     0.338 C 
ATOM     32  O   UNL A   1      46.297  21.449  24.284  1.00  0.00    -0.246 OA
BRANCH  31  33
ATOM     33  C   UNL A   1      44.358  22.305  25.343  1.00  0.00     0.060 A 
ATOM     34  C   UNL A   1      43.584  23.274  24.699  1.00  0.00     0.016 A 
ATOM     35  C   UNL A   1      44.639  22.380  26.715  1.00  0.00     0.016 A 
ATOM     36  C   UNL A   1      43.257  24.425  25.388  1.00  0.00     0.010 A 
ATOM     37  C   UNL A   1      44.321  23.537  27.398  1.00  0.00     0.010 A 
ATOM     38  C   UNL A   1      43.710  24.578  26.701  1.00  0.00    -0.014 A 
BRANCH  38  39
ATOM     39  C   UNL A   1      43.552  25.877  27.326  1.00  0.00     0.031 A 
ATOM     40  C   UNL A   1      44.661  26.820  27.096  1.00  0.00     0.074 A 
ATOM     41  C   UNL A   1      42.429  26.231  27.981  1.00  0.00     0.049 A 
ATOM     42  N   UNL A   1      45.500  27.283  27.961  1.00  0.00    -0.248 NA
ATOM     43  C   UNL A   1      44.939  27.206  25.705  1.00  0.00     0.031 C 
ATOM     44  C   UNL A   1      41.162  25.492  28.019  1.00  0.00     0.029 A 
ATOM     45  N   UNL A   1      42.147  27.380  28.661  1.00  0.00    -0.354 N 
ATOM     46  C   UNL A   1      46.275  28.198  27.263  1.00  0.00     0.074 A 
ATOM     47  C   UNL A   1      46.016  27.975  25.861  1.00  0.00     0.031 C 
ATOM     48  C   UNL A   1      40.193  26.301  28.501  1.00  0.00     0.029 A 
ATOM     49  C   UNL A   1      40.796  27.552  28.931  1.00  0.00     0.049 A 
ATOM     50  H   UNL A   1      42.837  28.026  28.935  1.00  0.00     0.167 HD
ATOM     51  C   UNL A   1      46.853  29.261  27.881  1.00  0.00     0.031 A 
ATOM     52  C   UNL A   1      40.197  28.654  29.438  1.00  0.00     0.031 A 
ATOM     53  C   UNL A   1      46.852  29.130  29.314  1.00  0.00     0.049 A 
ATOM     54  C   UNL A   1      41.220  29.457  30.144  1.00  0.00     0.074 A 
ATOM     55  C   UNL A   1      47.514  28.355  30.240  1.00  0.00     0.029 A 
ATOM     56  N   UNL A   1      45.773  29.692  29.948  1.00  0.00    -0.354 N 
ATOM     57  N   UNL A   1      41.815  29.055  31.230  1.00  0.00    -0.248 NA
ATOM     58  C   UNL A   1      41.839  30.601  29.487  1.00  0.00     0.031 C 
ATOM     59  C   UNL A   1      46.651  28.271  31.372  1.00  0.00     0.029 A 
ATOM     60  C   UNL A   1      45.495  29.005  31.103  1.00  0.00     0.049 A 
ATOM     61  H   UNL A   1      45.271  30.474  29.622  1.00  0.00     0.167 HD
ATOM     62  C   UNL A   1      43.083  29.600  31.158  1.00  0.00     0.074 A 
ATOM     63  C   UNL A   1      42.981  30.671  30.180  1.00  0.00     0.031 C 
ATOM     64  C   UNL A   1      44.158  28.933  31.663  1.00  0.00     0.031 A 
BRANCH  51  65
ATOM     65  C   UNL A   1      47.007  30.604  27.215  1.00  0.00    -0.014 A 
ATOM     66  C   UNL A   1      48.268  31.229  27.206  1.00  0.00     0.010 A 
ATOM     67  C   UNL A   1      45.896  31.395  26.846  1.00  0.00     0.010 A 
ATOM     68  C   UNL A   1      48.402  32.585  26.875  1.00  0.00     0.020 A 
ATOM     69  C   UNL A   1      46.024  32.731  26.470  1.00  0.00     0.020 A 
ATOM     70  C   UNL A   1      47.275  33.327  26.518  1.00  0.00     0.054 A 
BRANCH  70  71
ATOM     71  S   UNL A   1      47.438  35.098  26.186  1.00  0.00     0.124 S 
ATOM     72  O   UNL A   1      47.712  35.628  27.519  1.00  0.00    -0.237 OA
ATOM     73  O   UNL A   1      48.552  35.137  25.244  1.00  0.00    -0.237 OA
ATOM     74  O   UNL A   1      46.139  35.459  25.622  1.00  0.00    -0.744 OA
ENDBRANCH  70  71
ENDBRANCH  51  65
BRANCH  52  75
ATOM     75  C   UNL A   1      38.823  29.145  29.191  1.00  0.00    -0.014 A 
ATOM     76  C   UNL A   1      38.054  29.705  30.227  1.00  0.00     0.010 A 
ATOM     77  C   UNL A   1      38.365  29.299  27.867  1.00  0.00     0.010 A 
ATOM     78  C   UNL A   1      36.898  30.449  29.940  1.00  0.00     0.020 A 
ATOM     79  C   UNL A   1      37.210  30.030  27.576  1.00  0.00     0.020 A 
ATOM     80  C   UNL A   1      36.496  30.624  28.613  1.00  0.00     0.054 A 
BRANCH  80  81
ATOM     81  S   UNL A   1      35.109  31.736  28.242  1.00  0.00     0.124 S 
ATOM     82  O   UNL A   1      34.285  30.920  27.355  1.00  0.00    -0.237 OA
ATOM     83  O   UNL A   1      34.549  31.996  29.565  1.00  0.00    -0.237 OA
ATOM     84  O   UNL A   1      35.750  32.886  27.608  1.00  0.00    -0.744 OA
ENDBRANCH  80  81
ENDBRANCH  52  75
BRANCH  64  85
ATOM     85  C   UNL A   1      43.893  27.887  32.717  1.00  0.00    -0.014 A 
ATOM     86  C   UNL A   1      43.995  26.503  32.481  1.00  0.00     0.010 A 
ATOM     87  C   UNL A   1      43.593  28.329  34.017  1.00  0.00     0.010 A 
ATOM     88  C   UNL A   1      43.776  25.583  33.517  1.00  0.00     0.020 A 
ATOM     89  C   UNL A   1      43.392  27.418  35.057  1.00  0.00     0.020 A 
ATOM     90  C   UNL A   1      43.473  26.049  34.800  1.00  0.00     0.054 A 
BRANCH  90  91
ATOM     91  S   UNL A   1      43.234  24.855  36.144  1.00  0.00     0.124 S 
ATOM     92  O   UNL A   1      42.072  25.393  36.845  1.00  0.00    -0.237 OA
ATOM     93  O   UNL A   1      43.014  23.599  35.430  1.00  0.00    -0.237 OA
ATOM     94  O   UNL A   1      44.490  24.917  36.892  1.00  0.00    -0.744 OA
ENDBRANCH  90  91
ENDBRANCH  64  85
ENDBRANCH  38  39
ENDBRANCH  31  33
ENDBRANCH  30  31
ENDBRANCH  29  30
ENDBRANCH  28  29
ENDBRANCH  27  28
ENDBRANCH  26  27
ENDBRANCH   1  26
TORSDOF 23
ENDMDL
MODEL 2
REMARK VINA RESULT:     -10.5      1.910      2.445
REMARK SMILES Cc1nsc(N(C)S(=O)(=O)c2cn[nH]c2C)c1C(=O)OCCOCCOCCOC(=O)c1ccc(-c2c3nc(c(-c4ccc(S(=O)(=O)[O-])cc4)c4ccc([nH]4)c(-c4ccc(S(=O)(=O)[O-])cc4)c4nc(c(-c5ccc(S(=O)(=O)[O-])cc5)c5ccc2[nH]5)C=C4)C=C3)cc1
REMARK SMILES IDX 24 1 23 2 22 3 21 4 20 5 18 6 19 7 17 8 1 9 2 10 3 11 4 12
REMARK SMILES IDX 5 13 6 14 7 15 8 16 9 17 10 18 11 19 12 20 15 21 13 22 14 23
REMARK SMILES IDX 16 24 25 26 26 27 27 28 28 29 29 30 30 31 31 32 32 33 33 34
REMARK SMILES IDX 91 35 34 36 90 37 35 38 36 39 37 40 84 41 38 42 89 43 83 44
REMARK SMILES IDX 85 45 39 46 88 47 82 48 81 49 40 51 70 52 51 53 69 54 52 55
REMARK SMILES IDX 55 56 68 57 86 58 53 59 54 60 67 62 87 63 56 64 41 65 42 66
REMARK SMILES IDX 50 67 43 68 49 69 44 70 45 71 46 72 47 73 48 74 71 75 72 76
REMARK SMILES IDX 80 77 73 78 79 79 74 80 75 81 76 82 77 83 78 84 57 85 58 86
REMARK SMILES IDX 66 87 59 88 65 89 60 90 61 91 62 92 63 93 64 94
REMARK H PARENT 14 25 85 50 55 61
REMARK Flexibility Score: inf
ROOT
ATOM      1  C   UNL A   1      39.800  21.471  26.242  1.00  0.00     0.188 C 
ENDROOT
BRANCH   1   2
ATOM      2  O   UNL A   1      38.522  21.650  25.650  1.00  0.00    -0.376 OA
BRANCH   2   3
ATOM      3  C   UNL A   1      37.984  22.968  25.667  1.00  0.00     0.202 C 
BRANCH   3   4
ATOM      4  C   UNL A   1      36.494  23.022  26.012  1.00  0.00     0.261 C 
BRANCH   4   5
ATOM      5  O   UNL A   1      35.867  24.191  25.468  1.00  0.00    -0.460 OA
BRANCH   5   6
ATOM      6  C   UNL A   1      34.798  24.029  24.634  1.00  0.00     0.343 C 
ATOM      7  O   UNL A   1      34.860  23.967  23.428  1.00  0.00    -0.246 OA
BRANCH   6   8
ATOM      8  C   UNL A   1      33.563  23.974  25.415  1.00  0.00     0.118 A 
ATOM      9  C   UNL A   1      33.401  21.329  25.329  1.00  0.00     0.069 C 
ATOM     10  C   UNL A   1      32.944  22.692  25.753  1.00  0.00     0.068 A 
ATOM     11  N   UNL A   1      31.840  22.745  26.487  1.00  0.00    -0.195 NA
ATOM     12  S   UNL A   1      31.442  24.308  26.742  1.00  0.00    -0.017 S 
ATOM     13  C   UNL A   1      32.774  25.031  25.884  1.00  0.00     0.140 A 
BRANCH  13  14
ATOM     14  N   UNL A   1      32.800  26.493  25.732  1.00  0.00    -0.258 N 
ATOM     15  C   UNL A   1      33.924  27.239  26.348  1.00  0.00     0.165 C 
BRANCH  14  16
ATOM     16  S   UNL A   1      32.064  27.257  24.419  1.00  0.00     0.268 S 
ATOM     17  O   UNL A   1      30.634  27.256  24.643  1.00  0.00    -0.201 OA
ATOM     18  O   UNL A   1      32.802  28.449  24.079  1.00  0.00    -0.201 OA
BRANCH  16  19
ATOM     19  C   UNL A   1      32.235  26.358  22.960  1.00  0.00     0.128 A 
ATOM     20  C   UNL A   1      33.179  26.706  21.977  1.00  0.00     0.157 A 
ATOM     21  C   UNL A   1      31.669  25.176  22.510  1.00  0.00     0.053 A 
ATOM     22  N   UNL A   1      33.174  25.861  20.945  1.00  0.00    -0.183 NA
ATOM     23  N   UNL A   1      32.258  24.943  21.291  1.00  0.00    -0.281 N 
ATOM     24  C   UNL A   1      30.681  24.223  23.064  1.00  0.00     0.067 C 
ATOM     25  H   UNL A   1      32.030  24.171  20.723  1.00  0.00     0.190 HD
ENDBRANCH  16  19
ENDBRANCH  14  16
ENDBRANCH  13  14
ENDBRANCH   6   8
ENDBRANCH   5   6
ENDBRANCH   4   5
ENDBRANCH   3   4
ENDBRANCH   2   3
ENDBRANCH   1   2
BRANCH   1  26
ATOM     26  C   UNL A   1      40.332  20.023  26.233  1.00  0.00     0.188 C 
BRANCH  26  27
ATOM     27  O   UNL A   1      41.441  19.638  25.433  1.00  0.00    -0.376 OA
BRANCH  27  28
ATOM     28  C   UNL A   1      42.736  19.535  26.003  1.00  0.00     0.202 C 
BRANCH  28  29
ATOM     29  C   UNL A   1      43.824  20.490  25.527  1.00  0.00     0.261 C 
BRANCH  29  30
ATOM     30  O   UNL A   1      43.799  21.775  26.137  1.00  0.00    -0.460 OA
BRANCH  30  31
ATOM     31  C   UNL A   1      43.240  22.745  25.379  1.00  0.00     0.338 C 
ATOM     32  O   UNL A   1      43.319  22.868  24.168  1.00  0.00    -0.246 OA
BRANCH  31  33
ATOM     33  C   UNL A   1      42.587  23.735  26.247  1.00  0.00     0.060 A 
ATOM     34  C   UNL A   1      41.882  24.764  25.617  1.00  0.00     0.016 A 
ATOM     35  C   UNL A   1      42.889  23.782  27.616  1.00  0.00     0.016 A 
ATOM     36  C   UNL A   1      41.654  25.934  26.314  1.00  0.00     0.010 A 
ATOM     37  C   UNL A   1      42.671  24.956  28.307  1.00  0.00     0.010 A 
ATOM     38  C   UNL A   1      42.134  26.045  27.622  1.00  0.00    -0.014 A 
BRANCH  38  39
ATOM     39  C   UNL A   1      42.086  27.350  28.254  1.00  0.00     0.031 A 
ATOM     40  C   UNL A   1      43.281  28.187  28.050  1.00  0.00     0.074 A 
ATOM     41  C   UNL A   1      40.989  27.802  28.892  1.00  0.00     0.049 A 
ATOM     42  N   UNL A   1      44.144  28.566  28.932  1.00  0.00    -0.248 NA
ATOM     43  C   UNL A   1      43.618  28.555  26.666  1.00  0.00     0.031 C 
ATOM     44  C   UNL A   1      39.659  27.183  28.903  1.00  0.00     0.029 A 
ATOM     45  N   UNL A   1      40.802  28.968  29.576  1.00  0.00    -0.354 N 
ATOM     46  C   UNL A   1      45.012  29.411  28.253  1.00  0.00     0.074 A 
ATOM     47  C   UNL A   1      44.758  29.220  26.846  1.00  0.00     0.031 C 
ATOM     48  C   UNL A   1      38.760  28.075  29.375  1.00  0.00     0.029 A 
ATOM     49  C   UNL A   1      39.469  29.263  29.824  1.00  0.00     0.049 A 
ATOM     50  H   UNL A   1      41.544  29.546  29.866  1.00  0.00     0.167 HD
ATOM     51  C   UNL A   1      45.674  30.412  28.889  1.00  0.00     0.031 A 
ATOM     52  C   UNL A   1      38.965  30.413  30.329  1.00  0.00     0.031 A 
ATOM     53  C   UNL A   1      45.637  30.273  30.320  1.00  0.00     0.049 A 
ATOM     54  C   UNL A   1      40.045  31.114  31.058  1.00  0.00     0.074 A 
ATOM     55  C   UNL A   1      46.208  29.435  31.252  1.00  0.00     0.029 A 
ATOM     56  N   UNL A   1      44.603  30.928  30.941  1.00  0.00    -0.354 N 
ATOM     57  N   UNL A   1      40.581  30.652  32.152  1.00  0.00    -0.248 NA
ATOM     58  C   UNL A   1      40.778  32.199  30.421  1.00  0.00     0.031 C 
ATOM     59  C   UNL A   1      45.321  29.424  32.368  1.00  0.00     0.029 A 
ATOM     60  C   UNL A   1      44.243  30.263  32.086  1.00  0.00     0.049 A 
ATOM     61  H   UNL A   1      44.181  31.756  30.612  1.00  0.00     0.167 HD
ATOM     62  C   UNL A   1      41.895  31.078  32.105  1.00  0.00     0.074 A 
ATOM     63  C   UNL A   1      41.909  32.160  31.132  1.00  0.00     0.031 C 
ATOM     64  C   UNL A   1      42.896  30.312  32.623  1.00  0.00     0.031 A 
BRANCH  51  65
ATOM     65  C   UNL A   1      45.963  31.739  28.236  1.00  0.00    -0.014 A 
ATOM     66  C   UNL A   1      47.154  32.420  28.552  1.00  0.00     0.010 A 
ATOM     67  C   UNL A   1      44.974  32.466  27.537  1.00  0.00     0.010 A 
ATOM     68  C   UNL A   1      47.329  33.769  28.214  1.00  0.00     0.020 A 
ATOM     69  C   UNL A   1      45.156  33.794  27.155  1.00  0.00     0.020 A 
ATOM     70  C   UNL A   1      46.323  34.448  27.525  1.00  0.00     0.054 A 
BRANCH  70  71
ATOM     71  S   UNL A   1      46.511  36.213  27.176  1.00  0.00     0.124 S 
ATOM     72  O   UNL A   1      46.713  36.212  25.731  1.00  0.00    -0.237 OA
ATOM     73  O   UNL A   1      45.239  36.758  27.641  1.00  0.00    -0.237 OA
ATOM     74  O   UNL A   1      47.674  36.595  27.973  1.00  0.00    -0.744 OA
ENDBRANCH  70  71
ENDBRANCH  51  65
BRANCH  52  75
ATOM     75  C   UNL A   1      37.647  31.029  30.063  1.00  0.00    -0.014 A 
ATOM     76  C   UNL A   1      36.896  31.617  31.097  1.00  0.00     0.010 A 
ATOM     77  C   UNL A   1      37.245  31.270  28.734  1.00  0.00     0.010 A 
ATOM     78  C   UNL A   1      35.818  32.468  30.807  1.00  0.00     0.020 A 
ATOM     79  C   UNL A   1      36.166  32.108  28.438  1.00  0.00     0.020 A 
ATOM     80  C   UNL A   1      35.474  32.725  29.477  1.00  0.00     0.054 A 
BRANCH  80  81
ATOM     81  S   UNL A   1      34.200  33.966  29.110  1.00  0.00     0.124 S 
ATOM     82  O   UNL A   1      33.629  34.224  30.429  1.00  0.00    -0.237 OA
ATOM     83  O   UNL A   1      34.978  35.058  28.532  1.00  0.00    -0.237 OA
ATOM     84  O   UNL A   1      33.311  33.281  28.174  1.00  0.00    -0.744 OA
ENDBRANCH  80  81
ENDBRANCH  52  75
BRANCH  64  85
ATOM     85  C   UNL A   1      42.516  29.289  33.664  1.00  0.00    -0.014 A 
ATOM     86  C   UNL A   1      42.046  27.999  33.352  1.00  0.00     0.010 A 
ATOM     87  C   UNL A   1      42.710  29.626  35.015  1.00  0.00     0.010 A 
ATOM     88  C   UNL A   1      41.750  27.080  34.369  1.00  0.00     0.020 A 
ATOM     89  C   UNL A   1      42.436  28.709  36.032  1.00  0.00     0.020 A 
ATOM     90  C   UNL A   1      41.946  27.443  35.704  1.00  0.00     0.054 A 
BRANCH  90  91
ATOM     91  S   UNL A   1      41.603  26.234  37.013  1.00  0.00     0.124 S 
ATOM     92  O   UNL A   1      41.508  24.981  36.270  1.00  0.00    -0.237 OA
ATOM     93  O   UNL A   1      42.767  26.361  37.887  1.00  0.00    -0.237 OA
ATOM     94  O   UNL A   1      40.347  26.703  37.599  1.00  0.00    -0.744 OA
ENDBRANCH  90  91
ENDBRANCH  64  85
ENDBRANCH  38  39
ENDBRANCH  31  33
ENDBRANCH  30  31
ENDBRANCH  29  30
ENDBRANCH  28  29
ENDBRANCH  27  28
ENDBRANCH  26  27
ENDBRANCH   1  26
TORSDOF 23
ENDMDL
MODEL 3
REMARK VINA RESULT:     -10.2      1.476      2.349
REMARK SMILES Cc1nsc(N(C)S(=O)(=O)c2cn[nH]c2C)c1C(=O)OCCOCCOCCOC(=O)c1ccc(-c2c3nc(c(-c4ccc(S(=O)(=O)[O-])cc4)c4ccc([nH]4)c(-c4ccc(S(=O)(=O)[O-])cc4)c4nc(c(-c5ccc(S(=O)(=O)[O-])cc5)c5ccc2[nH]5)C=C4)C=C3)cc1
REMARK SMILES IDX 24 1 23 2 22 3 21 4 20 5 18 6 19 7 17 8 1 9 2 10 3 11 4 12
REMARK SMILES IDX 5 13 6 14 7 15 8 16 9 17 10 18 11 19 12 20 15 21 13 22 14 23
REMARK SMILES IDX 16 24 25 26 26 27 27 28 28 29 29 30 30 31 31 32 32 33 33 34
REMARK SMILES IDX 91 35 34 36 90 37 35 38 36 39 37 40 84 41 38 42 89 43 83 44
REMARK SMILES IDX 85 45 39 46 88 47 82 48 81 49 40 51 70 52 51 53 69 54 52 55
REMARK SMILES IDX 55 56 68 57 86 58 53 59 54 60 67 62 87 63 56 64 41 65 42 66
REMARK SMILES IDX 50 67 43 68 49 69 44 70 45 71 46 72 47 73 48 74 71 75 72 76
REMARK SMILES IDX 80 77 73 78 79 79 74 80 75 81 76 82 77 83 78 84 57 85 58 86
REMARK SMILES IDX 66 87 59 88 65 89 60 90 61 91 62 92 63 93 64 94
REMARK H PARENT 14 25 85 50 55 61
REMARK Flexibility Score: inf
ROOT
ATOM      1  C   UNL A   1      38.253  23.569  26.259  1.00  0.00     0.188 C 
ENDROOT
BRANCH   1   2
ATOM      2  O   UNL A   1      37.159  24.342  25.791  1.00  0.00    -0.376 OA
BRANCH   2   3
ATOM      3  C   UNL A   1      35.922  23.661  25.606  1.00  0.00     0.202 C 
BRANCH   3   4
ATOM      4  C   UNL A   1      35.188  24.051  24.321  1.00  0.00     0.261 C 
BRANCH   4   5
ATOM      5  O   UNL A   1      34.354  25.201  24.518  1.00  0.00    -0.460 OA
BRANCH   5   6
ATOM      6  C   UNL A   1      33.286  25.381  23.686  1.00  0.00     0.343 C 
ATOM      7  O   UNL A   1      33.355  25.536  22.489  1.00  0.00    -0.246 OA
BRANCH   6   8
ATOM      8  C   UNL A   1      32.048  25.391  24.463  1.00  0.00     0.118 A 
ATOM      9  C   UNL A   1      32.039  22.768  24.845  1.00  0.00     0.069 C 
ATOM     10  C   UNL A   1      31.500  24.155  25.021  1.00  0.00     0.068 A 
ATOM     11  N   UNL A   1      30.386  24.271  25.734  1.00  0.00    -0.195 NA
ATOM     12  S   UNL A   1      29.895  25.828  25.708  1.00  0.00    -0.017 S 
ATOM     13  C   UNL A   1      31.193  26.466  24.737  1.00  0.00     0.140 A 
BRANCH  13  14
ATOM     14  N   UNL A   1      31.136  27.878  24.329  1.00  0.00    -0.258 N 
ATOM     15  C   UNL A   1      31.840  28.876  25.170  1.00  0.00     0.165 C 
BRANCH  14  16
ATOM     16  S   UNL A   1      30.919  28.323  22.716  1.00  0.00     0.268 S 
ATOM     17  O   UNL A   1      31.938  29.292  22.376  1.00  0.00    -0.201 OA
ATOM     18  O   UNL A   1      30.662  27.146  21.922  1.00  0.00    -0.201 OA
BRANCH  16  19
ATOM     19  C   UNL A   1      29.452  29.192  22.469  1.00  0.00     0.128 A 
ATOM     20  C   UNL A   1      29.403  30.364  21.693  1.00  0.00     0.157 A 
ATOM     21  C   UNL A   1      28.134  28.930  22.807  1.00  0.00     0.053 A 
ATOM     22  N   UNL A   1      28.168  30.859  21.598  1.00  0.00    -0.183 NA
ATOM     23  N   UNL A   1      27.418  29.974  22.273  1.00  0.00    -0.281 N 
ATOM     24  C   UNL A   1      27.446  27.837  23.531  1.00  0.00     0.067 C 
ATOM     25  H   UNL A   1      26.442  30.064  22.377  1.00  0.00     0.190 HD
ENDBRANCH  16  19
ENDBRANCH  14  16
ENDBRANCH  13  14
ENDBRANCH   6   8
ENDBRANCH   5   6
ENDBRANCH   4   5
ENDBRANCH   3   4
ENDBRANCH   2   3
ENDBRANCH   1   2
BRANCH   1  26
ATOM     26  C   UNL A   1      38.173  22.059  25.947  1.00  0.00     0.188 C 
BRANCH  26  27
ATOM     27  O   UNL A   1      39.329  21.300  25.622  1.00  0.00    -0.376 OA
BRANCH  27  28
ATOM     28  C   UNL A   1      40.269  20.958  26.627  1.00  0.00     0.202 C 
BRANCH  28  29
ATOM     29  C   UNL A   1      41.226  19.799  26.373  1.00  0.00     0.261 C 
BRANCH  29  30
ATOM     30  O   UNL A   1      42.592  20.084  26.647  1.00  0.00    -0.460 OA
BRANCH  30  31
ATOM     31  C   UNL A   1      43.308  20.485  25.572  1.00  0.00     0.338 C 
ATOM     32  O   UNL A   1      43.704  19.788  24.652  1.00  0.00    -0.246 OA
BRANCH  31  33
ATOM     33  C   UNL A   1      43.657  21.906  25.714  1.00  0.00     0.060 A 
ATOM     34  C   UNL A   1      44.515  22.246  26.764  1.00  0.00     0.016 A 
ATOM     35  C   UNL A   1      42.949  22.881  24.998  1.00  0.00     0.016 A 
ATOM     36  C   UNL A   1      44.511  23.547  27.227  1.00  0.00     0.010 A 
ATOM     37  C   UNL A   1      42.937  24.178  25.470  1.00  0.00     0.010 A 
ATOM     38  C   UNL A   1      43.652  24.474  26.630  1.00  0.00    -0.014 A 
BRANCH  38  39
ATOM     39  C   UNL A   1      43.497  25.765  27.271  1.00  0.00     0.031 A 
ATOM     40  C   UNL A   1      44.615  26.702  27.067  1.00  0.00     0.074 A 
ATOM     41  C   UNL A   1      42.369  26.119  27.918  1.00  0.00     0.049 A 
ATOM     42  N   UNL A   1      45.448  27.147  27.947  1.00  0.00    -0.248 NA
ATOM     43  C   UNL A   1      44.912  27.106  25.684  1.00  0.00     0.031 C 
ATOM     44  C   UNL A   1      41.097  25.389  27.933  1.00  0.00     0.029 A 
ATOM     45  N   UNL A   1      42.088  27.260  28.612  1.00  0.00    -0.354 N 
ATOM     46  C   UNL A   1      46.238  28.066  27.270  1.00  0.00     0.074 A 
ATOM     47  C   UNL A   1      45.992  27.864  25.863  1.00  0.00     0.031 C 
ATOM     48  C   UNL A   1      40.128  26.199  28.415  1.00  0.00     0.029 A 
ATOM     49  C   UNL A   1      40.737  27.439  28.870  1.00  0.00     0.049 A 
ATOM     50  H   UNL A   1      42.780  27.896  28.902  1.00  0.00     0.167 HD
ATOM     51  C   UNL A   1      46.817  29.115  27.910  1.00  0.00     0.031 A 
ATOM     52  C   UNL A   1      40.140  28.539  29.385  1.00  0.00     0.031 A 
ATOM     53  C   UNL A   1      46.800  28.964  29.340  1.00  0.00     0.049 A 
ATOM     54  C   UNL A   1      41.161  29.323  30.114  1.00  0.00     0.074 A 
ATOM     55  C   UNL A   1      47.446  28.172  30.262  1.00  0.00     0.029 A 
ATOM     56  N   UNL A   1      45.718  29.526  29.971  1.00  0.00    -0.354 N 
ATOM     57  N   UNL A   1      41.741  28.902  31.201  1.00  0.00    -0.248 NA
ATOM     58  C   UNL A   1      41.796  30.471  29.480  1.00  0.00     0.031 C 
ATOM     59  C   UNL A   1      46.569  28.078  31.383  1.00  0.00     0.029 A 
ATOM     60  C   UNL A   1      45.422  28.825  31.113  1.00  0.00     0.049 A 
ATOM     61  H   UNL A   1      45.225  30.316  29.650  1.00  0.00     0.167 HD
ATOM     62  C   UNL A   1      43.014  29.438  31.150  1.00  0.00     0.074 A 
ATOM     63  C   UNL A   1      42.931  30.523  30.186  1.00  0.00     0.031 C 
ATOM     64  C   UNL A   1      44.079  28.755  31.657  1.00  0.00     0.031 A 
BRANCH  51  65
ATOM     65  C   UNL A   1      46.989  30.467  27.264  1.00  0.00    -0.014 A 
ATOM     66  C   UNL A   1      48.217  31.142  27.392  1.00  0.00     0.010 A 
ATOM     67  C   UNL A   1      45.894  31.213  26.775  1.00  0.00     0.010 A 
ATOM     68  C   UNL A   1      48.331  32.503  27.078  1.00  0.00     0.020 A 
ATOM     69  C   UNL A   1      46.008  32.555  26.416  1.00  0.00     0.020 A 
ATOM     70  C   UNL A   1      47.221  33.201  26.600  1.00  0.00     0.054 A 
BRANCH  70  71
ATOM     71  S   UNL A   1      47.347  34.979  26.288  1.00  0.00     0.124 S 
ATOM     72  O   UNL A   1      45.970  35.416  26.494  1.00  0.00    -0.237 OA
ATOM     73  O   UNL A   1      48.309  35.404  27.301  1.00  0.00    -0.237 OA
ATOM     74  O   UNL A   1      47.830  35.049  24.910  1.00  0.00    -0.744 OA
ENDBRANCH  70  71
ENDBRANCH  51  65
BRANCH  52  75
ATOM     75  C   UNL A   1      38.773  29.043  29.131  1.00  0.00    -0.014 A 
ATOM     76  C   UNL A   1      37.975  29.541  30.176  1.00  0.00     0.010 A 
ATOM     77  C   UNL A   1      38.351  29.275  27.806  1.00  0.00     0.010 A 
ATOM     78  C   UNL A   1      36.827  30.301  29.902  1.00  0.00     0.020 A 
ATOM     79  C   UNL A   1      37.203  30.023  27.527  1.00  0.00     0.020 A 
ATOM     80  C   UNL A   1      36.460  30.554  28.578  1.00  0.00     0.054 A 
BRANCH  80  81
ATOM     81  S   UNL A   1      35.082  31.687  28.236  1.00  0.00     0.124 S 
ATOM     82  O   UNL A   1      34.599  32.002  29.577  1.00  0.00    -0.237 OA
ATOM     83  O   UNL A   1      35.740  32.781  27.526  1.00  0.00    -0.237 OA
ATOM     84  O   UNL A   1      34.171  30.885  27.422  1.00  0.00    -0.744 OA
ENDBRANCH  80  81
ENDBRANCH  52  75
BRANCH  64  85
ATOM     85  C   UNL A   1      43.794  27.697  32.693  1.00  0.00    -0.014 A 
ATOM     86  C   UNL A   1      44.120  26.338  32.526  1.00  0.00     0.010 A 
ATOM     87  C   UNL A   1      43.234  28.110  33.915  1.00  0.00     0.010 A 
ATOM     88  C   UNL A   1      43.866  25.410  33.547  1.00  0.00     0.020 A 
ATOM     89  C   UNL A   1      42.996  27.194  34.942  1.00  0.00     0.020 A 
ATOM     90  C   UNL A   1      43.302  25.846  34.749  1.00  0.00     0.054 A 
BRANCH  90  91
ATOM     91  S   UNL A   1      43.017  24.649  36.082  1.00  0.00     0.124 S 
ATOM     92  O   UNL A   1      41.959  23.807  35.532  1.00  0.00    -0.237 OA
ATOM     93  O   UNL A   1      44.322  24.006  36.227  1.00  0.00    -0.237 OA
ATOM     94  O   UNL A   1      42.619  25.481  37.217  1.00  0.00    -0.744 OA
ENDBRANCH  90  91
ENDBRANCH  64  85
ENDBRANCH  38  39
ENDBRANCH  31  33
ENDBRANCH  30  31
ENDBRANCH  29  30
ENDBRANCH  28  29
ENDBRANCH  27  28
ENDBRANCH  26  27
ENDBRANCH   1  26
TORSDOF 23
ENDMDL
