MODEL 1
REMARK VINA RESULT:     -10.6      0.000      0.000
REMARK SMILES CC[C@@H](C)[C@@H](NC(=O)Cn1nc(-c2ccc3ccccc3c2)ccc1=O)C(=O)OCCOCCOCCOC(=O)c1ccc(-c2c3nc(c(-c4ccc(S(=O)(=O)[O-])cc4)c4ccc([nH]4)c(-c4ccc(S(=O)(=O)[O-])cc4)c4nc(c(-c5ccc(S(=O)(=O)[O-])cc5)c5ccc2[nH]5)C=C4)C=C3)cc1
REMARK SMILES IDX 33 1 32 2 31 3 30 4 29 5 27 6 28 7 5 8 3 9 4 10 2 11 1 12
REMARK SMILES IDX 6 13 7 14 8 16 9 17 10 18 11 19 25 20 12 21 24 22 26 23
REMARK SMILES IDX 23 24 13 25 14 26 22 27 15 28 21 29 16 30 20 31 17 32 19 33
REMARK SMILES IDX 18 34 34 35 35 36 36 37 37 38 38 39 39 40 40 41 41 42 42 43
REMARK SMILES IDX 100 44 43 45 99 46 44 47 45 48 46 49 93 50 47 51 98 52 92 53
REMARK SMILES IDX 94 54 48 55 97 56 91 57 90 58 49 60 79 61 60 62 78 63 61 64
REMARK SMILES IDX 64 65 77 66 95 67 62 68 63 69 76 71 96 72 65 73 50 74 51 75
REMARK SMILES IDX 59 76 52 77 58 78 53 79 54 80 55 81 56 82 57 83 80 84 81 85
REMARK SMILES IDX 89 86 82 87 88 88 83 89 84 90 85 91 86 92 87 93 66 94 67 95
REMARK SMILES IDX 75 96 68 97 74 98 69 99 70 100 71 101 72 102 73 103
REMARK H PARENT 6 15 94 59 64 70
REMARK Flexibility Score: inf
ROOT
ATOM      1  C   UNL A   1      36.836  23.127  24.696  1.00  0.00     0.188 C 
ENDROOT
BRANCH   1   2
ATOM      2  O   UNL A   1      36.495  22.862  23.348  1.00  0.00    -0.376 OA
BRANCH   2   3
ATOM      3  C   UNL A   1      35.126  23.046  23.008  1.00  0.00     0.202 C 
BRANCH   3   4
ATOM      4  C   UNL A   1      34.514  24.396  23.344  1.00  0.00     0.261 C 
BRANCH   4   5
ATOM      5  O   UNL A   1      33.309  24.597  22.562  1.00  0.00    -0.462 OA
BRANCH   5   6
ATOM      6  C   UNL A   1      33.075  25.850  22.116  1.00  0.00     0.328 C 
ATOM      7  O   UNL A   1      33.410  26.260  21.010  1.00  0.00    -0.250 OA
BRANCH   6   8
ATOM      8  C   UNL A   1      32.526  26.781  23.206  1.00  0.00     0.195 C 
BRANCH   8   9
ATOM      9  C   UNL A   1      33.278  27.978  23.856  1.00  0.00     0.019 C 
ATOM     10  C   UNL A   1      34.262  28.657  22.924  1.00  0.00     0.010 C 
BRANCH   9  11
ATOM     11  C   UNL A   1      34.014  27.495  25.140  1.00  0.00     0.002 C 
ATOM     12  C   UNL A   1      33.991  28.463  26.318  1.00  0.00     0.004 C 
ENDBRANCH   9  11
ENDBRANCH   8   9
BRANCH   8  13
ATOM     13  N   UNL A   1      31.102  27.040  22.978  1.00  0.00    -0.341 N 
ATOM     14  C   UNL A   1      29.943  26.721  23.601  1.00  0.00     0.242 C 
ATOM     15  H   UNL A   1      30.950  27.581  22.171  1.00  0.00     0.164 HD
ATOM     16  O   UNL A   1      28.943  27.224  23.055  1.00  0.00    -0.273 OA
BRANCH  14  17
ATOM     17  C   UNL A   1      29.750  26.052  24.994  1.00  0.00     0.248 C 
BRANCH  17  18
ATOM     18  N   UNL A   1      30.590  24.969  25.517  1.00  0.00    -0.220 N 
ATOM     19  N   UNL A   1      30.788  23.816  24.701  1.00  0.00    -0.169 NA
ATOM     20  C   UNL A   1      31.429  25.284  26.573  1.00  0.00     0.267 A 
ATOM     21  C   UNL A   1      31.678  22.938  25.084  1.00  0.00     0.091 A 
ATOM     22  C   UNL A   1      32.374  24.236  26.992  1.00  0.00     0.075 A 
ATOM     23  O   UNL A   1      31.425  26.351  27.183  1.00  0.00    -0.268 OA
ATOM     24  C   UNL A   1      32.526  23.116  26.284  1.00  0.00     0.036 A 
BRANCH  21  25
ATOM     25  C   UNL A   1      31.888  21.607  24.389  1.00  0.00     0.003 A 
ATOM     26  C   UNL A   1      31.845  21.425  23.014  1.00  0.00     0.011 A 
ATOM     27  C   UNL A   1      32.245  20.494  25.154  1.00  0.00     0.019 A 
ATOM     28  C   UNL A   1      32.183  20.160  22.463  1.00  0.00     0.009 A 
ATOM     29  C   UNL A   1      32.553  19.227  24.653  1.00  0.00    -0.018 A 
ATOM     30  C   UNL A   1      32.558  19.050  23.269  1.00  0.00    -0.018 A 
ATOM     31  C   UNL A   1      32.849  18.158  25.525  1.00  0.00     0.009 A 
ATOM     32  C   UNL A   1      32.933  17.776  22.783  1.00  0.00     0.009 A 
ATOM     33  C   UNL A   1      33.205  16.910  25.029  1.00  0.00     0.001 A 
ATOM     34  C   UNL A   1      33.263  16.723  23.655  1.00  0.00     0.001 A 
ENDBRANCH  21  25
ENDBRANCH  17  18
ENDBRANCH  14  17
ENDBRANCH   8  13
ENDBRANCH   6   8
ENDBRANCH   5   6
ENDBRANCH   4   5
ENDBRANCH   3   4
ENDBRANCH   2   3
ENDBRANCH   1   2
BRANCH   1  35
ATOM     35  C   UNL A   1      37.802  22.147  25.362  1.00  0.00     0.188 C 
BRANCH  35  36
ATOM     36  O   UNL A   1      38.846  22.611  26.204  1.00  0.00    -0.376 OA
BRANCH  36  37
ATOM     37  C   UNL A   1      39.964  21.712  26.367  1.00  0.00     0.202 C 
BRANCH  37  38
ATOM     38  C   UNL A   1      41.380  22.216  26.018  1.00  0.00     0.261 C 
BRANCH  38  39
ATOM     39  O   UNL A   1      41.936  23.154  26.956  1.00  0.00    -0.460 OA
BRANCH  39  40
ATOM     40  C   UNL A   1      42.300  24.374  26.490  1.00  0.00     0.338 C 
ATOM     41  O   UNL A   1      42.503  24.663  25.319  1.00  0.00    -0.246 OA
BRANCH  40  42
ATOM     42  C   UNL A   1      42.039  25.360  27.581  1.00  0.00     0.060 A 
ATOM     43  C   UNL A   1      40.889  25.275  28.379  1.00  0.00     0.016 A 
ATOM     44  C   UNL A   1      42.831  26.521  27.624  1.00  0.00     0.016 A 
ATOM     45  C   UNL A   1      40.553  26.326  29.233  1.00  0.00     0.010 A 
ATOM     46  C   UNL A   1      42.499  27.569  28.485  1.00  0.00     0.010 A 
ATOM     47  C   UNL A   1      41.385  27.456  29.327  1.00  0.00    -0.014 A 
BRANCH  47  48
ATOM     48  C   UNL A   1      41.293  28.326  30.524  1.00  0.00     0.031 A 
ATOM     49  C   UNL A   1      42.164  28.179  31.729  1.00  0.00     0.074 A 
ATOM     50  C   UNL A   1      40.310  29.247  30.492  1.00  0.00     0.049 A 
ATOM     51  N   UNL A   1      42.180  28.919  32.809  1.00  0.00    -0.248 NA
ATOM     52  C   UNL A   1      43.127  27.070  31.742  1.00  0.00     0.031 C 
ATOM     53  C   UNL A   1      39.383  29.428  29.369  1.00  0.00     0.029 A 
ATOM     54  N   UNL A   1      39.922  30.194  31.400  1.00  0.00    -0.354 N 
ATOM     55  C   UNL A   1      43.167  28.385  33.626  1.00  0.00     0.074 A 
ATOM     56  C   UNL A   1      43.691  27.223  32.936  1.00  0.00     0.031 C 
ATOM     57  C   UNL A   1      38.562  30.448  29.638  1.00  0.00     0.029 A 
ATOM     58  C   UNL A   1      38.867  30.962  30.968  1.00  0.00     0.049 A 
ATOM     59  H   UNL A   1      40.356  30.314  32.276  1.00  0.00     0.167 HD
ATOM     60  C   UNL A   1      43.598  28.843  34.828  1.00  0.00     0.031 A 
ATOM     61  C   UNL A   1      38.209  31.972  31.564  1.00  0.00     0.031 A 
ATOM     62  C   UNL A   1      43.020  29.982  35.507  1.00  0.00     0.049 A 
ATOM     63  C   UNL A   1      38.677  32.436  32.907  1.00  0.00     0.074 A 
ATOM     64  C   UNL A   1      43.403  30.545  36.712  1.00  0.00     0.029 A 
ATOM     65  N   UNL A   1      41.934  30.721  35.053  1.00  0.00    -0.354 N 
ATOM     66  N   UNL A   1      39.670  31.975  33.628  1.00  0.00    -0.248 NA
ATOM     67  C   UNL A   1      37.957  33.562  33.511  1.00  0.00     0.031 C 
ATOM     68  C   UNL A   1      42.501  31.566  37.025  1.00  0.00     0.029 A 
ATOM     69  C   UNL A   1      41.611  31.709  35.972  1.00  0.00     0.049 A 
ATOM     70  H   UNL A   1      41.463  30.567  34.202  1.00  0.00     0.167 HD
ATOM     71  C   UNL A   1      39.708  32.765  34.770  1.00  0.00     0.074 A 
ATOM     72  C   UNL A   1      38.650  33.747  34.628  1.00  0.00     0.031 C 
ATOM     73  C   UNL A   1      40.544  32.677  35.833  1.00  0.00     0.031 A 
BRANCH  60  74
ATOM     74  C   UNL A   1      44.760  28.136  35.492  1.00  0.00    -0.014 A 
ATOM     75  C   UNL A   1      44.530  27.100  36.419  1.00  0.00     0.010 A 
ATOM     76  C   UNL A   1      46.080  28.578  35.291  1.00  0.00     0.010 A 
ATOM     77  C   UNL A   1      45.588  26.541  37.145  1.00  0.00     0.020 A 
ATOM     78  C   UNL A   1      47.146  27.999  35.988  1.00  0.00     0.020 A 
ATOM     79  C   UNL A   1      46.890  26.999  36.928  1.00  0.00     0.054 A 
BRANCH  79  80
ATOM     80  S   UNL A   1      48.248  26.272  37.889  1.00  0.00     0.124 S 
ATOM     81  O   UNL A   1      47.534  25.512  38.909  1.00  0.00    -0.237 OA
ATOM     82  O   UNL A   1      48.957  25.477  36.889  1.00  0.00    -0.237 OA
ATOM     83  O   UNL A   1      48.983  27.437  38.379  1.00  0.00    -0.744 OA
ENDBRANCH  79  80
ENDBRANCH  60  74
BRANCH  61  84
ATOM     84  C   UNL A   1      37.102  32.629  30.816  1.00  0.00    -0.014 A 
ATOM     85  C   UNL A   1      37.337  33.819  30.099  1.00  0.00     0.010 A 
ATOM     86  C   UNL A   1      35.783  32.176  30.976  1.00  0.00     0.010 A 
ATOM     87  C   UNL A   1      36.268  34.589  29.635  1.00  0.00     0.020 A 
ATOM     88  C   UNL A   1      34.711  32.926  30.482  1.00  0.00     0.020 A 
ATOM     89  C   UNL A   1      34.961  34.147  29.852  1.00  0.00     0.054 A 
BRANCH  89  90
ATOM     90  S   UNL A   1      33.589  35.226  29.356  1.00  0.00     0.124 S 
ATOM     91  O   UNL A   1      32.573  34.254  28.962  1.00  0.00    -0.237 OA
ATOM     92  O   UNL A   1      33.310  35.967  30.583  1.00  0.00    -0.237 OA
ATOM     93  O   UNL A   1      34.152  36.018  28.266  1.00  0.00    -0.744 OA
ENDBRANCH  89  90
ENDBRANCH  61  84
BRANCH  73  94
ATOM     94  C   UNL A   1      40.354  33.658  36.963  1.00  0.00    -0.014 A 
ATOM     95  C   UNL A   1      39.483  33.343  38.023  1.00  0.00     0.010 A 
ATOM     96  C   UNL A   1      40.923  34.943  36.907  1.00  0.00     0.010 A 
ATOM     97  C   UNL A   1      39.141  34.309  38.973  1.00  0.00     0.020 A 
ATOM     98  C   UNL A   1      40.613  35.901  37.876  1.00  0.00     0.020 A 
ATOM     99  C   UNL A   1      39.698  35.587  38.885  1.00  0.00     0.054 A 
BRANCH  99 100
ATOM    100  S   UNL A   1      39.188  36.846  40.087  1.00  0.00     0.124 S 
ATOM    101  O   UNL A   1      40.456  37.196  40.722  1.00  0.00    -0.237 OA
ATOM    102  O   UNL A   1      38.602  37.879  39.238  1.00  0.00    -0.237 OA
ATOM    103  O   UNL A   1      38.237  36.139  40.942  1.00  0.00    -0.744 OA
ENDBRANCH  99 100
ENDBRANCH  73  94
ENDBRANCH  47  48
ENDBRANCH  40  42
ENDBRANCH  39  40
ENDBRANCH  38  39
ENDBRANCH  37  38
ENDBRANCH  36  37
ENDBRANCH  35  36
ENDBRANCH   1  35
TORSDOF 26
ENDMDL
MODEL 2
REMARK VINA RESULT:     -10.5      1.092      7.684
REMARK SMILES CC[C@@H](C)[C@@H](NC(=O)Cn1nc(-c2ccc3ccccc3c2)ccc1=O)C(=O)OCCOCCOCCOC(=O)c1ccc(-c2c3nc(c(-c4ccc(S(=O)(=O)[O-])cc4)c4ccc([nH]4)c(-c4ccc(S(=O)(=O)[O-])cc4)c4nc(c(-c5ccc(S(=O)(=O)[O-])cc5)c5ccc2[nH]5)C=C4)C=C3)cc1
REMARK SMILES IDX 33 1 32 2 31 3 30 4 29 5 27 6 28 7 5 8 3 9 4 10 2 11 1 12
REMARK SMILES IDX 6 13 7 14 8 16 9 17 10 18 11 19 25 20 12 21 24 22 26 23
REMARK SMILES IDX 23 24 13 25 14 26 22 27 15 28 21 29 16 30 20 31 17 32 19 33
REMARK SMILES IDX 18 34 34 35 35 36 36 37 37 38 38 39 39 40 40 41 41 42 42 43
REMARK SMILES IDX 100 44 43 45 99 46 44 47 45 48 46 49 93 50 47 51 98 52 92 53
REMARK SMILES IDX 94 54 48 55 97 56 91 57 90 58 49 60 79 61 60 62 78 63 61 64
REMARK SMILES IDX 64 65 77 66 95 67 62 68 63 69 76 71 96 72 65 73 50 74 51 75
REMARK SMILES IDX 59 76 52 77 58 78 53 79 54 80 55 81 56 82 57 83 80 84 81 85
REMARK SMILES IDX 89 86 82 87 88 88 83 89 84 90 85 91 86 92 87 93 66 94 67 95
REMARK SMILES IDX 75 96 68 97 74 98 69 99 70 100 71 101 72 102 73 103
REMARK H PARENT 6 15 94 59 64 70
REMARK Flexibility Score: inf
ROOT
ATOM      1  C   UNL A   1      37.231  23.128  24.874  1.00  0.00     0.188 C 
ENDROOT
BRANCH   1   2
ATOM      2  O   UNL A   1      37.035  22.666  23.550  1.00  0.00    -0.376 OA
BRANCH   2   3
ATOM      3  C   UNL A   1      35.797  23.024  22.947  1.00  0.00     0.202 C 
BRANCH   3   4
ATOM      4  C   UNL A   1      35.109  24.268  23.485  1.00  0.00     0.261 C 
BRANCH   4   5
ATOM      5  O   UNL A   1      33.904  24.531  22.721  1.00  0.00    -0.462 OA
BRANCH   5   6
ATOM      6  C   UNL A   1      33.613  25.827  22.473  1.00  0.00     0.328 C 
ATOM      7  O   UNL A   1      33.945  26.423  21.454  1.00  0.00    -0.250 OA
BRANCH   6   8
ATOM      8  C   UNL A   1      32.997  26.545  23.682  1.00  0.00     0.195 C 
BRANCH   8   9
ATOM      9  C   UNL A   1      33.764  27.400  24.731  1.00  0.00     0.019 C 
ATOM     10  C   UNL A   1      34.027  26.672  26.034  1.00  0.00     0.010 C 
BRANCH   9  11
ATOM     11  C   UNL A   1      32.976  28.713  25.009  1.00  0.00     0.002 C 
ATOM     12  C   UNL A   1      32.982  29.193  26.457  1.00  0.00     0.004 C 
ENDBRANCH   9  11
ENDBRANCH   8   9
BRANCH   8  13
ATOM     13  N   UNL A   1      31.685  27.091  23.329  1.00  0.00    -0.341 N 
ATOM     14  C   UNL A   1      30.416  26.620  23.272  1.00  0.00     0.242 C 
ATOM     15  H   UNL A   1      31.738  28.039  23.071  1.00  0.00     0.164 HD
ATOM     16  O   UNL A   1      29.586  27.494  22.960  1.00  0.00    -0.273 OA
BRANCH  14  17
ATOM     17  C   UNL A   1      29.875  25.250  23.777  1.00  0.00     0.248 C 
BRANCH  17  18
ATOM     18  N   UNL A   1      30.524  24.429  24.805  1.00  0.00    -0.220 N 
ATOM     19  N   UNL A   1      31.377  23.368  24.379  1.00  0.00    -0.169 NA
ATOM     20  C   UNL A   1      30.577  24.956  26.084  1.00  0.00     0.267 A 
ATOM     21  C   UNL A   1      32.095  22.757  25.284  1.00  0.00     0.091 A 
ATOM     22  C   UNL A   1      31.360  24.195  27.072  1.00  0.00     0.075 A 
ATOM     23  O   UNL A   1      30.011  25.984  26.447  1.00  0.00    -0.268 OA
ATOM     24  C   UNL A   1      32.109  23.154  26.710  1.00  0.00     0.036 A 
BRANCH  21  25
ATOM     25  C   UNL A   1      32.933  21.527  24.992  1.00  0.00     0.003 A 
ATOM     26  C   UNL A   1      34.187  21.286  25.533  1.00  0.00     0.011 A 
ATOM     27  C   UNL A   1      32.388  20.509  24.206  1.00  0.00     0.019 A 
ATOM     28  C   UNL A   1      34.829  20.042  25.293  1.00  0.00     0.009 A 
ATOM     29  C   UNL A   1      32.999  19.286  23.920  1.00  0.00    -0.018 A 
ATOM     30  C   UNL A   1      34.240  19.018  24.500  1.00  0.00    -0.018 A 
ATOM     31  C   UNL A   1      32.378  18.349  23.067  1.00  0.00     0.009 A 
ATOM     32  C   UNL A   1      34.811  17.750  24.247  1.00  0.00     0.009 A 
ATOM     33  C   UNL A   1      32.959  17.112  22.821  1.00  0.00     0.001 A 
ATOM     34  C   UNL A   1      34.170  16.805  23.425  1.00  0.00     0.001 A 
ENDBRANCH  21  25
ENDBRANCH  17  18
ENDBRANCH  14  17
ENDBRANCH   8  13
ENDBRANCH   6   8
ENDBRANCH   5   6
ENDBRANCH   4   5
ENDBRANCH   3   4
ENDBRANCH   2   3
ENDBRANCH   1   2
BRANCH   1  35
ATOM     35  C   UNL A   1      38.069  22.237  25.792  1.00  0.00     0.188 C 
BRANCH  35  36
ATOM     36  O   UNL A   1      39.363  22.638  26.214  1.00  0.00    -0.376 OA
BRANCH  36  37
ATOM     37  C   UNL A   1      40.302  21.567  26.453  1.00  0.00     0.202 C 
BRANCH  37  38
ATOM     38  C   UNL A   1      41.764  21.743  25.990  1.00  0.00     0.261 C 
BRANCH  38  39
ATOM     39  O   UNL A   1      42.531  22.687  26.756  1.00  0.00    -0.460 OA
BRANCH  39  40
ATOM     40  C   UNL A   1      42.814  23.883  26.184  1.00  0.00     0.338 C 
ATOM     41  O   UNL A   1      43.018  24.080  24.995  1.00  0.00    -0.246 OA
BRANCH  40  42
ATOM     42  C   UNL A   1      42.459  24.941  27.177  1.00  0.00     0.060 A 
ATOM     43  C   UNL A   1      41.445  24.741  28.124  1.00  0.00     0.016 A 
ATOM     44  C   UNL A   1      42.979  26.233  26.978  1.00  0.00     0.016 A 
ATOM     45  C   UNL A   1      40.979  25.813  28.886  1.00  0.00     0.010 A 
ATOM     46  C   UNL A   1      42.518  27.304  27.747  1.00  0.00     0.010 A 
ATOM     47  C   UNL A   1      41.549  27.089  28.736  1.00  0.00    -0.014 A 
BRANCH  47  48
ATOM     48  C   UNL A   1      41.395  28.085  29.823  1.00  0.00     0.031 A 
ATOM     49  C   UNL A   1      40.343  29.147  29.836  1.00  0.00     0.074 A 
ATOM     50  C   UNL A   1      42.319  28.019  30.801  1.00  0.00     0.049 A 
ATOM     51  N   UNL A   1      40.109  30.040  30.764  1.00  0.00    -0.248 NA
ATOM     52  C   UNL A   1      39.452  29.236  28.672  1.00  0.00     0.031 C 
ATOM     53  C   UNL A   1      43.410  27.038  30.843  1.00  0.00     0.029 A 
ATOM     54  N   UNL A   1      42.500  28.765  31.933  1.00  0.00    -0.354 N 
ATOM     55  C   UNL A   1      39.029  30.787  30.314  1.00  0.00     0.074 A 
ATOM     56  C   UNL A   1      38.689  30.274  29.001  1.00  0.00     0.031 C 
ATOM     57  C   UNL A   1      44.119  27.218  31.961  1.00  0.00     0.029 A 
ATOM     58  C   UNL A   1      43.570  28.354  32.691  1.00  0.00     0.049 A 
ATOM     59  H   UNL A   1      41.920  29.522  32.181  1.00  0.00     0.167 HD
ATOM     60  C   UNL A   1      38.379  31.791  30.954  1.00  0.00     0.031 A 
ATOM     61  C   UNL A   1      44.065  28.827  33.848  1.00  0.00     0.031 A 
ATOM     62  C   UNL A   1      38.775  32.306  32.247  1.00  0.00     0.049 A 
ATOM     63  C   UNL A   1      43.356  29.962  34.519  1.00  0.00     0.074 A 
ATOM     64  C   UNL A   1      38.167  33.300  32.995  1.00  0.00     0.029 A 
ATOM     65  N   UNL A   1      39.881  31.884  32.975  1.00  0.00    -0.354 N 
ATOM     66  N   UNL A   1      42.282  30.600  34.121  1.00  0.00    -0.248 NA
ATOM     67  C   UNL A   1      43.904  30.428  35.796  1.00  0.00     0.031 C 
ATOM     68  C   UNL A   1      38.949  33.534  34.130  1.00  0.00     0.029 A 
ATOM     69  C   UNL A   1      39.994  32.624  34.144  1.00  0.00     0.049 A 
ATOM     70  H   UNL A   1      40.495  31.165  32.702  1.00  0.00     0.167 HD
ATOM     71  C   UNL A   1      42.012  31.539  35.108  1.00  0.00     0.074 A 
ATOM     72  C   UNL A   1      43.026  31.366  36.131  1.00  0.00     0.031 C 
ATOM     73  C   UNL A   1      41.016  32.457  35.154  1.00  0.00     0.031 A 
BRANCH  60  74
ATOM     74  C   UNL A   1      37.162  32.398  30.291  1.00  0.00    -0.014 A 
ATOM     75  C   UNL A   1      37.289  33.534  29.468  1.00  0.00     0.010 A 
ATOM     76  C   UNL A   1      35.871  31.917  30.580  1.00  0.00     0.010 A 
ATOM     77  C   UNL A   1      36.157  34.188  28.970  1.00  0.00     0.020 A 
ATOM     78  C   UNL A   1      34.737  32.546  30.056  1.00  0.00     0.020 A 
ATOM     79  C   UNL A   1      34.886  33.692  29.272  1.00  0.00     0.054 A 
BRANCH  79  80
ATOM     80  S   UNL A   1      33.427  34.561  28.629  1.00  0.00     0.124 S 
ATOM     81  O   UNL A   1      32.609  34.720  29.826  1.00  0.00    -0.237 OA
ATOM     82  O   UNL A   1      34.002  35.791  28.089  1.00  0.00    -0.237 OA
ATOM     83  O   UNL A   1      32.894  33.642  27.626  1.00  0.00    -0.744 OA
ENDBRANCH  79  80
ENDBRANCH  60  74
BRANCH  61  84
ATOM     84  C   UNL A   1      45.245  28.140  34.442  1.00  0.00    -0.014 A 
ATOM     85  C   UNL A   1      46.550  28.569  34.127  1.00  0.00     0.010 A 
ATOM     86  C   UNL A   1      45.072  26.947  35.162  1.00  0.00     0.010 A 
ATOM     87  C   UNL A   1      47.653  27.771  34.442  1.00  0.00     0.020 A 
ATOM     88  C   UNL A   1      46.176  26.164  35.512  1.00  0.00     0.020 A 
ATOM     89  C   UNL A   1      47.454  26.562  35.112  1.00  0.00     0.054 A 
BRANCH  89  90
ATOM     90  S   UNL A   1      48.886  25.485  35.395  1.00  0.00     0.124 S 
ATOM     91  O   UNL A   1      49.983  26.449  35.424  1.00  0.00    -0.237 OA
ATOM     92  O   UNL A   1      48.563  24.859  36.675  1.00  0.00    -0.237 OA
ATOM     93  O   UNL A   1      48.874  24.587  34.244  1.00  0.00    -0.744 OA
ENDBRANCH  89  90
ENDBRANCH  61  84
BRANCH  73  94
ATOM     94  C   UNL A   1      40.964  33.381  36.345  1.00  0.00    -0.014 A 
ATOM     95  C   UNL A   1      40.229  33.010  37.487  1.00  0.00     0.010 A 
ATOM     96  C   UNL A   1      41.521  34.671  36.283  1.00  0.00     0.010 A 
ATOM     97  C   UNL A   1      40.004  33.927  38.517  1.00  0.00     0.020 A 
ATOM     98  C   UNL A   1      41.331  35.580  37.328  1.00  0.00     0.020 A 
ATOM     99  C   UNL A   1      40.546  35.212  38.423  1.00  0.00     0.054 A 
BRANCH  99 100
ATOM    100  S   UNL A   1      40.185  36.408  39.739  1.00  0.00     0.124 S 
ATOM    101  O   UNL A   1      39.685  37.553  38.984  1.00  0.00    -0.237 OA
ATOM    102  O   UNL A   1      39.193  35.704  40.547  1.00  0.00    -0.237 OA
ATOM    103  O   UNL A   1      41.479  36.606  40.388  1.00  0.00    -0.744 OA
ENDBRANCH  99 100
ENDBRANCH  73  94
ENDBRANCH  47  48
ENDBRANCH  40  42
ENDBRANCH  39  40
ENDBRANCH  38  39
ENDBRANCH  37  38
ENDBRANCH  36  37
ENDBRANCH  35  36
ENDBRANCH   1  35
TORSDOF 26
ENDMDL
MODEL 3
REMARK VINA RESULT:      -9.7      5.918     12.539
REMARK SMILES CC[C@@H](C)[C@@H](NC(=O)Cn1nc(-c2ccc3ccccc3c2)ccc1=O)C(=O)OCCOCCOCCOC(=O)c1ccc(-c2c3nc(c(-c4ccc(S(=O)(=O)[O-])cc4)c4ccc([nH]4)c(-c4ccc(S(=O)(=O)[O-])cc4)c4nc(c(-c5ccc(S(=O)(=O)[O-])cc5)c5ccc2[nH]5)C=C4)C=C3)cc1
REMARK SMILES IDX 33 1 32 2 31 3 30 4 29 5 27 6 28 7 5 8 3 9 4 10 2 11 1 12
REMARK SMILES IDX 6 13 7 14 8 16 9 17 10 18 11 19 25 20 12 21 24 22 26 23
REMARK SMILES IDX 23 24 13 25 14 26 22 27 15 28 21 29 16 30 20 31 17 32 19 33
REMARK SMILES IDX 18 34 34 35 35 36 36 37 37 38 38 39 39 40 40 41 41 42 42 43
REMARK SMILES IDX 100 44 43 45 99 46 44 47 45 48 46 49 93 50 47 51 98 52 92 53
REMARK SMILES IDX 94 54 48 55 97 56 91 57 90 58 49 60 79 61 60 62 78 63 61 64
REMARK SMILES IDX 64 65 77 66 95 67 62 68 63 69 76 71 96 72 65 73 50 74 51 75
REMARK SMILES IDX 59 76 52 77 58 78 53 79 54 80 55 81 56 82 57 83 80 84 81 85
REMARK SMILES IDX 89 86 82 87 88 88 83 89 84 90 85 91 86 92 87 93 66 94 67 95
REMARK SMILES IDX 75 96 68 97 74 98 69 99 70 100 71 101 72 102 73 103
REMARK H PARENT 6 15 94 59 64 70
REMARK Flexibility Score: inf
ROOT
ATOM      1  C   UNL A   1      46.403  19.982  24.646  1.00  0.00     0.188 C 
ENDROOT
BRANCH   1   2
ATOM      2  O   UNL A   1      46.334  21.303  25.151  1.00  0.00    -0.376 OA
BRANCH   2   3
ATOM      3  C   UNL A   1      46.126  22.326  24.184  1.00  0.00     0.202 C 
BRANCH   3   4
ATOM      4  C   UNL A   1      45.872  23.727  24.715  1.00  0.00     0.261 C 
BRANCH   4   5
ATOM      5  O   UNL A   1      47.133  24.429  24.866  1.00  0.00    -0.462 OA
BRANCH   5   6
ATOM      6  C   UNL A   1      47.488  24.778  26.122  1.00  0.00     0.328 C 
ATOM      7  O   UNL A   1      47.254  24.100  27.116  1.00  0.00    -0.250 OA
BRANCH   6   8
ATOM      8  C   UNL A   1      48.037  26.209  26.214  1.00  0.00     0.195 C 
BRANCH   8   9
ATOM      9  C   UNL A   1      49.436  26.623  26.752  1.00  0.00     0.019 C 
ATOM     10  C   UNL A   1      50.587  25.917  26.064  1.00  0.00     0.010 C 
BRANCH   9  11
ATOM     11  C   UNL A   1      49.500  26.366  28.287  1.00  0.00     0.002 C 
ATOM     12  C   UNL A   1      50.153  25.053  28.709  1.00  0.00     0.004 C 
ENDBRANCH   9  11
ENDBRANCH   8   9
BRANCH   8  13
ATOM     13  N   UNL A   1      47.601  26.991  25.054  1.00  0.00    -0.341 N 
ATOM     14  C   UNL A   1      46.413  27.343  24.507  1.00  0.00     0.242 C 
ATOM     15  H   UNL A   1      48.363  27.353  24.547  1.00  0.00     0.164 HD
ATOM     16  O   UNL A   1      46.536  28.089  23.517  1.00  0.00    -0.273 OA
BRANCH  14  17
ATOM     17  C   UNL A   1      44.986  27.144  25.095  1.00  0.00     0.248 C 
BRANCH  17  18
ATOM     18  N   UNL A   1      44.328  28.082  26.011  1.00  0.00    -0.220 N 
ATOM     19  N   UNL A   1      45.148  28.874  26.868  1.00  0.00    -0.169 NA
ATOM     20  C   UNL A   1      43.014  28.414  25.727  1.00  0.00     0.267 A 
ATOM     21  C   UNL A   1      44.579  29.834  27.548  1.00  0.00     0.091 A 
ATOM     22  C   UNL A   1      42.411  29.467  26.561  1.00  0.00     0.075 A 
ATOM     23  O   UNL A   1      42.325  27.886  24.857  1.00  0.00    -0.268 OA
ATOM     24  C   UNL A   1      43.144  30.174  27.423  1.00  0.00     0.036 A 
BRANCH  21  25
ATOM     25  C   UNL A   1      45.304  30.656  28.596  1.00  0.00     0.003 A 
ATOM     26  C   UNL A   1      44.748  31.732  29.272  1.00  0.00     0.011 A 
ATOM     27  C   UNL A   1      46.585  30.264  28.995  1.00  0.00     0.019 A 
ATOM     28  C   UNL A   1      45.472  32.349  30.326  1.00  0.00     0.009 A 
ATOM     29  C   UNL A   1      47.342  30.865  30.004  1.00  0.00    -0.018 A 
ATOM     30  C   UNL A   1      46.769  31.917  30.719  1.00  0.00    -0.018 A 
ATOM     31  C   UNL A   1      48.650  30.420  30.288  1.00  0.00     0.009 A 
ATOM     32  C   UNL A   1      47.529  32.469  31.776  1.00  0.00     0.009 A 
ATOM     33  C   UNL A   1      49.387  30.981  31.323  1.00  0.00     0.001 A 
ATOM     34  C   UNL A   1      48.819  31.997  32.079  1.00  0.00     0.001 A 
ENDBRANCH  21  25
ENDBRANCH  17  18
ENDBRANCH  14  17
ENDBRANCH   8  13
ENDBRANCH   6   8
ENDBRANCH   5   6
ENDBRANCH   4   5
ENDBRANCH   3   4
ENDBRANCH   2   3
ENDBRANCH   1   2
BRANCH   1  35
ATOM     35  C   UNL A   1      46.054  18.857  25.621  1.00  0.00     0.188 C 
BRANCH  35  36
ATOM     36  O   UNL A   1      44.797  18.202  25.558  1.00  0.00    -0.376 OA
BRANCH  36  37
ATOM     37  C   UNL A   1      43.731  18.954  24.938  1.00  0.00     0.202 C 
BRANCH  37  38
ATOM     38  C   UNL A   1      42.700  19.664  25.839  1.00  0.00     0.261 C 
BRANCH  38  39
ATOM     39  O   UNL A   1      42.582  21.080  25.624  1.00  0.00    -0.460 OA
BRANCH  39  40
ATOM     40  C   UNL A   1      41.431  21.684  26.008  1.00  0.00     0.338 C 
ATOM     41  O   UNL A   1      40.309  21.205  25.930  1.00  0.00    -0.246 OA
BRANCH  40  42
ATOM     42  C   UNL A   1      41.806  22.844  26.870  1.00  0.00     0.060 A 
ATOM     43  C   UNL A   1      42.336  24.020  26.319  1.00  0.00     0.016 A 
ATOM     44  C   UNL A   1      41.864  22.641  28.261  1.00  0.00     0.016 A 
ATOM     45  C   UNL A   1      42.887  24.995  27.151  1.00  0.00     0.010 A 
ATOM     46  C   UNL A   1      42.408  23.621  29.094  1.00  0.00     0.010 A 
ATOM     47  C   UNL A   1      42.879  24.822  28.547  1.00  0.00    -0.014 A 
BRANCH  47  48
ATOM     48  C   UNL A   1      43.027  26.007  29.425  1.00  0.00     0.031 A 
ATOM     49  C   UNL A   1      42.000  27.087  29.546  1.00  0.00     0.074 A 
ATOM     50  C   UNL A   1      44.199  26.093  30.084  1.00  0.00     0.049 A 
ATOM     51  N   UNL A   1      42.027  28.143  30.318  1.00  0.00    -0.248 NA
ATOM     52  C   UNL A   1      40.805  26.987  28.699  1.00  0.00     0.031 C 
ATOM     53  C   UNL A   1      45.276  25.102  29.988  1.00  0.00     0.029 A 
ATOM     54  N   UNL A   1      44.686  27.031  30.953  1.00  0.00    -0.354 N 
ATOM     55  C   UNL A   1      40.846  28.829  30.072  1.00  0.00     0.074 A 
ATOM     56  C   UNL A   1      40.148  28.093  29.037  1.00  0.00     0.031 C 
ATOM     57  C   UNL A   1      46.278  25.463  30.795  1.00  0.00     0.029 A 
ATOM     58  C   UNL A   1      45.941  26.733  31.427  1.00  0.00     0.049 A 
ATOM     59  H   UNL A   1      44.187  27.839  31.214  1.00  0.00     0.167 HD
ATOM     60  C   UNL A   1      40.389  29.955  30.674  1.00  0.00     0.031 A 
ATOM     61  C   UNL A   1      46.743  27.396  32.279  1.00  0.00     0.031 A 
ATOM     62  C   UNL A   1      41.134  30.689  31.674  1.00  0.00     0.049 A 
ATOM     63  C   UNL A   1      46.235  28.658  32.903  1.00  0.00     0.074 A 
ATOM     64  C   UNL A   1      40.750  31.823  32.368  1.00  0.00     0.029 A 
ATOM     65  N   UNL A   1      42.416  30.373  32.112  1.00  0.00    -0.354 N 
ATOM     66  N   UNL A   1      45.076  29.246  32.725  1.00  0.00    -0.248 NA
ATOM     67  C   UNL A   1      47.123  29.335  33.853  1.00  0.00     0.031 C 
ATOM     68  C   UNL A   1      41.825  32.239  33.159  1.00  0.00     0.029 A 
ATOM     69  C   UNL A   1      42.849  31.313  33.037  1.00  0.00     0.049 A 
ATOM     70  H   UNL A   1      42.939  29.595  31.811  1.00  0.00     0.167 HD
ATOM     71  C   UNL A   1      45.087  30.360  33.553  1.00  0.00     0.074 A 
ATOM     72  C   UNL A   1      46.359  30.347  34.249  1.00  0.00     0.031 C 
ATOM     73  C   UNL A   1      44.126  31.303  33.716  1.00  0.00     0.031 A 
BRANCH  60  74
ATOM     74  C   UNL A   1      39.017  30.468  30.295  1.00  0.00    -0.014 A 
ATOM     75  C   UNL A   1      38.869  31.410  29.258  1.00  0.00     0.010 A 
ATOM     76  C   UNL A   1      37.883  30.110  31.047  1.00  0.00     0.010 A 
ATOM     77  C   UNL A   1      37.625  31.998  28.997  1.00  0.00     0.020 A 
ATOM     78  C   UNL A   1      36.631  30.668  30.768  1.00  0.00     0.020 A 
ATOM     79  C   UNL A   1      36.514  31.627  29.759  1.00  0.00     0.054 A 
BRANCH  79  80
ATOM     80  S   UNL A   1      34.913  32.411  29.417  1.00  0.00     0.124 S 
ATOM     81  O   UNL A   1      34.288  31.456  28.508  1.00  0.00    -0.237 OA
ATOM     82  O   UNL A   1      34.312  32.502  30.747  1.00  0.00    -0.237 OA
ATOM     83  O   UNL A   1      35.279  33.694  28.821  1.00  0.00    -0.744 OA
ENDBRANCH  79  80
ENDBRANCH  60  74
BRANCH  61  84
ATOM     84  C   UNL A   1      48.060  26.793  32.619  1.00  0.00    -0.014 A 
ATOM     85  C   UNL A   1      49.205  27.113  31.862  1.00  0.00     0.010 A 
ATOM     86  C   UNL A   1      48.134  25.761  33.568  1.00  0.00     0.010 A 
ATOM     87  C   UNL A   1      50.370  26.352  31.984  1.00  0.00     0.020 A 
ATOM     88  C   UNL A   1      49.311  25.020  33.719  1.00  0.00     0.020 A 
ATOM     89  C   UNL A   1      50.406  25.295  32.897  1.00  0.00     0.054 A 
BRANCH  89  90
ATOM     90  S   UNL A   1      51.883  24.243  32.945  1.00  0.00     0.124 S 
ATOM     91  O   UNL A   1      52.822  25.010  32.130  1.00  0.00    -0.237 OA
ATOM     92  O   UNL A   1      52.186  24.189  34.372  1.00  0.00    -0.237 OA
ATOM     93  O   UNL A   1      51.429  22.987  32.357  1.00  0.00    -0.744 OA
ENDBRANCH  89  90
ENDBRANCH  61  84
BRANCH  73  94
ATOM     94  C   UNL A   1      44.404  32.434  34.676  1.00  0.00    -0.014 A 
ATOM     95  C   UNL A   1      43.341  33.030  35.381  1.00  0.00     0.010 A 
ATOM     96  C   UNL A   1      45.689  32.998  34.774  1.00  0.00     0.010 A 
ATOM     97  C   UNL A   1      43.545  34.199  36.119  1.00  0.00     0.020 A 
ATOM     98  C   UNL A   1      45.905  34.146  35.542  1.00  0.00     0.020 A 
ATOM     99  C   UNL A   1      44.825  34.757  36.183  1.00  0.00     0.054 A 
BRANCH  99 100
ATOM    100  S   UNL A   1      45.054  36.311  37.090  1.00  0.00     0.124 S 
ATOM    101  O   UNL A   1      45.669  35.854  38.332  1.00  0.00    -0.237 OA
ATOM    102  O   UNL A   1      45.923  37.075  36.199  1.00  0.00    -0.237 OA
ATOM    103  O   UNL A   1      43.696  36.835  37.223  1.00  0.00    -0.744 OA
ENDBRANCH  99 100
ENDBRANCH  73  94
ENDBRANCH  47  48
ENDBRANCH  40  42
ENDBRANCH  39  40
ENDBRANCH  38  39
ENDBRANCH  37  38
ENDBRANCH  36  37
ENDBRANCH  35  36
ENDBRANCH   1  35
TORSDOF 26
ENDMDL
