MODEL 1
REMARK VINA RESULT:      -9.7      0.000      0.000
REMARK SMILES C/C(=N\Nc1nc(-c2ccc(Cl)cc2)cs1)c1nnn(-c2ccc(C(=O)OCCOCCOCCOC(=O)c3ccc(-c4c5nc(c(-c6ccc(S(=O)(=O)[O-])cc6)c6ccc([nH]6)c(-c6ccc(S(=O)(=O)[O-])cc6)c6nc(c(-c7ccc(S(=O)(=O)[O-])cc7)c7ccc4[nH]7)C=C6)C=C5)cc3)cc2)c1C
REMARK SMILES IDX 31 1 30 2 29 3 28 4 27 5 25 6 26 7 24 8 21 9 22 10 100 11
REMARK SMILES IDX 23 12 99 13 20 14 17 15 18 16 101 17 19 18 102 19 2 20 1 21
REMARK SMILES IDX 3 22 4 23 5 25 6 26 16 27 7 28 15 29 8 30 9 31 14 32 10 33
REMARK SMILES IDX 13 34 11 35 12 36 32 37 33 38 34 39 35 40 36 41 37 42 38 43
REMARK SMILES IDX 39 44 40 45 98 46 41 47 97 48 42 49 43 50 44 51 91 52 45 53
REMARK SMILES IDX 96 54 90 55 92 56 46 57 95 58 89 59 88 60 47 62 77 63 58 64
REMARK SMILES IDX 76 65 59 66 62 67 75 68 93 69 60 70 61 71 74 73 94 74 63 75
REMARK SMILES IDX 48 76 49 77 57 78 50 79 56 80 51 81 52 82 53 83 54 84 55 85
REMARK SMILES IDX 78 86 79 87 87 88 80 89 86 90 81 91 82 92 83 93 84 94 85 95
REMARK SMILES IDX 64 96 65 97 73 98 66 99 72 100 67 101 68 102 69 103 70 104
REMARK SMILES IDX 71 105
REMARK H PARENT 4 24 92 61 62 72
REMARK Flexibility Score: inf
ROOT
ATOM      1  C   UNL A   1      35.145  22.068  25.603  1.00  0.00     0.188 C 
ENDROOT
BRANCH   1   2
ATOM      2  O   UNL A   1      34.425  21.582  26.731  1.00  0.00    -0.376 OA
BRANCH   2   3
ATOM      3  C   UNL A   1      33.142  20.994  26.553  1.00  0.00     0.202 C 
BRANCH   3   4
ATOM      4  C   UNL A   1      32.701  20.560  25.145  1.00  0.00     0.261 C 
BRANCH   4   5
ATOM      5  O   UNL A   1      31.708  21.408  24.549  1.00  0.00    -0.460 OA
BRANCH   5   6
ATOM      6  C   UNL A   1      31.973  21.851  23.301  1.00  0.00     0.338 C 
ATOM      7  O   UNL A   1      32.017  21.181  22.276  1.00  0.00    -0.246 OA
BRANCH   6   8
ATOM      8  C   UNL A   1      32.087  23.327  23.292  1.00  0.00     0.060 A 
ATOM      9  C   UNL A   1      32.406  26.076  23.521  1.00  0.00     0.067 A 
ATOM     10  C   UNL A   1      33.541  25.271  23.393  1.00  0.00     0.029 A 
ATOM     11  C   UNL A   1      31.120  25.533  23.383  1.00  0.00     0.029 A 
ATOM     12  C   UNL A   1      33.374  23.889  23.304  1.00  0.00     0.018 A 
ATOM     13  C   UNL A   1      30.959  24.154  23.270  1.00  0.00     0.018 A 
BRANCH   9  14
ATOM     14  N   UNL A   1      32.560  27.372  24.065  1.00  0.00    -0.217 N 
ATOM     15  C   UNL A   1      33.127  28.929  25.485  1.00  0.00     0.132 A 
ATOM     16  N   UNL A   1      33.377  29.384  24.222  1.00  0.00    -0.128 NA
ATOM     17  C   UNL A   1      32.579  27.659  25.422  1.00  0.00     0.071 A 
ATOM     18  N   UNL A   1      33.099  28.401  23.371  1.00  0.00    -0.061 NA
ATOM     19  C   UNL A   1      32.306  26.677  26.504  1.00  0.00     0.069 C 
BRANCH  15  20
ATOM     20  C   UNL A   1      33.580  29.579  26.705  1.00  0.00     0.087 C 
ATOM     21  C   UNL A   1      32.692  30.702  27.185  1.00  0.00     0.071 C 
ATOM     22  N   UNL A   1      34.733  29.183  27.163  1.00  0.00    -0.176 NA
BRANCH  22  23
ATOM     23  N   UNL A   1      35.426  29.799  28.174  1.00  0.00    -0.252 N 
ATOM     24  H   UNL A   1      34.913  30.494  28.646  1.00  0.00     0.193 HD
BRANCH  23  25
ATOM     25  C   UNL A   1      36.687  29.629  28.645  1.00  0.00     0.203 A 
ATOM     26  N   UNL A   1      37.794  29.642  27.942  1.00  0.00    -0.219 NA
ATOM     27  S   UNL A   1      36.942  29.304  30.327  1.00  0.00    -0.103 S 
ATOM     28  C   UNL A   1      38.842  29.114  28.664  1.00  0.00     0.084 A 
ATOM     29  C   UNL A   1      38.568  28.864  29.991  1.00  0.00     0.097 A 
BRANCH  28  30
ATOM     30  C   UNL A   1      40.091  28.806  27.996  1.00  0.00     0.001 A 
ATOM     31  C   UNL A   1      40.194  28.993  26.611  1.00  0.00     0.012 A 
ATOM     32  C   UNL A   1      41.157  28.221  28.692  1.00  0.00     0.012 A 
ATOM     33  C   UNL A   1      41.356  28.618  25.931  1.00  0.00     0.021 A 
ATOM     34  C   UNL A   1      42.315  27.836  28.010  1.00  0.00     0.021 A 
ATOM     35  C   UNL A   1      42.411  28.041  26.634  1.00  0.00     0.041 A 
ATOM     36  Cl  UNL A   1      43.834  27.561  25.796  1.00  0.00    -0.084 Cl
ENDBRANCH  28  30
ENDBRANCH  23  25
ENDBRANCH  22  23
ENDBRANCH  15  20
ENDBRANCH   9  14
ENDBRANCH   6   8
ENDBRANCH   5   6
ENDBRANCH   4   5
ENDBRANCH   3   4
ENDBRANCH   2   3
ENDBRANCH   1   2
BRANCH   1  37
ATOM     37  C   UNL A   1      35.869  21.093  24.648  1.00  0.00     0.188 C 
BRANCH  37  38
ATOM     38  O   UNL A   1      37.208  21.444  24.337  1.00  0.00    -0.376 OA
BRANCH  38  39
ATOM     39  C   UNL A   1      38.219  20.901  25.177  1.00  0.00     0.202 C 
BRANCH  39  40
ATOM     40  C   UNL A   1      39.048  21.892  25.994  1.00  0.00     0.261 C 
BRANCH  40  41
ATOM     41  O   UNL A   1      40.012  21.307  26.860  1.00  0.00    -0.460 OA
BRANCH  41  42
ATOM     42  C   UNL A   1      41.186  20.972  26.300  1.00  0.00     0.338 C 
ATOM     43  O   UNL A   1      41.490  19.873  25.840  1.00  0.00    -0.246 OA
BRANCH  42  44
ATOM     44  C   UNL A   1      42.085  22.128  26.367  1.00  0.00     0.060 A 
ATOM     45  C   UNL A   1      43.446  21.916  26.136  1.00  0.00     0.016 A 
ATOM     46  C   UNL A   1      41.607  23.342  26.892  1.00  0.00     0.016 A 
ATOM     47  C   UNL A   1      44.347  22.841  26.621  1.00  0.00     0.010 A 
ATOM     48  C   UNL A   1      42.507  24.255  27.390  1.00  0.00     0.010 A 
ATOM     49  C   UNL A   1      43.864  23.946  27.330  1.00  0.00    -0.014 A 
BRANCH  49  50
ATOM     50  C   UNL A   1      44.814  24.699  28.123  1.00  0.00     0.031 A 
ATOM     51  C   UNL A   1      44.570  24.748  29.576  1.00  0.00     0.074 A 
ATOM     52  C   UNL A   1      45.913  25.243  27.567  1.00  0.00     0.049 A 
ATOM     53  N   UNL A   1      44.291  25.781  30.298  1.00  0.00    -0.248 NA
ATOM     54  C   UNL A   1      44.563  23.471  30.302  1.00  0.00     0.031 C 
ATOM     55  C   UNL A   1      46.445  24.995  26.223  1.00  0.00     0.029 A 
ATOM     56  N   UNL A   1      46.856  26.039  28.139  1.00  0.00    -0.354 N 
ATOM     57  C   UNL A   1      44.257  25.320  31.607  1.00  0.00     0.074 A 
ATOM     58  C   UNL A   1      44.282  23.879  31.538  1.00  0.00     0.031 C 
ATOM     59  C   UNL A   1      47.718  25.442  26.167  1.00  0.00     0.029 A 
ATOM     60  C   UNL A   1      48.038  26.110  27.419  1.00  0.00     0.049 A 
ATOM     61  H   UNL A   1      46.711  26.521  28.985  1.00  0.00     0.167 HD
ATOM     62  C   UNL A   1      44.439  26.145  32.671  1.00  0.00     0.031 A 
ATOM     63  C   UNL A   1      49.221  26.601  27.860  1.00  0.00     0.031 A 
ATOM     64  C   UNL A   1      44.314  27.535  32.329  1.00  0.00     0.049 A 
ATOM     65  C   UNL A   1      48.948  27.469  29.030  1.00  0.00     0.074 A 
ATOM     66  C   UNL A   1      43.310  28.323  31.803  1.00  0.00     0.029 A 
ATOM     67  N   UNL A   1      45.474  28.263  32.209  1.00  0.00    -0.354 N 
ATOM     68  N   UNL A   1      48.327  28.613  28.961  1.00  0.00    -0.248 NA
ATOM     69  C   UNL A   1      49.042  26.899  30.366  1.00  0.00     0.031 C 
ATOM     70  C   UNL A   1      43.974  29.305  31.012  1.00  0.00     0.029 A 
ATOM     71  C   UNL A   1      45.347  29.073  31.108  1.00  0.00     0.049 A 
ATOM     72  H   UNL A   1      46.255  28.212  32.805  1.00  0.00     0.167 HD
ATOM     73  C   UNL A   1      47.609  28.707  30.143  1.00  0.00     0.074 A 
ATOM     74  C   UNL A   1      48.190  27.694  31.017  1.00  0.00     0.031 C 
ATOM     75  C   UNL A   1      46.433  29.401  30.204  1.00  0.00     0.031 A 
BRANCH  62  76
ATOM     76  C   UNL A   1      45.094  25.689  33.947  1.00  0.00    -0.014 A 
ATOM     77  C   UNL A   1      44.479  25.968  35.181  1.00  0.00     0.010 A 
ATOM     78  C   UNL A   1      46.430  25.228  33.979  1.00  0.00     0.010 A 
ATOM     79  C   UNL A   1      45.183  25.836  36.385  1.00  0.00     0.020 A 
ATOM     80  C   UNL A   1      47.123  25.046  35.174  1.00  0.00     0.020 A 
ATOM     81  C   UNL A   1      46.506  25.388  36.369  1.00  0.00     0.054 A 
BRANCH  81  82
ATOM     82  S   UNL A   1      47.449  25.334  37.912  1.00  0.00     0.124 S 
ATOM     83  O   UNL A   1      46.529  24.628  38.798  1.00  0.00    -0.237 OA
ATOM     84  O   UNL A   1      48.648  24.597  37.523  1.00  0.00    -0.237 OA
ATOM     85  O   UNL A   1      47.667  26.745  38.227  1.00  0.00    -0.744 OA
ENDBRANCH  81  82
ENDBRANCH  62  76
BRANCH  63  86
ATOM     86  C   UNL A   1      50.578  26.119  27.509  1.00  0.00    -0.014 A 
ATOM     87  C   UNL A   1      50.771  25.215  26.450  1.00  0.00     0.010 A 
ATOM     88  C   UNL A   1      51.718  26.751  28.051  1.00  0.00     0.010 A 
ATOM     89  C   UNL A   1      52.051  24.999  25.914  1.00  0.00     0.020 A 
ATOM     90  C   UNL A   1      52.997  26.527  27.534  1.00  0.00     0.020 A 
ATOM     91  C   UNL A   1      53.153  25.672  26.448  1.00  0.00     0.054 A 
BRANCH  91  92
ATOM     92  S   UNL A   1      54.770  25.527  25.636  1.00  0.00     0.124 S 
ATOM     93  O   UNL A   1      54.479  25.986  24.282  1.00  0.00    -0.237 OA
ATOM     94  O   UNL A   1      55.609  26.414  26.439  1.00  0.00    -0.237 OA
ATOM     95  O   UNL A   1      55.089  24.105  25.755  1.00  0.00    -0.744 OA
ENDBRANCH  91  92
ENDBRANCH  63  86
BRANCH  75  96
ATOM     96  C   UNL A   1      46.115  30.368  29.087  1.00  0.00    -0.014 A 
ATOM     97  C   UNL A   1      45.622  29.963  27.831  1.00  0.00     0.010 A 
ATOM     98  C   UNL A   1      46.189  31.746  29.363  1.00  0.00     0.010 A 
ATOM     99  C   UNL A   1      45.247  30.910  26.867  1.00  0.00     0.020 A 
ATOM    100  C   UNL A   1      45.798  32.695  28.414  1.00  0.00     0.020 A 
ATOM    101  C   UNL A   1      45.338  32.272  27.165  1.00  0.00     0.054 A 
BRANCH 101 102
ATOM    102  S   UNL A   1      44.796  33.488  25.931  1.00  0.00     0.124 S 
ATOM    103  O   UNL A   1      43.853  32.722  25.123  1.00  0.00    -0.237 OA
ATOM    104  O   UNL A   1      44.208  34.545  26.751  1.00  0.00    -0.237 OA
ATOM    105  O   UNL A   1      46.034  33.865  25.248  1.00  0.00    -0.744 OA
ENDBRANCH 101 102
ENDBRANCH  75  96
ENDBRANCH  49  50
ENDBRANCH  42  44
ENDBRANCH  41  42
ENDBRANCH  40  41
ENDBRANCH  39  40
ENDBRANCH  38  39
ENDBRANCH  37  38
ENDBRANCH   1  37
TORSDOF 25
ENDMDL
MODEL 2
REMARK VINA RESULT:      -9.5      2.298      3.114
REMARK SMILES C/C(=N\Nc1nc(-c2ccc(Cl)cc2)cs1)c1nnn(-c2ccc(C(=O)OCCOCCOCCOC(=O)c3ccc(-c4c5nc(c(-c6ccc(S(=O)(=O)[O-])cc6)c6ccc([nH]6)c(-c6ccc(S(=O)(=O)[O-])cc6)c6nc(c(-c7ccc(S(=O)(=O)[O-])cc7)c7ccc4[nH]7)C=C6)C=C5)cc3)cc2)c1C
REMARK SMILES IDX 31 1 30 2 29 3 28 4 27 5 25 6 26 7 24 8 21 9 22 10 100 11
REMARK SMILES IDX 23 12 99 13 20 14 17 15 18 16 101 17 19 18 102 19 2 20 1 21
REMARK SMILES IDX 3 22 4 23 5 25 6 26 16 27 7 28 15 29 8 30 9 31 14 32 10 33
REMARK SMILES IDX 13 34 11 35 12 36 32 37 33 38 34 39 35 40 36 41 37 42 38 43
REMARK SMILES IDX 39 44 40 45 98 46 41 47 97 48 42 49 43 50 44 51 91 52 45 53
REMARK SMILES IDX 96 54 90 55 92 56 46 57 95 58 89 59 88 60 47 62 77 63 58 64
REMARK SMILES IDX 76 65 59 66 62 67 75 68 93 69 60 70 61 71 74 73 94 74 63 75
REMARK SMILES IDX 48 76 49 77 57 78 50 79 56 80 51 81 52 82 53 83 54 84 55 85
REMARK SMILES IDX 78 86 79 87 87 88 80 89 86 90 81 91 82 92 83 93 84 94 85 95
REMARK SMILES IDX 64 96 65 97 73 98 66 99 72 100 67 101 68 102 69 103 70 104
REMARK SMILES IDX 71 105
REMARK H PARENT 4 24 92 61 62 72
REMARK Flexibility Score: inf
ROOT
ATOM      1  C   UNL A   1      37.983  21.513  25.114  1.00  0.00     0.188 C 
ENDROOT
BRANCH   1   2
ATOM      2  O   UNL A   1      36.799  20.849  25.545  1.00  0.00    -0.376 OA
BRANCH   2   3
ATOM      3  C   UNL A   1      35.531  21.457  25.336  1.00  0.00     0.202 C 
BRANCH   3   4
ATOM      4  C   UNL A   1      34.329  20.579  24.950  1.00  0.00     0.261 C 
BRANCH   4   5
ATOM      5  O   UNL A   1      33.073  21.274  24.924  1.00  0.00    -0.460 OA
BRANCH   5   6
ATOM      6  C   UNL A   1      32.558  21.530  23.702  1.00  0.00     0.338 C 
ATOM      7  O   UNL A   1      32.226  20.708  22.856  1.00  0.00    -0.246 OA
BRANCH   6   8
ATOM      8  C   UNL A   1      32.311  22.981  23.541  1.00  0.00     0.060 A 
ATOM      9  C   UNL A   1      31.988  25.738  23.465  1.00  0.00     0.067 A 
ATOM     10  C   UNL A   1      33.254  25.197  23.221  1.00  0.00     0.029 A 
ATOM     11  C   UNL A   1      30.865  24.908  23.593  1.00  0.00     0.029 A 
ATOM     12  C   UNL A   1      33.414  23.813  23.286  1.00  0.00     0.018 A 
ATOM     13  C   UNL A   1      31.025  23.525  23.634  1.00  0.00     0.018 A 
BRANCH   9  14
ATOM     14  N   UNL A   1      31.902  27.094  23.856  1.00  0.00    -0.217 N 
ATOM     15  C   UNL A   1      32.295  28.911  24.997  1.00  0.00     0.132 A 
ATOM     16  N   UNL A   1      32.198  29.243  23.676  1.00  0.00    -0.128 NA
ATOM     17  C   UNL A   1      32.084  27.552  25.152  1.00  0.00     0.071 A 
ATOM     18  N   UNL A   1      32.034  28.120  22.984  1.00  0.00    -0.061 NA
ATOM     19  C   UNL A   1      32.260  26.684  26.345  1.00  0.00     0.069 C 
BRANCH  15  20
ATOM     20  C   UNL A   1      32.773  29.803  26.043  1.00  0.00     0.087 C 
ATOM     21  C   UNL A   1      31.765  30.827  26.505  1.00  0.00     0.071 C 
ATOM     22  N   UNL A   1      34.027  29.671  26.368  1.00  0.00    -0.176 NA
BRANCH  22  23
ATOM     23  N   UNL A   1      34.720  30.536  27.178  1.00  0.00    -0.252 N 
ATOM     24  H   UNL A   1      34.194  31.312  27.478  1.00  0.00     0.193 HD
BRANCH  23  25
ATOM     25  C   UNL A   1      35.995  30.522  27.641  1.00  0.00     0.203 A 
ATOM     26  N   UNL A   1      36.918  29.630  27.368  1.00  0.00    -0.219 NA
ATOM     27  S   UNL A   1      36.521  31.741  28.752  1.00  0.00    -0.103 S 
ATOM     28  C   UNL A   1      37.972  29.727  28.250  1.00  0.00     0.084 A 
ATOM     29  C   UNL A   1      37.932  30.819  29.088  1.00  0.00     0.097 A 
BRANCH  28  30
ATOM     30  C   UNL A   1      38.977  28.682  28.285  1.00  0.00     0.001 A 
ATOM     31  C   UNL A   1      39.978  28.660  27.306  1.00  0.00     0.012 A 
ATOM     32  C   UNL A   1      38.897  27.635  29.212  1.00  0.00     0.012 A 
ATOM     33  C   UNL A   1      40.904  27.614  27.265  1.00  0.00     0.021 A 
ATOM     34  C   UNL A   1      39.816  26.582  29.164  1.00  0.00     0.021 A 
ATOM     35  C   UNL A   1      40.818  26.579  28.193  1.00  0.00     0.041 A 
ATOM     36  Cl  UNL A   1      41.944  25.281  28.133  1.00  0.00    -0.084 Cl
ENDBRANCH  28  30
ENDBRANCH  23  25
ENDBRANCH  22  23
ENDBRANCH  15  20
ENDBRANCH   9  14
ENDBRANCH   6   8
ENDBRANCH   5   6
ENDBRANCH   4   5
ENDBRANCH   3   4
ENDBRANCH   2   3
ENDBRANCH   1   2
BRANCH   1  37
ATOM     37  C   UNL A   1      38.904  22.225  26.130  1.00  0.00     0.188 C 
BRANCH  37  38
ATOM     38  O   UNL A   1      39.742  21.364  26.883  1.00  0.00    -0.376 OA
BRANCH  38  39
ATOM     39  C   UNL A   1      41.091  21.780  27.056  1.00  0.00     0.202 C 
BRANCH  39  40
ATOM     40  C   UNL A   1      42.000  21.711  25.828  1.00  0.00     0.261 C 
BRANCH  40  41
ATOM     41  O   UNL A   1      42.422  22.968  25.315  1.00  0.00    -0.460 OA
BRANCH  41  42
ATOM     42  C   UNL A   1      43.595  22.977  24.659  1.00  0.00     0.338 C 
ATOM     43  O   UNL A   1      43.958  22.178  23.798  1.00  0.00    -0.246 OA
BRANCH  42  44
ATOM     44  C   UNL A   1      44.412  24.079  25.175  1.00  0.00     0.060 A 
ATOM     45  C   UNL A   1      45.511  23.763  25.977  1.00  0.00     0.016 A 
ATOM     46  C   UNL A   1      43.941  25.398  25.058  1.00  0.00     0.016 A 
ATOM     47  C   UNL A   1      46.009  24.732  26.822  1.00  0.00     0.010 A 
ATOM     48  C   UNL A   1      44.428  26.360  25.913  1.00  0.00     0.010 A 
ATOM     49  C   UNL A   1      45.392  25.987  26.847  1.00  0.00    -0.014 A 
BRANCH  49  50
ATOM     50  C   UNL A   1      45.687  26.857  27.967  1.00  0.00     0.031 A 
ATOM     51  C   UNL A   1      45.022  26.540  29.243  1.00  0.00     0.074 A 
ATOM     52  C   UNL A   1      46.598  27.843  27.864  1.00  0.00     0.049 A 
ATOM     53  N   UNL A   1      44.160  27.254  29.886  1.00  0.00    -0.248 NA
ATOM     54  C   UNL A   1      45.298  25.226  29.840  1.00  0.00     0.031 C 
ATOM     55  C   UNL A   1      47.560  28.056  26.777  1.00  0.00     0.029 A 
ATOM     56  N   UNL A   1      46.938  28.792  28.778  1.00  0.00    -0.354 N 
ATOM     57  C   UNL A   1      43.920  26.570  31.069  1.00  0.00     0.074 A 
ATOM     58  C   UNL A   1      44.525  25.268  30.923  1.00  0.00     0.031 C 
ATOM     59  C   UNL A   1      48.511  28.919  27.197  1.00  0.00     0.029 A 
ATOM     60  C   UNL A   1      48.154  29.404  28.521  1.00  0.00     0.049 A 
ATOM     61  H   UNL A   1      46.371  29.023  29.549  1.00  0.00     0.167 HD
ATOM     62  C   UNL A   1      43.439  27.188  32.180  1.00  0.00     0.031 A 
ATOM     63  C   UNL A   1      48.861  30.181  29.376  1.00  0.00     0.031 A 
ATOM     64  C   UNL A   1      42.889  28.487  31.903  1.00  0.00     0.049 A 
ATOM     65  C   UNL A   1      47.935  30.660  30.430  1.00  0.00     0.074 A 
ATOM     66  C   UNL A   1      41.864  28.962  31.111  1.00  0.00     0.029 A 
ATOM     67  N   UNL A   1      43.651  29.579  32.241  1.00  0.00    -0.354 N 
ATOM     68  N   UNL A   1      46.969  31.509  30.220  1.00  0.00    -0.248 NA
ATOM     69  C   UNL A   1      47.841  29.915  31.676  1.00  0.00     0.031 C 
ATOM     70  C   UNL A   1      42.295  30.246  30.664  1.00  0.00     0.029 A 
ATOM     71  C   UNL A   1      43.553  30.490  31.218  1.00  0.00     0.049 A 
ATOM     72  H   UNL A   1      44.173  29.690  33.068  1.00  0.00     0.167 HD
ATOM     73  C   UNL A   1      45.954  31.121  31.082  1.00  0.00     0.074 A 
ATOM     74  C   UNL A   1      46.594  30.226  32.037  1.00  0.00     0.031 C 
ATOM     75  C   UNL A   1      44.641  31.340  30.772  1.00  0.00     0.031 A 
BRANCH  62  76
ATOM     76  C   UNL A   1      43.806  26.752  33.573  1.00  0.00    -0.014 A 
ATOM     77  C   UNL A   1      45.080  27.063  34.083  1.00  0.00     0.010 A 
ATOM     78  C   UNL A   1      43.031  25.816  34.293  1.00  0.00     0.010 A 
ATOM     79  C   UNL A   1      45.571  26.431  35.234  1.00  0.00     0.020 A 
ATOM     80  C   UNL A   1      43.490  25.219  35.466  1.00  0.00     0.020 A 
ATOM     81  C   UNL A   1      44.774  25.502  35.908  1.00  0.00     0.054 A 
BRANCH  81  82
ATOM     82  S   UNL A   1      45.456  24.601  37.320  1.00  0.00     0.124 S 
ATOM     83  O   UNL A   1      44.467  24.881  38.356  1.00  0.00    -0.237 OA
ATOM     84  O   UNL A   1      45.491  23.226  36.829  1.00  0.00    -0.237 OA
ATOM     85  O   UNL A   1      46.766  25.219  37.518  1.00  0.00    -0.744 OA
ENDBRANCH  81  82
ENDBRANCH  62  76
BRANCH  63  86
ATOM     86  C   UNL A   1      50.336  30.275  29.492  1.00  0.00    -0.014 A 
ATOM     87  C   UNL A   1      50.956  31.487  29.841  1.00  0.00     0.010 A 
ATOM     88  C   UNL A   1      51.123  29.103  29.514  1.00  0.00     0.010 A 
ATOM     89  C   UNL A   1      52.297  31.516  30.255  1.00  0.00     0.020 A 
ATOM     90  C   UNL A   1      52.463  29.126  29.908  1.00  0.00     0.020 A 
ATOM     91  C   UNL A   1      53.037  30.331  30.304  1.00  0.00     0.054 A 
BRANCH  91  92
ATOM     92  S   UNL A   1      54.709  30.347  31.011  1.00  0.00     0.124 S 
ATOM     93  O   UNL A   1      55.486  29.656  29.987  1.00  0.00    -0.237 OA
ATOM     94  O   UNL A   1      54.978  31.775  31.155  1.00  0.00    -0.237 OA
ATOM     95  O   UNL A   1      54.556  29.620  32.271  1.00  0.00    -0.744 OA
ENDBRANCH  91  92
ENDBRANCH  63  86
BRANCH  75  96
ATOM     96  C   UNL A   1      44.319  32.331  29.676  1.00  0.00    -0.014 A 
ATOM     97  C   UNL A   1      43.974  33.673  29.926  1.00  0.00     0.010 A 
ATOM     98  C   UNL A   1      44.504  31.925  28.342  1.00  0.00     0.010 A 
ATOM     99  C   UNL A   1      43.785  34.575  28.869  1.00  0.00     0.020 A 
ATOM    100  C   UNL A   1      44.338  32.824  27.284  1.00  0.00     0.020 A 
ATOM    101  C   UNL A   1      43.969  34.144  27.553  1.00  0.00     0.054 A 
BRANCH 101 102
ATOM    102  S   UNL A   1      43.778  35.333  26.195  1.00  0.00     0.124 S 
ATOM    103  O   UNL A   1      45.161  35.639  25.843  1.00  0.00    -0.237 OA
ATOM    104  O   UNL A   1      43.029  34.572  25.198  1.00  0.00    -0.237 OA
ATOM    105  O   UNL A   1      43.034  36.437  26.802  1.00  0.00    -0.744 OA
ENDBRANCH 101 102
ENDBRANCH  75  96
ENDBRANCH  49  50
ENDBRANCH  42  44
ENDBRANCH  41  42
ENDBRANCH  40  41
ENDBRANCH  39  40
ENDBRANCH  38  39
ENDBRANCH  37  38
ENDBRANCH   1  37
TORSDOF 25
ENDMDL
MODEL 3
REMARK VINA RESULT:      -9.3      2.998      5.907
REMARK SMILES C/C(=N\Nc1nc(-c2ccc(Cl)cc2)cs1)c1nnn(-c2ccc(C(=O)OCCOCCOCCOC(=O)c3ccc(-c4c5nc(c(-c6ccc(S(=O)(=O)[O-])cc6)c6ccc([nH]6)c(-c6ccc(S(=O)(=O)[O-])cc6)c6nc(c(-c7ccc(S(=O)(=O)[O-])cc7)c7ccc4[nH]7)C=C6)C=C5)cc3)cc2)c1C
REMARK SMILES IDX 31 1 30 2 29 3 28 4 27 5 25 6 26 7 24 8 21 9 22 10 100 11
REMARK SMILES IDX 23 12 99 13 20 14 17 15 18 16 101 17 19 18 102 19 2 20 1 21
REMARK SMILES IDX 3 22 4 23 5 25 6 26 16 27 7 28 15 29 8 30 9 31 14 32 10 33
REMARK SMILES IDX 13 34 11 35 12 36 32 37 33 38 34 39 35 40 36 41 37 42 38 43
REMARK SMILES IDX 39 44 40 45 98 46 41 47 97 48 42 49 43 50 44 51 91 52 45 53
REMARK SMILES IDX 96 54 90 55 92 56 46 57 95 58 89 59 88 60 47 62 77 63 58 64
REMARK SMILES IDX 76 65 59 66 62 67 75 68 93 69 60 70 61 71 74 73 94 74 63 75
REMARK SMILES IDX 48 76 49 77 57 78 50 79 56 80 51 81 52 82 53 83 54 84 55 85
REMARK SMILES IDX 78 86 79 87 87 88 80 89 86 90 81 91 82 92 83 93 84 94 85 95
REMARK SMILES IDX 64 96 65 97 73 98 66 99 72 100 67 101 68 102 69 103 70 104
REMARK SMILES IDX 71 105
REMARK H PARENT 4 24 92 61 62 72
REMARK Flexibility Score: inf
ROOT
ATOM      1  C   UNL A   1      38.268  21.458  25.511  1.00  0.00     0.188 C 
ENDROOT
BRANCH   1   2
ATOM      2  O   UNL A   1      37.088  20.937  24.909  1.00  0.00    -0.376 OA
BRANCH   2   3
ATOM      3  C   UNL A   1      35.812  21.294  25.426  1.00  0.00     0.202 C 
BRANCH   3   4
ATOM      4  C   UNL A   1      34.547  20.702  24.784  1.00  0.00     0.261 C 
BRANCH   4   5
ATOM      5  O   UNL A   1      33.637  21.681  24.260  1.00  0.00    -0.460 OA
BRANCH   5   6
ATOM      6  C   UNL A   1      32.428  21.752  24.858  1.00  0.00     0.338 C 
ATOM      7  O   UNL A   1      31.717  20.813  25.197  1.00  0.00    -0.246 OA
BRANCH   6   8
ATOM      8  C   UNL A   1      32.099  23.157  25.189  1.00  0.00     0.060 A 
ATOM      9  C   UNL A   1      31.538  25.853  25.551  1.00  0.00     0.067 A 
ATOM     10  C   UNL A   1      30.669  25.079  24.778  1.00  0.00     0.029 A 
ATOM     11  C   UNL A   1      32.591  25.259  26.262  1.00  0.00     0.029 A 
ATOM     12  C   UNL A   1      30.971  23.731  24.579  1.00  0.00     0.018 A 
ATOM     13  C   UNL A   1      32.875  23.907  26.080  1.00  0.00     0.018 A 
BRANCH   9  14
ATOM     14  N   UNL A   1      31.514  27.257  25.385  1.00  0.00    -0.217 N 
ATOM     15  C   UNL A   1      31.847  29.365  25.835  1.00  0.00     0.132 A 
ATOM     16  N   UNL A   1      32.062  29.169  24.501  1.00  0.00    -0.128 NA
ATOM     17  C   UNL A   1      31.469  28.172  26.426  1.00  0.00     0.071 A 
ATOM     18  N   UNL A   1      31.930  27.870  24.253  1.00  0.00    -0.061 NA
ATOM     19  C   UNL A   1      31.302  27.823  27.860  1.00  0.00     0.069 C 
BRANCH  15  20
ATOM     20  C   UNL A   1      32.189  30.581  26.559  1.00  0.00     0.087 C 
ATOM     21  C   UNL A   1      31.332  31.776  26.218  1.00  0.00     0.071 C 
ATOM     22  N   UNL A   1      33.242  30.508  27.321  1.00  0.00    -0.176 NA
BRANCH  22  23
ATOM     23  N   UNL A   1      33.844  31.581  27.928  1.00  0.00    -0.252 N 
ATOM     24  H   UNL A   1      33.325  32.416  27.873  1.00  0.00     0.193 HD
BRANCH  23  25
ATOM     25  C   UNL A   1      35.022  31.708  28.587  1.00  0.00     0.203 A 
ATOM     26  N   UNL A   1      36.089  30.959  28.436  1.00  0.00    -0.219 NA
ATOM     27  S   UNL A   1      35.201  32.924  29.806  1.00  0.00    -0.103 S 
ATOM     28  C   UNL A   1      36.972  31.145  29.477  1.00  0.00     0.084 A 
ATOM     29  C   UNL A   1      36.655  32.177  30.333  1.00  0.00     0.097 A 
BRANCH  28  30
ATOM     30  C   UNL A   1      38.093  30.240  29.638  1.00  0.00     0.001 A 
ATOM     31  C   UNL A   1      39.323  30.558  29.049  1.00  0.00     0.012 A 
ATOM     32  C   UNL A   1      37.935  29.002  30.277  1.00  0.00     0.012 A 
ATOM     33  C   UNL A   1      40.392  29.660  29.114  1.00  0.00     0.021 A 
ATOM     34  C   UNL A   1      39.001  28.099  30.332  1.00  0.00     0.021 A 
ATOM     35  C   UNL A   1      40.225  28.434  29.754  1.00  0.00     0.041 A 
ATOM     36  Cl  UNL A   1      41.533  27.319  29.818  1.00  0.00    -0.084 Cl
ENDBRANCH  28  30
ENDBRANCH  23  25
ENDBRANCH  22  23
ENDBRANCH  15  20
ENDBRANCH   9  14
ENDBRANCH   6   8
ENDBRANCH   5   6
ENDBRANCH   4   5
ENDBRANCH   3   4
ENDBRANCH   2   3
ENDBRANCH   1   2
BRANCH   1  37
ATOM     37  C   UNL A   1      39.375  20.512  26.029  1.00  0.00     0.188 C 
BRANCH  37  38
ATOM     38  O   UNL A   1      40.313  21.115  26.907  1.00  0.00    -0.376 OA
BRANCH  38  39
ATOM     39  C   UNL A   1      41.599  20.512  26.975  1.00  0.00     0.202 C 
BRANCH  39  40
ATOM     40  C   UNL A   1      42.665  21.043  26.016  1.00  0.00     0.261 C 
BRANCH  40  41
ATOM     41  O   UNL A   1      42.293  22.200  25.277  1.00  0.00    -0.460 OA
BRANCH  41  42
ATOM     42  C   UNL A   1      43.301  22.936  24.780  1.00  0.00     0.338 C 
ATOM     43  O   UNL A   1      44.107  22.586  23.919  1.00  0.00    -0.246 OA
BRANCH  42  44
ATOM     44  C   UNL A   1      43.323  24.228  25.471  1.00  0.00     0.060 A 
ATOM     45  C   UNL A   1      44.092  25.255  24.918  1.00  0.00     0.016 A 
ATOM     46  C   UNL A   1      42.787  24.325  26.766  1.00  0.00     0.016 A 
ATOM     47  C   UNL A   1      44.495  26.289  25.738  1.00  0.00     0.010 A 
ATOM     48  C   UNL A   1      43.202  25.348  27.588  1.00  0.00     0.010 A 
ATOM     49  C   UNL A   1      44.125  26.264  27.087  1.00  0.00    -0.014 A 
BRANCH  49  50
ATOM     50  C   UNL A   1      44.837  27.142  27.992  1.00  0.00     0.031 A 
ATOM     51  C   UNL A   1      45.944  26.544  28.760  1.00  0.00     0.074 A 
ATOM     52  C   UNL A   1      44.558  28.458  28.052  1.00  0.00     0.049 A 
ATOM     53  N   UNL A   1      46.029  26.393  30.039  1.00  0.00    -0.248 NA
ATOM     54  C   UNL A   1      47.064  25.976  27.998  1.00  0.00     0.031 C 
ATOM     55  C   UNL A   1      43.729  29.235  27.124  1.00  0.00     0.029 A 
ATOM     56  N   UNL A   1      45.064  29.402  28.891  1.00  0.00    -0.354 N 
ATOM     57  C   UNL A   1      47.298  25.880  30.268  1.00  0.00     0.074 A 
ATOM     58  C   UNL A   1      47.830  25.506  28.980  1.00  0.00     0.031 C 
ATOM     59  C   UNL A   1      43.972  30.550  27.315  1.00  0.00     0.029 A 
ATOM     60  C   UNL A   1      44.869  30.702  28.450  1.00  0.00     0.049 A 
ATOM     61  H   UNL A   1      45.525  29.182  29.732  1.00  0.00     0.167 HD
ATOM     62  C   UNL A   1      47.924  26.001  31.468  1.00  0.00     0.031 A 
ATOM     63  C   UNL A   1      45.477  31.813  28.929  1.00  0.00     0.031 A 
ATOM     64  C   UNL A   1      47.031  26.378  32.529  1.00  0.00     0.049 A 
ATOM     65  C   UNL A   1      46.006  31.500  30.278  1.00  0.00     0.074 A 
ATOM     66  C   UNL A   1      45.902  25.821  33.097  1.00  0.00     0.029 A 
ATOM     67  N   UNL A   1      47.065  27.686  32.948  1.00  0.00    -0.354 N 
ATOM     68  N   UNL A   1      45.258  31.278  31.321  1.00  0.00    -0.248 NA
ATOM     69  C   UNL A   1      47.389  31.066  30.407  1.00  0.00     0.031 C 
ATOM     70  C   UNL A   1      45.090  26.927  33.484  1.00  0.00     0.029 A 
ATOM     71  C   UNL A   1      45.770  28.097  33.144  1.00  0.00     0.049 A 
ATOM     72  H   UNL A   1      47.874  28.231  33.085  1.00  0.00     0.167 HD
ATOM     73  C   UNL A   1      45.945  30.329  32.063  1.00  0.00     0.074 A 
ATOM     74  C   UNL A   1      47.299  30.338  31.522  1.00  0.00     0.031 C 
ATOM     75  C   UNL A   1      45.283  29.432  32.852  1.00  0.00     0.031 A 
BRANCH  62  76
ATOM     76  C   UNL A   1      49.418  26.131  31.593  1.00  0.00    -0.014 A 
ATOM     77  C   UNL A   1      50.057  27.283  31.098  1.00  0.00     0.010 A 
ATOM     78  C   UNL A   1      50.238  25.035  31.942  1.00  0.00     0.010 A 
ATOM     79  C   UNL A   1      51.447  27.317  30.919  1.00  0.00     0.020 A 
ATOM     80  C   UNL A   1      51.625  25.076  31.815  1.00  0.00     0.020 A 
ATOM     81  C   UNL A   1      52.218  26.205  31.267  1.00  0.00     0.054 A 
BRANCH  81  82
ATOM     82  S   UNL A   1      53.994  26.208  30.922  1.00  0.00     0.124 S 
ATOM     83  O   UNL A   1      54.013  26.195  29.463  1.00  0.00    -0.237 OA
ATOM     84  O   UNL A   1      54.435  27.450  31.553  1.00  0.00    -0.237 OA
ATOM     85  O   UNL A   1      54.468  24.986  31.568  1.00  0.00    -0.744 OA
ENDBRANCH  81  82
ENDBRANCH  62  76
BRANCH  63  86
ATOM     86  C   UNL A   1      45.879  33.016  28.161  1.00  0.00    -0.014 A 
ATOM     87  C   UNL A   1      45.616  34.306  28.653  1.00  0.00     0.010 A 
ATOM     88  C   UNL A   1      46.759  32.897  27.063  1.00  0.00     0.010 A 
ATOM     89  C   UNL A   1      46.256  35.429  28.104  1.00  0.00     0.020 A 
ATOM     90  C   UNL A   1      47.386  34.011  26.501  1.00  0.00     0.020 A 
ATOM     91  C   UNL A   1      47.153  35.271  27.043  1.00  0.00     0.054 A 
BRANCH  91  92
ATOM     92  S   UNL A   1      48.112  36.698  26.461  1.00  0.00     0.124 S 
ATOM     93  O   UNL A   1      47.096  37.743  26.382  1.00  0.00    -0.237 OA
ATOM     94  O   UNL A   1      49.109  36.862  27.517  1.00  0.00    -0.237 OA
ATOM     95  O   UNL A   1      48.646  36.252  25.175  1.00  0.00    -0.744 OA
ENDBRANCH  91  92
ENDBRANCH  63  86
BRANCH  75  96
ATOM     96  C   UNL A   1      43.839  29.716  33.202  1.00  0.00    -0.014 A 
ATOM     97  C   UNL A   1      42.751  29.171  32.494  1.00  0.00     0.010 A 
ATOM     98  C   UNL A   1      43.575  30.452  34.371  1.00  0.00     0.010 A 
ATOM     99  C   UNL A   1      41.433  29.385  32.924  1.00  0.00     0.020 A 
ATOM    100  C   UNL A   1      42.265  30.653  34.817  1.00  0.00     0.020 A 
ATOM    101  C   UNL A   1      41.199  30.127  34.085  1.00  0.00     0.054 A 
BRANCH 101 102
ATOM    102  S   UNL A   1      39.493  30.351  34.664  1.00  0.00     0.124 S 
ATOM    103  O   UNL A   1      39.251  31.765  34.398  1.00  0.00    -0.237 OA
ATOM    104  O   UNL A   1      38.741  29.416  33.831  1.00  0.00    -0.237 OA
ATOM    105  O   UNL A   1      39.556  29.989  36.081  1.00  0.00    -0.744 OA
ENDBRANCH 101 102
ENDBRANCH  75  96
ENDBRANCH  49  50
ENDBRANCH  42  44
ENDBRANCH  41  42
ENDBRANCH  40  41
ENDBRANCH  39  40
ENDBRANCH  38  39
ENDBRANCH  37  38
ENDBRANCH   1  37
TORSDOF 25
ENDMDL
