MODEL 1
REMARK VINA RESULT:     -11.4      0.000      0.000
REMARK SMILES O=C(OCCOCCOCCOC(=O)c1ccn(-c2cc(-c3ccncc3)nc(-c3ccccc3F)n2)n1)c1ccc(-c2c3nc(c(-c4ccc(S(=O)(=O)[O-])cc4)c4ccc([nH]4)c(-c4ccc(S(=O)(=O)[O-])cc4)c4nc(c(-c5ccc(S(=O)(=O)[O-])cc5)c5ccc2[nH]5)C=C4)C=C3)cc1
REMARK SMILES IDX 7 1 6 2 5 3 4 4 3 5 2 6 1 7 39 8 40 9 98 10 41 11 97 12
REMARK SMILES IDX 42 13 43 14 44 15 91 16 45 17 96 18 90 19 92 20 46 21 95 22
REMARK SMILES IDX 89 23 88 24 47 26 77 27 58 28 76 29 59 30 62 31 75 32 93 33
REMARK SMILES IDX 60 34 61 35 74 37 94 38 63 39 48 40 49 41 57 42 50 43 56 44
REMARK SMILES IDX 51 45 52 46 53 47 54 48 55 49 78 50 79 51 87 52 80 53 86 54
REMARK SMILES IDX 81 55 82 56 83 57 84 58 85 59 64 60 65 61 73 62 66 63 72 64
REMARK SMILES IDX 67 65 68 66 69 67 70 68 71 69 8 70 9 71 10 72 11 73 12 74
REMARK SMILES IDX 13 75 14 76 15 77 16 78 38 79 17 80 18 81 19 82 20 83 37 84
REMARK SMILES IDX 21 85 29 86 28 87 22 88 23 89 27 90 24 91 26 92 25 93 30 94
REMARK SMILES IDX 31 95 35 96 32 97 34 98 36 99 33 100
REMARK H PARENT 92 25 62 36
REMARK Flexibility Score: inf
ROOT
ATOM      1  C   UNL A   1      36.425  23.871  25.751  1.00  0.00     0.188 C 
ENDROOT
BRANCH   1   2
ATOM      2  O   UNL A   1      37.201  22.954  24.990  1.00  0.00    -0.376 OA
BRANCH   2   3
ATOM      3  C   UNL A   1      37.901  21.980  25.744  1.00  0.00     0.202 C 
BRANCH   3   4
ATOM      4  C   UNL A   1      37.981  20.631  25.029  1.00  0.00     0.261 C 
BRANCH   4   5
ATOM      5  O   UNL A   1      38.816  19.640  25.660  1.00  0.00    -0.460 OA
BRANCH   5   6
ATOM      6  C   UNL A   1      40.157  19.583  25.795  1.00  0.00     0.338 C 
ATOM      7  O   UNL A   1      40.756  18.557  25.483  1.00  0.00    -0.246 OA
BRANCH   6   8
ATOM      8  C   UNL A   1      40.905  20.641  26.517  1.00  0.00     0.060 A 
ATOM      9  C   UNL A   1      40.836  20.848  27.896  1.00  0.00     0.016 A 
ATOM     10  C   UNL A   1      41.665  21.523  25.726  1.00  0.00     0.016 A 
ATOM     11  C   UNL A   1      41.476  21.932  28.480  1.00  0.00     0.010 A 
ATOM     12  C   UNL A   1      42.283  22.629  26.298  1.00  0.00     0.010 A 
ATOM     13  C   UNL A   1      42.118  22.864  27.670  1.00  0.00    -0.014 A 
BRANCH  13  14
ATOM     14  C   UNL A   1      42.316  24.199  28.242  1.00  0.00     0.031 A 
ATOM     15  C   UNL A   1      41.298  25.271  28.013  1.00  0.00     0.074 A 
ATOM     16  C   UNL A   1      43.412  24.371  29.015  1.00  0.00     0.049 A 
ATOM     17  N   UNL A   1      41.479  26.551  27.897  1.00  0.00    -0.248 NA
ATOM     18  C   UNL A   1      39.886  24.875  27.898  1.00  0.00     0.031 C 
ATOM     19  C   UNL A   1      44.364  23.328  29.433  1.00  0.00     0.029 A 
ATOM     20  N   UNL A   1      43.836  25.468  29.704  1.00  0.00    -0.354 N 
ATOM     21  C   UNL A   1      40.210  27.135  27.882  1.00  0.00     0.074 A 
ATOM     22  C   UNL A   1      39.262  26.054  27.869  1.00  0.00     0.031 C 
ATOM     23  C   UNL A   1      45.075  23.769  30.487  1.00  0.00     0.029 A 
ATOM     24  C   UNL A   1      44.715  25.152  30.734  1.00  0.00     0.049 A 
ATOM     25  H   UNL A   1      43.551  26.387  29.496  1.00  0.00     0.167 HD
ATOM     26  C   UNL A   1      40.005  28.477  27.997  1.00  0.00     0.031 A 
ATOM     27  C   UNL A   1      45.058  25.921  31.793  1.00  0.00     0.031 A 
ATOM     28  C   UNL A   1      41.126  29.236  27.527  1.00  0.00     0.049 A 
ATOM     29  C   UNL A   1      44.751  27.324  31.455  1.00  0.00     0.074 A 
ATOM     30  C   UNL A   1      41.695  29.441  26.290  1.00  0.00     0.029 A 
ATOM     31  N   UNL A   1      42.013  29.725  28.451  1.00  0.00    -0.354 N 
ATOM     32  N   UNL A   1      45.370  27.997  30.525  1.00  0.00    -0.248 NA
ATOM     33  C   UNL A   1      43.502  27.907  31.917  1.00  0.00     0.031 C 
ATOM     34  C   UNL A   1      43.075  29.672  26.542  1.00  0.00     0.029 A 
ATOM     35  C   UNL A   1      43.274  29.604  27.923  1.00  0.00     0.049 A 
ATOM     36  H   UNL A   1      41.786  30.097  29.335  1.00  0.00     0.167 HD
ATOM     37  C   UNL A   1      44.412  28.850  30.006  1.00  0.00     0.074 A 
ATOM     38  C   UNL A   1      43.346  28.866  31.000  1.00  0.00     0.031 C 
ATOM     39  C   UNL A   1      44.446  29.238  28.696  1.00  0.00     0.031 A 
BRANCH  26  40
ATOM     40  C   UNL A   1      38.888  29.104  28.803  1.00  0.00    -0.014 A 
ATOM     41  C   UNL A   1      38.523  30.445  28.547  1.00  0.00     0.010 A 
ATOM     42  C   UNL A   1      38.400  28.532  29.994  1.00  0.00     0.010 A 
ATOM     43  C   UNL A   1      37.807  31.201  29.486  1.00  0.00     0.020 A 
ATOM     44  C   UNL A   1      37.668  29.273  30.931  1.00  0.00     0.020 A 
ATOM     45  C   UNL A   1      37.409  30.616  30.687  1.00  0.00     0.054 A 
BRANCH  45  46
ATOM     46  S   UNL A   1      36.674  31.659  31.977  1.00  0.00     0.124 S 
ATOM     47  O   UNL A   1      37.385  32.922  31.793  1.00  0.00    -0.237 OA
ATOM     48  O   UNL A   1      35.265  31.665  31.596  1.00  0.00    -0.237 OA
ATOM     49  O   UNL A   1      36.982  30.944  33.212  1.00  0.00    -0.744 OA
ENDBRANCH  45  46
ENDBRANCH  26  40
BRANCH  27  50
ATOM     50  C   UNL A   1      45.336  25.435  33.165  1.00  0.00    -0.014 A 
ATOM     51  C   UNL A   1      44.383  24.710  33.898  1.00  0.00     0.010 A 
ATOM     52  C   UNL A   1      46.650  25.501  33.679  1.00  0.00     0.010 A 
ATOM     53  C   UNL A   1      44.742  24.053  35.087  1.00  0.00     0.020 A 
ATOM     54  C   UNL A   1      47.010  24.868  34.870  1.00  0.00     0.020 A 
ATOM     55  C   UNL A   1      46.056  24.129  35.561  1.00  0.00     0.054 A 
BRANCH  55  56
ATOM     56  S   UNL A   1      46.543  23.167  37.021  1.00  0.00     0.124 S 
ATOM     57  O   UNL A   1      46.478  24.164  38.085  1.00  0.00    -0.237 OA
ATOM     58  O   UNL A   1      45.524  22.123  37.069  1.00  0.00    -0.237 OA
ATOM     59  O   UNL A   1      47.890  22.699  36.693  1.00  0.00    -0.744 OA
ENDBRANCH  55  56
ENDBRANCH  27  50
BRANCH  39  60
ATOM     60  C   UNL A   1      45.704  28.952  27.900  1.00  0.00    -0.014 A 
ATOM     61  C   UNL A   1      46.803  29.833  27.892  1.00  0.00     0.010 A 
ATOM     62  C   UNL A   1      45.861  27.687  27.305  1.00  0.00     0.010 A 
ATOM     63  C   UNL A   1      48.019  29.469  27.301  1.00  0.00     0.020 A 
ATOM     64  C   UNL A   1      47.080  27.308  26.729  1.00  0.00     0.020 A 
ATOM     65  C   UNL A   1      48.153  28.202  26.728  1.00  0.00     0.054 A 
BRANCH  65  66
ATOM     66  S   UNL A   1      49.766  27.700  26.065  1.00  0.00     0.124 S 
ATOM     67  O   UNL A   1      50.646  27.849  27.222  1.00  0.00    -0.237 OA
ATOM     68  O   UNL A   1      49.528  26.325  25.629  1.00  0.00    -0.237 OA
ATOM     69  O   UNL A   1      50.007  28.648  24.977  1.00  0.00    -0.744 OA
ENDBRANCH  65  66
ENDBRANCH  39  60
ENDBRANCH  13  14
ENDBRANCH   6   8
ENDBRANCH   5   6
ENDBRANCH   4   5
ENDBRANCH   3   4
ENDBRANCH   2   3
ENDBRANCH   1   2
BRANCH   1  70
ATOM     70  C   UNL A   1      34.954  23.445  25.960  1.00  0.00     0.188 C 
BRANCH  70  71
ATOM     71  O   UNL A   1      34.535  22.598  27.031  1.00  0.00    -0.376 OA
BRANCH  71  72
ATOM     72  C   UNL A   1      33.734  21.463  26.766  1.00  0.00     0.202 C 
BRANCH  72  73
ATOM     73  C   UNL A   1      33.118  21.431  25.366  1.00  0.00     0.261 C 
BRANCH  73  74
ATOM     74  O   UNL A   1      31.685  21.315  25.361  1.00  0.00    -0.458 OA
BRANCH  74  75
ATOM     75  C   UNL A   1      30.996  22.428  25.751  1.00  0.00     0.358 C 
ATOM     76  O   UNL A   1      30.196  22.457  26.678  1.00  0.00    -0.244 OA
BRANCH  75  77
ATOM     77  C   UNL A   1      31.177  23.579  24.850  1.00  0.00     0.170 A 
ATOM     78  C   UNL A   1      30.677  23.605  23.526  1.00  0.00     0.058 A 
ATOM     79  N   UNL A   1      31.708  24.781  25.199  1.00  0.00    -0.159 NA
ATOM     80  C   UNL A   1      30.748  24.916  23.146  1.00  0.00     0.118 A 
ATOM     81  N   UNL A   1      31.286  25.621  24.203  1.00  0.00    -0.222 N 
BRANCH  81  82
ATOM     82  C   UNL A   1      31.247  27.048  24.300  1.00  0.00     0.158 A 
ATOM     83  C   UNL A   1      30.477  27.815  23.444  1.00  0.00     0.078 A 
ATOM     84  N   UNL A   1      31.994  27.580  25.300  1.00  0.00    -0.209 NA
ATOM     85  C   UNL A   1      30.484  29.180  23.705  1.00  0.00     0.077 A 
ATOM     86  C   UNL A   1      31.999  28.913  25.403  1.00  0.00     0.165 A 
ATOM     87  N   UNL A   1      31.276  29.735  24.642  1.00  0.00    -0.228 NA
BRANCH  85  88
ATOM     88  C   UNL A   1      29.586  30.159  23.082  1.00  0.00     0.003 A 
ATOM     89  C   UNL A   1      29.234  30.049  21.734  1.00  0.00     0.030 A 
ATOM     90  C   UNL A   1      28.915  31.123  23.847  1.00  0.00     0.030 A 
ATOM     91  C   UNL A   1      28.295  30.925  21.205  1.00  0.00     0.111 A 
ATOM     92  C   UNL A   1      27.985  31.948  23.231  1.00  0.00     0.111 A 
ATOM     93  N   UNL A   1      27.686  31.886  21.921  1.00  0.00    -0.265 NA
ENDBRANCH  85  88
BRANCH  86  94
ATOM     94  C   UNL A   1      32.952  29.524  26.312  1.00  0.00     0.055 A 
ATOM     95  C   UNL A   1      34.180  28.900  26.591  1.00  0.00     0.015 A 
ATOM     96  C   UNL A   1      32.696  30.768  26.890  1.00  0.00     0.134 A 
ATOM     97  C   UNL A   1      35.126  29.518  27.415  1.00  0.00     0.001 A 
ATOM     98  C   UNL A   1      33.633  31.390  27.715  1.00  0.00     0.040 A 
ATOM     99  F   UNL A   1      31.529  31.391  26.668  1.00  0.00    -0.206 F 
ATOM    100  C   UNL A   1      34.852  30.765  27.974  1.00  0.00     0.003 A 
ENDBRANCH  86  94
ENDBRANCH  81  82
ENDBRANCH  75  77
ENDBRANCH  74  75
ENDBRANCH  73  74
ENDBRANCH  72  73
ENDBRANCH  71  72
ENDBRANCH  70  71
ENDBRANCH   1  70
TORSDOF 23
ENDMDL
MODEL 2
REMARK VINA RESULT:     -10.9      3.396      9.596
REMARK SMILES O=C(OCCOCCOCCOC(=O)c1ccn(-c2cc(-c3ccncc3)nc(-c3ccccc3F)n2)n1)c1ccc(-c2c3nc(c(-c4ccc(S(=O)(=O)[O-])cc4)c4ccc([nH]4)c(-c4ccc(S(=O)(=O)[O-])cc4)c4nc(c(-c5ccc(S(=O)(=O)[O-])cc5)c5ccc2[nH]5)C=C4)C=C3)cc1
REMARK SMILES IDX 7 1 6 2 5 3 4 4 3 5 2 6 1 7 39 8 40 9 98 10 41 11 97 12
REMARK SMILES IDX 42 13 43 14 44 15 91 16 45 17 96 18 90 19 92 20 46 21 95 22
REMARK SMILES IDX 89 23 88 24 47 26 77 27 58 28 76 29 59 30 62 31 75 32 93 33
REMARK SMILES IDX 60 34 61 35 74 37 94 38 63 39 48 40 49 41 57 42 50 43 56 44
REMARK SMILES IDX 51 45 52 46 53 47 54 48 55 49 78 50 79 51 87 52 80 53 86 54
REMARK SMILES IDX 81 55 82 56 83 57 84 58 85 59 64 60 65 61 73 62 66 63 72 64
REMARK SMILES IDX 67 65 68 66 69 67 70 68 71 69 8 70 9 71 10 72 11 73 12 74
REMARK SMILES IDX 13 75 14 76 15 77 16 78 38 79 17 80 18 81 19 82 20 83 37 84
REMARK SMILES IDX 21 85 29 86 28 87 22 88 23 89 27 90 24 91 26 92 25 93 30 94
REMARK SMILES IDX 31 95 35 96 32 97 34 98 36 99 33 100
REMARK H PARENT 92 25 62 36
REMARK Flexibility Score: inf
ROOT
ATOM      1  C   UNL A   1      33.321  28.255  25.996  1.00  0.00     0.188 C 
ENDROOT
BRANCH   1   2
ATOM      2  O   UNL A   1      32.759  29.507  26.366  1.00  0.00    -0.376 OA
BRANCH   2   3
ATOM      3  C   UNL A   1      33.689  30.489  26.785  1.00  0.00     0.202 C 
BRANCH   3   4
ATOM      4  C   UNL A   1      34.708  29.943  27.785  1.00  0.00     0.261 C 
BRANCH   4   5
ATOM      5  O   UNL A   1      35.162  30.875  28.786  1.00  0.00    -0.460 OA
BRANCH   5   6
ATOM      6  C   UNL A   1      36.316  30.917  29.484  1.00  0.00     0.338 C 
ATOM      7  O   UNL A   1      36.575  31.901  30.171  1.00  0.00    -0.246 OA
BRANCH   6   8
ATOM      8  C   UNL A   1      37.383  29.908  29.270  1.00  0.00     0.060 A 
ATOM      9  C   UNL A   1      37.721  28.916  30.192  1.00  0.00     0.016 A 
ATOM     10  C   UNL A   1      38.134  30.034  28.086  1.00  0.00     0.016 A 
ATOM     11  C   UNL A   1      38.808  28.084  29.967  1.00  0.00     0.010 A 
ATOM     12  C   UNL A   1      39.244  29.225  27.868  1.00  0.00     0.010 A 
ATOM     13  C   UNL A   1      39.615  28.301  28.854  1.00  0.00    -0.014 A 
BRANCH  13  14
ATOM     14  C   UNL A   1      40.982  27.774  28.925  1.00  0.00     0.031 A 
ATOM     15  C   UNL A   1      41.262  26.360  28.523  1.00  0.00     0.074 A 
ATOM     16  C   UNL A   1      41.947  28.641  29.306  1.00  0.00     0.049 A 
ATOM     17  N   UNL A   1      42.150  25.542  28.999  1.00  0.00    -0.248 NA
ATOM     18  C   UNL A   1      40.450  25.771  27.446  1.00  0.00     0.031 C 
ATOM     19  C   UNL A   1      41.785  30.085  29.547  1.00  0.00     0.029 A 
ATOM     20  N   UNL A   1      43.293  28.459  29.426  1.00  0.00    -0.354 N 
ATOM     21  C   UNL A   1      42.139  24.416  28.172  1.00  0.00     0.074 A 
ATOM     22  C   UNL A   1      41.060  24.602  27.239  1.00  0.00     0.031 C 
ATOM     23  C   UNL A   1      42.991  30.679  29.520  1.00  0.00     0.029 A 
ATOM     24  C   UNL A   1      44.005  29.652  29.382  1.00  0.00     0.049 A 
ATOM     25  H   UNL A   1      43.716  27.576  29.532  1.00  0.00     0.167 HD
ATOM     26  C   UNL A   1      43.091  23.442  28.225  1.00  0.00     0.031 A 
ATOM     27  C   UNL A   1      45.325  29.817  29.142  1.00  0.00     0.031 A 
ATOM     28  C   UNL A   1      43.694  23.349  29.521  1.00  0.00     0.049 A 
ATOM     29  C   UNL A   1      46.002  28.534  29.413  1.00  0.00     0.074 A 
ATOM     30  C   UNL A   1      43.244  22.960  30.764  1.00  0.00     0.029 A 
ATOM     31  N   UNL A   1      44.910  23.951  29.717  1.00  0.00    -0.354 N 
ATOM     32  N   UNL A   1      46.091  27.999  30.599  1.00  0.00    -0.248 NA
ATOM     33  C   UNL A   1      46.297  27.641  28.305  1.00  0.00     0.031 C 
ATOM     34  C   UNL A   1      44.015  23.707  31.696  1.00  0.00     0.029 A 
ATOM     35  C   UNL A   1      44.902  24.507  30.972  1.00  0.00     0.049 A 
ATOM     36  H   UNL A   1      45.656  23.980  29.074  1.00  0.00     0.167 HD
ATOM     37  C   UNL A   1      46.054  26.633  30.377  1.00  0.00     0.074 A 
ATOM     38  C   UNL A   1      46.345  26.476  28.957  1.00  0.00     0.031 C 
ATOM     39  C   UNL A   1      45.512  25.782  31.299  1.00  0.00     0.031 A 
BRANCH  26  40
ATOM     40  C   UNL A   1      43.677  22.754  27.012  1.00  0.00    -0.014 A 
ATOM     41  C   UNL A   1      42.900  21.799  26.320  1.00  0.00     0.010 A 
ATOM     42  C   UNL A   1      45.054  22.786  26.714  1.00  0.00     0.010 A 
ATOM     43  C   UNL A   1      43.488  20.855  25.466  1.00  0.00     0.020 A 
ATOM     44  C   UNL A   1      45.649  21.859  25.848  1.00  0.00     0.020 A 
ATOM     45  C   UNL A   1      44.866  20.873  25.259  1.00  0.00     0.054 A 
BRANCH  45  46
ATOM     46  S   UNL A   1      45.639  19.523  24.327  1.00  0.00     0.124 S 
ATOM     47  O   UNL A   1      44.905  19.562  23.064  1.00  0.00    -0.237 OA
ATOM     48  O   UNL A   1      47.032  19.955  24.262  1.00  0.00    -0.237 OA
ATOM     49  O   UNL A   1      45.390  18.347  25.156  1.00  0.00    -0.744 OA
ENDBRANCH  45  46
ENDBRANCH  26  40
BRANCH  27  50
ATOM     50  C   UNL A   1      45.938  30.941  28.396  1.00  0.00    -0.014 A 
ATOM     51  C   UNL A   1      46.251  30.838  27.032  1.00  0.00     0.010 A 
ATOM     52  C   UNL A   1      46.016  32.220  28.994  1.00  0.00     0.010 A 
ATOM     53  C   UNL A   1      46.601  31.978  26.288  1.00  0.00     0.020 A 
ATOM     54  C   UNL A   1      46.382  33.353  28.267  1.00  0.00     0.020 A 
ATOM     55  C   UNL A   1      46.656  33.230  26.909  1.00  0.00     0.054 A 
BRANCH  55  56
ATOM     56  S   UNL A   1      46.975  34.715  25.914  1.00  0.00     0.124 S 
ATOM     57  O   UNL A   1      48.367  34.529  25.518  1.00  0.00    -0.237 OA
ATOM     58  O   UNL A   1      45.991  34.597  24.842  1.00  0.00    -0.237 OA
ATOM     59  O   UNL A   1      46.739  35.814  26.850  1.00  0.00    -0.744 OA
ENDBRANCH  55  56
ENDBRANCH  27  50
BRANCH  39  60
ATOM     60  C   UNL A   1      45.219  26.324  32.684  1.00  0.00    -0.014 A 
ATOM     61  C   UNL A   1      43.951  26.826  33.039  1.00  0.00     0.010 A 
ATOM     62  C   UNL A   1      46.174  26.147  33.701  1.00  0.00     0.010 A 
ATOM     63  C   UNL A   1      43.649  27.152  34.368  1.00  0.00     0.020 A 
ATOM     64  C   UNL A   1      45.872  26.452  35.034  1.00  0.00     0.020 A 
ATOM     65  C   UNL A   1      44.611  26.956  35.361  1.00  0.00     0.054 A 
BRANCH  65  66
ATOM     66  S   UNL A   1      44.170  27.276  37.092  1.00  0.00     0.124 S 
ATOM     67  O   UNL A   1      44.359  25.969  37.715  1.00  0.00    -0.237 OA
ATOM     68  O   UNL A   1      45.129  28.306  37.490  1.00  0.00    -0.237 OA
ATOM     69  O   UNL A   1      42.783  27.734  37.020  1.00  0.00    -0.744 OA
ENDBRANCH  65  66
ENDBRANCH  39  60
ENDBRANCH  13  14
ENDBRANCH   6   8
ENDBRANCH   5   6
ENDBRANCH   4   5
ENDBRANCH   3   4
ENDBRANCH   2   3
ENDBRANCH   1   2
BRANCH   1  70
ATOM     70  C   UNL A   1      32.797  27.051  26.811  1.00  0.00     0.188 C 
BRANCH  70  71
ATOM     71  O   UNL A   1      31.409  26.736  26.928  1.00  0.00    -0.376 OA
BRANCH  71  72
ATOM     72  C   UNL A   1      30.837  25.738  26.106  1.00  0.00     0.202 C 
BRANCH  72  73
ATOM     73  C   UNL A   1      29.589  26.180  25.340  1.00  0.00     0.261 C 
BRANCH  73  74
ATOM     74  O   UNL A   1      29.532  25.698  23.987  1.00  0.00    -0.458 OA
BRANCH  74  75
ATOM     75  C   UNL A   1      30.576  26.059  23.181  1.00  0.00     0.358 C 
ATOM     76  O   UNL A   1      30.736  27.181  22.717  1.00  0.00    -0.244 OA
BRANCH  75  77
ATOM     77  C   UNL A   1      31.428  24.927  22.779  1.00  0.00     0.170 A 
ATOM     78  C   UNL A   1      32.407  25.026  21.761  1.00  0.00     0.058 A 
ATOM     79  N   UNL A   1      31.485  23.719  23.400  1.00  0.00    -0.159 NA
ATOM     80  C   UNL A   1      33.186  23.913  21.909  1.00  0.00     0.118 A 
ATOM     81  N   UNL A   1      32.668  23.187  22.961  1.00  0.00    -0.222 N 
BRANCH  81  82
ATOM     82  C   UNL A   1      33.372  22.121  23.605  1.00  0.00     0.158 A 
ATOM     83  C   UNL A   1      32.790  20.882  23.809  1.00  0.00     0.078 A 
ATOM     84  N   UNL A   1      34.647  22.409  23.973  1.00  0.00    -0.209 NA
ATOM     85  C   UNL A   1      33.620  19.926  24.381  1.00  0.00     0.077 A 
ATOM     86  C   UNL A   1      35.324  21.442  24.599  1.00  0.00     0.165 A 
ATOM     87  N   UNL A   1      34.860  20.212  24.821  1.00  0.00    -0.228 NA
BRANCH  85  88
ATOM     88  C   UNL A   1      33.305  18.497  24.491  1.00  0.00     0.003 A 
ATOM     89  C   UNL A   1      33.886  17.569  23.621  1.00  0.00     0.030 A 
ATOM     90  C   UNL A   1      32.562  17.994  25.568  1.00  0.00     0.030 A 
ATOM     91  C   UNL A   1      33.655  16.214  23.824  1.00  0.00     0.111 A 
ATOM     92  C   UNL A   1      32.394  16.622  25.691  1.00  0.00     0.111 A 
ATOM     93  N   UNL A   1      32.901  15.728  24.824  1.00  0.00    -0.265 NA
ENDBRANCH  85  88
BRANCH  86  94
ATOM     94  C   UNL A   1      36.602  21.781  25.199  1.00  0.00     0.055 A 
ATOM     95  C   UNL A   1      37.675  20.873  25.164  1.00  0.00     0.015 A 
ATOM     96  C   UNL A   1      36.814  23.032  25.780  1.00  0.00     0.134 A 
ATOM     97  C   UNL A   1      38.925  21.222  25.685  1.00  0.00     0.001 A 
ATOM     98  C   UNL A   1      38.057  23.387  26.303  1.00  0.00     0.040 A 
ATOM     99  F   UNL A   1      35.812  23.922  25.854  1.00  0.00    -0.206 F 
ATOM    100  C   UNL A   1      39.115  22.482  26.251  1.00  0.00     0.003 A 
ENDBRANCH  86  94
ENDBRANCH  81  82
ENDBRANCH  75  77
ENDBRANCH  74  75
ENDBRANCH  73  74
ENDBRANCH  72  73
ENDBRANCH  71  72
ENDBRANCH  70  71
ENDBRANCH   1  70
TORSDOF 23
ENDMDL
MODEL 3
REMARK VINA RESULT:     -10.8      3.954      9.311
REMARK SMILES O=C(OCCOCCOCCOC(=O)c1ccn(-c2cc(-c3ccncc3)nc(-c3ccccc3F)n2)n1)c1ccc(-c2c3nc(c(-c4ccc(S(=O)(=O)[O-])cc4)c4ccc([nH]4)c(-c4ccc(S(=O)(=O)[O-])cc4)c4nc(c(-c5ccc(S(=O)(=O)[O-])cc5)c5ccc2[nH]5)C=C4)C=C3)cc1
REMARK SMILES IDX 7 1 6 2 5 3 4 4 3 5 2 6 1 7 39 8 40 9 98 10 41 11 97 12
REMARK SMILES IDX 42 13 43 14 44 15 91 16 45 17 96 18 90 19 92 20 46 21 95 22
REMARK SMILES IDX 89 23 88 24 47 26 77 27 58 28 76 29 59 30 62 31 75 32 93 33
REMARK SMILES IDX 60 34 61 35 74 37 94 38 63 39 48 40 49 41 57 42 50 43 56 44
REMARK SMILES IDX 51 45 52 46 53 47 54 48 55 49 78 50 79 51 87 52 80 53 86 54
REMARK SMILES IDX 81 55 82 56 83 57 84 58 85 59 64 60 65 61 73 62 66 63 72 64
REMARK SMILES IDX 67 65 68 66 69 67 70 68 71 69 8 70 9 71 10 72 11 73 12 74
REMARK SMILES IDX 13 75 14 76 15 77 16 78 38 79 17 80 18 81 19 82 20 83 37 84
REMARK SMILES IDX 21 85 29 86 28 87 22 88 23 89 27 90 24 91 26 92 25 93 30 94
REMARK SMILES IDX 31 95 35 96 32 97 34 98 36 99 33 100
REMARK H PARENT 92 25 62 36
REMARK Flexibility Score: inf
ROOT
ATOM      1  C   UNL A   1      45.163  18.474  25.589  1.00  0.00     0.188 C 
ENDROOT
BRANCH   1   2
ATOM      2  O   UNL A   1      46.224  18.648  24.658  1.00  0.00    -0.376 OA
BRANCH   2   3
ATOM      3  C   UNL A   1      46.438  19.980  24.225  1.00  0.00     0.202 C 
BRANCH   3   4
ATOM      4  C   UNL A   1      46.237  21.001  25.346  1.00  0.00     0.261 C 
BRANCH   4   5
ATOM      5  O   UNL A   1      45.919  22.340  24.920  1.00  0.00    -0.460 OA
BRANCH   5   6
ATOM      6  C   UNL A   1      44.729  22.907  24.634  1.00  0.00     0.338 C 
ATOM      7  O   UNL A   1      44.230  22.747  23.523  1.00  0.00    -0.246 OA
BRANCH   6   8
ATOM      8  C   UNL A   1      44.111  23.903  25.544  1.00  0.00     0.060 A 
ATOM      9  C   UNL A   1      43.430  25.043  25.113  1.00  0.00     0.016 A 
ATOM     10  C   UNL A   1      44.305  23.697  26.923  1.00  0.00     0.016 A 
ATOM     11  C   UNL A   1      42.982  25.985  26.028  1.00  0.00     0.010 A 
ATOM     12  C   UNL A   1      43.887  24.651  27.844  1.00  0.00     0.010 A 
ATOM     13  C   UNL A   1      43.291  25.830  27.376  1.00  0.00    -0.014 A 
BRANCH  13  14
ATOM     14  C   UNL A   1      43.261  27.044  28.197  1.00  0.00     0.031 A 
ATOM     15  C   UNL A   1      44.420  27.991  28.177  1.00  0.00     0.074 A 
ATOM     16  C   UNL A   1      42.129  27.274  28.899  1.00  0.00     0.049 A 
ATOM     17  N   UNL A   1      44.876  28.735  29.137  1.00  0.00    -0.248 NA
ATOM     18  C   UNL A   1      45.177  28.136  26.923  1.00  0.00     0.031 C 
ATOM     19  C   UNL A   1      40.883  26.490  28.838  1.00  0.00     0.029 A 
ATOM     20  N   UNL A   1      41.794  28.321  29.706  1.00  0.00    -0.354 N 
ATOM     21  C   UNL A   1      45.844  29.569  28.571  1.00  0.00     0.074 A 
ATOM     22  C   UNL A   1      46.002  29.146  27.205  1.00  0.00     0.031 C 
ATOM     23  C   UNL A   1      39.874  27.218  29.349  1.00  0.00     0.029 A 
ATOM     24  C   UNL A   1      40.421  28.453  29.876  1.00  0.00     0.049 A 
ATOM     25  H   UNL A   1      42.454  28.920  30.124  1.00  0.00     0.167 HD
ATOM     26  C   UNL A   1      46.382  30.638  29.223  1.00  0.00     0.031 A 
ATOM     27  C   UNL A   1      39.744  29.537  30.319  1.00  0.00     0.031 A 
ATOM     28  C   UNL A   1      46.352  30.472  30.645  1.00  0.00     0.049 A 
ATOM     29  C   UNL A   1      40.691  30.395  31.058  1.00  0.00     0.074 A 
ATOM     30  C   UNL A   1      46.991  29.627  31.526  1.00  0.00     0.029 A 
ATOM     31  N   UNL A   1      45.351  31.089  31.351  1.00  0.00    -0.354 N 
ATOM     32  N   UNL A   1      41.253  30.051  32.183  1.00  0.00    -0.248 NA
ATOM     33  C   UNL A   1      41.302  31.524  30.377  1.00  0.00     0.031 C 
ATOM     34  C   UNL A   1      46.092  29.468  32.616  1.00  0.00     0.029 A 
ATOM     35  C   UNL A   1      44.953  30.230  32.346  1.00  0.00     0.049 A 
ATOM     36  H   UNL A   1      44.984  31.986  31.176  1.00  0.00     0.167 HD
ATOM     37  C   UNL A   1      42.505  30.641  32.149  1.00  0.00     0.074 A 
ATOM     38  C   UNL A   1      42.414  31.656  31.106  1.00  0.00     0.031 C 
ATOM     39  C   UNL A   1      43.576  30.063  32.770  1.00  0.00     0.031 A 
BRANCH  26  40
ATOM     40  C   UNL A   1      46.684  31.971  28.573  1.00  0.00    -0.014 A 
ATOM     41  C   UNL A   1      47.571  32.864  29.214  1.00  0.00     0.010 A 
ATOM     42  C   UNL A   1      45.902  32.498  27.526  1.00  0.00     0.010 A 
ATOM     43  C   UNL A   1      47.589  34.230  28.901  1.00  0.00     0.020 A 
ATOM     44  C   UNL A   1      45.925  33.858  27.192  1.00  0.00     0.020 A 
ATOM     45  C   UNL A   1      46.742  34.724  27.909  1.00  0.00     0.054 A 
BRANCH  45  46
ATOM     46  S   UNL A   1      46.622  36.517  27.662  1.00  0.00     0.124 S 
ATOM     47  O   UNL A   1      46.088  36.605  26.305  1.00  0.00    -0.237 OA
ATOM     48  O   UNL A   1      45.705  36.910  28.729  1.00  0.00    -0.237 OA
ATOM     49  O   UNL A   1      47.997  36.979  27.822  1.00  0.00    -0.744 OA
ENDBRANCH  45  46
ENDBRANCH  26  40
BRANCH  27  50
ATOM     50  C   UNL A   1      38.410  29.979  29.850  1.00  0.00    -0.014 A 
ATOM     51  C   UNL A   1      37.341  30.166  30.740  1.00  0.00     0.010 A 
ATOM     52  C   UNL A   1      38.249  30.437  28.523  1.00  0.00     0.010 A 
ATOM     53  C   UNL A   1      36.165  30.813  30.321  1.00  0.00     0.020 A 
ATOM     54  C   UNL A   1      37.078  31.063  28.095  1.00  0.00     0.020 A 
ATOM     55  C   UNL A   1      36.045  31.265  29.003  1.00  0.00     0.054 A 
BRANCH  55  56
ATOM     56  S   UNL A   1      34.582  32.219  28.509  1.00  0.00     0.124 S 
ATOM     57  O   UNL A   1      35.151  33.213  27.603  1.00  0.00    -0.237 OA
ATOM     58  O   UNL A   1      33.737  31.205  27.885  1.00  0.00    -0.237 OA
ATOM     59  O   UNL A   1      34.074  32.752  29.772  1.00  0.00    -0.744 OA
ENDBRANCH  55  56
ENDBRANCH  27  50
BRANCH  39  60
ATOM     60  C   UNL A   1      43.312  28.922  33.733  1.00  0.00    -0.014 A 
ATOM     61  C   UNL A   1      43.193  29.126  35.122  1.00  0.00     0.010 A 
ATOM     62  C   UNL A   1      42.986  27.656  33.215  1.00  0.00     0.010 A 
ATOM     63  C   UNL A   1      42.771  28.095  35.971  1.00  0.00     0.020 A 
ATOM     64  C   UNL A   1      42.544  26.626  34.056  1.00  0.00     0.020 A 
ATOM     65  C   UNL A   1      42.442  26.850  35.431  1.00  0.00     0.054 A 
BRANCH  65  66
ATOM     66  S   UNL A   1      41.790  25.557  36.526  1.00  0.00     0.124 S 
ATOM     67  O   UNL A   1      42.711  24.448  36.291  1.00  0.00    -0.237 OA
ATOM     68  O   UNL A   1      41.874  26.175  37.848  1.00  0.00    -0.237 OA
ATOM     69  O   UNL A   1      40.427  25.344  36.041  1.00  0.00    -0.744 OA
ENDBRANCH  65  66
ENDBRANCH  39  60
ENDBRANCH  13  14
ENDBRANCH   6   8
ENDBRANCH   5   6
ENDBRANCH   4   5
ENDBRANCH   3   4
ENDBRANCH   2   3
ENDBRANCH   1   2
BRANCH   1  70
ATOM     70  C   UNL A   1      43.753  18.705  25.002  1.00  0.00     0.188 C 
BRANCH  70  71
ATOM     71  O   UNL A   1      42.555  18.503  25.754  1.00  0.00    -0.376 OA
BRANCH  71  72
ATOM     72  C   UNL A   1      42.515  18.837  27.127  1.00  0.00     0.202 C 
BRANCH  72  73
ATOM     73  C   UNL A   1      41.307  19.676  27.544  1.00  0.00     0.261 C 
BRANCH  73  74
ATOM     74  O   UNL A   1      41.515  21.095  27.436  1.00  0.00    -0.458 OA
BRANCH  74  75
ATOM     75  C   UNL A   1      41.071  21.676  26.283  1.00  0.00     0.358 C 
ATOM     76  O   UNL A   1      41.749  21.818  25.273  1.00  0.00    -0.244 OA
BRANCH  75  77
ATOM     77  C   UNL A   1      39.730  22.273  26.403  1.00  0.00     0.170 A 
ATOM     78  C   UNL A   1      39.519  23.666  26.552  1.00  0.00     0.058 A 
ATOM     79  N   UNL A   1      38.552  21.611  26.253  1.00  0.00    -0.159 NA
ATOM     80  C   UNL A   1      38.190  23.852  26.299  1.00  0.00     0.118 A 
ATOM     81  N   UNL A   1      37.646  22.613  26.030  1.00  0.00    -0.222 N 
BRANCH  81  82
ATOM     82  C   UNL A   1      36.357  22.430  25.437  1.00  0.00     0.158 A 
ATOM     83  C   UNL A   1      35.552  23.503  25.096  1.00  0.00     0.078 A 
ATOM     84  N   UNL A   1      36.000  21.139  25.215  1.00  0.00    -0.209 NA
ATOM     85  C   UNL A   1      34.360  23.172  24.464  1.00  0.00     0.077 A 
ATOM     86  C   UNL A   1      34.791  20.932  24.685  1.00  0.00     0.165 A 
ATOM     87  N   UNL A   1      33.954  21.898  24.303  1.00  0.00    -0.228 NA
BRANCH  85  88
ATOM     88  C   UNL A   1      33.457  24.131  23.817  1.00  0.00     0.003 A 
ATOM     89  C   UNL A   1      32.181  23.740  23.399  1.00  0.00     0.030 A 
ATOM     90  C   UNL A   1      33.764  25.497  23.758  1.00  0.00     0.030 A 
ATOM     91  C   UNL A   1      31.311  24.697  22.895  1.00  0.00     0.111 A 
ATOM     92  C   UNL A   1      32.825  26.380  23.246  1.00  0.00     0.111 A 
ATOM     93  N   UNL A   1      31.618  26.001  22.787  1.00  0.00    -0.265 NA
ENDBRANCH  85  88
BRANCH  86  94
ATOM     94  C   UNL A   1      34.289  19.571  24.638  1.00  0.00     0.055 A 
ATOM     95  C   UNL A   1      32.909  19.318  24.536  1.00  0.00     0.015 A 
ATOM     96  C   UNL A   1      35.161  18.482  24.642  1.00  0.00     0.134 A 
ATOM     97  C   UNL A   1      32.427  18.010  24.427  1.00  0.00     0.001 A 
ATOM     98  C   UNL A   1      34.688  17.175  24.535  1.00  0.00     0.040 A 
ATOM     99  F   UNL A   1      36.484  18.676  24.758  1.00  0.00    -0.206 F 
ATOM    100  C   UNL A   1      33.320  16.939  24.423  1.00  0.00     0.003 A 
ENDBRANCH  86  94
ENDBRANCH  81  82
ENDBRANCH  75  77
ENDBRANCH  74  75
ENDBRANCH  73  74
ENDBRANCH  72  73
ENDBRANCH  71  72
ENDBRANCH  70  71
ENDBRANCH   1  70
TORSDOF 23
ENDMDL
