MODEL 1
REMARK VINA RESULT:     -13.5      0.000      0.000
REMARK SMILES Cc1ccc(-c2cc(C(=O)OCCOCCOCCOC(=O)c3ccc(-c4c5nc(c(-c6ccc(S(=O)(=O)[O-])cc6)c6ccc([nH]6)c(-c6ccc(S(=O)(=O)[O-])cc6)c6nc(c(-c7ccc(S(=O)(=O)[O-])cc7)c7ccc4[nH]7)C=C6)C=C5)cc3)c3c(-c4cccc([N+](=O)[O-])c4)[nH]nc3n2)cc1
REMARK SMILES IDX 16 1 15 2 14 3 13 4 12 5 11 6 9 7 10 8 8 9 6 10 7 11 97 12
REMARK SMILES IDX 96 13 83 14 95 15 84 16 94 17 5 19 1 20 2 21 3 22 99 23 4 24
REMARK SMILES IDX 98 25 85 26 86 27 93 28 87 29 89 30 88 31 90 32 91 33 92 34
REMARK SMILES IDX 17 35 18 36 19 37 20 38 21 39 22 40 23 41 24 42 82 43 25 44
REMARK SMILES IDX 81 45 26 46 27 47 28 48 75 49 29 50 80 51 74 52 76 53 30 54
REMARK SMILES IDX 79 55 73 56 72 57 31 59 61 60 42 61 60 62 43 63 46 64 59 65
REMARK SMILES IDX 77 66 44 67 45 68 58 70 78 71 47 72 32 73 33 74 41 75 34 76
REMARK SMILES IDX 40 77 35 78 36 79 37 80 38 81 39 82 62 83 63 84 71 85 64 86
REMARK SMILES IDX 70 87 65 88 66 89 67 90 68 91 69 92 48 93 49 94 57 95 50 96
REMARK SMILES IDX 56 97 51 98 52 99 53 100 54 101 55 102
REMARK H PARENT 94 18 76 58 46 69
REMARK Flexibility Score: inf
ROOT
ATOM      1  C   UNL A   1      39.615  21.360  26.137  1.00  0.00     0.188 C 
ENDROOT
BRANCH   1   2
ATOM      2  C   UNL A   1      38.985  20.191  25.381  1.00  0.00     0.188 C 
BRANCH   2   3
ATOM      3  O   UNL A   1      37.637  20.202  24.863  1.00  0.00    -0.376 OA
BRANCH   3   4
ATOM      4  C   UNL A   1      36.724  21.318  24.754  1.00  0.00     0.202 C 
BRANCH   4   5
ATOM      5  C   UNL A   1      36.642  22.759  23.679  1.00  0.00     0.261 C 
BRANCH   5   6
ATOM      6  O   UNL A   1      35.216  23.597  22.814  1.00  0.00    -0.460 OA
BRANCH   6   7
ATOM      7  C   UNL A   1      33.877  24.430  23.112  1.00  0.00     0.339 C 
ATOM      8  O   UNL A   1      33.559  25.571  22.763  1.00  0.00    -0.246 OA
BRANCH   7   9
ATOM      9  C   UNL A   1      32.777  23.903  23.907  1.00  0.00     0.075 A 
ATOM     10  C   UNL A   1      32.155  21.704  24.688  1.00  0.00     0.074 A 
ATOM     11  C   UNL A   1      32.848  22.532  23.819  1.00  0.00     0.045 A 
ATOM     12  N   UNL A   1      31.283  22.079  25.643  1.00  0.00    -0.226 NA
ATOM     13  C   UNL A   1      31.182  23.420  25.804  1.00  0.00     0.182 A 
ATOM     14  C   UNL A   1      31.925  24.421  25.011  1.00  0.00     0.061 A 
ATOM     15  N   UNL A   1      30.390  23.944  26.726  1.00  0.00    -0.154 NA
ATOM     16  C   UNL A   1      31.531  25.645  25.658  1.00  0.00     0.076 A 
ATOM     17  N   UNL A   1      30.607  25.238  26.612  1.00  0.00    -0.275 N 
ATOM     18  H   UNL A   1      30.135  25.890  27.178  1.00  0.00     0.190 HD
BRANCH  10  19
ATOM     19  C   UNL A   1      32.336  20.284  24.449  1.00  0.00     0.000 A 
ATOM     20  C   UNL A   1      33.993  16.512  23.304  1.00  0.00     0.044 C 
ATOM     21  C   UNL A   1      33.368  17.800  23.735  1.00  0.00    -0.051 A 
ATOM     22  C   UNL A   1      32.646  18.560  22.804  1.00  0.00     0.004 A 
ATOM     23  C   UNL A   1      33.512  18.254  25.048  1.00  0.00     0.004 A 
ATOM     24  C   UNL A   1      32.127  19.795  23.161  1.00  0.00     0.010 A 
ATOM     25  C   UNL A   1      32.988  19.487  25.409  1.00  0.00     0.010 A 
ENDBRANCH  10  19
BRANCH  16  26
ATOM     26  C   UNL A   1      31.705  27.139  25.779  1.00  0.00     0.007 A 
ATOM     27  C   UNL A   1      31.091  28.009  24.855  1.00  0.00     0.011 A 
ATOM     28  C   UNL A   1      32.790  27.701  26.525  1.00  0.00     0.096 A 
ATOM     29  C   UNL A   1      31.446  29.380  24.757  1.00  0.00     0.008 A 
ATOM     30  C   UNL A   1      33.097  29.092  26.458  1.00  0.00     0.270 A 
ATOM     31  C   UNL A   1      32.419  29.937  25.582  1.00  0.00     0.085 A 
BRANCH  30  32
ATOM     32  N   UNL A   1      34.128  29.703  27.310  1.00  0.00     0.062 N 
ATOM     33  O   UNL A   1      35.219  29.118  27.368  1.00  0.00    -0.258 OA
ATOM     34  O   UNL A   1      33.887  30.827  27.777  1.00  0.00    -0.258 OA
ENDBRANCH  30  32
ENDBRANCH  16  26
ENDBRANCH   7   9
ENDBRANCH   6   7
ENDBRANCH   5   6
ENDBRANCH   4   5
ENDBRANCH   3   4
ENDBRANCH   2   3
ENDBRANCH   1   2
BRANCH   1  35
ATOM     35  O   UNL A   1      40.298  20.937  27.302  1.00  0.00    -0.376 OA
BRANCH  35  36
ATOM     36  C   UNL A   1      41.366  20.026  27.103  1.00  0.00     0.202 C 
BRANCH  36  37
ATOM     37  C   UNL A   1      42.647  20.552  26.409  1.00  0.00     0.261 C 
BRANCH  37  38
ATOM     38  O   UNL A   1      43.124  21.865  26.826  1.00  0.00    -0.460 OA
BRANCH  38  39
ATOM     39  C   UNL A   1      42.954  22.977  26.004  1.00  0.00     0.338 C 
ATOM     40  O   UNL A   1      42.698  22.890  24.830  1.00  0.00    -0.246 OA
BRANCH  39  41
ATOM     41  C   UNL A   1      42.746  24.216  26.809  1.00  0.00     0.060 A 
ATOM     42  C   UNL A   1      41.750  25.193  26.779  1.00  0.00     0.016 A 
ATOM     43  C   UNL A   1      43.708  24.418  27.717  1.00  0.00     0.016 A 
ATOM     44  C   UNL A   1      41.910  26.510  27.421  1.00  0.00     0.010 A 
ATOM     45  C   UNL A   1      43.912  25.727  28.115  1.00  0.00     0.010 A 
ATOM     46  C   UNL A   1      43.074  26.938  28.056  1.00  0.00    -0.014 A 
BRANCH  46  47
ATOM     47  C   UNL A   1      43.282  28.475  29.046  1.00  0.00     0.031 A 
ATOM     48  C   UNL A   1      41.982  29.619  29.693  1.00  0.00     0.074 A 
ATOM     49  C   UNL A   1      44.498  28.966  29.370  1.00  0.00     0.049 A 
ATOM     50  N   UNL A   1      42.070  30.924  29.817  1.00  0.00    -0.248 NA
ATOM     51  C   UNL A   1      40.493  29.306  30.077  1.00  0.00     0.031 C 
ATOM     52  C   UNL A   1      44.814  30.068  30.280  1.00  0.00     0.029 A 
ATOM     53  N   UNL A   1      45.745  28.598  28.880  1.00  0.00    -0.354 N 
ATOM     54  C   UNL A   1      40.885  31.401  30.432  1.00  0.00     0.074 A 
ATOM     55  C   UNL A   1      39.878  30.448  30.244  1.00  0.00     0.031 C 
ATOM     56  C   UNL A   1      46.067  30.488  30.034  1.00  0.00     0.029 A 
ATOM     57  C   UNL A   1      46.531  29.762  28.868  1.00  0.00     0.049 A 
ATOM     58  H   UNL A   1      46.023  27.697  28.597  1.00  0.00     0.167 HD
ATOM     59  C   UNL A   1      40.870  32.425  31.327  1.00  0.00     0.031 A 
ATOM     60  C   UNL A   1      46.889  30.309  27.668  1.00  0.00     0.031 A 
ATOM     61  C   UNL A   1      42.105  33.147  31.190  1.00  0.00     0.049 A 
ATOM     62  C   UNL A   1      46.287  31.721  27.469  1.00  0.00     0.074 A 
ATOM     63  C   UNL A   1      43.283  33.194  31.906  1.00  0.00     0.029 A 
ATOM     64  N   UNL A   1      42.385  33.617  29.919  1.00  0.00    -0.354 N 
ATOM     65  N   UNL A   1      45.422  32.295  28.269  1.00  0.00    -0.248 NA
ATOM     66  C   UNL A   1      46.634  32.617  26.364  1.00  0.00     0.031 C 
ATOM     67  C   UNL A   1      44.306  33.619  31.007  1.00  0.00     0.029 A 
ATOM     68  C   UNL A   1      43.731  33.859  29.772  1.00  0.00     0.049 A 
ATOM     69  H   UNL A   1      41.712  33.759  29.215  1.00  0.00     0.167 HD
ATOM     70  C   UNL A   1      45.079  33.553  27.819  1.00  0.00     0.074 A 
ATOM     71  C   UNL A   1      45.874  33.703  26.616  1.00  0.00     0.031 C 
ATOM     72  C   UNL A   1      44.181  34.357  28.480  1.00  0.00     0.031 A 
BRANCH  59  73
ATOM     73  C   UNL A   1      39.879  32.511  32.501  1.00  0.00    -0.014 A 
ATOM     74  C   UNL A   1      39.421  33.777  32.910  1.00  0.00     0.010 A 
ATOM     75  C   UNL A   1      39.436  31.438  33.315  1.00  0.00     0.010 A 
ATOM     76  C   UNL A   1      38.665  33.967  34.087  1.00  0.00     0.020 A 
ATOM     77  C   UNL A   1      38.723  31.610  34.517  1.00  0.00     0.020 A 
ATOM     78  C   UNL A   1      38.342  32.884  34.900  1.00  0.00     0.054 A 
BRANCH  78  79
ATOM     79  S   UNL A   1      37.418  33.146  36.438  1.00  0.00     0.124 S 
ATOM     80  O   UNL A   1      37.465  31.828  37.066  1.00  0.00    -0.237 OA
ATOM     81  O   UNL A   1      38.198  34.188  37.096  1.00  0.00    -0.237 OA
ATOM     82  O   UNL A   1      36.092  33.559  35.981  1.00  0.00    -0.744 OA
ENDBRANCH  78  79
ENDBRANCH  59  73
BRANCH  60  83
ATOM     83  C   UNL A   1      47.094  29.212  26.641  1.00  0.00    -0.014 A 
ATOM     84  C   UNL A   1      48.176  28.299  26.722  1.00  0.00     0.010 A 
ATOM     85  C   UNL A   1      45.985  28.752  25.938  1.00  0.00     0.010 A 
ATOM     86  C   UNL A   1      48.117  26.983  26.178  1.00  0.00     0.020 A 
ATOM     87  C   UNL A   1      45.943  27.455  25.380  1.00  0.00     0.020 A 
ATOM     88  C   UNL A   1      46.978  26.557  25.516  1.00  0.00     0.054 A 
BRANCH  88  89
ATOM     89  S   UNL A   1      46.729  24.826  24.988  1.00  0.00     0.124 S 
ATOM     90  O   UNL A   1      45.320  24.807  24.625  1.00  0.00    -0.237 OA
ATOM     91  O   UNL A   1      47.689  24.673  23.899  1.00  0.00    -0.237 OA
ATOM     92  O   UNL A   1      47.055  24.038  26.172  1.00  0.00    -0.744 OA
ENDBRANCH  88  89
ENDBRANCH  60  83
BRANCH  72  93
ATOM     93  C   UNL A   1      43.578  35.707  28.062  1.00  0.00    -0.014 A 
ATOM     94  C   UNL A   1      42.671  35.921  27.019  1.00  0.00     0.010 A 
ATOM     95  C   UNL A   1      43.891  36.859  28.848  1.00  0.00     0.010 A 
ATOM     96  C   UNL A   1      42.154  37.209  26.751  1.00  0.00     0.020 A 
ATOM     97  C   UNL A   1      43.336  38.122  28.638  1.00  0.00     0.020 A 
ATOM     98  C   UNL A   1      42.497  38.299  27.556  1.00  0.00     0.054 A 
BRANCH  98  99
ATOM     99  S   UNL A   1      41.854  39.952  27.193  1.00  0.00     0.124 S 
ATOM    100  O   UNL A   1      40.907  39.672  26.118  1.00  0.00    -0.237 OA
ATOM    101  O   UNL A   1      41.259  40.356  28.465  1.00  0.00    -0.237 OA
ATOM    102  O   UNL A   1      43.039  40.710  26.800  1.00  0.00    -0.744 OA
ENDBRANCH  98  99
ENDBRANCH  72  93
ENDBRANCH  46  47
ENDBRANCH  39  41
ENDBRANCH  38  39
ENDBRANCH  37  38
ENDBRANCH  36  37
ENDBRANCH  35  36
ENDBRANCH   1  35
TORSDOF 23
ENDMDL
MODEL 2
REMARK VINA RESULT:     -13.1      1.715      4.778
REMARK SMILES Cc1ccc(-c2cc(C(=O)OCCOCCOCCOC(=O)c3ccc(-c4c5nc(c(-c6ccc(S(=O)(=O)[O-])cc6)c6ccc([nH]6)c(-c6ccc(S(=O)(=O)[O-])cc6)c6nc(c(-c7ccc(S(=O)(=O)[O-])cc7)c7ccc4[nH]7)C=C6)C=C5)cc3)c3c(-c4cccc([N+](=O)[O-])c4)[nH]nc3n2)cc1
REMARK SMILES IDX 16 1 15 2 14 3 13 4 12 5 11 6 9 7 10 8 8 9 6 10 7 11 97 12
REMARK SMILES IDX 96 13 83 14 95 15 84 16 94 17 5 19 1 20 2 21 3 22 99 23 4 24
REMARK SMILES IDX 98 25 85 26 86 27 93 28 87 29 89 30 88 31 90 32 91 33 92 34
REMARK SMILES IDX 17 35 18 36 19 37 20 38 21 39 22 40 23 41 24 42 82 43 25 44
REMARK SMILES IDX 81 45 26 46 27 47 28 48 75 49 29 50 80 51 74 52 76 53 30 54
REMARK SMILES IDX 79 55 73 56 72 57 31 59 61 60 42 61 60 62 43 63 46 64 59 65
REMARK SMILES IDX 77 66 44 67 45 68 58 70 78 71 47 72 32 73 33 74 41 75 34 76
REMARK SMILES IDX 40 77 35 78 36 79 37 80 38 81 39 82 62 83 63 84 71 85 64 86
REMARK SMILES IDX 70 87 65 88 66 89 67 90 68 91 69 92 48 93 49 94 57 95 50 96
REMARK SMILES IDX 56 97 51 98 52 99 53 100 54 101 55 102
REMARK H PARENT 94 18 76 58 46 69
REMARK Flexibility Score: inf
ROOT
ATOM      1  C   UNL A   1      37.819  22.980  25.113  1.00  0.00     0.188 C 
ENDROOT
BRANCH   1   2
ATOM      2  C   UNL A   1      36.916  22.139  24.212  1.00  0.00     0.188 C 
BRANCH   2   3
ATOM      3  O   UNL A   1      35.630  21.622  24.618  1.00  0.00    -0.376 OA
BRANCH   3   4
ATOM      4  C   UNL A   1      35.191  21.244  25.943  1.00  0.00     0.202 C 
BRANCH   4   5
ATOM      5  C   UNL A   1      34.321  22.109  27.260  1.00  0.00     0.261 C 
BRANCH   5   6
ATOM      6  O   UNL A   1      32.509  22.450  27.552  1.00  0.00    -0.460 OA
BRANCH   6   7
ATOM      7  C   UNL A   1      31.202  23.025  26.818  1.00  0.00     0.339 C 
ATOM      8  O   UNL A   1      30.011  22.921  27.126  1.00  0.00    -0.246 OA
BRANCH   7   9
ATOM      9  C   UNL A   1      31.261  23.801  25.588  1.00  0.00     0.075 A 
ATOM     10  C   UNL A   1      31.506  26.149  25.079  1.00  0.00     0.074 A 
ATOM     11  C   UNL A   1      31.177  25.125  25.953  1.00  0.00     0.045 A 
ATOM     12  N   UNL A   1      31.856  26.029  23.784  1.00  0.00    -0.226 NA
ATOM     13  C   UNL A   1      31.985  24.750  23.362  1.00  0.00     0.182 A 
ATOM     14  C   UNL A   1      31.753  23.558  24.206  1.00  0.00     0.061 A 
ATOM     15  N   UNL A   1      32.356  24.467  22.123  1.00  0.00    -0.154 NA
ATOM     16  C   UNL A   1      32.130  22.498  23.308  1.00  0.00     0.076 A 
ATOM     17  N   UNL A   1      32.422  23.153  22.119  1.00  0.00    -0.275 N 
ATOM     18  H   UNL A   1      32.669  22.654  21.308  1.00  0.00     0.190 HD
BRANCH  10  19
ATOM     19  C   UNL A   1      31.352  27.486  25.623  1.00  0.00     0.000 A 
ATOM     20  C   UNL A   1      32.162  31.435  27.052  1.00  0.00     0.044 C 
ATOM     21  C   UNL A   1      31.817  30.068  26.553  1.00  0.00    -0.051 A 
ATOM     22  C   UNL A   1      31.878  28.978  27.432  1.00  0.00     0.004 A 
ATOM     23  C   UNL A   1      31.452  29.872  25.218  1.00  0.00     0.004 A 
ATOM     24  C   UNL A   1      31.642  27.693  26.971  1.00  0.00     0.010 A 
ATOM     25  C   UNL A   1      31.208  28.586  24.757  1.00  0.00     0.010 A 
ENDBRANCH  10  19
BRANCH  16  26
ATOM     26  C   UNL A   1      32.379  21.024  23.107  1.00  0.00     0.007 A 
ATOM     27  C   UNL A   1      32.126  20.418  21.859  1.00  0.00     0.011 A 
ATOM     28  C   UNL A   1      32.460  20.126  24.220  1.00  0.00     0.096 A 
ATOM     29  C   UNL A   1      32.075  19.008  21.699  1.00  0.00     0.008 A 
ATOM     30  C   UNL A   1      32.464  18.712  24.037  1.00  0.00     0.270 A 
ATOM     31  C   UNL A   1      32.283  18.149  22.775  1.00  0.00     0.085 A 
BRANCH  30  32
ATOM     32  N   UNL A   1      32.671  17.784  25.158  1.00  0.00     0.062 N 
ATOM     33  O   UNL A   1      32.465  18.232  26.294  1.00  0.00    -0.258 OA
ATOM     34  O   UNL A   1      32.878  16.592  24.879  1.00  0.00    -0.258 OA
ENDBRANCH  30  32
ENDBRANCH  16  26
ENDBRANCH   7   9
ENDBRANCH   6   7
ENDBRANCH   5   6
ENDBRANCH   4   5
ENDBRANCH   3   4
ENDBRANCH   2   3
ENDBRANCH   1   2
BRANCH   1  35
ATOM     35  O   UNL A   1      38.405  22.215  26.147  1.00  0.00    -0.376 OA
BRANCH  35  36
ATOM     36  C   UNL A   1      39.082  21.035  25.744  1.00  0.00     0.202 C 
BRANCH  36  37
ATOM     37  C   UNL A   1      40.518  20.806  26.278  1.00  0.00     0.261 C 
BRANCH  37  38
ATOM     38  O   UNL A   1      41.153  21.934  26.950  1.00  0.00    -0.460 OA
BRANCH  38  39
ATOM     39  C   UNL A   1      41.988  22.801  26.249  1.00  0.00     0.338 C 
ATOM     40  O   UNL A   1      42.429  22.544  25.157  1.00  0.00    -0.246 OA
BRANCH  39  41
ATOM     41  C   UNL A   1      41.941  24.176  26.823  1.00  0.00     0.060 A 
ATOM     42  C   UNL A   1      41.651  25.417  26.253  1.00  0.00     0.016 A 
ATOM     43  C   UNL A   1      42.245  24.211  28.126  1.00  0.00     0.016 A 
ATOM     44  C   UNL A   1      41.992  26.692  26.909  1.00  0.00     0.010 A 
ATOM     45  C   UNL A   1      42.746  25.408  28.608  1.00  0.00     0.010 A 
ATOM     46  C   UNL A   1      42.687  26.794  28.113  1.00  0.00    -0.014 A 
BRANCH  46  47
ATOM     47  C   UNL A   1      42.973  28.329  29.087  1.00  0.00     0.031 A 
ATOM     48  C   UNL A   1      41.731  29.533  29.739  1.00  0.00     0.074 A 
ATOM     49  C   UNL A   1      44.213  28.770  29.392  1.00  0.00     0.049 A 
ATOM     50  N   UNL A   1      41.877  30.834  29.852  1.00  0.00    -0.248 NA
ATOM     51  C   UNL A   1      40.235  29.288  30.143  1.00  0.00     0.031 C 
ATOM     52  C   UNL A   1      44.587  29.864  30.290  1.00  0.00     0.029 A 
ATOM     53  N   UNL A   1      45.437  28.344  28.892  1.00  0.00    -0.354 N 
ATOM     54  C   UNL A   1      40.721  31.367  30.475  1.00  0.00     0.074 A 
ATOM     55  C   UNL A   1      39.672  30.457  30.308  1.00  0.00     0.031 C 
ATOM     56  C   UNL A   1      45.854  30.228  30.025  1.00  0.00     0.029 A 
ATOM     57  C   UNL A   1      46.272  29.473  28.861  1.00  0.00     0.049 A 
ATOM     58  H   UNL A   1      45.672  27.430  28.613  1.00  0.00     0.167 HD
ATOM     59  C   UNL A   1      40.761  32.397  31.362  1.00  0.00     0.031 A 
ATOM     60  C   UNL A   1      46.639  29.994  27.652  1.00  0.00     0.031 A 
ATOM     61  C   UNL A   1      42.024  33.064  31.204  1.00  0.00     0.049 A 
ATOM     62  C   UNL A   1      46.096  31.429  27.448  1.00  0.00     0.074 A 
ATOM     63  C   UNL A   1      43.212  33.067  31.906  1.00  0.00     0.029 A 
ATOM     64  N   UNL A   1      42.309  33.512  29.927  1.00  0.00    -0.354 N 
ATOM     65  N   UNL A   1      45.267  32.046  28.253  1.00  0.00    -0.248 NA
ATOM     66  C   UNL A   1      46.467  32.300  26.331  1.00  0.00     0.031 C 
ATOM     67  C   UNL A   1      44.241  33.440  30.992  1.00  0.00     0.029 A 
ATOM     68  C   UNL A   1      43.662  33.694  29.762  1.00  0.00     0.049 A 
ATOM     69  H   UNL A   1      41.634  33.677  29.229  1.00  0.00     0.167 HD
ATOM     70  C   UNL A   1      44.972  33.314  27.796  1.00  0.00     0.074 A 
ATOM     71  C   UNL A   1      45.759  33.420  26.582  1.00  0.00     0.031 C 
ATOM     72  C   UNL A   1      44.118  34.162  28.460  1.00  0.00     0.031 A 
BRANCH  59  73
ATOM     73  C   UNL A   1      39.788  32.536  32.547  1.00  0.00    -0.014 A 
ATOM     74  C   UNL A   1      39.575  33.810  33.103  1.00  0.00     0.010 A 
ATOM     75  C   UNL A   1      39.138  31.480  33.235  1.00  0.00     0.010 A 
ATOM     76  C   UNL A   1      38.854  34.005  34.301  1.00  0.00     0.020 A 
ATOM     77  C   UNL A   1      38.455  31.646  34.455  1.00  0.00     0.020 A 
ATOM     78  C   UNL A   1      38.319  32.916  34.987  1.00  0.00     0.054 A 
BRANCH  78  79
ATOM     79  S   UNL A   1      37.441  33.171  36.552  1.00  0.00     0.124 S 
ATOM     80  O   UNL A   1      38.263  34.178  37.218  1.00  0.00    -0.237 OA
ATOM     81  O   UNL A   1      36.128  33.623  36.101  1.00  0.00    -0.237 OA
ATOM     82  O   UNL A   1      37.460  31.851  37.181  1.00  0.00    -0.744 OA
ENDBRANCH  78  79
ENDBRANCH  59  73
BRANCH  60  83
ATOM     83  C   UNL A   1      46.784  28.881  26.631  1.00  0.00    -0.014 A 
ATOM     84  C   UNL A   1      47.843  27.939  26.693  1.00  0.00     0.010 A 
ATOM     85  C   UNL A   1      45.643  28.446  25.965  1.00  0.00     0.010 A 
ATOM     86  C   UNL A   1      47.731  26.619  26.165  1.00  0.00     0.020 A 
ATOM     87  C   UNL A   1      45.549  27.144  25.423  1.00  0.00     0.020 A 
ATOM     88  C   UNL A   1      46.563  26.219  25.540  1.00  0.00     0.054 A 
BRANCH  88  89
ATOM     89  S   UNL A   1      46.250  24.490  25.039  1.00  0.00     0.124 S 
ATOM     90  O   UNL A   1      44.826  24.500  24.740  1.00  0.00    -0.237 OA
ATOM     91  O   UNL A   1      47.156  24.307  23.909  1.00  0.00    -0.237 OA
ATOM     92  O   UNL A   1      46.612  23.704  26.214  1.00  0.00    -0.744 OA
ENDBRANCH  88  89
ENDBRANCH  60  83
BRANCH  72  93
ATOM     93  C   UNL A   1      43.569  35.533  28.038  1.00  0.00    -0.014 A 
ATOM     94  C   UNL A   1      42.405  35.766  27.297  1.00  0.00     0.010 A 
ATOM     95  C   UNL A   1      44.245  36.704  28.503  1.00  0.00     0.010 A 
ATOM     96  C   UNL A   1      41.979  37.080  26.999  1.00  0.00     0.020 A 
ATOM     97  C   UNL A   1      43.797  38.006  28.275  1.00  0.00     0.020 A 
ATOM     98  C   UNL A   1      42.681  38.188  27.483  1.00  0.00     0.054 A 
BRANCH  98  99
ATOM     99  S   UNL A   1      42.146  39.869  27.078  1.00  0.00     0.124 S 
ATOM    100  O   UNL A   1      41.073  39.616  26.121  1.00  0.00    -0.237 OA
ATOM    101  O   UNL A   1      41.723  40.397  28.372  1.00  0.00    -0.237 OA
ATOM    102  O   UNL A   1      43.344  40.493  26.521  1.00  0.00    -0.744 OA
ENDBRANCH  98  99
ENDBRANCH  72  93
ENDBRANCH  46  47
ENDBRANCH  39  41
ENDBRANCH  38  39
ENDBRANCH  37  38
ENDBRANCH  36  37
ENDBRANCH  35  36
ENDBRANCH   1  35
TORSDOF 23
ENDMDL
MODEL 3
REMARK VINA RESULT:     -12.7      2.392      5.226
REMARK SMILES Cc1ccc(-c2cc(C(=O)OCCOCCOCCOC(=O)c3ccc(-c4c5nc(c(-c6ccc(S(=O)(=O)[O-])cc6)c6ccc([nH]6)c(-c6ccc(S(=O)(=O)[O-])cc6)c6nc(c(-c7ccc(S(=O)(=O)[O-])cc7)c7ccc4[nH]7)C=C6)C=C5)cc3)c3c(-c4cccc([N+](=O)[O-])c4)[nH]nc3n2)cc1
REMARK SMILES IDX 16 1 15 2 14 3 13 4 12 5 11 6 9 7 10 8 8 9 6 10 7 11 97 12
REMARK SMILES IDX 96 13 83 14 95 15 84 16 94 17 5 19 1 20 2 21 3 22 99 23 4 24
REMARK SMILES IDX 98 25 85 26 86 27 93 28 87 29 89 30 88 31 90 32 91 33 92 34
REMARK SMILES IDX 17 35 18 36 19 37 20 38 21 39 22 40 23 41 24 42 82 43 25 44
REMARK SMILES IDX 81 45 26 46 27 47 28 48 75 49 29 50 80 51 74 52 76 53 30 54
REMARK SMILES IDX 79 55 73 56 72 57 31 59 61 60 42 61 60 62 43 63 46 64 59 65
REMARK SMILES IDX 77 66 44 67 45 68 58 70 78 71 47 72 32 73 33 74 41 75 34 76
REMARK SMILES IDX 40 77 35 78 36 79 37 80 38 81 39 82 62 83 63 84 71 85 64 86
REMARK SMILES IDX 70 87 65 88 66 89 67 90 68 91 69 92 48 93 49 94 57 95 50 96
REMARK SMILES IDX 56 97 51 98 52 99 53 100 54 101 55 102
REMARK H PARENT 94 18 76 58 46 69
REMARK Flexibility Score: inf
ROOT
ATOM      1  C   UNL A   1      38.691  22.087  26.159  1.00  0.00     0.188 C 
ENDROOT
BRANCH   1   2
ATOM      2  C   UNL A   1      37.994  21.158  25.166  1.00  0.00     0.188 C 
BRANCH   2   3
ATOM      3  O   UNL A   1      36.668  21.389  24.643  1.00  0.00    -0.376 OA
BRANCH   3   4
ATOM      4  C   UNL A   1      35.545  22.032  25.290  1.00  0.00     0.202 C 
BRANCH   4   5
ATOM      5  C   UNL A   1      34.588  21.671  26.771  1.00  0.00     0.261 C 
BRANCH   5   6
ATOM      6  O   UNL A   1      32.835  22.081  27.261  1.00  0.00    -0.460 OA
BRANCH   6   7
ATOM      7  C   UNL A   1      31.584  22.988  26.822  1.00  0.00     0.339 C 
ATOM      8  O   UNL A   1      30.514  23.195  27.403  1.00  0.00    -0.246 OA
BRANCH   7   9
ATOM      9  C   UNL A   1      31.548  23.737  25.575  1.00  0.00     0.075 A 
ATOM     10  C   UNL A   1      31.769  26.072  24.998  1.00  0.00     0.074 A 
ATOM     11  C   UNL A   1      31.505  25.070  25.918  1.00  0.00     0.045 A 
ATOM     12  N   UNL A   1      32.011  25.922  23.681  1.00  0.00    -0.226 NA
ATOM     13  C   UNL A   1      32.094  24.633  23.278  1.00  0.00     0.182 A 
ATOM     14  C   UNL A   1      31.922  23.461  24.163  1.00  0.00     0.061 A 
ATOM     15  N   UNL A   1      32.359  24.321  22.018  1.00  0.00    -0.154 NA
ATOM     16  C   UNL A   1      32.215  22.379  23.260  1.00  0.00     0.076 A 
ATOM     17  N   UNL A   1      32.414  23.006  22.037  1.00  0.00    -0.275 N 
ATOM     18  H   UNL A   1      32.589  22.488  21.219  1.00  0.00     0.190 HD
BRANCH  10  19
ATOM     19  C   UNL A   1      31.671  27.421  25.523  1.00  0.00     0.000 A 
ATOM     20  C   UNL A   1      32.622  31.196  27.295  1.00  0.00     0.044 C 
ATOM     21  C   UNL A   1      32.234  29.900  26.658  1.00  0.00    -0.051 A 
ATOM     22  C   UNL A   1      31.845  28.823  27.468  1.00  0.00     0.004 A 
ATOM     23  C   UNL A   1      32.272  29.754  25.269  1.00  0.00     0.004 A 
ATOM     24  C   UNL A   1      31.560  27.590  26.902  1.00  0.00     0.010 A 
ATOM     25  C   UNL A   1      31.980  28.521  24.702  1.00  0.00     0.010 A 
ENDBRANCH  10  19
BRANCH  16  26
ATOM     26  C   UNL A   1      32.435  20.898  23.070  1.00  0.00     0.007 A 
ATOM     27  C   UNL A   1      32.178  20.289  21.825  1.00  0.00     0.011 A 
ATOM     28  C   UNL A   1      32.490  20.007  24.191  1.00  0.00     0.096 A 
ATOM     29  C   UNL A   1      32.099  18.880  21.675  1.00  0.00     0.008 A 
ATOM     30  C   UNL A   1      32.466  18.592  24.017  1.00  0.00     0.270 A 
ATOM     31  C   UNL A   1      32.282  18.025  22.758  1.00  0.00     0.085 A 
BRANCH  30  32
ATOM     32  N   UNL A   1      32.646  17.668  25.146  1.00  0.00     0.062 N 
ATOM     33  O   UNL A   1      33.112  16.551  24.880  1.00  0.00    -0.258 OA
ATOM     34  O   UNL A   1      32.472  18.123  26.287  1.00  0.00    -0.258 OA
ENDBRANCH  30  32
ENDBRANCH  16  26
ENDBRANCH   7   9
ENDBRANCH   6   7
ENDBRANCH   5   6
ENDBRANCH   4   5
ENDBRANCH   3   4
ENDBRANCH   2   3
ENDBRANCH   1   2
BRANCH   1  35
ATOM     35  O   UNL A   1      39.661  21.410  26.934  1.00  0.00    -0.376 OA
BRANCH  35  36
ATOM     36  C   UNL A   1      40.291  20.301  26.316  1.00  0.00     0.202 C 
BRANCH  36  37
ATOM     37  C   UNL A   1      41.839  20.289  26.255  1.00  0.00     0.261 C 
BRANCH  37  38
ATOM     38  O   UNL A   1      42.529  21.358  26.968  1.00  0.00    -0.460 OA
BRANCH  38  39
ATOM     39  C   UNL A   1      42.724  22.601  26.369  1.00  0.00     0.338 C 
ATOM     40  O   UNL A   1      42.910  22.735  25.185  1.00  0.00    -0.246 OA
BRANCH  39  41
ATOM     41  C   UNL A   1      42.297  23.708  27.272  1.00  0.00     0.060 A 
ATOM     42  C   UNL A   1      41.070  24.349  27.449  1.00  0.00     0.016 A 
ATOM     43  C   UNL A   1      43.290  24.167  28.044  1.00  0.00     0.016 A 
ATOM     44  C   UNL A   1      40.942  25.642  28.144  1.00  0.00     0.010 A 
ATOM     45  C   UNL A   1      43.168  25.471  28.491  1.00  0.00     0.010 A 
ATOM     46  C   UNL A   1      42.018  26.382  28.631  1.00  0.00    -0.014 A 
BRANCH  46  47
ATOM     47  C   UNL A   1      41.926  27.893  29.677  1.00  0.00     0.031 A 
ATOM     48  C   UNL A   1      40.717  29.289  29.590  1.00  0.00     0.074 A 
ATOM     49  C   UNL A   1      42.833  28.159  30.643  1.00  0.00     0.049 A 
ATOM     50  N   UNL A   1      40.958  30.558  29.831  1.00  0.00    -0.248 NA
ATOM     51  C   UNL A   1      39.233  29.280  29.080  1.00  0.00     0.031 C 
ATOM     52  C   UNL A   1      42.793  29.219  31.652  1.00  0.00     0.029 A 
ATOM     53  N   UNL A   1      44.053  27.541  30.886  1.00  0.00    -0.354 N 
ATOM     54  C   UNL A   1      39.740  31.276  29.733  1.00  0.00     0.074 A 
ATOM     55  C   UNL A   1      38.846  30.524  28.964  1.00  0.00     0.031 C 
ATOM     56  C   UNL A   1      44.029  29.383  32.155  1.00  0.00     0.029 A 
ATOM     57  C   UNL A   1      44.913  28.533  31.383  1.00  0.00     0.049 A 
ATOM     58  H   UNL A   1      44.271  26.592  30.739  1.00  0.00     0.167 HD
ATOM     59  C   UNL A   1      39.424  32.322  30.544  1.00  0.00     0.031 A 
ATOM     60  C   UNL A   1      45.961  28.951  30.612  1.00  0.00     0.031 A 
ATOM     61  C   UNL A   1      40.640  32.790  31.150  1.00  0.00     0.049 A 
ATOM     62  C   UNL A   1      45.834  30.441  30.214  1.00  0.00     0.074 A 
ATOM     63  C   UNL A   1      41.221  32.645  32.393  1.00  0.00     0.029 A 
ATOM     64  N   UNL A   1      41.649  33.144  30.272  1.00  0.00    -0.354 N 
ATOM     65  N   UNL A   1      44.794  31.202  30.452  1.00  0.00    -0.248 NA
ATOM     66  C   UNL A   1      46.883  31.207  29.540  1.00  0.00     0.031 C 
ATOM     67  C   UNL A   1      42.625  32.830  32.226  1.00  0.00     0.029 A 
ATOM     68  C   UNL A   1      42.873  33.121  30.897  1.00  0.00     0.049 A 
ATOM     69  H   UNL A   1      41.508  33.380  29.326  1.00  0.00     0.167 HD
ATOM     70  C   UNL A   1      44.987  32.482  29.975  1.00  0.00     0.074 A 
ATOM     71  C   UNL A   1      46.322  32.427  29.412  1.00  0.00     0.031 C 
ATOM     72  C   UNL A   1      44.038  33.469  30.094  1.00  0.00     0.031 A 
BRANCH  59  73
ATOM     73  C   UNL A   1      37.988  32.644  30.993  1.00  0.00    -0.014 A 
ATOM     74  C   UNL A   1      37.462  33.919  30.717  1.00  0.00     0.010 A 
ATOM     75  C   UNL A   1      37.138  31.816  31.769  1.00  0.00     0.010 A 
ATOM     76  C   UNL A   1      36.235  34.366  31.252  1.00  0.00     0.020 A 
ATOM     77  C   UNL A   1      35.935  32.258  32.351  1.00  0.00     0.020 A 
ATOM     78  C   UNL A   1      35.488  33.541  32.090  1.00  0.00     0.054 A 
BRANCH  78  79
ATOM     79  S   UNL A   1      33.940  34.143  32.815  1.00  0.00     0.124 S 
ATOM     80  O   UNL A   1      33.239  34.692  31.657  1.00  0.00    -0.237 OA
ATOM     81  O   UNL A   1      33.368  32.926  33.382  1.00  0.00    -0.237 OA
ATOM     82  O   UNL A   1      34.377  35.138  33.794  1.00  0.00    -0.744 OA
ENDBRANCH  78  79
ENDBRANCH  59  73
BRANCH  60  83
ATOM     83  C   UNL A   1      46.491  27.791  29.788  1.00  0.00    -0.014 A 
ATOM     84  C   UNL A   1      46.357  27.749  28.377  1.00  0.00     0.010 A 
ATOM     85  C   UNL A   1      47.544  27.044  30.305  1.00  0.00     0.010 A 
ATOM     86  C   UNL A   1      47.268  27.044  27.538  1.00  0.00     0.020 A 
ATOM     87  C   UNL A   1      48.428  26.327  29.469  1.00  0.00     0.020 A 
ATOM     88  C   UNL A   1      48.323  26.341  28.095  1.00  0.00     0.054 A 
BRANCH  88  89
ATOM     89  S   UNL A   1      49.659  25.602  27.093  1.00  0.00     0.124 S 
ATOM     90  O   UNL A   1      49.741  24.249  27.625  1.00  0.00    -0.237 OA
ATOM     91  O   UNL A   1      49.161  25.740  25.729  1.00  0.00    -0.237 OA
ATOM     92  O   UNL A   1      50.825  26.431  27.379  1.00  0.00    -0.744 OA
ENDBRANCH  88  89
ENDBRANCH  60  83
BRANCH  72  93
ATOM     93  C   UNL A   1      44.018  34.889  29.510  1.00  0.00    -0.014 A 
ATOM     94  C   UNL A   1      43.729  35.235  28.186  1.00  0.00     0.010 A 
ATOM     95  C   UNL A   1      44.230  35.989  30.398  1.00  0.00     0.010 A 
ATOM     96  C   UNL A   1      43.705  36.586  27.770  1.00  0.00     0.020 A 
ATOM     97  C   UNL A   1      44.142  37.328  30.017  1.00  0.00     0.020 A 
ATOM     98  C   UNL A   1      43.920  37.620  28.686  1.00  0.00     0.054 A 
BRANCH  98  99
ATOM     99  S   UNL A   1      43.914  39.348  28.146  1.00  0.00     0.124 S 
ATOM    100  O   UNL A   1      42.789  39.891  28.902  1.00  0.00    -0.237 OA
ATOM    101  O   UNL A   1      45.234  39.821  28.555  1.00  0.00    -0.237 OA
ATOM    102  O   UNL A   1      43.711  39.261  26.701  1.00  0.00    -0.744 OA
ENDBRANCH  98  99
ENDBRANCH  72  93
ENDBRANCH  46  47
ENDBRANCH  39  41
ENDBRANCH  38  39
ENDBRANCH  37  38
ENDBRANCH  36  37
ENDBRANCH  35  36
ENDBRANCH   1  35
TORSDOF 23
ENDMDL
