MODEL 1
REMARK VINA RESULT:      -7.3      0.000      0.000
REMARK SMILES O=C(OCCOCCOCCOC(=O)c1ccc(-c2c3nc(c(-c4ccc(S(=O)(=O)[O-])cc4)c4ccc([nH]4)c(-c4ccc(S(=O)(=O)[O-])cc4)c4nc(c(-c5ccc(S(=O)(=O)[O-])cc5)c5ccc2[nH]5)C=C4)C=C3)cc1)C1=Cc2cc(Cl)cc(-c3ccc(Cl)cc3)c2O[C@@H]1C(F)(F)F
REMARK SMILES IDX 8 1 7 2 6 3 5 4 4 5 3 6 2 7 1 8 75 9 76 10 92 11 77 12 91 13
REMARK SMILES IDX 78 14 90 15 79 16 82 17 80 18 81 19 93 20 94 21 95 22 96 23
REMARK SMILES IDX 83 24 84 25 89 26 85 27 88 28 86 29 87 30 9 31 10 32 11 33
REMARK SMILES IDX 12 34 13 35 14 36 15 37 16 38 74 39 17 40 73 41 18 42 19 43
REMARK SMILES IDX 20 44 67 45 21 46 72 47 66 48 68 49 22 50 71 51 65 52 64 53
REMARK SMILES IDX 23 55 53 56 34 57 52 58 35 59 38 60 51 61 69 62 36 63 37 64
REMARK SMILES IDX 50 66 70 67 39 68 24 69 25 70 33 71 26 72 32 73 27 74 28 75
REMARK SMILES IDX 29 76 30 77 31 78 54 79 55 80 63 81 56 82 62 83 57 84 58 85
REMARK SMILES IDX 59 86 60 87 61 88 40 89 41 90 49 91 42 92 48 93 43 94 44 95
REMARK SMILES IDX 45 96 46 97 47 98
REMARK H PARENT 68 54 38 65
REMARK Flexibility Score: inf
ROOT
ATOM      1  C   UNL A   1      43.105  40.398  30.350  1.00  0.00     0.188 C 
ENDROOT
BRANCH   1   2
ATOM      2  C   UNL A   1      43.281  40.934  28.920  1.00  0.00     0.188 C 
BRANCH   2   3
ATOM      3  O   UNL A   1      44.247  42.045  28.537  1.00  0.00    -0.376 OA
BRANCH   3   4
ATOM      4  C   UNL A   1      44.722  42.505  26.889  1.00  0.00     0.202 C 
BRANCH   4   5
ATOM      5  C   UNL A   1      45.542  41.052  25.492  1.00  0.00     0.261 C 
BRANCH   5   6
ATOM      6  O   UNL A   1      45.463  39.536  25.621  1.00  0.00    -0.460 OA
BRANCH   6   7
ATOM      7  C   UNL A   1      46.679  38.966  25.571  1.00  0.00     0.338 C 
ATOM      8  O   UNL A   1      47.354  38.767  24.592  1.00  0.00    -0.246 OA
BRANCH   7   9
ATOM      9  C   UNL A   1      46.582  38.246  26.834  1.00  0.00     0.087 C 
ATOM     10  C   UNL A   1      45.805  37.028  26.844  1.00  0.00     0.027 C 
ATOM     11  C   UNL A   1      48.462  38.336  27.131  1.00  0.00     0.316 C 
ATOM     12  C   UNL A   1      46.506  35.388  26.805  1.00  0.00     0.019 A 
ATOM     13  O   UNL A   1      49.290  36.561  26.904  1.00  0.00    -0.475 OA
ATOM     14  C   UNL A   1      45.625  34.348  26.664  1.00  0.00     0.032 A 
ATOM     15  C   UNL A   1      48.213  35.079  26.769  1.00  0.00     0.135 A 
ATOM     16  C   UNL A   1      46.209  33.085  26.561  1.00  0.00     0.042 A 
ATOM     17  C   UNL A   1      48.697  33.779  26.708  1.00  0.00     0.026 A 
ATOM     18  Cl  UNL A   1      45.148  31.729  26.376  1.00  0.00    -0.084 Cl
ATOM     19  C   UNL A   1      47.629  32.826  26.598  1.00  0.00     0.033 A 
BRANCH  11  20
ATOM     20  C   UNL A   1      48.205  39.328  28.540  1.00  0.00     0.430 C 
ATOM     21  F   UNL A   1      47.255  40.279  28.545  1.00  0.00    -0.167 F 
ATOM     22  F   UNL A   1      47.988  38.530  29.615  1.00  0.00    -0.167 F 
ATOM     23  F   UNL A   1      49.333  40.041  28.850  1.00  0.00    -0.167 F 
ENDBRANCH  11  20
BRANCH  17  24
ATOM     24  C   UNL A   1      50.035  33.198  26.797  1.00  0.00    -0.015 A 
ATOM     25  C   UNL A   1      50.567  32.752  28.013  1.00  0.00     0.010 A 
ATOM     26  C   UNL A   1      50.922  33.313  25.703  1.00  0.00     0.010 A 
ATOM     27  C   UNL A   1      51.897  32.317  28.099  1.00  0.00     0.021 A 
ATOM     28  C   UNL A   1      52.242  32.851  25.776  1.00  0.00     0.021 A 
ATOM     29  C   UNL A   1      52.715  32.326  26.972  1.00  0.00     0.041 A 
ATOM     30  Cl  UNL A   1      54.305  31.675  27.052  1.00  0.00    -0.084 Cl
ENDBRANCH  17  24
ENDBRANCH   7   9
ENDBRANCH   6   7
ENDBRANCH   5   6
ENDBRANCH   4   5
ENDBRANCH   3   4
ENDBRANCH   2   3
ENDBRANCH   1   2
BRANCH   1  31
ATOM     31  O   UNL A   1      42.669  41.265  31.358  1.00  0.00    -0.376 OA
BRANCH  31  32
ATOM     32  C   UNL A   1      42.990  40.846  32.665  1.00  0.00     0.202 C 
BRANCH  32  33
ATOM     33  C   UNL A   1      44.445  40.576  33.059  1.00  0.00     0.261 C 
BRANCH  33  34
ATOM     34  O   UNL A   1      44.803  39.192  33.114  1.00  0.00    -0.460 OA
BRANCH  34  35
ATOM     35  C   UNL A   1      45.920  38.837  32.438  1.00  0.00     0.338 C 
ATOM     36  O   UNL A   1      46.972  39.445  32.362  1.00  0.00    -0.246 OA
BRANCH  35  37
ATOM     37  C   UNL A   1      45.710  37.469  31.942  1.00  0.00     0.060 A 
ATOM     38  C   UNL A   1      45.043  37.245  30.726  1.00  0.00     0.016 A 
ATOM     39  C   UNL A   1      46.172  36.409  32.716  1.00  0.00     0.016 A 
ATOM     40  C   UNL A   1      44.849  35.946  30.268  1.00  0.00     0.010 A 
ATOM     41  C   UNL A   1      45.932  35.111  32.286  1.00  0.00     0.010 A 
ATOM     42  C   UNL A   1      45.248  34.880  31.078  1.00  0.00    -0.014 A 
BRANCH  42  43
ATOM     43  C   UNL A   1      44.697  33.533  30.848  1.00  0.00     0.031 A 
ATOM     44  C   UNL A   1      45.650  32.489  30.352  1.00  0.00     0.074 A 
ATOM     45  C   UNL A   1      43.385  33.284  30.976  1.00  0.00     0.049 A 
ATOM     46  N   UNL A   1      45.405  31.296  29.887  1.00  0.00    -0.248 NA
ATOM     47  C   UNL A   1      47.077  32.860  30.356  1.00  0.00     0.031 C 
ATOM     48  C   UNL A   1      42.392  34.226  31.484  1.00  0.00     0.029 A 
ATOM     49  N   UNL A   1      42.665  32.168  30.644  1.00  0.00    -0.354 N 
ATOM     50  C   UNL A   1      46.640  30.786  29.511  1.00  0.00     0.074 A 
ATOM     51  C   UNL A   1      47.629  31.804  29.782  1.00  0.00     0.031 C 
ATOM     52  C   UNL A   1      41.176  33.657  31.395  1.00  0.00     0.029 A 
ATOM     53  C   UNL A   1      41.309  32.338  30.778  1.00  0.00     0.049 A 
ATOM     54  H   UNL A   1      43.078  31.326  30.340  1.00  0.00     0.167 HD
ATOM     55  C   UNL A   1      46.920  29.579  28.969  1.00  0.00     0.031 A 
ATOM     56  C   UNL A   1      40.295  31.536  30.396  1.00  0.00     0.031 A 
ATOM     57  C   UNL A   1      45.909  28.607  28.654  1.00  0.00     0.049 A 
ATOM     58  C   UNL A   1      40.614  30.221  29.734  1.00  0.00     0.074 A 
ATOM     59  C   UNL A   1      46.070  27.342  28.124  1.00  0.00     0.029 A 
ATOM     60  N   UNL A   1      44.544  28.809  28.816  1.00  0.00    -0.354 N 
ATOM     61  N   UNL A   1      41.787  29.721  29.418  1.00  0.00    -0.248 NA
ATOM     62  C   UNL A   1      39.479  29.357  29.384  1.00  0.00     0.031 C 
ATOM     63  C   UNL A   1      44.798  26.813  27.883  1.00  0.00     0.029 A 
ATOM     64  C   UNL A   1      43.848  27.705  28.358  1.00  0.00     0.049 A 
ATOM     65  H   UNL A   1      44.134  29.618  29.198  1.00  0.00     0.167 HD
ATOM     66  C   UNL A   1      41.534  28.470  28.863  1.00  0.00     0.074 A 
ATOM     67  C   UNL A   1      40.096  28.292  28.888  1.00  0.00     0.031 C 
ATOM     68  C   UNL A   1      42.412  27.549  28.392  1.00  0.00     0.031 A 
BRANCH  55  69
ATOM     69  C   UNL A   1      48.357  29.301  28.613  1.00  0.00    -0.014 A 
ATOM     70  C   UNL A   1      48.868  29.562  27.328  1.00  0.00     0.010 A 
ATOM     71  C   UNL A   1      49.207  28.732  29.580  1.00  0.00     0.010 A 
ATOM     72  C   UNL A   1      50.174  29.195  26.996  1.00  0.00     0.020 A 
ATOM     73  C   UNL A   1      50.527  28.404  29.265  1.00  0.00     0.020 A 
ATOM     74  C   UNL A   1      50.994  28.614  27.967  1.00  0.00     0.054 A 
BRANCH  74  75
ATOM     75  S   UNL A   1      52.681  28.135  27.506  1.00  0.00     0.124 S 
ATOM     76  O   UNL A   1      52.579  26.678  27.462  1.00  0.00    -0.237 OA
ATOM     77  O   UNL A   1      52.855  28.792  26.213  1.00  0.00    -0.237 OA
ATOM     78  O   UNL A   1      53.502  28.668  28.589  1.00  0.00    -0.744 OA
ENDBRANCH  74  75
ENDBRANCH  55  69
BRANCH  56  79
ATOM     79  C   UNL A   1      38.891  31.986  30.611  1.00  0.00    -0.014 A 
ATOM     80  C   UNL A   1      38.353  32.083  31.905  1.00  0.00     0.010 A 
ATOM     81  C   UNL A   1      38.106  32.389  29.513  1.00  0.00     0.010 A 
ATOM     82  C   UNL A   1      37.064  32.589  32.100  1.00  0.00     0.020 A 
ATOM     83  C   UNL A   1      36.829  32.922  29.706  1.00  0.00     0.020 A 
ATOM     84  C   UNL A   1      36.316  33.021  30.999  1.00  0.00     0.054 A 
BRANCH  84  85
ATOM     85  S   UNL A   1      34.692  33.776  31.287  1.00  0.00     0.124 S 
ATOM     86  O   UNL A   1      34.210  33.998  29.927  1.00  0.00    -0.237 OA
ATOM     87  O   UNL A   1      33.995  32.738  32.043  1.00  0.00    -0.237 OA
ATOM     88  O   UNL A   1      35.004  34.985  32.045  1.00  0.00    -0.744 OA
ENDBRANCH  84  85
ENDBRANCH  56  79
BRANCH  68  89
ATOM     89  C   UNL A   1      41.863  26.228  27.914  1.00  0.00    -0.014 A 
ATOM     90  C   UNL A   1      41.506  26.014  26.571  1.00  0.00     0.010 A 
ATOM     91  C   UNL A   1      41.814  25.149  28.816  1.00  0.00     0.010 A 
ATOM     92  C   UNL A   1      41.099  24.746  26.145  1.00  0.00     0.020 A 
ATOM     93  C   UNL A   1      41.443  23.874  28.387  1.00  0.00     0.020 A 
ATOM     94  C   UNL A   1      41.081  23.682  27.054  1.00  0.00     0.054 A 
BRANCH  94  95
ATOM     95  S   UNL A   1      40.629  22.031  26.456  1.00  0.00     0.124 S 
ATOM     96  O   UNL A   1      41.722  21.729  25.536  1.00  0.00    -0.237 OA
ATOM     97  O   UNL A   1      40.606  21.242  27.685  1.00  0.00    -0.237 OA
ATOM     98  O   UNL A   1      39.326  22.233  25.827  1.00  0.00    -0.744 OA
ENDBRANCH  94  95
ENDBRANCH  68  89
ENDBRANCH  42  43
ENDBRANCH  35  37
ENDBRANCH  34  35
ENDBRANCH  33  34
ENDBRANCH  32  33
ENDBRANCH  31  32
ENDBRANCH   1  31
TORSDOF 22
ENDMDL
MODEL 2
REMARK VINA RESULT:      -7.1      4.534      7.421
REMARK SMILES O=C(OCCOCCOCCOC(=O)c1ccc(-c2c3nc(c(-c4ccc(S(=O)(=O)[O-])cc4)c4ccc([nH]4)c(-c4ccc(S(=O)(=O)[O-])cc4)c4nc(c(-c5ccc(S(=O)(=O)[O-])cc5)c5ccc2[nH]5)C=C4)C=C3)cc1)C1=Cc2cc(Cl)cc(-c3ccc(Cl)cc3)c2O[C@@H]1C(F)(F)F
REMARK SMILES IDX 8 1 7 2 6 3 5 4 4 5 3 6 2 7 1 8 75 9 76 10 92 11 77 12 91 13
REMARK SMILES IDX 78 14 90 15 79 16 82 17 80 18 81 19 93 20 94 21 95 22 96 23
REMARK SMILES IDX 83 24 84 25 89 26 85 27 88 28 86 29 87 30 9 31 10 32 11 33
REMARK SMILES IDX 12 34 13 35 14 36 15 37 16 38 74 39 17 40 73 41 18 42 19 43
REMARK SMILES IDX 20 44 67 45 21 46 72 47 66 48 68 49 22 50 71 51 65 52 64 53
REMARK SMILES IDX 23 55 53 56 34 57 52 58 35 59 38 60 51 61 69 62 36 63 37 64
REMARK SMILES IDX 50 66 70 67 39 68 24 69 25 70 33 71 26 72 32 73 27 74 28 75
REMARK SMILES IDX 29 76 30 77 31 78 54 79 55 80 63 81 56 82 62 83 57 84 58 85
REMARK SMILES IDX 59 86 60 87 61 88 40 89 41 90 49 91 42 92 48 93 43 94 44 95
REMARK SMILES IDX 45 96 46 97 47 98
REMARK H PARENT 68 54 38 65
REMARK Flexibility Score: inf
ROOT
ATOM      1  C   UNL A   1      46.420  36.400  32.110  1.00  0.00     0.188 C 
ENDROOT
BRANCH   1   2
ATOM      2  C   UNL A   1      46.528  35.226  33.095  1.00  0.00     0.188 C 
BRANCH   2   3
ATOM      3  O   UNL A   1      45.796  33.902  32.929  1.00  0.00    -0.376 OA
BRANCH   3   4
ATOM      4  C   UNL A   1      44.274  33.643  32.050  1.00  0.00     0.202 C 
BRANCH   4   5
ATOM      5  C   UNL A   1      42.512  32.836  33.037  1.00  0.00     0.261 C 
BRANCH   5   6
ATOM      6  O   UNL A   1      42.069  31.378  33.039  1.00  0.00    -0.460 OA
BRANCH   6   7
ATOM      7  C   UNL A   1      43.039  30.562  33.484  1.00  0.00     0.338 C 
ATOM      8  O   UNL A   1      44.006  30.864  34.138  1.00  0.00    -0.246 OA
BRANCH   7   9
ATOM      9  C   UNL A   1      42.835  29.502  32.506  1.00  0.00     0.087 C 
ATOM     10  C   UNL A   1      43.944  29.176  31.641  1.00  0.00     0.027 C 
ATOM     11  C   UNL A   1      42.089  28.325  33.807  1.00  0.00     0.316 C 
ATOM     12  C   UNL A   1      45.010  27.762  31.862  1.00  0.00     0.019 A 
ATOM     13  O   UNL A   1      43.336  26.852  34.209  1.00  0.00    -0.475 OA
ATOM     14  C   UNL A   1      46.106  27.686  31.044  1.00  0.00     0.032 A 
ATOM     15  C   UNL A   1      44.811  26.607  33.142  1.00  0.00     0.135 A 
ATOM     16  C   UNL A   1      46.959  26.610  31.292  1.00  0.00     0.042 A 
ATOM     17  C   UNL A   1      45.693  25.543  33.279  1.00  0.00     0.026 A 
ATOM     18  Cl  UNL A   1      48.366  26.462  30.293  1.00  0.00    -0.084 Cl
ATOM     19  C   UNL A   1      46.755  25.614  32.316  1.00  0.00     0.033 A 
BRANCH  11  20
ATOM     20  C   UNL A   1      40.557  28.358  32.977  1.00  0.00     0.430 C 
ATOM     21  F   UNL A   1      40.505  28.412  31.635  1.00  0.00    -0.167 F 
ATOM     22  F   UNL A   1      39.813  27.296  33.371  1.00  0.00    -0.167 F 
ATOM     23  F   UNL A   1      39.827  29.458  33.342  1.00  0.00    -0.167 F 
ENDBRANCH  11  20
BRANCH  17  24
ATOM     24  C   UNL A   1      45.719  24.363  34.141  1.00  0.00    -0.015 A 
ATOM     25  C   UNL A   1      46.828  24.057  34.939  1.00  0.00     0.010 A 
ATOM     26  C   UNL A   1      44.730  23.365  33.991  1.00  0.00     0.010 A 
ATOM     27  C   UNL A   1      46.885  22.855  35.660  1.00  0.00     0.021 A 
ATOM     28  C   UNL A   1      44.768  22.176  34.733  1.00  0.00     0.021 A 
ATOM     29  C   UNL A   1      45.836  21.941  35.589  1.00  0.00     0.041 A 
ATOM     30  Cl  UNL A   1      45.852  20.529  36.570  1.00  0.00    -0.084 Cl
ENDBRANCH  17  24
ENDBRANCH   7   9
ENDBRANCH   6   7
ENDBRANCH   5   6
ENDBRANCH   4   5
ENDBRANCH   3   4
ENDBRANCH   2   3
ENDBRANCH   1   2
BRANCH   1  31
ATOM     31  O   UNL A   1      47.470  37.321  32.024  1.00  0.00    -0.376 OA
BRANCH  31  32
ATOM     32  C   UNL A   1      47.330  38.268  30.989  1.00  0.00     0.202 C 
BRANCH  32  33
ATOM     33  C   UNL A   1      48.313  38.285  29.815  1.00  0.00     0.261 C 
BRANCH  33  34
ATOM     34  O   UNL A   1      48.344  37.082  29.043  1.00  0.00    -0.460 OA
BRANCH  34  35
ATOM     35  C   UNL A   1      47.255  36.837  28.276  1.00  0.00     0.338 C 
ATOM     36  O   UNL A   1      46.595  37.637  27.639  1.00  0.00    -0.246 OA
BRANCH  35  37
ATOM     37  C   UNL A   1      47.106  35.377  28.190  1.00  0.00     0.060 A 
ATOM     38  C   UNL A   1      46.757  34.766  26.974  1.00  0.00     0.016 A 
ATOM     39  C   UNL A   1      47.299  34.625  29.344  1.00  0.00     0.016 A 
ATOM     40  C   UNL A   1      46.618  33.383  26.904  1.00  0.00     0.010 A 
ATOM     41  C   UNL A   1      47.107  33.251  29.289  1.00  0.00     0.010 A 
ATOM     42  C   UNL A   1      46.741  32.635  28.078  1.00  0.00    -0.014 A 
BRANCH  42  43
ATOM     43  C   UNL A   1      46.195  31.268  28.140  1.00  0.00     0.031 A 
ATOM     44  C   UNL A   1      47.127  30.152  27.779  1.00  0.00     0.074 A 
ATOM     45  C   UNL A   1      44.900  31.044  28.406  1.00  0.00     0.049 A 
ATOM     46  N   UNL A   1      46.868  28.893  27.561  1.00  0.00    -0.248 NA
ATOM     47  C   UNL A   1      48.546  30.519  27.613  1.00  0.00     0.031 C 
ATOM     48  C   UNL A   1      43.930  32.062  28.800  1.00  0.00     0.029 A 
ATOM     49  N   UNL A   1      44.175  29.884  28.338  1.00  0.00    -0.354 N 
ATOM     50  C   UNL A   1      48.082  28.324  27.198  1.00  0.00     0.074 A 
ATOM     51  C   UNL A   1      49.072  29.377  27.206  1.00  0.00     0.031 C 
ATOM     52  C   UNL A   1      42.720  31.484  28.905  1.00  0.00     0.029 A 
ATOM     53  C   UNL A   1      42.829  30.074  28.535  1.00  0.00     0.049 A 
ATOM     54  H   UNL A   1      44.578  29.002  28.166  1.00  0.00     0.167 HD
ATOM     55  C   UNL A   1      48.341  27.039  26.870  1.00  0.00     0.031 A 
ATOM     56  C   UNL A   1      41.803  29.213  28.381  1.00  0.00     0.031 A 
ATOM     57  C   UNL A   1      47.326  26.023  26.813  1.00  0.00     0.049 A 
ATOM     58  C   UNL A   1      42.096  27.799  27.952  1.00  0.00     0.074 A 
ATOM     59  C   UNL A   1      47.468  24.681  26.515  1.00  0.00     0.029 A 
ATOM     60  N   UNL A   1      45.972  26.248  27.031  1.00  0.00    -0.354 N 
ATOM     61  N   UNL A   1      43.251  27.251  27.650  1.00  0.00    -0.248 NA
ATOM     62  C   UNL A   1      40.951  26.883  27.849  1.00  0.00     0.031 C 
ATOM     63  C   UNL A   1      46.190  24.115  26.467  1.00  0.00     0.029 A 
ATOM     64  C   UNL A   1      45.262  25.078  26.836  1.00  0.00     0.049 A 
ATOM     65  H   UNL A   1      45.577  27.114  27.286  1.00  0.00     0.167 HD
ATOM     66  C   UNL A   1      42.978  25.919  27.355  1.00  0.00     0.074 A 
ATOM     67  C   UNL A   1      41.548  25.745  27.515  1.00  0.00     0.031 C 
ATOM     68  C   UNL A   1      43.836  24.928  27.001  1.00  0.00     0.031 A 
BRANCH  55  69
ATOM     69  C   UNL A   1      49.754  26.702  26.470  1.00  0.00    -0.014 A 
ATOM     70  C   UNL A   1      50.731  26.351  27.420  1.00  0.00     0.010 A 
ATOM     71  C   UNL A   1      50.119  26.771  25.112  1.00  0.00     0.010 A 
ATOM     72  C   UNL A   1      52.057  26.148  27.032  1.00  0.00     0.020 A 
ATOM     73  C   UNL A   1      51.434  26.525  24.714  1.00  0.00     0.020 A 
ATOM     74  C   UNL A   1      52.401  26.241  25.680  1.00  0.00     0.054 A 
BRANCH  74  75
ATOM     75  S   UNL A   1      54.132  25.986  25.204  1.00  0.00     0.124 S 
ATOM     76  O   UNL A   1      54.097  24.631  24.657  1.00  0.00    -0.237 OA
ATOM     77  O   UNL A   1      54.354  27.051  24.231  1.00  0.00    -0.237 OA
ATOM     78  O   UNL A   1      54.862  26.129  26.461  1.00  0.00    -0.744 OA
ENDBRANCH  74  75
ENDBRANCH  55  69
BRANCH  56  79
ATOM     79  C   UNL A   1      40.412  29.692  28.608  1.00  0.00    -0.014 A 
ATOM     80  C   UNL A   1      40.085  30.449  29.746  1.00  0.00     0.010 A 
ATOM     81  C   UNL A   1      39.416  29.449  27.641  1.00  0.00     0.010 A 
ATOM     82  C   UNL A   1      38.795  30.967  29.906  1.00  0.00     0.020 A 
ATOM     83  C   UNL A   1      38.135  29.989  27.783  1.00  0.00     0.020 A 
ATOM     84  C   UNL A   1      37.833  30.746  28.913  1.00  0.00     0.054 A 
BRANCH  84  85
ATOM     85  S   UNL A   1      36.202  31.521  29.090  1.00  0.00     0.124 S 
ATOM     86  O   UNL A   1      36.389  32.793  28.399  1.00  0.00    -0.237 OA
ATOM     87  O   UNL A   1      35.327  30.561  28.422  1.00  0.00    -0.237 OA
ATOM     88  O   UNL A   1      36.020  31.616  30.537  1.00  0.00    -0.744 OA
ENDBRANCH  84  85
ENDBRANCH  56  79
BRANCH  68  89
ATOM     89  C   UNL A   1      43.274  23.541  26.815  1.00  0.00    -0.014 A 
ATOM     90  C   UNL A   1      42.975  23.024  25.543  1.00  0.00     0.010 A 
ATOM     91  C   UNL A   1      43.154  22.703  27.940  1.00  0.00     0.010 A 
ATOM     92  C   UNL A   1      42.555  21.698  25.403  1.00  0.00     0.020 A 
ATOM     93  C   UNL A   1      42.770  21.369  27.801  1.00  0.00     0.020 A 
ATOM     94  C   UNL A   1      42.466  20.875  26.532  1.00  0.00     0.054 A 
BRANCH  94  95
ATOM     95  S   UNL A   1      41.998  19.138  26.312  1.00  0.00     0.124 S 
ATOM     96  O   UNL A   1      40.588  19.244  25.949  1.00  0.00    -0.237 OA
ATOM     97  O   UNL A   1      42.891  18.701  25.241  1.00  0.00    -0.237 OA
ATOM     98  O   UNL A   1      42.260  18.538  27.618  1.00  0.00    -0.744 OA
ENDBRANCH  94  95
ENDBRANCH  68  89
ENDBRANCH  42  43
ENDBRANCH  35  37
ENDBRANCH  34  35
ENDBRANCH  33  34
ENDBRANCH  32  33
ENDBRANCH  31  32
ENDBRANCH   1  31
TORSDOF 22
ENDMDL
MODEL 3
REMARK VINA RESULT:      -7.0      8.621     14.299
REMARK SMILES O=C(OCCOCCOCCOC(=O)c1ccc(-c2c3nc(c(-c4ccc(S(=O)(=O)[O-])cc4)c4ccc([nH]4)c(-c4ccc(S(=O)(=O)[O-])cc4)c4nc(c(-c5ccc(S(=O)(=O)[O-])cc5)c5ccc2[nH]5)C=C4)C=C3)cc1)C1=Cc2cc(Cl)cc(-c3ccc(Cl)cc3)c2O[C@@H]1C(F)(F)F
REMARK SMILES IDX 8 1 7 2 6 3 5 4 4 5 3 6 2 7 1 8 75 9 76 10 92 11 77 12 91 13
REMARK SMILES IDX 78 14 90 15 79 16 82 17 80 18 81 19 93 20 94 21 95 22 96 23
REMARK SMILES IDX 83 24 84 25 89 26 85 27 88 28 86 29 87 30 9 31 10 32 11 33
REMARK SMILES IDX 12 34 13 35 14 36 15 37 16 38 74 39 17 40 73 41 18 42 19 43
REMARK SMILES IDX 20 44 67 45 21 46 72 47 66 48 68 49 22 50 71 51 65 52 64 53
REMARK SMILES IDX 23 55 53 56 34 57 52 58 35 59 38 60 51 61 69 62 36 63 37 64
REMARK SMILES IDX 50 66 70 67 39 68 24 69 25 70 33 71 26 72 32 73 27 74 28 75
REMARK SMILES IDX 29 76 30 77 31 78 54 79 55 80 63 81 56 82 62 83 57 84 58 85
REMARK SMILES IDX 59 86 60 87 61 88 40 89 41 90 49 91 42 92 48 93 43 94 44 95
REMARK SMILES IDX 45 96 46 97 47 98
REMARK H PARENT 68 54 38 65
REMARK Flexibility Score: inf
ROOT
ATOM      1  C   UNL A   1      51.503  26.457  38.169  1.00  0.00     0.188 C 
ENDROOT
BRANCH   1   2
ATOM      2  C   UNL A   1      51.777  25.244  39.072  1.00  0.00     0.188 C 
BRANCH   2   3
ATOM      3  O   UNL A   1      50.778  24.124  39.324  1.00  0.00    -0.376 OA
BRANCH   3   4
ATOM      4  C   UNL A   1      51.098  22.381  39.198  1.00  0.00     0.202 C 
BRANCH   4   5
ATOM      5  C   UNL A   1      50.128  20.947  40.515  1.00  0.00     0.261 C 
BRANCH   5   6
ATOM      6  O   UNL A   1      48.627  20.727  40.658  1.00  0.00    -0.460 OA
BRANCH   6   7
ATOM      7  C   UNL A   1      48.275  19.467  40.354  1.00  0.00     0.338 C 
ATOM      8  O   UNL A   1      48.950  18.631  39.805  1.00  0.00    -0.246 OA
BRANCH   7   9
ATOM      9  C   UNL A   1      46.835  19.684  40.363  1.00  0.00     0.087 C 
ATOM     10  C   UNL A   1      46.361  20.970  40.818  1.00  0.00     0.027 C 
ATOM     11  C   UNL A   1      46.635  19.020  38.587  1.00  0.00     0.316 C 
ATOM     12  C   UNL A   1      45.813  22.280  39.737  1.00  0.00     0.019 A 
ATOM     13  O   UNL A   1      46.215  20.486  37.337  1.00  0.00    -0.475 OA
ATOM     14  C   UNL A   1      45.543  23.488  40.326  1.00  0.00     0.032 A 
ATOM     15  C   UNL A   1      45.773  22.138  38.008  1.00  0.00     0.135 A 
ATOM     16  C   UNL A   1      45.190  24.511  39.446  1.00  0.00     0.042 A 
ATOM     17  C   UNL A   1      45.365  23.205  37.219  1.00  0.00     0.026 A 
ATOM     18  Cl  UNL A   1      44.841  26.064  40.128  1.00  0.00    -0.084 Cl
ATOM     19  C   UNL A   1      45.094  24.371  38.012  1.00  0.00     0.033 A 
BRANCH  11  20
ATOM     20  C   UNL A   1      45.682  17.687  39.178  1.00  0.00     0.430 C 
ATOM     21  F   UNL A   1      44.937  17.817  40.290  1.00  0.00    -0.167 F 
ATOM     22  F   UNL A   1      44.863  17.249  38.190  1.00  0.00    -0.167 F 
ATOM     23  F   UNL A   1      46.476  16.614  39.484  1.00  0.00    -0.167 F 
ENDBRANCH  11  20
BRANCH  17  24
ATOM     24  C   UNL A   1      45.100  23.357  35.790  1.00  0.00    -0.015 A 
ATOM     25  C   UNL A   1      44.026  24.118  35.314  1.00  0.00     0.010 A 
ATOM     26  C   UNL A   1      45.768  22.525  34.863  1.00  0.00     0.010 A 
ATOM     27  C   UNL A   1      43.714  24.146  33.947  1.00  0.00     0.021 A 
ATOM     28  C   UNL A   1      45.480  22.573  33.493  1.00  0.00     0.021 A 
ATOM     29  C   UNL A   1      44.469  23.409  33.038  1.00  0.00     0.041 A 
ATOM     30  Cl  UNL A   1      44.163  23.544  31.351  1.00  0.00    -0.084 Cl
ENDBRANCH  17  24
ENDBRANCH   7   9
ENDBRANCH   6   7
ENDBRANCH   5   6
ENDBRANCH   4   5
ENDBRANCH   3   4
ENDBRANCH   2   3
ENDBRANCH   1   2
BRANCH   1  31
ATOM     31  O   UNL A   1      50.375  27.249  38.409  1.00  0.00    -0.376 OA
BRANCH  31  32
ATOM     32  C   UNL A   1      49.231  26.870  37.679  1.00  0.00     0.202 C 
BRANCH  32  33
ATOM     33  C   UNL A   1      49.364  26.010  36.419  1.00  0.00     0.261 C 
BRANCH  33  34
ATOM     34  O   UNL A   1      48.170  25.901  35.639  1.00  0.00    -0.460 OA
BRANCH  34  35
ATOM     35  C   UNL A   1      48.039  26.784  34.621  1.00  0.00     0.338 C 
ATOM     36  O   UNL A   1      48.718  26.869  33.614  1.00  0.00    -0.246 OA
BRANCH  35  37
ATOM     37  C   UNL A   1      46.793  27.530  34.853  1.00  0.00     0.060 A 
ATOM     38  C   UNL A   1      45.787  27.000  35.677  1.00  0.00     0.016 A 
ATOM     39  C   UNL A   1      46.634  28.760  34.221  1.00  0.00     0.016 A 
ATOM     40  C   UNL A   1      44.612  27.714  35.887  1.00  0.00     0.010 A 
ATOM     41  C   UNL A   1      45.440  29.448  34.388  1.00  0.00     0.010 A 
ATOM     42  C   UNL A   1      44.421  28.914  35.197  1.00  0.00    -0.014 A 
BRANCH  42  43
ATOM     43  C   UNL A   1      43.065  29.473  35.053  1.00  0.00     0.031 A 
ATOM     44  C   UNL A   1      42.284  29.048  33.848  1.00  0.00     0.074 A 
ATOM     45  C   UNL A   1      42.597  30.398  35.904  1.00  0.00     0.049 A 
ATOM     46  N   UNL A   1      41.166  29.524  33.373  1.00  0.00    -0.248 NA
ATOM     47  C   UNL A   1      42.865  27.951  33.052  1.00  0.00     0.031 C 
ATOM     48  C   UNL A   1      43.271  30.845  37.120  1.00  0.00     0.029 A 
ATOM     49  N   UNL A   1      41.457  31.154  35.842  1.00  0.00    -0.354 N 
ATOM     50  C   UNL A   1      40.927  28.809  32.207  1.00  0.00     0.074 A 
ATOM     51  C   UNL A   1      42.024  27.884  32.034  1.00  0.00     0.031 C 
ATOM     52  C   UNL A   1      42.544  31.832  37.675  1.00  0.00     0.029 A 
ATOM     53  C   UNL A   1      41.389  32.113  36.824  1.00  0.00     0.049 A 
ATOM     54  H   UNL A   1      40.755  31.023  35.163  1.00  0.00     0.167 HD
ATOM     55  C   UNL A   1      39.891  28.930  31.347  1.00  0.00     0.031 A 
ATOM     56  C   UNL A   1      40.518  33.130  36.980  1.00  0.00     0.031 A 
ATOM     57  C   UNL A   1      38.844  29.900  31.511  1.00  0.00     0.049 A 
ATOM     58  C   UNL A   1      39.403  33.295  35.980  1.00  0.00     0.074 A 
ATOM     59  C   UNL A   1      37.730  30.105  30.720  1.00  0.00     0.029 A 
ATOM     60  N   UNL A   1      38.800  30.848  32.525  1.00  0.00    -0.354 N 
ATOM     61  N   UNL A   1      39.154  32.591  34.899  1.00  0.00    -0.248 NA
ATOM     62  C   UNL A   1      38.447  34.385  36.220  1.00  0.00     0.031 C 
ATOM     63  C   UNL A   1      37.060  31.232  31.205  1.00  0.00     0.029 A 
ATOM     64  C   UNL A   1      37.697  31.667  32.358  1.00  0.00     0.049 A 
ATOM     65  H   UNL A   1      39.456  30.927  33.255  1.00  0.00     0.167 HD
ATOM     66  C   UNL A   1      37.994  33.130  34.349  1.00  0.00     0.074 A 
ATOM     67  C   UNL A   1      37.593  34.218  35.218  1.00  0.00     0.031 C 
ATOM     68  C   UNL A   1      37.317  32.747  33.237  1.00  0.00     0.031 A 
BRANCH  55  69
ATOM     69  C   UNL A   1      39.906  28.050  30.124  1.00  0.00    -0.014 A 
ATOM     70  C   UNL A   1      39.248  26.806  30.097  1.00  0.00     0.010 A 
ATOM     71  C   UNL A   1      40.623  28.465  28.986  1.00  0.00     0.010 A 
ATOM     72  C   UNL A   1      39.367  25.965  28.989  1.00  0.00     0.020 A 
ATOM     73  C   UNL A   1      40.708  27.646  27.859  1.00  0.00     0.020 A 
ATOM     74  C   UNL A   1      40.101  26.390  27.878  1.00  0.00     0.054 A 
BRANCH  74  75
ATOM     75  S   UNL A   1      40.251  25.273  26.457  1.00  0.00     0.124 S 
ATOM     76  O   UNL A   1      38.863  24.868  26.244  1.00  0.00    -0.237 OA
ATOM     77  O   UNL A   1      40.817  26.142  25.429  1.00  0.00    -0.237 OA
ATOM     78  O   UNL A   1      41.139  24.217  26.936  1.00  0.00    -0.744 OA
ENDBRANCH  74  75
ENDBRANCH  55  69
BRANCH  56  79
ATOM     79  C   UNL A   1      40.700  34.075  38.115  1.00  0.00    -0.014 A 
ATOM     80  C   UNL A   1      41.432  35.263  37.957  1.00  0.00     0.010 A 
ATOM     81  C   UNL A   1      40.075  33.819  39.352  1.00  0.00     0.010 A 
ATOM     82  C   UNL A   1      41.523  36.185  39.005  1.00  0.00     0.020 A 
ATOM     83  C   UNL A   1      40.139  34.750  40.392  1.00  0.00     0.020 A 
ATOM     84  C   UNL A   1      40.861  35.929  40.211  1.00  0.00     0.054 A 
BRANCH  84  85
ATOM     85  S   UNL A   1      40.902  37.189  41.516  1.00  0.00     0.124 S 
ATOM     86  O   UNL A   1      39.654  36.935  42.228  1.00  0.00    -0.237 OA
ATOM     87  O   UNL A   1      42.125  36.848  42.240  1.00  0.00    -0.237 OA
ATOM     88  O   UNL A   1      40.956  38.448  40.776  1.00  0.00    -0.744 OA
ENDBRANCH  84  85
ENDBRANCH  56  79
BRANCH  68  89
ATOM     89  C   UNL A   1      36.030  33.464  32.912  1.00  0.00    -0.014 A 
ATOM     90  C   UNL A   1      34.908  33.396  33.755  1.00  0.00     0.010 A 
ATOM     91  C   UNL A   1      35.994  34.314  31.790  1.00  0.00     0.010 A 
ATOM     92  C   UNL A   1      33.769  34.157  33.473  1.00  0.00     0.020 A 
ATOM     93  C   UNL A   1      34.873  35.102  31.525  1.00  0.00     0.020 A 
ATOM     94  C   UNL A   1      33.764  35.014  32.366  1.00  0.00     0.054 A 
BRANCH  94  95
ATOM     95  S   UNL A   1      32.306  36.050  32.072  1.00  0.00     0.124 S 
ATOM     96  O   UNL A   1      32.553  36.550  30.722  1.00  0.00    -0.237 OA
ATOM     97  O   UNL A   1      31.206  35.097  32.198  1.00  0.00    -0.237 OA
ATOM     98  O   UNL A   1      32.375  37.057  33.129  1.00  0.00    -0.744 OA
ENDBRANCH  94  95
ENDBRANCH  68  89
ENDBRANCH  42  43
ENDBRANCH  35  37
ENDBRANCH  34  35
ENDBRANCH  33  34
ENDBRANCH  32  33
ENDBRANCH  31  32
ENDBRANCH   1  31
TORSDOF 22
ENDMDL
