MODEL 1
REMARK VINA RESULT:      -7.5      0.000      0.000
REMARK SMILES C=CC[N@@H+](CC(=O)Nc1cc(C)on1)CC(=O)OCCOCCOCCOC(=O)c1ccc(-c2c3nc(c(-c4ccc(S(=O)(=O)[O-])cc4)c4ccc([nH]4)c(-c4ccc(S(=O)(=O)[O-])cc4)c4nc(c(-c5ccc(S(=O)(=O)[O-])cc5)c5ccc2[nH]5)C=C4)C=C3)cc1
REMARK SMILES IDX 22 1 21 2 20 3 19 4 18 5 16 6 17 7 15 8 4 9 3 11 2 12 1 13
REMARK SMILES IDX 5 14 6 15 7 16 8 17 9 19 10 20 14 21 11 22 13 23 12 24 23 25
REMARK SMILES IDX 24 26 25 27 26 28 27 29 28 30 29 31 30 32 31 33 89 34 32 35
REMARK SMILES IDX 88 36 33 37 34 38 35 39 82 40 36 41 87 42 81 43 83 44 37 45
REMARK SMILES IDX 86 46 80 47 79 48 38 50 68 51 49 52 67 53 50 54 53 55 66 56
REMARK SMILES IDX 84 57 51 58 52 59 65 61 85 62 54 63 39 64 40 65 48 66 41 67
REMARK SMILES IDX 47 68 42 69 43 70 44 71 45 72 46 73 69 74 70 75 78 76 71 77
REMARK SMILES IDX 77 78 72 79 73 80 74 81 75 82 76 83 55 84 56 85 64 86 57 87
REMARK SMILES IDX 63 88 58 89 59 90 60 91 61 92 62 93
REMARK H PARENT 4 10 8 18 83 49 53 60
REMARK Flexibility Score: inf
ROOT
ATOM      1  C   UNL A   1      37.458  34.203  33.399  1.00  0.00     0.188 C 
ENDROOT
BRANCH   1   2
ATOM      2  O   UNL A   1      37.373  34.601  34.764  1.00  0.00    -0.376 OA
BRANCH   2   3
ATOM      3  C   UNL A   1      37.605  33.639  35.782  1.00  0.00     0.202 C 
BRANCH   3   4
ATOM      4  C   UNL A   1      38.543  34.068  36.907  1.00  0.00     0.261 C 
BRANCH   4   5
ATOM      5  O   UNL A   1      38.006  33.894  38.227  1.00  0.00    -0.459 OA
BRANCH   5   6
ATOM      6  C   UNL A   1      38.903  33.693  39.225  1.00  0.00     0.361 C 
ATOM      7  O   UNL A   1      40.062  34.085  39.203  1.00  0.00    -0.245 OA
BRANCH   6   8
ATOM      8  C   UNL A   1      38.357  32.768  40.303  1.00  0.00     0.387 C 
BRANCH   8   9
ATOM      9  N   UNL A   1      37.310  33.283  41.183  1.00  0.00    -0.315 N 
ATOM     10  H   UNL A   1      37.712  32.759  41.959  1.00  0.00     0.349 HD
BRANCH   9  11
ATOM     11  C   UNL A   1      37.403  34.632  41.662  1.00  0.00     0.291 C 
BRANCH  11  12
ATOM     12  C   UNL A   1      38.298  34.876  42.832  1.00  0.00     0.025 C 
ATOM     13  C   UNL A   1      38.576  33.938  43.748  1.00  0.00     0.010 C 
ENDBRANCH  11  12
ENDBRANCH   9  11
BRANCH   9  14
ATOM     14  C   UNL A   1      35.989  32.656  41.231  1.00  0.00     0.364 C 
BRANCH  14  15
ATOM     15  C   UNL A   1      35.090  32.713  39.994  1.00  0.00     0.280 C 
ATOM     16  O   UNL A   1      35.478  32.211  38.930  1.00  0.00    -0.268 OA
ATOM     17  N   UNL A   1      33.770  33.055  40.058  1.00  0.00    -0.303 N 
ATOM     18  H   UNL A   1      33.241  32.624  39.350  1.00  0.00     0.171 HD
BRANCH  17  19
ATOM     19  C   UNL A   1      32.996  33.854  40.870  1.00  0.00     0.176 A 
ATOM     20  C   UNL A   1      32.454  35.136  40.662  1.00  0.00     0.095 A 
ATOM     21  N   UNL A   1      32.480  33.325  41.988  1.00  0.00    -0.062 NA
ATOM     22  C   UNL A   1      31.642  35.380  41.742  1.00  0.00     0.135 A 
ATOM     23  O   UNL A   1      31.672  34.295  42.554  1.00  0.00    -0.360 OA
ATOM     24  C   UNL A   1      30.747  36.493  42.116  1.00  0.00     0.091 C 
ENDBRANCH  17  19
ENDBRANCH  14  15
ENDBRANCH   9  14
ENDBRANCH   8   9
ENDBRANCH   6   8
ENDBRANCH   5   6
ENDBRANCH   4   5
ENDBRANCH   3   4
ENDBRANCH   2   3
ENDBRANCH   1   2
BRANCH   1  25
ATOM     25  C   UNL A   1      36.247  34.423  32.485  1.00  0.00     0.188 C 
BRANCH  25  26
ATOM     26  O   UNL A   1      36.487  34.037  31.137  1.00  0.00    -0.376 OA
BRANCH  26  27
ATOM     27  C   UNL A   1      35.387  33.419  30.478  1.00  0.00     0.202 C 
BRANCH  27  28
ATOM     28  C   UNL A   1      35.207  31.990  30.985  1.00  0.00     0.261 C 
BRANCH  28  29
ATOM     29  O   UNL A   1      36.257  31.117  30.539  1.00  0.00    -0.460 OA
BRANCH  29  30
ATOM     30  C   UNL A   1      37.149  30.764  31.490  1.00  0.00     0.338 C 
ATOM     31  O   UNL A   1      36.985  30.736  32.694  1.00  0.00    -0.246 OA
BRANCH  30  32
ATOM     32  C   UNL A   1      38.369  30.314  30.815  1.00  0.00     0.060 A 
ATOM     33  C   UNL A   1      39.481  29.951  31.579  1.00  0.00     0.016 A 
ATOM     34  C   UNL A   1      38.414  30.308  29.423  1.00  0.00     0.016 A 
ATOM     35  C   UNL A   1      40.667  29.597  30.940  1.00  0.00     0.010 A 
ATOM     36  C   UNL A   1      39.598  29.938  28.787  1.00  0.00     0.010 A 
ATOM     37  C   UNL A   1      40.737  29.599  29.541  1.00  0.00    -0.014 A 
BRANCH  37  38
ATOM     38  C   UNL A   1      42.020  29.354  28.845  1.00  0.00     0.031 A 
ATOM     39  C   UNL A   1      42.296  27.979  28.307  1.00  0.00     0.074 A 
ATOM     40  C   UNL A   1      42.931  30.334  28.709  1.00  0.00     0.049 A 
ATOM     41  N   UNL A   1      43.419  27.469  27.877  1.00  0.00    -0.248 NA
ATOM     42  C   UNL A   1      41.151  27.054  28.255  1.00  0.00     0.031 C 
ATOM     43  C   UNL A   1      42.747  31.729  29.111  1.00  0.00     0.029 A 
ATOM     44  N   UNL A   1      44.204  30.297  28.199  1.00  0.00    -0.354 N 
ATOM     45  C   UNL A   1      43.132  26.147  27.559  1.00  0.00     0.074 A 
ATOM     46  C   UNL A   1      41.726  25.938  27.831  1.00  0.00     0.031 C 
ATOM     47  C   UNL A   1      43.867  32.416  28.828  1.00  0.00     0.029 A 
ATOM     48  C   UNL A   1      44.869  31.496  28.297  1.00  0.00     0.049 A 
ATOM     49  H   UNL A   1      44.603  29.490  27.801  1.00  0.00     0.167 HD
ATOM     50  C   UNL A   1      43.973  25.191  27.100  1.00  0.00     0.031 A 
ATOM     51  C   UNL A   1      46.155  31.803  28.036  1.00  0.00     0.031 A 
ATOM     52  C   UNL A   1      45.366  25.417  26.823  1.00  0.00     0.049 A 
ATOM     53  C   UNL A   1      47.087  30.711  27.581  1.00  0.00     0.074 A 
ATOM     54  C   UNL A   1      46.313  24.515  26.373  1.00  0.00     0.029 A 
ATOM     55  N   UNL A   1      46.007  26.639  26.958  1.00  0.00    -0.354 N 
ATOM     56  N   UNL A   1      46.825  29.446  27.352  1.00  0.00    -0.248 NA
ATOM     57  C   UNL A   1      48.493  31.085  27.371  1.00  0.00     0.031 C 
ATOM     58  C   UNL A   1      47.539  25.186  26.273  1.00  0.00     0.029 A 
ATOM     59  C   UNL A   1      47.340  26.515  26.612  1.00  0.00     0.049 A 
ATOM     60  H   UNL A   1      45.576  27.472  27.258  1.00  0.00     0.167 HD
ATOM     61  C   UNL A   1      48.030  28.876  26.956  1.00  0.00     0.074 A 
ATOM     62  C   UNL A   1      49.017  29.938  26.961  1.00  0.00     0.031 C 
ATOM     63  C   UNL A   1      48.300  27.590  26.623  1.00  0.00     0.031 A 
BRANCH  50  64
ATOM     64  C   UNL A   1      43.419  23.802  26.940  1.00  0.00    -0.014 A 
ATOM     65  C   UNL A   1      43.250  22.945  28.040  1.00  0.00     0.010 A 
ATOM     66  C   UNL A   1      43.052  23.353  25.657  1.00  0.00     0.010 A 
ATOM     67  C   UNL A   1      42.762  21.647  27.855  1.00  0.00     0.020 A 
ATOM     68  C   UNL A   1      42.543  22.066  25.471  1.00  0.00     0.020 A 
ATOM     69  C   UNL A   1      42.419  21.214  26.570  1.00  0.00     0.054 A 
BRANCH  69  70
ATOM     70  S   UNL A   1      41.787  19.528  26.355  1.00  0.00     0.124 S 
ATOM     71  O   UNL A   1      40.356  19.765  26.176  1.00  0.00    -0.237 OA
ATOM     72  O   UNL A   1      42.501  19.064  25.167  1.00  0.00    -0.237 OA
ATOM     73  O   UNL A   1      42.156  18.858  27.600  1.00  0.00    -0.744 OA
ENDBRANCH  69  70
ENDBRANCH  50  64
BRANCH  51  74
ATOM     74  C   UNL A   1      46.652  33.189  28.255  1.00  0.00    -0.014 A 
ATOM     75  C   UNL A   1      46.891  34.043  27.165  1.00  0.00     0.010 A 
ATOM     76  C   UNL A   1      46.886  33.666  29.559  1.00  0.00     0.010 A 
ATOM     77  C   UNL A   1      47.367  35.341  27.371  1.00  0.00     0.020 A 
ATOM     78  C   UNL A   1      47.334  34.973  29.772  1.00  0.00     0.020 A 
ATOM     79  C   UNL A   1      47.583  35.799  28.675  1.00  0.00     0.054 A 
BRANCH  79  80
ATOM     80  S   UNL A   1      48.147  37.506  28.926  1.00  0.00     0.124 S 
ATOM     81  O   UNL A   1      49.013  37.368  30.093  1.00  0.00    -0.237 OA
ATOM     82  O   UNL A   1      48.826  37.804  27.667  1.00  0.00    -0.237 OA
ATOM     83  O   UNL A   1      46.908  38.245  29.147  1.00  0.00    -0.744 OA
ENDBRANCH  79  80
ENDBRANCH  51  74
BRANCH  63  84
ATOM     84  C   UNL A   1      49.707  27.267  26.202  1.00  0.00    -0.014 A 
ATOM     85  C   UNL A   1      50.110  27.388  24.860  1.00  0.00     0.010 A 
ATOM     86  C   UNL A   1      50.652  26.894  27.174  1.00  0.00     0.010 A 
ATOM     87  C   UNL A   1      51.430  27.114  24.495  1.00  0.00     0.020 A 
ATOM     88  C   UNL A   1      51.978  26.642  26.816  1.00  0.00     0.020 A 
ATOM     89  C   UNL A   1      52.355  26.741  25.475  1.00  0.00     0.054 A 
BRANCH  89  90
ATOM     90  S   UNL A   1      54.075  26.435  24.986  1.00  0.00     0.124 S 
ATOM     91  O   UNL A   1      54.061  25.003  24.707  1.00  0.00    -0.237 OA
ATOM     92  O   UNL A   1      54.238  27.302  23.821  1.00  0.00    -0.237 OA
ATOM     93  O   UNL A   1      54.845  26.834  26.163  1.00  0.00    -0.744 OA
ENDBRANCH  89  90
ENDBRANCH  63  84
ENDBRANCH  37  38
ENDBRANCH  30  32
ENDBRANCH  29  30
ENDBRANCH  28  29
ENDBRANCH  27  28
ENDBRANCH  26  27
ENDBRANCH  25  26
ENDBRANCH   1  25
TORSDOF 26
ENDMDL
MODEL 2
REMARK VINA RESULT:      -7.4      3.146      4.667
REMARK SMILES C=CC[N@@H+](CC(=O)Nc1cc(C)on1)CC(=O)OCCOCCOCCOC(=O)c1ccc(-c2c3nc(c(-c4ccc(S(=O)(=O)[O-])cc4)c4ccc([nH]4)c(-c4ccc(S(=O)(=O)[O-])cc4)c4nc(c(-c5ccc(S(=O)(=O)[O-])cc5)c5ccc2[nH]5)C=C4)C=C3)cc1
REMARK SMILES IDX 22 1 21 2 20 3 19 4 18 5 16 6 17 7 15 8 4 9 3 11 2 12 1 13
REMARK SMILES IDX 5 14 6 15 7 16 8 17 9 19 10 20 14 21 11 22 13 23 12 24 23 25
REMARK SMILES IDX 24 26 25 27 26 28 27 29 28 30 29 31 30 32 31 33 89 34 32 35
REMARK SMILES IDX 88 36 33 37 34 38 35 39 82 40 36 41 87 42 81 43 83 44 37 45
REMARK SMILES IDX 86 46 80 47 79 48 38 50 68 51 49 52 67 53 50 54 53 55 66 56
REMARK SMILES IDX 84 57 51 58 52 59 65 61 85 62 54 63 39 64 40 65 48 66 41 67
REMARK SMILES IDX 47 68 42 69 43 70 44 71 45 72 46 73 69 74 70 75 78 76 71 77
REMARK SMILES IDX 77 78 72 79 73 80 74 81 75 82 76 83 55 84 56 85 64 86 57 87
REMARK SMILES IDX 63 88 58 89 59 90 60 91 61 92 62 93
REMARK H PARENT 4 10 8 18 83 49 53 60
REMARK Flexibility Score: inf
ROOT
ATOM      1  C   UNL A   1      36.647  33.203  34.835  1.00  0.00     0.188 C 
ENDROOT
BRANCH   1   2
ATOM      2  O   UNL A   1      36.885  32.768  36.170  1.00  0.00    -0.376 OA
BRANCH   2   3
ATOM      3  C   UNL A   1      38.191  32.882  36.714  1.00  0.00     0.202 C 
BRANCH   3   4
ATOM      4  C   UNL A   1      38.696  34.303  36.949  1.00  0.00     0.261 C 
BRANCH   4   5
ATOM      5  O   UNL A   1      39.835  34.668  36.153  1.00  0.00    -0.459 OA
BRANCH   5   6
ATOM      6  C   UNL A   1      40.678  35.587  36.686  1.00  0.00     0.361 C 
ATOM      7  O   UNL A   1      40.359  36.733  36.977  1.00  0.00    -0.245 OA
BRANCH   6   8
ATOM      8  C   UNL A   1      42.116  35.090  36.713  1.00  0.00     0.387 C 
BRANCH   8   9
ATOM      9  N   UNL A   1      42.920  35.252  35.504  1.00  0.00    -0.315 N 
ATOM     10  H   UNL A   1      42.521  36.181  35.370  1.00  0.00     0.349 HD
BRANCH   9  11
ATOM     11  C   UNL A   1      44.317  35.550  35.629  1.00  0.00     0.291 C 
BRANCH  11  12
ATOM     12  C   UNL A   1      45.236  34.936  34.626  1.00  0.00     0.025 C 
ATOM     13  C   UNL A   1      46.520  34.655  34.886  1.00  0.00     0.010 C 
ENDBRANCH  11  12
ENDBRANCH   9  11
BRANCH   9  14
ATOM     14  C   UNL A   1      42.477  34.700  34.224  1.00  0.00     0.364 C 
BRANCH  14  15
ATOM     15  C   UNL A   1      41.834  33.311  34.193  1.00  0.00     0.280 C 
ATOM     16  O   UNL A   1      42.267  32.417  34.933  1.00  0.00    -0.268 OA
ATOM     17  N   UNL A   1      40.637  33.067  33.584  1.00  0.00    -0.303 N 
ATOM     18  H   UNL A   1      40.148  32.328  34.010  1.00  0.00     0.171 HD
BRANCH  17  19
ATOM     19  C   UNL A   1      39.944  33.602  32.520  1.00  0.00     0.176 A 
ATOM     20  C   UNL A   1      39.788  33.150  31.197  1.00  0.00     0.095 A 
ATOM     21  N   UNL A   1      39.107  34.623  32.748  1.00  0.00    -0.062 NA
ATOM     22  C   UNL A   1      38.869  33.991  30.619  1.00  0.00     0.135 A 
ATOM     23  O   UNL A   1      38.472  34.895  31.549  1.00  0.00    -0.360 OA
ATOM     24  C   UNL A   1      38.224  34.043  29.292  1.00  0.00     0.091 C 
ENDBRANCH  17  19
ENDBRANCH  14  15
ENDBRANCH   9  14
ENDBRANCH   8   9
ENDBRANCH   6   8
ENDBRANCH   5   6
ENDBRANCH   4   5
ENDBRANCH   3   4
ENDBRANCH   2   3
ENDBRANCH   1   2
BRANCH   1  25
ATOM     25  C   UNL A   1      35.264  33.753  34.469  1.00  0.00     0.188 C 
BRANCH  25  26
ATOM     26  O   UNL A   1      34.719  33.161  33.296  1.00  0.00    -0.376 OA
BRANCH  26  27
ATOM     27  C   UNL A   1      35.512  33.299  32.123  1.00  0.00     0.202 C 
BRANCH  27  28
ATOM     28  C   UNL A   1      35.015  32.345  31.039  1.00  0.00     0.261 C 
BRANCH  28  29
ATOM     29  O   UNL A   1      36.081  31.571  30.463  1.00  0.00    -0.460 OA
BRANCH  29  30
ATOM     30  C   UNL A   1      36.539  30.565  31.240  1.00  0.00     0.338 C 
ATOM     31  O   UNL A   1      35.974  30.022  32.169  1.00  0.00    -0.246 OA
BRANCH  30  32
ATOM     32  C   UNL A   1      37.841  30.149  30.712  1.00  0.00     0.060 A 
ATOM     33  C   UNL A   1      38.812  29.660  31.590  1.00  0.00     0.016 A 
ATOM     34  C   UNL A   1      38.103  30.298  29.352  1.00  0.00     0.016 A 
ATOM     35  C   UNL A   1      40.077  29.337  31.103  1.00  0.00     0.010 A 
ATOM     36  C   UNL A   1      39.364  29.958  28.867  1.00  0.00     0.010 A 
ATOM     37  C   UNL A   1      40.364  29.494  29.742  1.00  0.00    -0.014 A 
BRANCH  37  38
ATOM     38  C   UNL A   1      41.736  29.281  29.227  1.00  0.00     0.031 A 
ATOM     39  C   UNL A   1      42.090  27.938  28.655  1.00  0.00     0.074 A 
ATOM     40  C   UNL A   1      42.656  30.261  29.283  1.00  0.00     0.049 A 
ATOM     41  N   UNL A   1      43.265  27.446  28.364  1.00  0.00    -0.248 NA
ATOM     42  C   UNL A   1      40.966  27.025  28.382  1.00  0.00     0.031 C 
ATOM     43  C   UNL A   1      42.412  31.632  29.735  1.00  0.00     0.029 A 
ATOM     44  N   UNL A   1      43.989  30.245  28.963  1.00  0.00    -0.354 N 
ATOM     45  C   UNL A   1      43.029  26.147  27.930  1.00  0.00     0.074 A 
ATOM     46  C   UNL A   1      41.599  25.932  27.982  1.00  0.00     0.031 C 
ATOM     47  C   UNL A   1      43.561  32.326  29.659  1.00  0.00     0.029 A 
ATOM     48  C   UNL A   1      44.631  31.432  29.227  1.00  0.00     0.049 A 
ATOM     49  H   UNL A   1      44.443  29.459  28.580  1.00  0.00     0.167 HD
ATOM     50  C   UNL A   1      43.930  25.213  27.544  1.00  0.00     0.031 A 
ATOM     51  C   UNL A   1      45.941  31.744  29.175  1.00  0.00     0.031 A 
ATOM     52  C   UNL A   1      45.347  25.445  27.486  1.00  0.00     0.049 A 
ATOM     53  C   UNL A   1      46.931  30.675  28.797  1.00  0.00     0.074 A 
ATOM     54  C   UNL A   1      46.352  24.565  27.127  1.00  0.00     0.029 A 
ATOM     55  N   UNL A   1      45.960  26.654  27.785  1.00  0.00    -0.354 N 
ATOM     56  N   UNL A   1      46.707  29.427  28.458  1.00  0.00    -0.248 NA
ATOM     57  C   UNL A   1      48.352  31.050  28.816  1.00  0.00     0.031 C 
ATOM     58  C   UNL A   1      47.578  25.232  27.245  1.00  0.00     0.029 A 
ATOM     59  C   UNL A   1      47.330  26.540  27.630  1.00  0.00     0.049 A 
ATOM     60  H   UNL A   1      45.488  27.471  28.067  1.00  0.00     0.167 HD
ATOM     61  C   UNL A   1      47.958  28.873  28.209  1.00  0.00     0.074 A 
ATOM     62  C   UNL A   1      48.931  29.925  28.420  1.00  0.00     0.031 C 
ATOM     63  C   UNL A   1      48.276  27.606  27.844  1.00  0.00     0.031 A 
BRANCH  50  64
ATOM     64  C   UNL A   1      43.407  23.840  27.222  1.00  0.00    -0.014 A 
ATOM     65  C   UNL A   1      43.048  23.477  25.913  1.00  0.00     0.010 A 
ATOM     66  C   UNL A   1      43.283  22.893  28.256  1.00  0.00     0.010 A 
ATOM     67  C   UNL A   1      42.533  22.203  25.652  1.00  0.00     0.020 A 
ATOM     68  C   UNL A   1      42.793  21.613  27.994  1.00  0.00     0.020 A 
ATOM     69  C   UNL A   1      42.402  21.281  26.696  1.00  0.00     0.054 A 
BRANCH  69  70
ATOM     70  S   UNL A   1      41.736  19.635  26.330  1.00  0.00     0.124 S 
ATOM     71  O   UNL A   1      42.458  19.283  25.110  1.00  0.00    -0.237 OA
ATOM     72  O   UNL A   1      42.100  18.868  27.519  1.00  0.00    -0.237 OA
ATOM     73  O   UNL A   1      40.304  19.871  26.160  1.00  0.00    -0.744 OA
ENDBRANCH  69  70
ENDBRANCH  50  64
BRANCH  51  74
ATOM     74  C   UNL A   1      46.398  33.112  29.545  1.00  0.00    -0.014 A 
ATOM     75  C   UNL A   1      46.545  34.106  28.562  1.00  0.00     0.010 A 
ATOM     76  C   UNL A   1      46.687  33.430  30.885  1.00  0.00     0.010 A 
ATOM     77  C   UNL A   1      46.984  35.387  28.910  1.00  0.00     0.020 A 
ATOM     78  C   UNL A   1      47.097  34.717  31.242  1.00  0.00     0.020 A 
ATOM     79  C   UNL A   1      47.255  35.686  30.249  1.00  0.00     0.054 A 
BRANCH  79  80
ATOM     80  S   UNL A   1      47.770  37.369  30.689  1.00  0.00     0.124 S 
ATOM     81  O   UNL A   1      48.819  37.117  31.672  1.00  0.00    -0.237 OA
ATOM     82  O   UNL A   1      48.221  37.908  29.408  1.00  0.00    -0.237 OA
ATOM     83  O   UNL A   1      46.548  37.972  31.215  1.00  0.00    -0.744 OA
ENDBRANCH  79  80
ENDBRANCH  51  74
BRANCH  63  84
ATOM     84  C   UNL A   1      49.729  27.299  27.614  1.00  0.00    -0.014 A 
ATOM     85  C   UNL A   1      50.332  27.528  26.365  1.00  0.00     0.010 A 
ATOM     86  C   UNL A   1      50.515  26.829  28.681  1.00  0.00     0.010 A 
ATOM     87  C   UNL A   1      51.692  27.266  26.181  1.00  0.00     0.020 A 
ATOM     88  C   UNL A   1      51.879  26.587  28.508  1.00  0.00     0.020 A 
ATOM     89  C   UNL A   1      52.456  26.796  27.253  1.00  0.00     0.054 A 
BRANCH  89  90
ATOM     90  S   UNL A   1      54.230  26.506  27.005  1.00  0.00     0.124 S 
ATOM     91  O   UNL A   1      54.734  26.520  28.375  1.00  0.00    -0.237 OA
ATOM     92  O   UNL A   1      54.253  25.205  26.340  1.00  0.00    -0.237 OA
ATOM     93  O   UNL A   1      54.651  27.631  26.173  1.00  0.00    -0.744 OA
ENDBRANCH  89  90
ENDBRANCH  63  84
ENDBRANCH  37  38
ENDBRANCH  30  32
ENDBRANCH  29  30
ENDBRANCH  28  29
ENDBRANCH  27  28
ENDBRANCH  26  27
ENDBRANCH  25  26
ENDBRANCH   1  25
TORSDOF 26
ENDMDL
MODEL 3
REMARK VINA RESULT:      -7.2      5.877     17.754
REMARK SMILES C=CC[N@@H+](CC(=O)Nc1cc(C)on1)CC(=O)OCCOCCOCCOC(=O)c1ccc(-c2c3nc(c(-c4ccc(S(=O)(=O)[O-])cc4)c4ccc([nH]4)c(-c4ccc(S(=O)(=O)[O-])cc4)c4nc(c(-c5ccc(S(=O)(=O)[O-])cc5)c5ccc2[nH]5)C=C4)C=C3)cc1
REMARK SMILES IDX 22 1 21 2 20 3 19 4 18 5 16 6 17 7 15 8 4 9 3 11 2 12 1 13
REMARK SMILES IDX 5 14 6 15 7 16 8 17 9 19 10 20 14 21 11 22 13 23 12 24 23 25
REMARK SMILES IDX 24 26 25 27 26 28 27 29 28 30 29 31 30 32 31 33 89 34 32 35
REMARK SMILES IDX 88 36 33 37 34 38 35 39 82 40 36 41 87 42 81 43 83 44 37 45
REMARK SMILES IDX 86 46 80 47 79 48 38 50 68 51 49 52 67 53 50 54 53 55 66 56
REMARK SMILES IDX 84 57 51 58 52 59 65 61 85 62 54 63 39 64 40 65 48 66 41 67
REMARK SMILES IDX 47 68 42 69 43 70 44 71 45 72 46 73 69 74 70 75 78 76 71 77
REMARK SMILES IDX 77 78 72 79 73 80 74 81 75 82 76 83 55 84 56 85 64 86 57 87
REMARK SMILES IDX 63 88 58 89 59 90 60 91 61 92 62 93
REMARK H PARENT 4 10 8 18 83 49 53 60
REMARK Flexibility Score: inf
ROOT
ATOM      1  C   UNL A   1      46.871  27.616  25.670  1.00  0.00     0.188 C 
ENDROOT
BRANCH   1   2
ATOM      2  O   UNL A   1      47.865  28.094  24.768  1.00  0.00    -0.376 OA
BRANCH   2   3
ATOM      3  C   UNL A   1      47.741  27.806  23.384  1.00  0.00     0.202 C 
BRANCH   3   4
ATOM      4  C   UNL A   1      49.030  27.422  22.662  1.00  0.00     0.261 C 
BRANCH   4   5
ATOM      5  O   UNL A   1      49.702  28.518  22.022  1.00  0.00    -0.459 OA
BRANCH   5   6
ATOM      6  C   UNL A   1      51.045  28.403  21.873  1.00  0.00     0.361 C 
ATOM      7  O   UNL A   1      51.866  28.716  22.726  1.00  0.00    -0.245 OA
BRANCH   6   8
ATOM      8  C   UNL A   1      51.428  28.008  20.454  1.00  0.00     0.387 C 
BRANCH   8   9
ATOM      9  N   UNL A   1      52.807  28.238  20.028  1.00  0.00    -0.315 N 
ATOM     10  H   UNL A   1      52.560  27.933  19.086  1.00  0.00     0.349 HD
BRANCH   9  11
ATOM     11  C   UNL A   1      53.249  29.582  19.792  1.00  0.00     0.291 C 
BRANCH  11  12
ATOM     12  C   UNL A   1      52.232  30.553  19.291  1.00  0.00     0.025 C 
ATOM     13  C   UNL A   1      52.524  31.538  18.431  1.00  0.00     0.010 C 
ENDBRANCH  11  12
ENDBRANCH   9  11
BRANCH   9  14
ATOM     14  C   UNL A   1      53.845  27.234  20.256  1.00  0.00     0.364 C 
BRANCH  14  15
ATOM     15  C   UNL A   1      54.779  26.851  19.105  1.00  0.00     0.280 C 
ATOM     16  O   UNL A   1      55.968  27.199  19.137  1.00  0.00    -0.268 OA
ATOM     17  N   UNL A   1      54.444  25.921  18.164  1.00  0.00    -0.303 N 
ATOM     18  H   UNL A   1      55.233  25.456  17.804  1.00  0.00     0.171 HD
BRANCH  17  19
ATOM     19  C   UNL A   1      53.274  25.473  17.592  1.00  0.00     0.176 A 
ATOM     20  C   UNL A   1      52.879  24.189  17.176  1.00  0.00     0.095 A 
ATOM     21  N   UNL A   1      52.220  26.300  17.557  1.00  0.00    -0.062 NA
ATOM     22  C   UNL A   1      51.556  24.297  16.824  1.00  0.00     0.135 A 
ATOM     23  O   UNL A   1      51.161  25.577  17.035  1.00  0.00    -0.360 OA
ATOM     24  C   UNL A   1      50.538  23.332  16.365  1.00  0.00     0.091 C 
ENDBRANCH  17  19
ENDBRANCH  14  15
ENDBRANCH   9  14
ENDBRANCH   8   9
ENDBRANCH   6   8
ENDBRANCH   5   6
ENDBRANCH   4   5
ENDBRANCH   3   4
ENDBRANCH   2   3
ENDBRANCH   1   2
BRANCH   1  25
ATOM     25  C   UNL A   1      45.986  26.440  25.243  1.00  0.00     0.188 C 
BRANCH  25  26
ATOM     26  O   UNL A   1      46.291  25.233  25.932  1.00  0.00    -0.376 OA
BRANCH  26  27
ATOM     27  C   UNL A   1      45.285  24.229  25.869  1.00  0.00     0.202 C 
BRANCH  27  28
ATOM     28  C   UNL A   1      44.016  24.795  25.235  1.00  0.00     0.261 C 
BRANCH  28  29
ATOM     29  O   UNL A   1      42.935  24.896  26.178  1.00  0.00    -0.460 OA
BRANCH  29  30
ATOM     30  C   UNL A   1      42.146  25.982  26.025  1.00  0.00     0.338 C 
ATOM     31  O   UNL A   1      41.609  26.378  25.010  1.00  0.00    -0.246 OA
BRANCH  30  32
ATOM     32  C   UNL A   1      41.954  26.585  27.347  1.00  0.00     0.060 A 
ATOM     33  C   UNL A   1      41.021  26.027  28.226  1.00  0.00     0.016 A 
ATOM     34  C   UNL A   1      42.666  27.734  27.681  1.00  0.00     0.016 A 
ATOM     35  C   UNL A   1      40.780  26.643  29.452  1.00  0.00     0.010 A 
ATOM     36  C   UNL A   1      42.433  28.338  28.914  1.00  0.00     0.010 A 
ATOM     37  C   UNL A   1      41.475  27.808  29.799  1.00  0.00    -0.014 A 
BRANCH  37  38
ATOM     38  C   UNL A   1      41.142  28.550  31.036  1.00  0.00     0.031 A 
ATOM     39  C   UNL A   1      39.985  29.508  31.012  1.00  0.00     0.074 A 
ATOM     40  C   UNL A   1      41.867  28.386  32.157  1.00  0.00     0.049 A 
ATOM     41  N   UNL A   1      39.652  30.425  31.881  1.00  0.00    -0.248 NA
ATOM     42  C   UNL A   1      39.089  29.423  29.846  1.00  0.00     0.031 C 
ATOM     43  C   UNL A   1      42.958  27.425  32.333  1.00  0.00     0.029 A 
ATOM     44  N   UNL A   1      41.797  29.037  33.362  1.00  0.00    -0.354 N 
ATOM     45  C   UNL A   1      38.545  31.067  31.341  1.00  0.00     0.074 A 
ATOM     46  C   UNL A   1      38.253  30.425  30.077  1.00  0.00     0.031 C 
ATOM     47  C   UNL A   1      43.451  27.549  33.577  1.00  0.00     0.029 A 
ATOM     48  C   UNL A   1      42.765  28.644  34.256  1.00  0.00     0.049 A 
ATOM     49  H   UNL A   1      41.118  29.721  33.568  1.00  0.00     0.167 HD
ATOM     50  C   UNL A   1      37.848  32.111  31.847  1.00  0.00     0.031 A 
ATOM     51  C   UNL A   1      43.092  29.146  35.463  1.00  0.00     0.031 A 
ATOM     52  C   UNL A   1      38.142  32.731  33.111  1.00  0.00     0.049 A 
ATOM     53  C   UNL A   1      42.341  30.343  35.982  1.00  0.00     0.074 A 
ATOM     54  C   UNL A   1      37.513  33.807  33.712  1.00  0.00     0.029 A 
ATOM     55  N   UNL A   1      39.146  32.319  33.975  1.00  0.00    -0.354 N 
ATOM     56  N   UNL A   1      41.341  30.991  35.433  1.00  0.00    -0.248 NA
ATOM     57  C   UNL A   1      42.778  30.890  37.274  1.00  0.00     0.031 C 
ATOM     58  C   UNL A   1      38.163  34.069  34.924  1.00  0.00     0.029 A 
ATOM     59  C   UNL A   1      39.163  33.125  35.099  1.00  0.00     0.049 A 
ATOM     60  H   UNL A   1      39.757  31.564  33.811  1.00  0.00     0.167 HD
ATOM     61  C   UNL A   1      41.019  32.013  36.319  1.00  0.00     0.074 A 
ATOM     62  C   UNL A   1      41.920  31.886  37.448  1.00  0.00     0.031 C 
ATOM     63  C   UNL A   1      40.069  32.974  36.210  1.00  0.00     0.031 A 
BRANCH  50  64
ATOM     64  C   UNL A   1      36.748  32.686  30.997  1.00  0.00    -0.014 A 
ATOM     65  C   UNL A   1      35.400  32.358  31.217  1.00  0.00     0.010 A 
ATOM     66  C   UNL A   1      37.077  33.582  29.963  1.00  0.00     0.010 A 
ATOM     67  C   UNL A   1      34.403  32.883  30.389  1.00  0.00     0.020 A 
ATOM     68  C   UNL A   1      36.082  34.126  29.149  1.00  0.00     0.020 A 
ATOM     69  C   UNL A   1      34.751  33.758  29.355  1.00  0.00     0.054 A 
BRANCH  69  70
ATOM     70  S   UNL A   1      33.440  34.428  28.297  1.00  0.00     0.124 S 
ATOM     71  O   UNL A   1      32.561  35.064  29.275  1.00  0.00    -0.237 OA
ATOM     72  O   UNL A   1      34.168  35.341  27.420  1.00  0.00    -0.237 OA
ATOM     73  O   UNL A   1      32.888  33.246  27.639  1.00  0.00    -0.744 OA
ENDBRANCH  69  70
ENDBRANCH  50  64
BRANCH  51  74
ATOM     74  C   UNL A   1      44.218  28.556  36.237  1.00  0.00    -0.014 A 
ATOM     75  C   UNL A   1      43.996  27.482  37.115  1.00  0.00     0.010 A 
ATOM     76  C   UNL A   1      45.523  29.065  36.098  1.00  0.00     0.010 A 
ATOM     77  C   UNL A   1      45.054  26.935  37.848  1.00  0.00     0.020 A 
ATOM     78  C   UNL A   1      46.588  28.504  36.807  1.00  0.00     0.020 A 
ATOM     79  C   UNL A   1      46.345  27.448  37.688  1.00  0.00     0.054 A 
BRANCH  79  80
ATOM     80  S   UNL A   1      47.714  26.691  38.607  1.00  0.00     0.124 S 
ATOM     81  O   UNL A   1      48.049  25.548  37.762  1.00  0.00    -0.237 OA
ATOM     82  O   UNL A   1      48.706  27.764  38.640  1.00  0.00    -0.237 OA
ATOM     83  O   UNL A   1      47.117  26.363  39.899  1.00  0.00    -0.744 OA
ENDBRANCH  79  80
ENDBRANCH  51  74
BRANCH  63  84
ATOM     84  C   UNL A   1      39.930  33.939  37.353  1.00  0.00    -0.014 A 
ATOM     85  C   UNL A   1      40.522  35.213  37.307  1.00  0.00     0.010 A 
ATOM     86  C   UNL A   1      39.145  33.586  38.466  1.00  0.00     0.010 A 
ATOM     87  C   UNL A   1      40.355  36.107  38.368  1.00  0.00     0.020 A 
ATOM     88  C   UNL A   1      38.955  34.485  39.517  1.00  0.00     0.020 A 
ATOM     89  C   UNL A   1      39.573  35.736  39.466  1.00  0.00     0.054 A 
BRANCH  89  90
ATOM     90  S   UNL A   1      39.329  36.929  40.811  1.00  0.00     0.124 S 
ATOM     91  O   UNL A   1      40.700  37.330  41.113  1.00  0.00    -0.237 OA
ATOM     92  O   UNL A   1      38.497  37.955  40.185  1.00  0.00    -0.237 OA
ATOM     93  O   UNL A   1      38.664  36.147  41.851  1.00  0.00    -0.744 OA
ENDBRANCH  89  90
ENDBRANCH  63  84
ENDBRANCH  37  38
ENDBRANCH  30  32
ENDBRANCH  29  30
ENDBRANCH  28  29
ENDBRANCH  27  28
ENDBRANCH  26  27
ENDBRANCH  25  26
ENDBRANCH   1  25
TORSDOF 26
ENDMDL
