MODEL 1
REMARK VINA RESULT:     -10.2      0.000      0.000
REMARK SMILES CC(C)(C)OC(=O)N1CCC[C@H]1C(=O)N1CCC[C@H]1C(=O)N1CCC[C@@H]1C(=O)OCCOCCOCCOC(=O)c1ccc(-c2c3nc(c(-c4ccc(S(=O)(=O)[O-])cc4)c4ccc([nH]4)c(-c4ccc(S(=O)(=O)[O-])cc4)c4nc(c(-c5ccc(S(=O)(=O)[O-])cc5)c5ccc2[nH]5)C=C4)C=C3)cc1
REMARK SMILES IDX 31 1 30 2 29 3 27 4 28 5 26 6 22 7 23 8 24 9 25 10 20 11
REMARK SMILES IDX 21 12 19 13 15 14 16 15 17 16 18 17 13 18 14 19 12 20 8 21
REMARK SMILES IDX 9 22 10 23 11 24 6 25 7 26 5 27 2 28 1 29 3 30 4 31 32 32
REMARK SMILES IDX 33 33 34 34 35 35 36 36 37 37 38 38 39 39 40 40 41 41 42 42
REMARK SMILES IDX 100 43 43 44 99 45 44 46 45 47 46 48 93 49 47 50 98 51 92 52
REMARK SMILES IDX 94 53 48 54 97 55 91 56 90 57 49 59 79 60 60 61 78 62 61 63
REMARK SMILES IDX 64 64 77 65 95 66 62 67 63 68 76 70 96 71 65 72 50 73 51 74
REMARK SMILES IDX 59 75 52 76 58 77 53 78 54 79 55 80 56 81 57 82 80 83 81 84
REMARK SMILES IDX 89 85 82 86 88 87 83 88 84 89 85 90 86 91 87 92 66 93 67 94
REMARK SMILES IDX 75 95 68 96 74 97 69 98 70 99 71 100 72 101 73 102
REMARK H PARENT 94 58 64 69
REMARK Flexibility Score: inf
ROOT
ATOM      1  C   UNL A   1      38.251  21.132  25.077  1.00  0.00     0.202 C 
ENDROOT
BRANCH   1   2
ATOM      2  C   UNL A   1      36.713  21.037  25.001  1.00  0.00     0.261 C 
BRANCH   2   3
ATOM      3  O   UNL A   1      35.965  21.630  26.082  1.00  0.00    -0.462 OA
BRANCH   3   4
ATOM      4  C   UNL A   1      34.619  21.610  25.914  1.00  0.00     0.328 C 
ATOM      5  O   UNL A   1      33.814  21.759  26.825  1.00  0.00    -0.250 OA
BRANCH   4   6
ATOM      6  C   UNL A   1      34.144  21.333  24.486  1.00  0.00     0.195 C 
ATOM      7  N   UNL A   1      33.486  22.489  23.904  1.00  0.00    -0.327 N 
ATOM      8  C   UNL A   1      32.652  22.033  22.813  1.00  0.00     0.120 C 
ATOM      9  C   UNL A   1      32.050  20.762  23.365  1.00  0.00     0.024 C 
ATOM     10  C   UNL A   1      33.177  20.168  24.207  1.00  0.00     0.039 C 
BRANCH   7  11
ATOM     11  C   UNL A   1      34.177  23.697  23.809  1.00  0.00     0.246 C 
ATOM     12  O   UNL A   1      35.223  23.829  23.184  1.00  0.00    -0.272 OA
BRANCH  11  13
ATOM     13  C   UNL A   1      33.260  24.852  24.266  1.00  0.00     0.174 C 
ATOM     14  N   UNL A   1      32.453  25.580  23.285  1.00  0.00    -0.329 N 
ATOM     15  C   UNL A   1      31.099  25.074  23.313  1.00  0.00     0.120 C 
ATOM     16  C   UNL A   1      30.873  24.729  24.767  1.00  0.00     0.024 C 
ATOM     17  C   UNL A   1      32.225  24.209  25.217  1.00  0.00     0.037 C 
BRANCH  14  18
ATOM     18  C   UNL A   1      33.014  26.617  22.554  1.00  0.00     0.246 C 
ATOM     19  O   UNL A   1      33.801  26.357  21.642  1.00  0.00    -0.272 OA
BRANCH  18  20
ATOM     20  C   UNL A   1      32.876  28.085  23.076  1.00  0.00     0.178 C 
ATOM     21  N   UNL A   1      31.537  28.454  23.579  1.00  0.00    -0.296 N 
ATOM     22  C   UNL A   1      31.579  28.813  24.983  1.00  0.00     0.124 C 
ATOM     23  C   UNL A   1      32.968  29.392  25.124  1.00  0.00     0.024 C 
ATOM     24  C   UNL A   1      33.794  28.466  24.244  1.00  0.00     0.037 C 
BRANCH  21  25
ATOM     25  C   UNL A   1      30.462  28.684  22.751  1.00  0.00     0.410 C 
ATOM     26  O   UNL A   1      30.241  28.050  21.725  1.00  0.00    -0.224 OA
BRANCH  25  27
ATOM     27  O   UNL A   1      29.743  29.762  23.164  1.00  0.00    -0.444 OA
BRANCH  27  28
ATOM     28  C   UNL A   1      28.364  30.032  22.795  1.00  0.00     0.106 C 
ATOM     29  C   UNL A   1      27.939  31.228  23.666  1.00  0.00     0.056 C 
ATOM     30  C   UNL A   1      27.531  28.810  23.181  1.00  0.00     0.056 C 
ATOM     31  C   UNL A   1      28.138  30.413  21.328  1.00  0.00     0.056 C 
ENDBRANCH  27  28
ENDBRANCH  25  27
ENDBRANCH  21  25
ENDBRANCH  18  20
ENDBRANCH  14  18
ENDBRANCH  11  13
ENDBRANCH   7  11
ENDBRANCH   4   6
ENDBRANCH   3   4
ENDBRANCH   2   3
ENDBRANCH   1   2
BRANCH   1  32
ATOM     32  O   UNL A   1      39.054  20.231  25.830  1.00  0.00    -0.376 OA
BRANCH  32  33
ATOM     33  C   UNL A   1      40.256  20.669  26.436  1.00  0.00     0.188 C 
BRANCH  33  34
ATOM     34  C   UNL A   1      41.562  19.956  26.080  1.00  0.00     0.188 C 
BRANCH  34  35
ATOM     35  O   UNL A   1      42.206  19.288  27.135  1.00  0.00    -0.376 OA
BRANCH  35  36
ATOM     36  C   UNL A   1      43.201  18.318  26.848  1.00  0.00     0.202 C 
BRANCH  36  37
ATOM     37  C   UNL A   1      44.068  18.306  25.569  1.00  0.00     0.261 C 
BRANCH  37  38
ATOM     38  O   UNL A   1      45.083  19.306  25.422  1.00  0.00    -0.460 OA
BRANCH  38  39
ATOM     39  C   UNL A   1      44.973  20.140  24.359  1.00  0.00     0.338 C 
ATOM     40  O   UNL A   1      44.807  19.819  23.197  1.00  0.00    -0.246 OA
BRANCH  39  41
ATOM     41  C   UNL A   1      44.816  21.518  24.887  1.00  0.00     0.060 A 
ATOM     42  C   UNL A   1      44.817  22.587  23.977  1.00  0.00     0.016 A 
ATOM     43  C   UNL A   1      44.647  21.757  26.252  1.00  0.00     0.016 A 
ATOM     44  C   UNL A   1      44.693  23.898  24.434  1.00  0.00     0.010 A 
ATOM     45  C   UNL A   1      44.553  23.074  26.712  1.00  0.00     0.010 A 
ATOM     46  C   UNL A   1      44.619  24.152  25.808  1.00  0.00    -0.014 A 
BRANCH  46  47
ATOM     47  C   UNL A   1      44.865  25.530  26.301  1.00  0.00     0.031 A 
ATOM     48  C   UNL A   1      46.274  26.062  26.227  1.00  0.00     0.074 A 
ATOM     49  C   UNL A   1      43.869  26.314  26.751  1.00  0.00     0.049 A 
ATOM     50  N   UNL A   1      46.744  27.226  26.594  1.00  0.00    -0.248 NA
ATOM     51  C   UNL A   1      47.287  25.156  25.660  1.00  0.00     0.031 C 
ATOM     52  C   UNL A   1      42.458  25.940  26.820  1.00  0.00     0.029 A 
ATOM     53  N   UNL A   1      43.902  27.599  27.236  1.00  0.00    -0.354 N 
ATOM     54  C   UNL A   1      48.105  27.187  26.314  1.00  0.00     0.074 A 
ATOM     55  C   UNL A   1      48.392  25.875  25.778  1.00  0.00     0.031 C 
ATOM     56  C   UNL A   1      41.758  26.973  27.325  1.00  0.00     0.029 A 
ATOM     57  C   UNL A   1      42.676  28.067  27.643  1.00  0.00     0.049 A 
ATOM     58  H   UNL A   1      44.727  28.134  27.288  1.00  0.00     0.167 HD
ATOM     59  C   UNL A   1      49.035  28.157  26.480  1.00  0.00     0.031 A 
ATOM     60  C   UNL A   1      42.336  29.239  28.220  1.00  0.00     0.031 A 
ATOM     61  C   UNL A   1      48.752  29.456  27.028  1.00  0.00     0.049 A 
ATOM     62  C   UNL A   1      43.404  30.277  28.467  1.00  0.00     0.074 A 
ATOM     63  C   UNL A   1      49.623  30.512  27.231  1.00  0.00     0.029 A 
ATOM     64  N   UNL A   1      47.506  29.875  27.468  1.00  0.00    -0.354 N 
ATOM     65  N   UNL A   1      44.684  30.234  28.180  1.00  0.00    -0.248 NA
ATOM     66  C   UNL A   1      42.975  31.530  29.106  1.00  0.00     0.031 C 
ATOM     67  C   UNL A   1      48.917  31.547  27.852  1.00  0.00     0.029 A 
ATOM     68  C   UNL A   1      47.590  31.164  27.967  1.00  0.00     0.049 A 
ATOM     69  H   UNL A   1      46.683  29.336  27.432  1.00  0.00     0.167 HD
ATOM     70  C   UNL A   1      45.203  31.465  28.571  1.00  0.00     0.074 A 
ATOM     71  C   UNL A   1      44.097  32.235  29.099  1.00  0.00     0.031 C 
ATOM     72  C   UNL A   1      46.480  31.920  28.494  1.00  0.00     0.031 A 
BRANCH  59  73
ATOM     73  C   UNL A   1      50.456  27.828  26.101  1.00  0.00    -0.014 A 
ATOM     74  C   UNL A   1      51.415  27.489  27.073  1.00  0.00     0.010 A 
ATOM     75  C   UNL A   1      50.830  27.835  24.745  1.00  0.00     0.010 A 
ATOM     76  C   UNL A   1      52.730  27.200  26.699  1.00  0.00     0.020 A 
ATOM     77  C   UNL A   1      52.135  27.515  24.364  1.00  0.00     0.020 A 
ATOM     78  C   UNL A   1      53.082  27.216  25.345  1.00  0.00     0.054 A 
BRANCH  78  79
ATOM     79  S   UNL A   1      54.790  26.813  24.887  1.00  0.00     0.124 S 
ATOM     80  O   UNL A   1      54.604  25.650  24.025  1.00  0.00    -0.237 OA
ATOM     81  O   UNL A   1      55.236  28.031  24.213  1.00  0.00    -0.237 OA
ATOM     82  O   UNL A   1      55.439  26.542  26.167  1.00  0.00    -0.744 OA
ENDBRANCH  78  79
ENDBRANCH  59  73
BRANCH  60  83
ATOM     83  C   UNL A   1      40.922  29.494  28.620  1.00  0.00    -0.014 A 
ATOM     84  C   UNL A   1      39.859  29.171  27.758  1.00  0.00     0.010 A 
ATOM     85  C   UNL A   1      40.634  30.086  29.864  1.00  0.00     0.010 A 
ATOM     86  C   UNL A   1      38.538  29.452  28.123  1.00  0.00     0.020 A 
ATOM     87  C   UNL A   1      39.313  30.340  30.246  1.00  0.00     0.020 A 
ATOM     88  C   UNL A   1      38.273  30.033  29.367  1.00  0.00     0.054 A 
BRANCH  88  89
ATOM     89  S   UNL A   1      36.549  30.356  29.834  1.00  0.00     0.124 S 
ATOM     90  O   UNL A   1      36.641  31.679  30.443  1.00  0.00    -0.237 OA
ATOM     91  O   UNL A   1      35.859  30.298  28.549  1.00  0.00    -0.237 OA
ATOM     92  O   UNL A   1      36.232  29.266  30.755  1.00  0.00    -0.744 OA
ENDBRANCH  88  89
ENDBRANCH  60  83
BRANCH  72  93
ATOM     93  C   UNL A   1      46.746  33.334  28.948  1.00  0.00    -0.014 A 
ATOM     94  C   UNL A   1      47.195  33.620  30.250  1.00  0.00     0.010 A 
ATOM     95  C   UNL A   1      46.577  34.394  28.037  1.00  0.00     0.010 A 
ATOM     96  C   UNL A   1      47.422  34.941  30.646  1.00  0.00     0.020 A 
ATOM     97  C   UNL A   1      46.836  35.713  28.419  1.00  0.00     0.020 A 
ATOM     98  C   UNL A   1      47.238  35.980  29.729  1.00  0.00     0.054 A 
BRANCH  98  99
ATOM     99  S   UNL A   1      47.555  37.685  30.262  1.00  0.00     0.124 S 
ATOM    100  O   UNL A   1      48.957  37.863  29.892  1.00  0.00    -0.237 OA
ATOM    101  O   UNL A   1      46.594  38.451  29.472  1.00  0.00    -0.237 OA
ATOM    102  O   UNL A   1      47.290  37.656  31.698  1.00  0.00    -0.744 OA
ENDBRANCH  98  99
ENDBRANCH  72  93
ENDBRANCH  46  47
ENDBRANCH  39  41
ENDBRANCH  38  39
ENDBRANCH  37  38
ENDBRANCH  36  37
ENDBRANCH  35  36
ENDBRANCH  34  35
ENDBRANCH  33  34
ENDBRANCH  32  33
ENDBRANCH   1  32
TORSDOF 27
ENDMDL
MODEL 2
REMARK VINA RESULT:      -9.5      5.514      7.330
REMARK SMILES CC(C)(C)OC(=O)N1CCC[C@H]1C(=O)N1CCC[C@H]1C(=O)N1CCC[C@@H]1C(=O)OCCOCCOCCOC(=O)c1ccc(-c2c3nc(c(-c4ccc(S(=O)(=O)[O-])cc4)c4ccc([nH]4)c(-c4ccc(S(=O)(=O)[O-])cc4)c4nc(c(-c5ccc(S(=O)(=O)[O-])cc5)c5ccc2[nH]5)C=C4)C=C3)cc1
REMARK SMILES IDX 31 1 30 2 29 3 27 4 28 5 26 6 22 7 23 8 24 9 25 10 20 11
REMARK SMILES IDX 21 12 19 13 15 14 16 15 17 16 18 17 13 18 14 19 12 20 8 21
REMARK SMILES IDX 9 22 10 23 11 24 6 25 7 26 5 27 2 28 1 29 3 30 4 31 32 32
REMARK SMILES IDX 33 33 34 34 35 35 36 36 37 37 38 38 39 39 40 40 41 41 42 42
REMARK SMILES IDX 100 43 43 44 99 45 44 46 45 47 46 48 93 49 47 50 98 51 92 52
REMARK SMILES IDX 94 53 48 54 97 55 91 56 90 57 49 59 79 60 60 61 78 62 61 63
REMARK SMILES IDX 64 64 77 65 95 66 62 67 63 68 76 70 96 71 65 72 50 73 51 74
REMARK SMILES IDX 59 75 52 76 58 77 53 78 54 79 55 80 56 81 57 82 80 83 81 84
REMARK SMILES IDX 89 85 82 86 88 87 83 88 84 89 85 90 86 91 87 92 66 93 67 94
REMARK SMILES IDX 75 95 68 96 74 97 69 98 70 99 71 100 72 101 73 102
REMARK H PARENT 94 58 64 69
REMARK Flexibility Score: inf
ROOT
ATOM      1  C   UNL A   1      36.941  19.655  24.655  1.00  0.00     0.202 C 
ENDROOT
BRANCH   1   2
ATOM      2  C   UNL A   1      35.464  19.409  25.025  1.00  0.00     0.261 C 
BRANCH   2   3
ATOM      3  O   UNL A   1      34.503  20.384  24.572  1.00  0.00    -0.462 OA
BRANCH   3   4
ATOM      4  C   UNL A   1      33.366  20.441  25.311  1.00  0.00     0.328 C 
ATOM      5  O   UNL A   1      32.420  19.675  25.171  1.00  0.00    -0.250 OA
BRANCH   4   6
ATOM      6  C   UNL A   1      33.307  21.581  26.330  1.00  0.00     0.195 C 
ATOM      7  N   UNL A   1      32.698  22.773  25.768  1.00  0.00    -0.327 N 
ATOM      8  C   UNL A   1      33.112  23.910  26.561  1.00  0.00     0.120 C 
ATOM      9  C   UNL A   1      34.569  23.613  26.831  1.00  0.00     0.024 C 
ATOM     10  C   UNL A   1      34.601  22.094  26.989  1.00  0.00     0.039 C 
BRANCH   7  11
ATOM     11  C   UNL A   1      31.403  22.705  25.251  1.00  0.00     0.246 C 
ATOM     12  O   UNL A   1      30.430  22.362  25.913  1.00  0.00    -0.272 OA
BRANCH  11  13
ATOM     13  C   UNL A   1      31.346  23.458  23.905  1.00  0.00     0.174 C 
ATOM     14  N   UNL A   1      31.979  24.771  23.771  1.00  0.00    -0.329 N 
ATOM     15  C   UNL A   1      33.266  24.617  23.131  1.00  0.00     0.120 C 
ATOM     16  C   UNL A   1      33.049  23.482  22.155  1.00  0.00     0.024 C 
ATOM     17  C   UNL A   1      32.098  22.561  22.895  1.00  0.00     0.037 C 
BRANCH  14  18
ATOM     18  C   UNL A   1      31.305  25.913  24.179  1.00  0.00     0.246 C 
ATOM     19  O   UNL A   1      30.121  25.830  24.511  1.00  0.00    -0.272 OA
BRANCH  18  20
ATOM     20  C   UNL A   1      31.955  27.315  23.936  1.00  0.00     0.178 C 
ATOM     21  N   UNL A   1      31.020  28.458  23.968  1.00  0.00    -0.296 N 
ATOM     22  C   UNL A   1      31.351  29.384  25.033  1.00  0.00     0.124 C 
ATOM     23  C   UNL A   1      32.852  29.229  25.137  1.00  0.00     0.024 C 
ATOM     24  C   UNL A   1      33.035  27.732  24.942  1.00  0.00     0.037 C 
BRANCH  21  25
ATOM     25  C   UNL A   1      30.135  28.732  22.950  1.00  0.00     0.410 C 
ATOM     26  O   UNL A   1      30.345  28.467  21.771  1.00  0.00    -0.224 OA
BRANCH  25  27
ATOM     27  O   UNL A   1      29.052  29.415  23.408  1.00  0.00    -0.444 OA
BRANCH  27  28
ATOM     28  C   UNL A   1      28.494  30.603  22.785  1.00  0.00     0.106 C 
ATOM     29  C   UNL A   1      27.318  31.017  23.687  1.00  0.00     0.056 C 
ATOM     30  C   UNL A   1      27.954  30.197  21.413  1.00  0.00     0.056 C 
ATOM     31  C   UNL A   1      29.446  31.797  22.672  1.00  0.00     0.056 C 
ENDBRANCH  27  28
ENDBRANCH  25  27
ENDBRANCH  21  25
ENDBRANCH  18  20
ENDBRANCH  14  18
ENDBRANCH  11  13
ENDBRANCH   7  11
ENDBRANCH   4   6
ENDBRANCH   3   4
ENDBRANCH   2   3
ENDBRANCH   1   2
BRANCH   1  32
ATOM     32  O   UNL A   1      37.502  20.952  24.497  1.00  0.00    -0.376 OA
BRANCH  32  33
ATOM     33  C   UNL A   1      37.995  21.667  25.615  1.00  0.00     0.188 C 
BRANCH  33  34
ATOM     34  C   UNL A   1      39.456  21.470  26.028  1.00  0.00     0.188 C 
BRANCH  34  35
ATOM     35  O   UNL A   1      40.180  22.642  26.305  1.00  0.00    -0.376 OA
BRANCH  35  36
ATOM     36  C   UNL A   1      41.594  22.585  26.406  1.00  0.00     0.202 C 
BRANCH  36  37
ATOM     37  C   UNL A   1      42.570  23.185  25.370  1.00  0.00     0.261 C 
BRANCH  37  38
ATOM     38  O   UNL A   1      42.577  24.604  25.178  1.00  0.00    -0.460 OA
BRANCH  38  39
ATOM     39  C   UNL A   1      43.545  25.305  25.816  1.00  0.00     0.338 C 
ATOM     40  O   UNL A   1      44.689  25.477  25.438  1.00  0.00    -0.246 OA
BRANCH  39  41
ATOM     41  C   UNL A   1      42.898  26.056  26.921  1.00  0.00     0.060 A 
ATOM     42  C   UNL A   1      42.535  27.394  26.698  1.00  0.00     0.016 A 
ATOM     43  C   UNL A   1      42.630  25.451  28.150  1.00  0.00     0.016 A 
ATOM     44  C   UNL A   1      41.944  28.140  27.715  1.00  0.00     0.010 A 
ATOM     45  C   UNL A   1      42.065  26.210  29.180  1.00  0.00     0.010 A 
ATOM     46  C   UNL A   1      41.760  27.569  28.980  1.00  0.00    -0.014 A 
BRANCH  46  47
ATOM     47  C   UNL A   1      41.490  28.456  30.139  1.00  0.00     0.031 A 
ATOM     48  C   UNL A   1      42.400  28.346  31.336  1.00  0.00     0.074 A 
ATOM     49  C   UNL A   1      40.505  29.372  30.121  1.00  0.00     0.049 A 
ATOM     50  N   UNL A   1      42.372  29.003  32.466  1.00  0.00    -0.248 NA
ATOM     51  C   UNL A   1      43.491  27.360  31.240  1.00  0.00     0.031 C 
ATOM     52  C   UNL A   1      39.593  29.618  29.005  1.00  0.00     0.029 A 
ATOM     53  N   UNL A   1      40.112  30.271  31.082  1.00  0.00    -0.354 N 
ATOM     54  C   UNL A   1      43.429  28.504  33.217  1.00  0.00     0.074 A 
ATOM     55  C   UNL A   1      44.059  27.467  32.431  1.00  0.00     0.031 C 
ATOM     56  C   UNL A   1      38.741  30.602  29.349  1.00  0.00     0.029 A 
ATOM     57  C   UNL A   1      39.028  31.032  30.717  1.00  0.00     0.049 A 
ATOM     58  H   UNL A   1      40.565  30.362  31.952  1.00  0.00     0.167 HD
ATOM     59  C   UNL A   1      43.846  28.877  34.450  1.00  0.00     0.031 A 
ATOM     60  C   UNL A   1      38.336  31.958  31.413  1.00  0.00     0.031 A 
ATOM     61  C   UNL A   1      43.210  29.898  35.239  1.00  0.00     0.049 A 
ATOM     62  C   UNL A   1      38.772  32.303  32.817  1.00  0.00     0.074 A 
ATOM     63  C   UNL A   1      43.560  30.355  36.498  1.00  0.00     0.029 A 
ATOM     64  N   UNL A   1      42.087  30.614  34.851  1.00  0.00    -0.354 N 
ATOM     65  N   UNL A   1      39.785  31.837  33.508  1.00  0.00    -0.248 NA
ATOM     66  C   UNL A   1      37.976  33.314  33.528  1.00  0.00     0.031 C 
ATOM     67  C   UNL A   1      42.612  31.303  36.896  1.00  0.00     0.029 A 
ATOM     68  C   UNL A   1      41.715  31.490  35.856  1.00  0.00     0.049 A 
ATOM     69  H   UNL A   1      41.624  30.513  33.988  1.00  0.00     0.167 HD
ATOM     70  C   UNL A   1      39.767  32.522  34.720  1.00  0.00     0.074 A 
ATOM     71  C   UNL A   1      38.653  33.445  34.660  1.00  0.00     0.031 C 
ATOM     72  C   UNL A   1      40.601  32.403  35.785  1.00  0.00     0.031 A 
BRANCH  59  73
ATOM     73  C   UNL A   1      45.025  28.144  35.036  1.00  0.00    -0.014 A 
ATOM     74  C   UNL A   1      44.852  27.047  35.899  1.00  0.00     0.010 A 
ATOM     75  C   UNL A   1      46.329  28.546  34.695  1.00  0.00     0.010 A 
ATOM     76  C   UNL A   1      45.960  26.390  36.440  1.00  0.00     0.020 A 
ATOM     77  C   UNL A   1      47.440  27.872  35.209  1.00  0.00     0.020 A 
ATOM     78  C   UNL A   1      47.248  26.808  36.091  1.00  0.00     0.054 A 
BRANCH  78  79
ATOM     79  S   UNL A   1      48.668  25.921  36.789  1.00  0.00     0.124 S 
ATOM     80  O   UNL A   1      49.743  26.895  36.624  1.00  0.00    -0.237 OA
ATOM     81  O   UNL A   1      48.247  25.678  38.167  1.00  0.00    -0.237 OA
ATOM     82  O   UNL A   1      48.777  24.727  35.955  1.00  0.00    -0.744 OA
ENDBRANCH  78  79
ENDBRANCH  59  73
BRANCH  60  83
ATOM     83  C   UNL A   1      37.147  32.620  30.804  1.00  0.00    -0.014 A 
ATOM     84  C   UNL A   1      35.843  32.210  31.135  1.00  0.00     0.010 A 
ATOM     85  C   UNL A   1      37.317  33.656  29.867  1.00  0.00     0.010 A 
ATOM     86  C   UNL A   1      34.735  32.808  30.527  1.00  0.00     0.020 A 
ATOM     87  C   UNL A   1      36.210  34.278  29.280  1.00  0.00     0.020 A 
ATOM     88  C   UNL A   1      34.925  33.841  29.605  1.00  0.00     0.054 A 
BRANCH  88  89
ATOM     89  S   UNL A   1      33.470  34.626  28.857  1.00  0.00     0.124 S 
ATOM     90  O   UNL A   1      33.013  33.598  27.926  1.00  0.00    -0.237 OA
ATOM     91  O   UNL A   1      32.609  34.861  30.012  1.00  0.00    -0.237 OA
ATOM     92  O   UNL A   1      34.012  35.834  28.235  1.00  0.00    -0.744 OA
ENDBRANCH  88  89
ENDBRANCH  60  83
BRANCH  72  93
ATOM     93  C   UNL A   1      40.372  33.325  36.957  1.00  0.00    -0.014 A 
ATOM     94  C   UNL A   1      39.384  33.063  37.922  1.00  0.00     0.010 A 
ATOM     95  C   UNL A   1      41.193  34.459  37.113  1.00  0.00     0.010 A 
ATOM     96  C   UNL A   1      39.187  33.941  38.992  1.00  0.00     0.020 A 
ATOM     97  C   UNL A   1      41.023  35.321  38.200  1.00  0.00     0.020 A 
ATOM     98  C   UNL A   1      40.005  35.067  39.122  1.00  0.00     0.054 A 
BRANCH  98  99
ATOM     99  S   UNL A   1      39.742  36.183  40.527  1.00  0.00     0.124 S 
ATOM    100  O   UNL A   1      38.322  35.991  40.806  1.00  0.00    -0.237 OA
ATOM    101  O   UNL A   1      40.658  35.652  41.534  1.00  0.00    -0.237 OA
ATOM    102  O   UNL A   1      40.101  37.498  40.000  1.00  0.00    -0.744 OA
ENDBRANCH  98  99
ENDBRANCH  72  93
ENDBRANCH  46  47
ENDBRANCH  39  41
ENDBRANCH  38  39
ENDBRANCH  37  38
ENDBRANCH  36  37
ENDBRANCH  35  36
ENDBRANCH  34  35
ENDBRANCH  33  34
ENDBRANCH  32  33
ENDBRANCH   1  32
TORSDOF 27
ENDMDL
MODEL 3
REMARK VINA RESULT:      -9.2      6.115     10.084
REMARK SMILES CC(C)(C)OC(=O)N1CCC[C@H]1C(=O)N1CCC[C@H]1C(=O)N1CCC[C@@H]1C(=O)OCCOCCOCCOC(=O)c1ccc(-c2c3nc(c(-c4ccc(S(=O)(=O)[O-])cc4)c4ccc([nH]4)c(-c4ccc(S(=O)(=O)[O-])cc4)c4nc(c(-c5ccc(S(=O)(=O)[O-])cc5)c5ccc2[nH]5)C=C4)C=C3)cc1
REMARK SMILES IDX 31 1 30 2 29 3 27 4 28 5 26 6 22 7 23 8 24 9 25 10 20 11
REMARK SMILES IDX 21 12 19 13 15 14 16 15 17 16 18 17 13 18 14 19 12 20 8 21
REMARK SMILES IDX 9 22 10 23 11 24 6 25 7 26 5 27 2 28 1 29 3 30 4 31 32 32
REMARK SMILES IDX 33 33 34 34 35 35 36 36 37 37 38 38 39 39 40 40 41 41 42 42
REMARK SMILES IDX 100 43 43 44 99 45 44 46 45 47 46 48 93 49 47 50 98 51 92 52
REMARK SMILES IDX 94 53 48 54 97 55 91 56 90 57 49 59 79 60 60 61 78 62 61 63
REMARK SMILES IDX 64 64 77 65 95 66 62 67 63 68 76 70 96 71 65 72 50 73 51 74
REMARK SMILES IDX 59 75 52 76 58 77 53 78 54 79 55 80 56 81 57 82 80 83 81 84
REMARK SMILES IDX 89 85 82 86 88 87 83 88 84 89 85 90 86 91 87 92 66 93 67 94
REMARK SMILES IDX 75 95 68 96 74 97 69 98 70 99 71 100 72 101 73 102
REMARK H PARENT 94 58 64 69
REMARK Flexibility Score: inf
ROOT
ATOM      1  C   UNL A   1      38.164  21.438  25.425  1.00  0.00     0.202 C 
ENDROOT
BRANCH   1   2
ATOM      2  C   UNL A   1      37.257  22.181  24.424  1.00  0.00     0.261 C 
BRANCH   2   3
ATOM      3  O   UNL A   1      36.192  22.983  24.972  1.00  0.00    -0.462 OA
BRANCH   3   4
ATOM      4  C   UNL A   1      35.156  22.271  25.483  1.00  0.00     0.328 C 
ATOM      5  O   UNL A   1      34.827  22.292  26.663  1.00  0.00    -0.250 OA
BRANCH   4   6
ATOM      6  C   UNL A   1      34.426  21.372  24.482  1.00  0.00     0.195 C 
ATOM      7  N   UNL A   1      33.384  22.092  23.772  1.00  0.00    -0.327 N 
ATOM      8  C   UNL A   1      32.444  21.126  23.247  1.00  0.00     0.120 C 
ATOM      9  C   UNL A   1      32.324  20.131  24.378  1.00  0.00     0.024 C 
ATOM     10  C   UNL A   1      33.733  20.085  24.965  1.00  0.00     0.039 C 
BRANCH   7  11
ATOM     11  C   UNL A   1      33.715  23.230  23.036  1.00  0.00     0.246 C 
ATOM     12  O   UNL A   1      34.413  23.203  22.029  1.00  0.00    -0.272 OA
BRANCH  11  13
ATOM     13  C   UNL A   1      32.794  24.397  23.451  1.00  0.00     0.174 C 
ATOM     14  N   UNL A   1      33.353  25.571  24.124  1.00  0.00    -0.329 N 
ATOM     15  C   UNL A   1      33.536  26.632  23.160  1.00  0.00     0.120 C 
ATOM     16  C   UNL A   1      32.374  26.458  22.208  1.00  0.00     0.024 C 
ATOM     17  C   UNL A   1      32.207  24.952  22.132  1.00  0.00     0.037 C 
BRANCH  14  18
ATOM     18  C   UNL A   1      33.565  25.551  25.495  1.00  0.00     0.246 C 
ATOM     19  O   UNL A   1      34.719  25.524  25.928  1.00  0.00    -0.272 OA
BRANCH  18  20
ATOM     20  C   UNL A   1      32.362  25.269  26.454  1.00  0.00     0.178 C 
ATOM     21  N   UNL A   1      31.226  26.204  26.334  1.00  0.00    -0.296 N 
ATOM     22  C   UNL A   1      30.016  25.520  25.922  1.00  0.00     0.124 C 
ATOM     23  C   UNL A   1      30.207  24.145  26.520  1.00  0.00     0.024 C 
ATOM     24  C   UNL A   1      31.691  23.899  26.295  1.00  0.00     0.037 C 
BRANCH  21  25
ATOM     25  C   UNL A   1      31.262  27.493  26.816  1.00  0.00     0.410 C 
ATOM     26  O   UNL A   1      31.057  27.791  27.988  1.00  0.00    -0.224 OA
BRANCH  25  27
ATOM     27  O   UNL A   1      31.455  28.390  25.813  1.00  0.00    -0.444 OA
BRANCH  27  28
ATOM     28  C   UNL A   1      32.433  29.465  25.835  1.00  0.00     0.106 C 
ATOM     29  C   UNL A   1      31.612  30.755  26.011  1.00  0.00     0.056 C 
ATOM     30  C   UNL A   1      33.123  29.492  24.470  1.00  0.00     0.056 C 
ATOM     31  C   UNL A   1      33.458  29.399  26.971  1.00  0.00     0.056 C 
ENDBRANCH  27  28
ENDBRANCH  25  27
ENDBRANCH  21  25
ENDBRANCH  18  20
ENDBRANCH  14  18
ENDBRANCH  11  13
ENDBRANCH   7  11
ENDBRANCH   4   6
ENDBRANCH   3   4
ENDBRANCH   2   3
ENDBRANCH   1   2
BRANCH   1  32
ATOM     32  O   UNL A   1      39.034  22.102  26.335  1.00  0.00    -0.376 OA
BRANCH  32  33
ATOM     33  C   UNL A   1      40.180  21.447  26.846  1.00  0.00     0.188 C 
BRANCH  33  34
ATOM     34  C   UNL A   1      41.467  21.462  26.018  1.00  0.00     0.188 C 
BRANCH  34  35
ATOM     35  O   UNL A   1      42.298  22.581  26.194  1.00  0.00    -0.376 OA
BRANCH  35  36
ATOM     36  C   UNL A   1      43.130  23.011  25.127  1.00  0.00     0.202 C 
BRANCH  36  37
ATOM     37  C   UNL A   1      44.323  23.979  25.284  1.00  0.00     0.261 C 
BRANCH  37  38
ATOM     38  O   UNL A   1      44.127  25.363  24.973  1.00  0.00    -0.460 OA
BRANCH  38  39
ATOM     39  C   UNL A   1      42.957  25.921  25.368  1.00  0.00     0.338 C 
ATOM     40  O   UNL A   1      41.898  25.894  24.769  1.00  0.00    -0.246 OA
BRANCH  39  41
ATOM     41  C   UNL A   1      43.117  26.338  26.784  1.00  0.00     0.060 A 
ATOM     42  C   UNL A   1      43.901  27.467  27.064  1.00  0.00     0.016 A 
ATOM     43  C   UNL A   1      42.489  25.644  27.819  1.00  0.00     0.016 A 
ATOM     44  C   UNL A   1      44.093  27.880  28.381  1.00  0.00     0.010 A 
ATOM     45  C   UNL A   1      42.707  26.040  29.143  1.00  0.00     0.010 A 
ATOM     46  C   UNL A   1      43.545  27.133  29.431  1.00  0.00    -0.014 A 
BRANCH  46  47
ATOM     47  C   UNL A   1      44.053  27.346  30.809  1.00  0.00     0.031 A 
ATOM     48  C   UNL A   1      43.276  28.273  31.710  1.00  0.00     0.074 A 
ATOM     49  C   UNL A   1      45.138  26.703  31.276  1.00  0.00     0.049 A 
ATOM     50  N   UNL A   1      43.513  28.624  32.946  1.00  0.00    -0.248 NA
ATOM     51  C   UNL A   1      42.065  28.883  31.133  1.00  0.00     0.031 C 
ATOM     52  C   UNL A   1      45.943  25.740  30.527  1.00  0.00     0.029 A 
ATOM     53  N   UNL A   1      45.746  26.767  32.506  1.00  0.00    -0.354 N 
ATOM     54  C   UNL A   1      42.492  29.502  33.291  1.00  0.00     0.074 A 
ATOM     55  C   UNL A   1      41.652  29.657  32.125  1.00  0.00     0.031 C 
ATOM     56  C   UNL A   1      46.946  25.306  31.314  1.00  0.00     0.029 A 
ATOM     57  C   UNL A   1      46.871  25.983  32.608  1.00  0.00     0.049 A 
ATOM     58  H   UNL A   1      45.409  27.323  33.246  1.00  0.00     0.167 HD
ATOM     59  C   UNL A   1      42.266  30.121  34.474  1.00  0.00     0.031 A 
ATOM     60  C   UNL A   1      47.748  25.842  33.624  1.00  0.00     0.031 A 
ATOM     61  C   UNL A   1      43.111  29.979  35.629  1.00  0.00     0.049 A 
ATOM     62  C   UNL A   1      47.518  26.602  34.908  1.00  0.00     0.074 A 
ATOM     63  C   UNL A   1      42.964  30.559  36.877  1.00  0.00     0.029 A 
ATOM     64  N   UNL A   1      44.264  29.211  35.677  1.00  0.00    -0.354 N 
ATOM     65  N   UNL A   1      46.538  27.415  35.226  1.00  0.00    -0.248 NA
ATOM     66  C   UNL A   1      48.511  26.413  35.976  1.00  0.00     0.031 C 
ATOM     67  C   UNL A   1      44.063  30.190  37.661  1.00  0.00     0.029 A 
ATOM     68  C   UNL A   1      44.854  29.322  36.924  1.00  0.00     0.049 A 
ATOM     69  H   UNL A   1      44.612  28.667  34.933  1.00  0.00     0.167 HD
ATOM     70  C   UNL A   1      46.778  27.805  36.541  1.00  0.00     0.074 A 
ATOM     71  C   UNL A   1      47.986  27.127  36.962  1.00  0.00     0.031 C 
ATOM     72  C   UNL A   1      46.060  28.644  37.331  1.00  0.00     0.031 A 
BRANCH  59  73
ATOM     73  C   UNL A   1      41.077  31.042  34.559  1.00  0.00    -0.014 A 
ATOM     74  C   UNL A   1      41.154  32.381  34.133  1.00  0.00     0.010 A 
ATOM     75  C   UNL A   1      39.854  30.551  35.050  1.00  0.00     0.010 A 
ATOM     76  C   UNL A   1      40.041  33.220  34.233  1.00  0.00     0.020 A 
ATOM     77  C   UNL A   1      38.730  31.377  35.122  1.00  0.00     0.020 A 
ATOM     78  C   UNL A   1      38.835  32.713  34.729  1.00  0.00     0.054 A 
BRANCH  78  79
ATOM     79  S   UNL A   1      37.401  33.818  34.824  1.00  0.00     0.124 S 
ATOM     80  O   UNL A   1      36.731  33.339  36.030  1.00  0.00    -0.237 OA
ATOM     81  O   UNL A   1      38.021  35.137  34.932  1.00  0.00    -0.237 OA
ATOM     82  O   UNL A   1      36.686  33.570  33.575  1.00  0.00    -0.744 OA
ENDBRANCH  78  79
ENDBRANCH  59  73
BRANCH  60  83
ATOM     83  C   UNL A   1      48.935  24.953  33.470  1.00  0.00    -0.014 A 
ATOM     84  C   UNL A   1      48.998  23.712  34.128  1.00  0.00     0.010 A 
ATOM     85  C   UNL A   1      50.023  25.358  32.675  1.00  0.00     0.010 A 
ATOM     86  C   UNL A   1      50.133  22.903  34.012  1.00  0.00     0.020 A 
ATOM     87  C   UNL A   1      51.147  24.538  32.531  1.00  0.00     0.020 A 
ATOM     88  C   UNL A   1      51.200  23.320  33.211  1.00  0.00     0.054 A 
BRANCH  88  89
ATOM     89  S   UNL A   1      52.647  22.237  33.047  1.00  0.00     0.124 S 
ATOM     90  O   UNL A   1      52.201  21.284  32.035  1.00  0.00    -0.237 OA
ATOM     91  O   UNL A   1      53.690  23.167  32.623  1.00  0.00    -0.237 OA
ATOM     92  O   UNL A   1      52.820  21.687  34.390  1.00  0.00    -0.744 OA
ENDBRANCH  88  89
ENDBRANCH  60  83
BRANCH  72  93
ATOM     93  C   UNL A   1      46.533  28.841  38.750  1.00  0.00    -0.014 A 
ATOM     94  C   UNL A   1      46.214  27.927  39.770  1.00  0.00     0.010 A 
ATOM     95  C   UNL A   1      47.348  29.947  39.058  1.00  0.00     0.010 A 
ATOM     96  C   UNL A   1      46.658  28.142  41.078  1.00  0.00     0.020 A 
ATOM     97  C   UNL A   1      47.823  30.147  40.357  1.00  0.00     0.020 A 
ATOM     98  C   UNL A   1      47.456  29.252  41.364  1.00  0.00     0.054 A 
BRANCH  98  99
ATOM     99  S   UNL A   1      48.034  29.500  43.066  1.00  0.00     0.124 S 
ATOM    100  O   UNL A   1      48.767  28.263  43.321  1.00  0.00    -0.237 OA
ATOM    101  O   UNL A   1      48.854  30.704  42.953  1.00  0.00    -0.237 OA
ATOM    102  O   UNL A   1      46.801  29.663  43.832  1.00  0.00    -0.744 OA
ENDBRANCH  98  99
ENDBRANCH  72  93
ENDBRANCH  46  47
ENDBRANCH  39  41
ENDBRANCH  38  39
ENDBRANCH  37  38
ENDBRANCH  36  37
ENDBRANCH  35  36
ENDBRANCH  34  35
ENDBRANCH  33  34
ENDBRANCH  32  33
ENDBRANCH   1  32
TORSDOF 27
ENDMDL
