MODEL 1
REMARK VINA RESULT:     -10.9      0.000      0.000
REMARK SMILES Cc1c(Br)c(C)c2c(c1Br)O[C@H](C(F)(F)F)C(C(=O)OCCOCCOCCOC(=O)c1ccc(-c3c4nc(c(-c5ccc(S(=O)(=O)[O-])cc5)c5ccc([nH]5)c(-c5ccc(S(=O)(=O)[O-])cc5)c5nc(c(-c6ccc(S(=O)(=O)[O-])cc6)c6ccc3[nH]6)C=C5)C=C4)cc1)=C2
REMARK SMILES IDX 25 1 24 2 23 3 22 4 21 5 20 6 18 7 19 8 17 9 1 10 2 11 3 12
REMARK SMILES IDX 9 13 4 14 5 15 8 16 10 17 6 18 7 19 11 20 92 21 12 22 13 23
REMARK SMILES IDX 14 24 15 25 16 26 26 27 27 28 28 29 29 30 30 31 31 32 32 33
REMARK SMILES IDX 33 34 91 35 34 36 90 37 35 38 36 39 37 40 84 41 38 42 89 43
REMARK SMILES IDX 83 44 85 45 39 46 88 47 82 48 81 49 40 51 70 52 51 53 69 54
REMARK SMILES IDX 52 55 55 56 68 57 86 58 53 59 54 60 67 62 87 63 56 64 41 65
REMARK SMILES IDX 42 66 50 67 43 68 49 69 44 70 45 71 46 72 47 73 48 74 71 75
REMARK SMILES IDX 72 76 80 77 73 78 79 79 74 80 75 81 76 82 77 83 78 84 57 85
REMARK SMILES IDX 58 86 66 87 59 88 65 89 60 90 61 91 62 92 63 93 64 94
REMARK H PARENT 85 50 55 61
REMARK Flexibility Score: inf
ROOT
ATOM      1  C   UNL A   1      37.674  21.224  24.897  1.00  0.00     0.188 C 
ENDROOT
BRANCH   1   2
ATOM      2  C   UNL A   1      36.406  20.350  24.998  1.00  0.00     0.188 C 
BRANCH   2   3
ATOM      3  O   UNL A   1      35.172  21.021  25.046  1.00  0.00    -0.376 OA
BRANCH   3   4
ATOM      4  C   UNL A   1      34.563  21.411  26.262  1.00  0.00     0.202 C 
BRANCH   4   5
ATOM      5  C   UNL A   1      34.780  22.740  27.006  1.00  0.00     0.261 C 
BRANCH   5   6
ATOM      6  O   UNL A   1      34.122  23.898  26.497  1.00  0.00    -0.460 OA
BRANCH   6   7
ATOM      7  C   UNL A   1      34.771  24.544  25.501  1.00  0.00     0.338 C 
ATOM      8  O   UNL A   1      35.847  24.243  25.014  1.00  0.00    -0.246 OA
BRANCH   7   9
ATOM      9  C   UNL A   1      33.917  25.637  25.000  1.00  0.00     0.087 C 
ATOM     10  C   UNL A   1      29.943  30.764  24.286  1.00  0.00     0.047 C 
ATOM     11  C   UNL A   1      31.060  29.787  24.577  1.00  0.00    -0.019 A 
ATOM     12  C   UNL A   1      31.931  30.006  25.676  1.00  0.00     0.025 A 
ATOM     13  C   UNL A   1      31.230  28.611  23.821  1.00  0.00     0.064 A 
ATOM     14  Br  UNL A   1      31.680  31.578  26.752  1.00  0.00    -0.050 Br
ATOM     15  C   UNL A   1      32.944  29.075  26.020  1.00  0.00    -0.026 A 
ATOM     16  C   UNL A   1      32.207  27.659  24.171  1.00  0.00     0.142 A 
ATOM     17  Br  UNL A   1      30.105  28.221  22.317  1.00  0.00    -0.046 Br
ATOM     18  C   UNL A   1      33.917  29.321  27.155  1.00  0.00     0.046 C 
ATOM     19  C   UNL A   1      33.032  27.866  25.286  1.00  0.00     0.022 A 
ATOM     20  O   UNL A   1      32.306  26.555  23.365  1.00  0.00    -0.474 OA
ATOM     21  C   UNL A   1      33.924  26.780  25.697  1.00  0.00     0.027 C 
ATOM     22  C   UNL A   1      33.104  25.419  23.763  1.00  0.00     0.316 C 
BRANCH  22  23
ATOM     23  C   UNL A   1      32.189  24.189  23.860  1.00  0.00     0.430 C 
ATOM     24  F   UNL A   1      31.250  24.198  22.882  1.00  0.00    -0.167 F 
ATOM     25  F   UNL A   1      32.881  23.034  23.715  1.00  0.00    -0.167 F 
ATOM     26  F   UNL A   1      31.541  24.127  25.044  1.00  0.00    -0.167 F 
ENDBRANCH  22  23
ENDBRANCH   7   9
ENDBRANCH   6   7
ENDBRANCH   5   6
ENDBRANCH   4   5
ENDBRANCH   3   4
ENDBRANCH   2   3
ENDBRANCH   1   2
BRANCH   1  27
ATOM     27  O   UNL A   1      38.236  21.791  26.072  1.00  0.00    -0.376 OA
BRANCH  27  28
ATOM     28  C   UNL A   1      39.640  22.025  26.106  1.00  0.00     0.202 C 
BRANCH  28  29
ATOM     29  C   UNL A   1      40.170  23.250  26.863  1.00  0.00     0.261 C 
BRANCH  29  30
ATOM     30  O   UNL A   1      39.618  24.493  26.395  1.00  0.00    -0.460 OA
BRANCH  30  31
ATOM     31  C   UNL A   1      40.509  25.505  26.246  1.00  0.00     0.338 C 
ATOM     32  O   UNL A   1      41.058  25.861  25.217  1.00  0.00    -0.246 OA
BRANCH  31  33
ATOM     33  C   UNL A   1      40.572  26.285  27.497  1.00  0.00     0.060 A 
ATOM     34  C   UNL A   1      39.553  26.095  28.440  1.00  0.00     0.016 A 
ATOM     35  C   UNL A   1      41.590  27.212  27.728  1.00  0.00     0.016 A 
ATOM     36  C   UNL A   1      39.543  26.842  29.615  1.00  0.00     0.010 A 
ATOM     37  C   UNL A   1      41.559  27.986  28.894  1.00  0.00     0.010 A 
ATOM     38  C   UNL A   1      40.523  27.820  29.830  1.00  0.00    -0.014 A 
BRANCH  38  39
ATOM     39  C   UNL A   1      40.327  28.795  30.929  1.00  0.00     0.031 A 
ATOM     40  C   UNL A   1      41.221  28.693  32.135  1.00  0.00     0.074 A 
ATOM     41  C   UNL A   1      39.428  29.791  30.834  1.00  0.00     0.049 A 
ATOM     42  N   UNL A   1      41.278  29.466  33.188  1.00  0.00    -0.248 NA
ATOM     43  C   UNL A   1      42.189  27.584  32.145  1.00  0.00     0.031 C 
ATOM     44  C   UNL A   1      38.547  30.034  29.693  1.00  0.00     0.029 A 
ATOM     45  N   UNL A   1      39.119  30.795  31.718  1.00  0.00    -0.354 N 
ATOM     46  C   UNL A   1      42.300  28.950  33.975  1.00  0.00     0.074 A 
ATOM     47  C   UNL A   1      42.812  27.778  33.297  1.00  0.00     0.031 C 
ATOM     48  C   UNL A   1      37.797  31.123  29.947  1.00  0.00     0.029 A 
ATOM     49  C   UNL A   1      38.127  31.638  31.276  1.00  0.00     0.049 A 
ATOM     50  H   UNL A   1      39.567  30.902  32.589  1.00  0.00     0.167 HD
ATOM     51  C   UNL A   1      42.782  29.414  35.151  1.00  0.00     0.031 A 
ATOM     52  C   UNL A   1      37.545  32.694  31.881  1.00  0.00     0.031 A 
ATOM     53  C   UNL A   1      42.250  30.552  35.847  1.00  0.00     0.049 A 
ATOM     54  C   UNL A   1      38.001  33.104  33.259  1.00  0.00     0.074 A 
ATOM     55  C   UNL A   1      42.666  31.091  37.052  1.00  0.00     0.029 A 
ATOM     56  N   UNL A   1      41.177  31.312  35.414  1.00  0.00    -0.354 N 
ATOM     57  N   UNL A   1      38.989  32.625  33.977  1.00  0.00    -0.248 NA
ATOM     58  C   UNL A   1      37.258  34.193  33.912  1.00  0.00     0.031 C 
ATOM     59  C   UNL A   1      41.804  32.143  37.375  1.00  0.00     0.029 A 
ATOM     60  C   UNL A   1      40.886  32.292  36.346  1.00  0.00     0.049 A 
ATOM     61  H   UNL A   1      40.693  31.175  34.567  1.00  0.00     0.167 HD
ATOM     62  C   UNL A   1      38.992  33.360  35.158  1.00  0.00     0.074 A 
ATOM     63  C   UNL A   1      37.920  34.328  35.054  1.00  0.00     0.031 C 
ATOM     64  C   UNL A   1      39.810  33.242  36.234  1.00  0.00     0.031 A 
BRANCH  51  65
ATOM     65  C   UNL A   1      43.929  28.666  35.768  1.00  0.00    -0.014 A 
ATOM     66  C   UNL A   1      45.258  29.005  35.456  1.00  0.00     0.010 A 
ATOM     67  C   UNL A   1      43.679  27.634  36.689  1.00  0.00     0.010 A 
ATOM     68  C   UNL A   1      46.318  28.302  36.032  1.00  0.00     0.020 A 
ATOM     69  C   UNL A   1      44.738  26.943  37.284  1.00  0.00     0.020 A 
ATOM     70  C   UNL A   1      46.051  27.273  36.940  1.00  0.00     0.054 A 
BRANCH  70  71
ATOM     71  S   UNL A   1      47.449  26.388  37.684  1.00  0.00     0.124 S 
ATOM     72  O   UNL A   1      47.723  27.199  38.867  1.00  0.00    -0.237 OA
ATOM     73  O   UNL A   1      46.886  25.066  37.944  1.00  0.00    -0.237 OA
ATOM     74  O   UNL A   1      48.478  26.433  36.647  1.00  0.00    -0.744 OA
ENDBRANCH  70  71
ENDBRANCH  51  65
BRANCH  52  75
ATOM     75  C   UNL A   1      36.447  33.433  31.200  1.00  0.00    -0.014 A 
ATOM     76  C   UNL A   1      36.583  33.845  29.863  1.00  0.00     0.010 A 
ATOM     77  C   UNL A   1      35.261  33.739  31.892  1.00  0.00     0.010 A 
ATOM     78  C   UNL A   1      35.557  34.555  29.233  1.00  0.00     0.020 A 
ATOM     79  C   UNL A   1      34.223  34.431  31.259  1.00  0.00     0.020 A 
ATOM     80  C   UNL A   1      34.382  34.841  29.934  1.00  0.00     0.054 A 
BRANCH  80  81
ATOM     81  S   UNL A   1      33.046  35.722  29.078  1.00  0.00     0.124 S 
ATOM     82  O   UNL A   1      32.463  34.667  28.257  1.00  0.00    -0.237 OA
ATOM     83  O   UNL A   1      32.220  36.191  30.188  1.00  0.00    -0.237 OA
ATOM     84  O   UNL A   1      33.746  36.774  28.345  1.00  0.00    -0.744 OA
ENDBRANCH  80  81
ENDBRANCH  52  75
BRANCH  64  85
ATOM     85  C   UNL A   1      39.586  34.167  37.401  1.00  0.00    -0.014 A 
ATOM     86  C   UNL A   1      38.911  33.718  38.549  1.00  0.00     0.010 A 
ATOM     87  C   UNL A   1      40.163  35.451  37.400  1.00  0.00     0.010 A 
ATOM     88  C   UNL A   1      38.821  34.536  39.679  1.00  0.00     0.020 A 
ATOM     89  C   UNL A   1      40.095  36.261  38.536  1.00  0.00     0.020 A 
ATOM     90  C   UNL A   1      39.423  35.798  39.669  1.00  0.00     0.054 A 
BRANCH  90  91
ATOM     91  S   UNL A   1      39.375  36.795  41.185  1.00  0.00     0.124 S 
ATOM     92  O   UNL A   1      40.782  36.827  41.573  1.00  0.00    -0.237 OA
ATOM     93  O   UNL A   1      38.823  38.063  40.715  1.00  0.00    -0.237 OA
ATOM     94  O   UNL A   1      38.501  36.034  42.075  1.00  0.00    -0.744 OA
ENDBRANCH  90  91
ENDBRANCH  64  85
ENDBRANCH  38  39
ENDBRANCH  31  33
ENDBRANCH  30  31
ENDBRANCH  29  30
ENDBRANCH  28  29
ENDBRANCH  27  28
ENDBRANCH   1  27
TORSDOF 21
ENDMDL
MODEL 2
REMARK VINA RESULT:      -9.9      2.598      9.439
REMARK SMILES Cc1c(Br)c(C)c2c(c1Br)O[C@H](C(F)(F)F)C(C(=O)OCCOCCOCCOC(=O)c1ccc(-c3c4nc(c(-c5ccc(S(=O)(=O)[O-])cc5)c5ccc([nH]5)c(-c5ccc(S(=O)(=O)[O-])cc5)c5nc(c(-c6ccc(S(=O)(=O)[O-])cc6)c6ccc3[nH]6)C=C5)C=C4)cc1)=C2
REMARK SMILES IDX 25 1 24 2 23 3 22 4 21 5 20 6 18 7 19 8 17 9 1 10 2 11 3 12
REMARK SMILES IDX 9 13 4 14 5 15 8 16 10 17 6 18 7 19 11 20 92 21 12 22 13 23
REMARK SMILES IDX 14 24 15 25 16 26 26 27 27 28 28 29 29 30 30 31 31 32 32 33
REMARK SMILES IDX 33 34 91 35 34 36 90 37 35 38 36 39 37 40 84 41 38 42 89 43
REMARK SMILES IDX 83 44 85 45 39 46 88 47 82 48 81 49 40 51 70 52 51 53 69 54
REMARK SMILES IDX 52 55 55 56 68 57 86 58 53 59 54 60 67 62 87 63 56 64 41 65
REMARK SMILES IDX 42 66 50 67 43 68 49 69 44 70 45 71 46 72 47 73 48 74 71 75
REMARK SMILES IDX 72 76 80 77 73 78 79 79 74 80 75 81 76 82 77 83 78 84 57 85
REMARK SMILES IDX 58 86 66 87 59 88 65 89 60 90 61 91 62 92 63 93 64 94
REMARK H PARENT 85 50 55 61
REMARK Flexibility Score: inf
ROOT
ATOM      1  C   UNL A   1      34.870  34.646  28.377  1.00  0.00     0.188 C 
ENDROOT
BRANCH   1   2
ATOM      2  C   UNL A   1      34.551  33.186  28.762  1.00  0.00     0.188 C 
BRANCH   2   3
ATOM      3  O   UNL A   1      35.023  32.181  27.899  1.00  0.00    -0.376 OA
BRANCH   3   4
ATOM      4  C   UNL A   1      34.577  30.841  27.973  1.00  0.00     0.202 C 
BRANCH   4   5
ATOM      5  C   UNL A   1      33.667  30.124  26.961  1.00  0.00     0.261 C 
BRANCH   5   6
ATOM      6  O   UNL A   1      33.679  28.698  26.955  1.00  0.00    -0.460 OA
BRANCH   6   7
ATOM      7  C   UNL A   1      33.668  28.124  25.729  1.00  0.00     0.338 C 
ATOM      8  O   UNL A   1      33.978  28.648  24.673  1.00  0.00    -0.246 OA
BRANCH   7   9
ATOM      9  C   UNL A   1      33.318  26.699  25.870  1.00  0.00     0.087 C 
ATOM     10  C   UNL A   1      32.844  20.207  25.400  1.00  0.00     0.047 C 
ATOM     11  C   UNL A   1      33.244  21.649  25.611  1.00  0.00    -0.019 A 
ATOM     12  C   UNL A   1      34.600  22.042  25.463  1.00  0.00     0.025 A 
ATOM     13  C   UNL A   1      32.292  22.649  25.891  1.00  0.00     0.064 A 
ATOM     14  Br  UNL A   1      35.905  20.701  25.028  1.00  0.00    -0.050 Br
ATOM     15  C   UNL A   1      34.999  23.397  25.584  1.00  0.00    -0.026 A 
ATOM     16  C   UNL A   1      32.667  24.003  25.979  1.00  0.00     0.142 A 
ATOM     17  Br  UNL A   1      30.434  22.223  26.108  1.00  0.00    -0.046 Br
ATOM     18  C   UNL A   1      36.449  23.824  25.485  1.00  0.00     0.046 C 
ATOM     19  C   UNL A   1      34.003  24.384  25.786  1.00  0.00     0.022 A 
ATOM     20  O   UNL A   1      31.671  24.899  26.270  1.00  0.00    -0.474 OA
ATOM     21  C   UNL A   1      34.313  25.813  25.735  1.00  0.00     0.027 C 
ATOM     22  C   UNL A   1      31.898  26.320  26.152  1.00  0.00     0.316 C 
BRANCH  22  23
ATOM     23  C   UNL A   1      30.913  26.889  25.119  1.00  0.00     0.430 C 
ATOM     24  F   UNL A   1      29.699  26.294  25.221  1.00  0.00    -0.167 F 
ATOM     25  F   UNL A   1      30.706  28.215  25.299  1.00  0.00    -0.167 F 
ATOM     26  F   UNL A   1      31.346  26.714  23.852  1.00  0.00    -0.167 F 
ENDBRANCH  22  23
ENDBRANCH   7   9
ENDBRANCH   6   7
ENDBRANCH   5   6
ENDBRANCH   4   5
ENDBRANCH   3   4
ENDBRANCH   2   3
ENDBRANCH   1   2
BRANCH   1  27
ATOM     27  O   UNL A   1      33.815  35.533  28.037  1.00  0.00    -0.376 OA
BRANCH  27  28
ATOM     28  C   UNL A   1      33.599  36.677  28.857  1.00  0.00     0.202 C 
BRANCH  28  29
ATOM     29  C   UNL A   1      32.690  36.548  30.086  1.00  0.00     0.261 C 
BRANCH  29  30
ATOM     30  O   UNL A   1      33.414  36.502  31.328  1.00  0.00    -0.460 OA
BRANCH  30  31
ATOM     31  C   UNL A   1      33.131  35.443  32.127  1.00  0.00     0.338 C 
ATOM     32  O   UNL A   1      32.028  35.042  32.460  1.00  0.00    -0.246 OA
BRANCH  31  33
ATOM     33  C   UNL A   1      34.369  34.683  32.384  1.00  0.00     0.060 A 
ATOM     34  C   UNL A   1      34.267  33.492  33.115  1.00  0.00     0.016 A 
ATOM     35  C   UNL A   1      35.612  35.145  31.948  1.00  0.00     0.016 A 
ATOM     36  C   UNL A   1      35.413  32.763  33.424  1.00  0.00     0.010 A 
ATOM     37  C   UNL A   1      36.766  34.429  32.288  1.00  0.00     0.010 A 
ATOM     38  C   UNL A   1      36.672  33.249  33.047  1.00  0.00    -0.014 A 
BRANCH  38  39
ATOM     39  C   UNL A   1      37.881  32.624  33.634  1.00  0.00     0.031 A 
ATOM     40  C   UNL A   1      38.541  31.506  32.875  1.00  0.00     0.074 A 
ATOM     41  C   UNL A   1      38.425  33.080  34.778  1.00  0.00     0.049 A 
ATOM     42  N   UNL A   1      39.636  30.850  33.156  1.00  0.00    -0.248 NA
ATOM     43  C   UNL A   1      37.888  31.085  31.624  1.00  0.00     0.031 C 
ATOM     44  C   UNL A   1      37.916  34.195  35.574  1.00  0.00     0.029 A 
ATOM     45  N   UNL A   1      39.539  32.659  35.459  1.00  0.00    -0.354 N 
ATOM     46  C   UNL A   1      39.816  29.955  32.109  1.00  0.00     0.074 A 
ATOM     47  C   UNL A   1      38.699  30.125  31.204  1.00  0.00     0.031 C 
ATOM     48  C   UNL A   1      38.722  34.373  36.638  1.00  0.00     0.029 A 
ATOM     49  C   UNL A   1      39.787  33.369  36.610  1.00  0.00     0.049 A 
ATOM     50  H   UNL A   1      40.111  31.918  35.153  1.00  0.00     0.167 HD
ATOM     51  C   UNL A   1      40.825  29.076  31.908  1.00  0.00     0.031 A 
ATOM     52  C   UNL A   1      40.753  33.217  37.539  1.00  0.00     0.031 A 
ATOM     53  C   UNL A   1      41.913  28.875  32.822  1.00  0.00     0.049 A 
ATOM     54  C   UNL A   1      41.785  32.132  37.366  1.00  0.00     0.074 A 
ATOM     55  C   UNL A   1      42.978  27.998  32.709  1.00  0.00     0.029 A 
ATOM     56  N   UNL A   1      42.067  29.541  34.027  1.00  0.00    -0.354 N 
ATOM     57  N   UNL A   1      41.959  31.314  36.355  1.00  0.00    -0.248 NA
ATOM     58  C   UNL A   1      42.748  31.945  38.462  1.00  0.00     0.031 C 
ATOM     59  C   UNL A   1      43.743  28.094  33.875  1.00  0.00     0.029 A 
ATOM     60  C   UNL A   1      43.185  29.068  34.688  1.00  0.00     0.049 A 
ATOM     61  H   UNL A   1      41.468  30.248  34.362  1.00  0.00     0.167 HD
ATOM     62  C   UNL A   1      43.055  30.524  36.690  1.00  0.00     0.074 A 
ATOM     63  C   UNL A   1      43.516  30.972  37.987  1.00  0.00     0.031 C 
ATOM     64  C   UNL A   1      43.626  29.517  35.984  1.00  0.00     0.031 A 
BRANCH  51  65
ATOM     65  C   UNL A   1      40.777  28.248  30.655  1.00  0.00    -0.014 A 
ATOM     66  C   UNL A   1      39.673  27.421  30.383  1.00  0.00     0.010 A 
ATOM     67  C   UNL A   1      41.831  28.318  29.728  1.00  0.00     0.010 A 
ATOM     68  C   UNL A   1      39.638  26.653  29.218  1.00  0.00     0.020 A 
ATOM     69  C   UNL A   1      41.789  27.568  28.550  1.00  0.00     0.020 A 
ATOM     70  C   UNL A   1      40.698  26.729  28.310  1.00  0.00     0.054 A 
BRANCH  70  71
ATOM     71  S   UNL A   1      40.617  25.730  26.798  1.00  0.00     0.124 S 
ATOM     72  O   UNL A   1      39.287  25.138  26.900  1.00  0.00    -0.237 OA
ATOM     73  O   UNL A   1      40.781  26.731  25.747  1.00  0.00    -0.237 OA
ATOM     74  O   UNL A   1      41.729  24.793  26.941  1.00  0.00    -0.744 OA
ENDBRANCH  70  71
ENDBRANCH  51  65
BRANCH  52  75
ATOM     75  C   UNL A   1      40.783  34.102  38.736  1.00  0.00    -0.014 A 
ATOM     76  C   UNL A   1      40.092  33.747  39.907  1.00  0.00     0.010 A 
ATOM     77  C   UNL A   1      41.497  35.315  38.705  1.00  0.00     0.010 A 
ATOM     78  C   UNL A   1      40.108  34.590  41.022  1.00  0.00     0.020 A 
ATOM     79  C   UNL A   1      41.533  36.151  39.826  1.00  0.00     0.020 A 
ATOM     80  C   UNL A   1      40.831  35.785  40.975  1.00  0.00     0.054 A 
BRANCH  80  81
ATOM     81  S   UNL A   1      40.875  36.839  42.453  1.00  0.00     0.124 S 
ATOM     82  O   UNL A   1      39.477  36.837  42.870  1.00  0.00    -0.237 OA
ATOM     83  O   UNL A   1      41.798  36.116  43.325  1.00  0.00    -0.237 OA
ATOM     84  O   UNL A   1      41.377  38.115  41.948  1.00  0.00    -0.744 OA
ENDBRANCH  80  81
ENDBRANCH  52  75
BRANCH  64  85
ATOM     85  C   UNL A   1      44.809  28.808  36.590  1.00  0.00    -0.014 A 
ATOM     86  C   UNL A   1      46.103  29.344  36.467  1.00  0.00     0.010 A 
ATOM     87  C   UNL A   1      44.610  27.669  37.392  1.00  0.00     0.010 A 
ATOM     88  C   UNL A   1      47.177  28.756  37.141  1.00  0.00     0.020 A 
ATOM     89  C   UNL A   1      45.678  27.093  38.085  1.00  0.00     0.020 A 
ATOM     90  C   UNL A   1      46.956  27.641  37.954  1.00  0.00     0.054 A 
BRANCH  90  91
ATOM     91  S   UNL A   1      48.352  26.960  38.894  1.00  0.00     0.124 S 
ATOM     92  O   UNL A   1      49.037  28.170  39.340  1.00  0.00    -0.237 OA
ATOM     93  O   UNL A   1      47.685  26.192  39.943  1.00  0.00    -0.237 OA
ATOM     94  O   UNL A   1      49.077  26.161  37.910  1.00  0.00    -0.744 OA
ENDBRANCH  90  91
ENDBRANCH  64  85
ENDBRANCH  38  39
ENDBRANCH  31  33
ENDBRANCH  30  31
ENDBRANCH  29  30
ENDBRANCH  28  29
ENDBRANCH  27  28
ENDBRANCH   1  27
TORSDOF 21
ENDMDL
MODEL 3
REMARK VINA RESULT:      -9.4      8.096     14.909
REMARK SMILES Cc1c(Br)c(C)c2c(c1Br)O[C@H](C(F)(F)F)C(C(=O)OCCOCCOCCOC(=O)c1ccc(-c3c4nc(c(-c5ccc(S(=O)(=O)[O-])cc5)c5ccc([nH]5)c(-c5ccc(S(=O)(=O)[O-])cc5)c5nc(c(-c6ccc(S(=O)(=O)[O-])cc6)c6ccc3[nH]6)C=C5)C=C4)cc1)=C2
REMARK SMILES IDX 25 1 24 2 23 3 22 4 21 5 20 6 18 7 19 8 17 9 1 10 2 11 3 12
REMARK SMILES IDX 9 13 4 14 5 15 8 16 10 17 6 18 7 19 11 20 92 21 12 22 13 23
REMARK SMILES IDX 14 24 15 25 16 26 26 27 27 28 28 29 29 30 30 31 31 32 32 33
REMARK SMILES IDX 33 34 91 35 34 36 90 37 35 38 36 39 37 40 84 41 38 42 89 43
REMARK SMILES IDX 83 44 85 45 39 46 88 47 82 48 81 49 40 51 70 52 51 53 69 54
REMARK SMILES IDX 52 55 55 56 68 57 86 58 53 59 54 60 67 62 87 63 56 64 41 65
REMARK SMILES IDX 42 66 50 67 43 68 49 69 44 70 45 71 46 72 47 73 48 74 71 75
REMARK SMILES IDX 72 76 80 77 73 78 79 79 74 80 75 81 76 82 77 83 78 84 57 85
REMARK SMILES IDX 58 86 66 87 59 88 65 89 60 90 61 91 62 92 63 93 64 94
REMARK H PARENT 85 50 55 61
REMARK Flexibility Score: inf
ROOT
ATOM      1  C   UNL A   1      49.445  22.183  39.523  1.00  0.00     0.188 C 
ENDROOT
BRANCH   1   2
ATOM      2  C   UNL A   1      49.451  20.669  39.825  1.00  0.00     0.188 C 
BRANCH   2   3
ATOM      3  O   UNL A   1      49.269  20.286  41.165  1.00  0.00    -0.376 OA
BRANCH   3   4
ATOM      4  C   UNL A   1      48.623  19.083  41.533  1.00  0.00     0.202 C 
BRANCH   4   5
ATOM      5  C   UNL A   1      47.575  18.319  40.705  1.00  0.00     0.261 C 
BRANCH   5   6
ATOM      6  O   UNL A   1      46.632  17.516  41.411  1.00  0.00    -0.460 OA
BRANCH   6   7
ATOM      7  C   UNL A   1      45.346  17.933  41.340  1.00  0.00     0.338 C 
ATOM      8  O   UNL A   1      44.953  19.040  41.011  1.00  0.00    -0.246 OA
BRANCH   7   9
ATOM      9  C   UNL A   1      44.454  16.793  41.623  1.00  0.00     0.087 C 
ATOM     10  C   UNL A   1      41.777  11.153  43.522  1.00  0.00     0.047 C 
ATOM     11  C   UNL A   1      42.430  12.510  43.391  1.00  0.00    -0.019 A 
ATOM     12  C   UNL A   1      43.358  12.953  44.368  1.00  0.00     0.025 A 
ATOM     13  C   UNL A   1      42.196  13.340  42.276  1.00  0.00     0.064 A 
ATOM     14  Br  UNL A   1      43.732  11.811  45.868  1.00  0.00    -0.050 Br
ATOM     15  C   UNL A   1      44.042  14.188  44.240  1.00  0.00    -0.026 A 
ATOM     16  C   UNL A   1      42.894  14.552  42.116  1.00  0.00     0.142 A 
ATOM     17  Br  UNL A   1      40.962  12.833  40.897  1.00  0.00    -0.046 Br
ATOM     18  C   UNL A   1      44.993  14.701  45.303  1.00  0.00     0.046 C 
ATOM     19  C   UNL A   1      43.841  14.957  43.067  1.00  0.00     0.022 A 
ATOM     20  O   UNL A   1      42.585  15.297  41.007  1.00  0.00    -0.474 OA
ATOM     21  C   UNL A   1      44.647  16.145  42.777  1.00  0.00     0.027 C 
ATOM     22  C   UNL A   1      43.399  16.428  40.626  1.00  0.00     0.316 C 
BRANCH  22  23
ATOM     23  C   UNL A   1      43.968  16.170  39.223  1.00  0.00     0.430 C 
ATOM     24  F   UNL A   1      43.211  15.273  38.544  1.00  0.00    -0.167 F 
ATOM     25  F   UNL A   1      43.988  17.298  38.473  1.00  0.00    -0.167 F 
ATOM     26  F   UNL A   1      45.230  15.689  39.264  1.00  0.00    -0.167 F 
ENDBRANCH  22  23
ENDBRANCH   7   9
ENDBRANCH   6   7
ENDBRANCH   5   6
ENDBRANCH   4   5
ENDBRANCH   3   4
ENDBRANCH   2   3
ENDBRANCH   1   2
BRANCH   1  27
ATOM     27  O   UNL A   1      48.633  22.690  38.474  1.00  0.00    -0.376 OA
BRANCH  27  28
ATOM     28  C   UNL A   1      49.013  23.914  37.853  1.00  0.00     0.202 C 
BRANCH  28  29
ATOM     29  C   UNL A   1      48.352  25.218  38.318  1.00  0.00     0.261 C 
BRANCH  29  30
ATOM     30  O   UNL A   1      48.767  26.369  37.561  1.00  0.00    -0.460 OA
BRANCH  30  31
ATOM     31  C   UNL A   1      48.245  27.553  37.970  1.00  0.00     0.338 C 
ATOM     32  O   UNL A   1      48.719  28.328  38.783  1.00  0.00    -0.246 OA
BRANCH  31  33
ATOM     33  C   UNL A   1      47.090  27.894  37.118  1.00  0.00     0.060 A 
ATOM     34  C   UNL A   1      47.224  28.976  36.236  1.00  0.00     0.016 A 
ATOM     35  C   UNL A   1      45.887  27.193  37.205  1.00  0.00     0.016 A 
ATOM     36  C   UNL A   1      46.146  29.367  35.446  1.00  0.00     0.010 A 
ATOM     37  C   UNL A   1      44.795  27.609  36.433  1.00  0.00     0.010 A 
ATOM     38  C   UNL A   1      44.914  28.711  35.569  1.00  0.00    -0.014 A 
BRANCH  38  39
ATOM     39  C   UNL A   1      43.716  29.324  34.948  1.00  0.00     0.031 A 
ATOM     40  C   UNL A   1      43.343  28.897  33.554  1.00  0.00     0.074 A 
ATOM     41  C   UNL A   1      42.935  30.186  35.624  1.00  0.00     0.049 A 
ATOM     42  N   UNL A   1      42.312  29.246  32.832  1.00  0.00    -0.248 NA
ATOM     43  C   UNL A   1      44.245  27.936  32.897  1.00  0.00     0.031 C 
ATOM     44  C   UNL A   1      43.154  30.631  36.999  1.00  0.00     0.029 A 
ATOM     45  N   UNL A   1      41.787  30.831  35.239  1.00  0.00    -0.354 N 
ATOM     46  C   UNL A   1      42.427  28.532  31.645  1.00  0.00     0.074 A 
ATOM     47  C   UNL A   1      43.647  27.759  31.729  1.00  0.00     0.031 C 
ATOM     48  C   UNL A   1      42.166  31.477  37.345  1.00  0.00     0.029 A 
ATOM     49  C   UNL A   1      41.260  31.652  36.209  1.00  0.00     0.049 A 
ATOM     50  H   UNL A   1      41.376  30.718  34.351  1.00  0.00     0.167 HD
ATOM     51  C   UNL A   1      41.589  28.510  30.583  1.00  0.00     0.031 A 
ATOM     52  C   UNL A   1      40.181  32.460  36.176  1.00  0.00     0.031 A 
ATOM     53  C   UNL A   1      40.399  29.307  30.479  1.00  0.00     0.049 A 
ATOM     54  C   UNL A   1      39.342  32.529  34.924  1.00  0.00     0.074 A 
ATOM     55  C   UNL A   1      39.492  29.360  29.435  1.00  0.00     0.029 A 
ATOM     56  N   UNL A   1      39.962  30.203  31.440  1.00  0.00    -0.354 N 
ATOM     57  N   UNL A   1      39.447  31.826  33.822  1.00  0.00    -0.248 NA
ATOM     58  C   UNL A   1      38.243  33.507  34.911  1.00  0.00     0.031 C 
ATOM     59  C   UNL A   1      38.537  30.334  29.742  1.00  0.00     0.029 A 
ATOM     60  C   UNL A   1      38.820  30.847  30.999  1.00  0.00     0.049 A 
ATOM     61  H   UNL A   1      40.399  30.358  32.309  1.00  0.00     0.167 HD
ATOM     62  C   UNL A   1      38.423  32.268  32.990  1.00  0.00     0.074 A 
ATOM     63  C   UNL A   1      37.698  33.287  33.720  1.00  0.00     0.031 C 
ATOM     64  C   UNL A   1      38.114  31.866  31.732  1.00  0.00     0.031 A 
BRANCH  51  65
ATOM     65  C   UNL A   1      41.953  27.609  29.438  1.00  0.00    -0.014 A 
ATOM     66  C   UNL A   1      41.434  26.304  29.358  1.00  0.00     0.010 A 
ATOM     67  C   UNL A   1      42.798  28.078  28.418  1.00  0.00     0.010 A 
ATOM     68  C   UNL A   1      41.781  25.473  28.292  1.00  0.00     0.020 A 
ATOM     69  C   UNL A   1      43.129  27.257  27.337  1.00  0.00     0.020 A 
ATOM     70  C   UNL A   1      42.629  25.954  27.289  1.00  0.00     0.054 A 
BRANCH  70  71
ATOM     71  S   UNL A   1      43.048  24.855  25.908  1.00  0.00     0.124 S 
ATOM     72  O   UNL A   1      42.718  25.684  24.753  1.00  0.00    -0.237 OA
ATOM     73  O   UNL A   1      44.472  24.609  26.118  1.00  0.00    -0.237 OA
ATOM     74  O   UNL A   1      42.181  23.697  26.110  1.00  0.00    -0.744 OA
ENDBRANCH  70  71
ENDBRANCH  51  65
BRANCH  52  75
ATOM     75  C   UNL A   1      39.836  33.293  37.361  1.00  0.00    -0.014 A 
ATOM     76  C   UNL A   1      40.548  34.473  37.640  1.00  0.00     0.010 A 
ATOM     77  C   UNL A   1      38.797  32.901  38.226  1.00  0.00     0.010 A 
ATOM     78  C   UNL A   1      40.234  35.241  38.765  1.00  0.00     0.020 A 
ATOM     79  C   UNL A   1      38.465  33.679  39.341  1.00  0.00     0.020 A 
ATOM     80  C   UNL A   1      39.191  34.841  39.606  1.00  0.00     0.054 A 
BRANCH  80  81
ATOM     81  S   UNL A   1      38.771  35.882  41.033  1.00  0.00     0.124 S 
ATOM     82  O   UNL A   1      37.354  35.590  41.216  1.00  0.00    -0.237 OA
ATOM     83  O   UNL A   1      39.664  35.367  42.068  1.00  0.00    -0.237 OA
ATOM     84  O   UNL A   1      39.079  37.233  40.571  1.00  0.00    -0.744 OA
ENDBRANCH  80  81
ENDBRANCH  52  75
BRANCH  64  85
ATOM     85  C   UNL A   1      36.949  32.526  31.043  1.00  0.00    -0.014 A 
ATOM     86  C   UNL A   1      35.631  32.245  31.441  1.00  0.00     0.010 A 
ATOM     87  C   UNL A   1      37.178  33.526  30.079  1.00  0.00     0.010 A 
ATOM     88  C   UNL A   1      34.561  32.956  30.890  1.00  0.00     0.020 A 
ATOM     89  C   UNL A   1      36.113  34.255  29.544  1.00  0.00     0.020 A 
ATOM     90  C   UNL A   1      34.810  33.964  29.953  1.00  0.00     0.054 A 
BRANCH  90  91
ATOM     91  S   UNL A   1      33.409  34.937  29.331  1.00  0.00     0.124 S 
ATOM     92  O   UNL A   1      32.832  34.038  28.335  1.00  0.00    -0.237 OA
ATOM     93  O   UNL A   1      32.606  35.143  30.533  1.00  0.00    -0.237 OA
ATOM     94  O   UNL A   1      34.035  36.143  28.793  1.00  0.00    -0.744 OA
ENDBRANCH  90  91
ENDBRANCH  64  85
ENDBRANCH  38  39
ENDBRANCH  31  33
ENDBRANCH  30  31
ENDBRANCH  29  30
ENDBRANCH  28  29
ENDBRANCH  27  28
ENDBRANCH   1  27
TORSDOF 21
ENDMDL
