MODEL 1
REMARK VINA RESULT:     -10.7      0.000      0.000
REMARK SMILES CC1(C)S[C@@H](c2cccc3c2sc2ccccc23)[NH2+][C@@H]1C(=O)OCCOCCOCCOC(=O)c1ccc(-c2c3nc(c(-c4ccc(S(=O)(=O)[O-])cc4)c4ccc([nH]4)c(-c4ccc(S(=O)(=O)[O-])cc4)c4nc(c(-c5ccc(S(=O)(=O)[O-])cc5)c5ccc2[nH]5)C=C4)C=C3)cc1
REMARK SMILES IDX 28 1 27 2 26 3 25 4 24 5 23 6 21 7 22 8 20 9 1 10 2 11 3 12
REMARK SMILES IDX 4 13 5 14 19 15 6 18 7 19 11 20 8 21 10 22 12 23 9 24 18 25
REMARK SMILES IDX 13 26 17 27 14 28 16 29 15 30 29 31 30 32 31 33 32 34 33 35
REMARK SMILES IDX 34 36 35 37 36 38 94 39 37 40 93 41 38 42 39 43 40 44 87 45
REMARK SMILES IDX 41 46 92 47 86 48 88 49 42 50 91 51 85 52 84 53 43 55 73 56
REMARK SMILES IDX 54 57 72 58 55 59 58 60 71 61 89 62 56 63 57 64 70 66 90 67
REMARK SMILES IDX 59 68 44 69 45 70 53 71 46 72 52 73 47 74 48 75 49 76 50 77
REMARK SMILES IDX 51 78 74 79 75 80 83 81 76 82 82 83 77 84 78 85 79 86 80 87
REMARK SMILES IDX 81 88 60 89 61 90 69 91 62 92 68 93 63 94 64 95 65 96 66 97
REMARK SMILES IDX 67 98
REMARK H PARENT 19 16 19 17 88 54 58 65
REMARK Flexibility Score: inf
ROOT
ATOM      1  C   UNL A   1      34.432  30.829  28.044  1.00  0.00     0.188 C 
ENDROOT
BRANCH   1   2
ATOM      2  C   UNL A   1      33.380  30.618  26.934  1.00  0.00     0.188 C 
BRANCH   2   3
ATOM      3  O   UNL A   1      33.713  29.603  25.995  1.00  0.00    -0.376 OA
BRANCH   3   4
ATOM      4  C   UNL A   1      32.627  29.007  25.297  1.00  0.00     0.202 C 
BRANCH   4   5
ATOM      5  C   UNL A   1      31.570  28.413  26.229  1.00  0.00     0.261 C 
BRANCH   5   6
ATOM      6  O   UNL A   1      30.967  27.230  25.685  1.00  0.00    -0.459 OA
BRANCH   6   7
ATOM      7  C   UNL A   1      31.662  26.062  25.811  1.00  0.00     0.366 C 
ATOM      8  O   UNL A   1      31.410  25.203  26.644  1.00  0.00    -0.245 OA
BRANCH   7   9
ATOM      9  C   UNL A   1      32.773  26.028  24.735  1.00  0.00     0.310 C 
ATOM     10  C   UNL A   1      33.473  26.124  22.297  1.00  0.00     0.030 C 
ATOM     11  C   UNL A   1      32.373  25.676  23.285  1.00  0.00     0.079 C 
ATOM     12  C   UNL A   1      31.046  26.270  22.815  1.00  0.00     0.030 C 
ATOM     13  S   UNL A   1      32.370  23.851  23.293  1.00  0.00    -0.081 SA
ATOM     14  C   UNL A   1      33.261  23.736  24.877  1.00  0.00     0.276 C 
ATOM     15  N   UNL A   1      33.815  25.062  25.173  1.00  0.00    -0.319 N 
ATOM     16  H   UNL A   1      34.682  25.212  24.656  1.00  0.00     0.348 HD
ATOM     17  H   UNL A   1      34.041  25.169  26.162  1.00  0.00     0.348 HD
BRANCH  14  18
ATOM     18  C   UNL A   1      34.342  22.680  24.937  1.00  0.00     0.038 A 
ATOM     19  C   UNL A   1      35.694  23.028  25.152  1.00  0.00     0.012 A 
ATOM     20  C   UNL A   1      34.044  21.289  24.847  1.00  0.00     0.046 A 
ATOM     21  C   UNL A   1      36.696  22.072  25.202  1.00  0.00     0.001 A 
ATOM     22  C   UNL A   1      35.038  20.308  24.862  1.00  0.00     0.001 A 
ATOM     23  S   UNL A   1      32.484  20.563  24.727  1.00  0.00    -0.135 S 
ATOM     24  C   UNL A   1      36.382  20.726  25.039  1.00  0.00     0.010 A 
ATOM     25  C   UNL A   1      34.499  18.974  24.662  1.00  0.00     0.000 A 
ATOM     26  C   UNL A   1      33.107  18.979  24.598  1.00  0.00     0.036 A 
ATOM     27  C   UNL A   1      35.158  17.723  24.529  1.00  0.00     0.010 A 
ATOM     28  C   UNL A   1      32.363  17.793  24.437  1.00  0.00     0.019 A 
ATOM     29  C   UNL A   1      34.427  16.546  24.341  1.00  0.00     0.001 A 
ATOM     30  C   UNL A   1      33.042  16.582  24.305  1.00  0.00     0.002 A 
ENDBRANCH  14  18
ENDBRANCH   7   9
ENDBRANCH   6   7
ENDBRANCH   5   6
ENDBRANCH   4   5
ENDBRANCH   3   4
ENDBRANCH   2   3
ENDBRANCH   1   2
BRANCH   1  31
ATOM     31  O   UNL A   1      34.296  31.901  28.968  1.00  0.00    -0.376 OA
BRANCH  31  32
ATOM     32  C   UNL A   1      35.411  32.285  29.755  1.00  0.00     0.202 C 
BRANCH  32  33
ATOM     33  C   UNL A   1      35.339  32.007  31.259  1.00  0.00     0.261 C 
BRANCH  33  34
ATOM     34  O   UNL A   1      36.555  31.473  31.812  1.00  0.00    -0.460 OA
BRANCH  34  35
ATOM     35  C   UNL A   1      36.903  30.238  31.372  1.00  0.00     0.338 C 
ATOM     36  O   UNL A   1      36.171  29.271  31.245  1.00  0.00    -0.246 OA
BRANCH  35  37
ATOM     37  C   UNL A   1      38.298  30.246  30.881  1.00  0.00     0.060 A 
ATOM     38  C   UNL A   1      38.519  30.549  29.530  1.00  0.00     0.016 A 
ATOM     39  C   UNL A   1      39.367  29.890  31.706  1.00  0.00     0.016 A 
ATOM     40  C   UNL A   1      39.801  30.458  28.989  1.00  0.00     0.010 A 
ATOM     41  C   UNL A   1      40.649  29.777  31.157  1.00  0.00     0.010 A 
ATOM     42  C   UNL A   1      40.867  30.028  29.789  1.00  0.00    -0.014 A 
BRANCH  42  43
ATOM     43  C   UNL A   1      42.163  29.657  29.165  1.00  0.00     0.031 A 
ATOM     44  C   UNL A   1      42.343  28.250  28.659  1.00  0.00     0.074 A 
ATOM     45  C   UNL A   1      43.165  30.547  29.045  1.00  0.00     0.049 A 
ATOM     46  N   UNL A   1      43.404  27.685  28.144  1.00  0.00    -0.248 NA
ATOM     47  C   UNL A   1      41.169  27.366  28.746  1.00  0.00     0.031 C 
ATOM     48  C   UNL A   1      43.106  31.952  29.445  1.00  0.00     0.029 A 
ATOM     49  N   UNL A   1      44.440  30.387  28.559  1.00  0.00    -0.354 N 
ATOM     50  C   UNL A   1      43.030  26.378  27.854  1.00  0.00     0.074 A 
ATOM     51  C   UNL A   1      41.651  26.230  28.266  1.00  0.00     0.031 C 
ATOM     52  C   UNL A   1      44.301  32.521  29.207  1.00  0.00     0.029 A 
ATOM     53  C   UNL A   1      45.217  31.515  28.670  1.00  0.00     0.049 A 
ATOM     54  H   UNL A   1      44.766  29.545  28.169  1.00  0.00     0.167 HD
ATOM     55  C   UNL A   1      43.767  25.386  27.297  1.00  0.00     0.031 A 
ATOM     56  C   UNL A   1      46.524  31.707  28.397  1.00  0.00     0.031 A 
ATOM     57  C   UNL A   1      45.145  25.520  26.909  1.00  0.00     0.049 A 
ATOM     58  C   UNL A   1      47.349  30.565  27.859  1.00  0.00     0.074 A 
ATOM     59  C   UNL A   1      45.971  24.571  26.332  1.00  0.00     0.029 A 
ATOM     60  N   UNL A   1      45.903  26.668  27.069  1.00  0.00    -0.354 N 
ATOM     61  N   UNL A   1      46.976  29.340  27.573  1.00  0.00    -0.248 NA
ATOM     62  C   UNL A   1      48.773  30.834  27.605  1.00  0.00     0.031 C 
ATOM     63  C   UNL A   1      47.246  25.132  26.190  1.00  0.00     0.029 A 
ATOM     64  C   UNL A   1      47.196  26.446  26.627  1.00  0.00     0.049 A 
ATOM     65  H   UNL A   1      45.572  27.517  27.442  1.00  0.00     0.167 HD
ATOM     66  C   UNL A   1      48.112  28.702  27.081  1.00  0.00     0.074 A 
ATOM     67  C   UNL A   1      49.181  29.678  27.100  1.00  0.00     0.031 C 
ATOM     68  C   UNL A   1      48.253  27.425  26.648  1.00  0.00     0.031 A 
BRANCH  55  69
ATOM     69  C   UNL A   1      43.099  24.050  27.114  1.00  0.00    -0.014 A 
ATOM     70  C   UNL A   1      42.369  23.757  25.948  1.00  0.00     0.010 A 
ATOM     71  C   UNL A   1      43.225  23.068  28.112  1.00  0.00     0.010 A 
ATOM     72  C   UNL A   1      41.744  22.515  25.801  1.00  0.00     0.020 A 
ATOM     73  C   UNL A   1      42.621  21.817  27.958  1.00  0.00     0.020 A 
ATOM     74  C   UNL A   1      41.869  21.556  26.810  1.00  0.00     0.054 A 
BRANCH  74  75
ATOM     75  S   UNL A   1      41.058  19.948  26.590  1.00  0.00     0.124 S 
ATOM     76  O   UNL A   1      42.042  19.224  25.789  1.00  0.00    -0.237 OA
ATOM     77  O   UNL A   1      40.900  19.478  27.964  1.00  0.00    -0.237 OA
ATOM     78  O   UNL A   1      39.814  20.277  25.901  1.00  0.00    -0.744 OA
ENDBRANCH  74  75
ENDBRANCH  55  69
BRANCH  56  79
ATOM     79  C   UNL A   1      47.152  33.031  28.656  1.00  0.00    -0.014 A 
ATOM     80  C   UNL A   1      47.189  34.016  27.654  1.00  0.00     0.010 A 
ATOM     81  C   UNL A   1      47.728  33.309  29.909  1.00  0.00     0.010 A 
ATOM     82  C   UNL A   1      47.805  35.247  27.894  1.00  0.00     0.020 A 
ATOM     83  C   UNL A   1      48.321  34.548  30.163  1.00  0.00     0.020 A 
ATOM     84  C   UNL A   1      48.367  35.506  29.148  1.00  0.00     0.054 A 
BRANCH  84  85
ATOM     85  S   UNL A   1      49.119  37.129  29.456  1.00  0.00     0.124 S 
ATOM     86  O   UNL A   1      49.672  36.958  30.795  1.00  0.00    -0.237 OA
ATOM     87  O   UNL A   1      50.097  37.233  28.375  1.00  0.00    -0.237 OA
ATOM     88  O   UNL A   1      47.991  38.051  29.356  1.00  0.00    -0.744 OA
ENDBRANCH  84  85
ENDBRANCH  56  79
BRANCH  68  89
ATOM     89  C   UNL A   1      49.601  27.008  26.119  1.00  0.00    -0.014 A 
ATOM     90  C   UNL A   1      50.588  26.480  26.970  1.00  0.00     0.010 A 
ATOM     91  C   UNL A   1      49.857  27.084  24.737  1.00  0.00     0.010 A 
ATOM     92  C   UNL A   1      51.815  26.056  26.452  1.00  0.00     0.020 A 
ATOM     93  C   UNL A   1      51.073  26.639  24.213  1.00  0.00     0.020 A 
ATOM     94  C   UNL A   1      52.050  26.138  25.075  1.00  0.00     0.054 A 
BRANCH  94  95
ATOM     95  S   UNL A   1      53.629  25.533  24.416  1.00  0.00     0.124 S 
ATOM     96  O   UNL A   1      53.572  25.986  23.029  1.00  0.00    -0.237 OA
ATOM     97  O   UNL A   1      54.611  26.212  25.259  1.00  0.00    -0.237 OA
ATOM     98  O   UNL A   1      53.550  24.086  24.605  1.00  0.00    -0.744 OA
ENDBRANCH  94  95
ENDBRANCH  68  89
ENDBRANCH  42  43
ENDBRANCH  35  37
ENDBRANCH  34  35
ENDBRANCH  33  34
ENDBRANCH  32  33
ENDBRANCH  31  32
ENDBRANCH   1  31
TORSDOF 21
ENDMDL
MODEL 2
REMARK VINA RESULT:     -10.4      1.914      2.847
REMARK SMILES CC1(C)S[C@@H](c2cccc3c2sc2ccccc23)[NH2+][C@@H]1C(=O)OCCOCCOCCOC(=O)c1ccc(-c2c3nc(c(-c4ccc(S(=O)(=O)[O-])cc4)c4ccc([nH]4)c(-c4ccc(S(=O)(=O)[O-])cc4)c4nc(c(-c5ccc(S(=O)(=O)[O-])cc5)c5ccc2[nH]5)C=C4)C=C3)cc1
REMARK SMILES IDX 28 1 27 2 26 3 25 4 24 5 23 6 21 7 22 8 20 9 1 10 2 11 3 12
REMARK SMILES IDX 4 13 5 14 19 15 6 18 7 19 11 20 8 21 10 22 12 23 9 24 18 25
REMARK SMILES IDX 13 26 17 27 14 28 16 29 15 30 29 31 30 32 31 33 32 34 33 35
REMARK SMILES IDX 34 36 35 37 36 38 94 39 37 40 93 41 38 42 39 43 40 44 87 45
REMARK SMILES IDX 41 46 92 47 86 48 88 49 42 50 91 51 85 52 84 53 43 55 73 56
REMARK SMILES IDX 54 57 72 58 55 59 58 60 71 61 89 62 56 63 57 64 70 66 90 67
REMARK SMILES IDX 59 68 44 69 45 70 53 71 46 72 52 73 47 74 48 75 49 76 50 77
REMARK SMILES IDX 51 78 74 79 75 80 83 81 76 82 82 83 77 84 78 85 79 86 80 87
REMARK SMILES IDX 81 88 60 89 61 90 69 91 62 92 68 93 63 94 64 95 65 96 66 97
REMARK SMILES IDX 67 98
REMARK H PARENT 19 16 19 17 88 54 58 65
REMARK Flexibility Score: inf
ROOT
ATOM      1  C   UNL A   1      35.399  32.898  29.431  1.00  0.00     0.188 C 
ENDROOT
BRANCH   1   2
ATOM      2  C   UNL A   1      34.746  32.441  28.109  1.00  0.00     0.188 C 
BRANCH   2   3
ATOM      3  O   UNL A   1      33.822  31.370  28.250  1.00  0.00    -0.376 OA
BRANCH   3   4
ATOM      4  C   UNL A   1      33.367  30.765  27.045  1.00  0.00     0.202 C 
BRANCH   4   5
ATOM      5  C   UNL A   1      33.372  29.238  27.102  1.00  0.00     0.261 C 
BRANCH   5   6
ATOM      6  O   UNL A   1      33.241  28.644  25.803  1.00  0.00    -0.459 OA
BRANCH   6   7
ATOM      7  C   UNL A   1      32.283  27.684  25.651  1.00  0.00     0.366 C 
ATOM      8  O   UNL A   1      31.501  27.353  26.530  1.00  0.00    -0.245 OA
BRANCH   7   9
ATOM      9  C   UNL A   1      32.364  27.126  24.209  1.00  0.00     0.310 C 
ATOM     10  C   UNL A   1      31.301  26.762  21.933  1.00  0.00     0.030 C 
ATOM     11  C   UNL A   1      31.042  26.870  23.453  1.00  0.00     0.079 C 
ATOM     12  C   UNL A   1      29.953  27.919  23.672  1.00  0.00     0.030 C 
ATOM     13  S   UNL A   1      30.555  25.209  24.032  1.00  0.00    -0.081 SA
ATOM     14  C   UNL A   1      32.187  24.850  24.756  1.00  0.00     0.276 C 
ATOM     15  N   UNL A   1      33.130  25.853  24.246  1.00  0.00    -0.319 N 
ATOM     16  H   UNL A   1      33.449  25.601  23.310  1.00  0.00     0.348 HD
ATOM     17  H   UNL A   1      33.962  25.926  24.831  1.00  0.00     0.348 HD
BRANCH  14  18
ATOM     18  C   UNL A   1      32.710  23.452  24.511  1.00  0.00     0.038 A 
ATOM     19  C   UNL A   1      31.881  22.445  23.970  1.00  0.00     0.012 A 
ATOM     20  C   UNL A   1      34.070  23.103  24.750  1.00  0.00     0.046 A 
ATOM     21  C   UNL A   1      32.344  21.158  23.746  1.00  0.00     0.001 A 
ATOM     22  C   UNL A   1      34.555  21.806  24.564  1.00  0.00     0.001 A 
ATOM     23  S   UNL A   1      35.340  24.150  25.270  1.00  0.00    -0.135 S 
ATOM     24  C   UNL A   1      33.661  20.829  24.057  1.00  0.00     0.010 A 
ATOM     25  C   UNL A   1      35.946  21.675  24.962  1.00  0.00     0.000 A 
ATOM     26  C   UNL A   1      36.496  22.897  25.346  1.00  0.00     0.036 A 
ATOM     27  C   UNL A   1      36.786  20.532  25.014  1.00  0.00     0.010 A 
ATOM     28  C   UNL A   1      37.841  23.017  25.744  1.00  0.00     0.019 A 
ATOM     29  C   UNL A   1      38.115  20.639  25.435  1.00  0.00     0.001 A 
ATOM     30  C   UNL A   1      38.639  21.873  25.788  1.00  0.00     0.002 A 
ENDBRANCH  14  18
ENDBRANCH   7   9
ENDBRANCH   6   7
ENDBRANCH   5   6
ENDBRANCH   4   5
ENDBRANCH   3   4
ENDBRANCH   2   3
ENDBRANCH   1   2
BRANCH   1  31
ATOM     31  O   UNL A   1      35.033  32.287  30.662  1.00  0.00    -0.376 OA
BRANCH  31  32
ATOM     32  C   UNL A   1      36.046  31.760  31.503  1.00  0.00     0.202 C 
BRANCH  32  33
ATOM     33  C   UNL A   1      37.357  31.330  30.840  1.00  0.00     0.261 C 
BRANCH  33  34
ATOM     34  O   UNL A   1      37.515  29.903  30.734  1.00  0.00    -0.460 OA
BRANCH  34  35
ATOM     35  C   UNL A   1      37.401  29.396  29.480  1.00  0.00     0.338 C 
ATOM     36  O   UNL A   1      36.394  29.356  28.794  1.00  0.00    -0.246 OA
BRANCH  35  37
ATOM     37  C   UNL A   1      38.734  29.034  28.954  1.00  0.00     0.060 A 
ATOM     38  C   UNL A   1      39.697  28.571  29.863  1.00  0.00     0.016 A 
ATOM     39  C   UNL A   1      39.065  29.214  27.610  1.00  0.00     0.016 A 
ATOM     40  C   UNL A   1      41.003  28.325  29.440  1.00  0.00     0.010 A 
ATOM     41  C   UNL A   1      40.382  28.989  27.191  1.00  0.00     0.010 A 
ATOM     42  C   UNL A   1      41.365  28.576  28.111  1.00  0.00    -0.014 A 
BRANCH  42  43
ATOM     43  C   UNL A   1      42.798  28.591  27.721  1.00  0.00     0.031 A 
ATOM     44  C   UNL A   1      43.400  27.339  27.140  1.00  0.00     0.074 A 
ATOM     45  C   UNL A   1      43.556  29.692  27.875  1.00  0.00     0.049 A 
ATOM     46  N   UNL A   1      44.638  27.099  26.794  1.00  0.00    -0.248 NA
ATOM     47  C   UNL A   1      42.481  26.210  26.920  1.00  0.00     0.031 C 
ATOM     48  C   UNL A   1      43.088  30.983  28.376  1.00  0.00     0.029 A 
ATOM     49  N   UNL A   1      44.895  29.888  27.635  1.00  0.00    -0.354 N 
ATOM     50  C   UNL A   1      44.651  25.791  26.326  1.00  0.00     0.074 A 
ATOM     51  C   UNL A   1      43.301  25.284  26.447  1.00  0.00     0.031 C 
ATOM     52  C   UNL A   1      44.130  31.833  28.425  1.00  0.00     0.029 A 
ATOM     53  C   UNL A   1      45.341  31.137  27.991  1.00  0.00     0.049 A 
ATOM     54  H   UNL A   1      45.478  29.199  27.244  1.00  0.00     0.167 HD
ATOM     55  C   UNL A   1      45.691  25.071  25.838  1.00  0.00     0.031 A 
ATOM     56  C   UNL A   1      46.588  31.652  27.995  1.00  0.00     0.031 A 
ATOM     57  C   UNL A   1      47.039  25.561  25.739  1.00  0.00     0.049 A 
ATOM     58  C   UNL A   1      47.746  30.805  27.531  1.00  0.00     0.074 A 
ATOM     59  C   UNL A   1      48.158  24.906  25.254  1.00  0.00     0.029 A 
ATOM     60  N   UNL A   1      47.454  26.820  26.142  1.00  0.00    -0.354 N 
ATOM     61  N   UNL A   1      47.739  29.575  27.074  1.00  0.00    -0.248 NA
ATOM     62  C   UNL A   1      49.083  31.419  27.583  1.00  0.00     0.031 C 
ATOM     63  C   UNL A   1      49.261  25.753  25.411  1.00  0.00     0.029 A 
ATOM     64  C   UNL A   1      48.818  26.954  25.942  1.00  0.00     0.049 A 
ATOM     65  H   UNL A   1      46.868  27.516  26.515  1.00  0.00     0.167 HD
ATOM     66  C   UNL A   1      49.063  29.280  26.758  1.00  0.00     0.074 A 
ATOM     67  C   UNL A   1      49.841  30.460  27.068  1.00  0.00     0.031 C 
ATOM     68  C   UNL A   1      49.583  28.134  26.251  1.00  0.00     0.031 A 
BRANCH  55  69
ATOM     69  C   UNL A   1      45.412  23.655  25.414  1.00  0.00    -0.014 A 
ATOM     70  C   UNL A   1      45.245  23.322  24.058  1.00  0.00     0.010 A 
ATOM     71  C   UNL A   1      45.340  22.640  26.385  1.00  0.00     0.010 A 
ATOM     72  C   UNL A   1      44.973  22.003  23.684  1.00  0.00     0.020 A 
ATOM     73  C   UNL A   1      45.092  21.316  26.012  1.00  0.00     0.020 A 
ATOM     74  C   UNL A   1      44.892  21.011  24.664  1.00  0.00     0.054 A 
BRANCH  74  75
ATOM     75  S   UNL A   1      44.549  19.304  24.152  1.00  0.00     0.124 S 
ATOM     76  O   UNL A   1      43.259  19.054  24.791  1.00  0.00    -0.237 OA
ATOM     77  O   UNL A   1      44.518  19.407  22.695  1.00  0.00    -0.237 OA
ATOM     78  O   UNL A   1      45.672  18.545  24.696  1.00  0.00    -0.744 OA
ENDBRANCH  74  75
ENDBRANCH  55  69
BRANCH  56  79
ATOM     79  C   UNL A   1      46.819  33.039  28.485  1.00  0.00    -0.014 A 
ATOM     80  C   UNL A   1      46.746  34.132  27.604  1.00  0.00     0.010 A 
ATOM     81  C   UNL A   1      47.126  33.270  29.838  1.00  0.00     0.010 A 
ATOM     82  C   UNL A   1      46.992  35.429  28.064  1.00  0.00     0.020 A 
ATOM     83  C   UNL A   1      47.346  34.567  30.308  1.00  0.00     0.020 A 
ATOM     84  C   UNL A   1      47.290  35.639  29.415  1.00  0.00     0.054 A 
BRANCH  84  85
ATOM     85  S   UNL A   1      47.558  37.334  30.001  1.00  0.00     0.124 S 
ATOM     86  O   UNL A   1      47.377  37.189  31.442  1.00  0.00    -0.237 OA
ATOM     87  O   UNL A   1      48.923  37.610  29.559  1.00  0.00    -0.237 OA
ATOM     88  O   UNL A   1      46.521  38.100  29.314  1.00  0.00    -0.744 OA
ENDBRANCH  84  85
ENDBRANCH  56  79
BRANCH  68  89
ATOM     89  C   UNL A   1      51.061  28.104  25.961  1.00  0.00    -0.014 A 
ATOM     90  C   UNL A   1      51.991  27.722  26.944  1.00  0.00     0.010 A 
ATOM     91  C   UNL A   1      51.518  28.398  24.663  1.00  0.00     0.010 A 
ATOM     92  C   UNL A   1      53.355  27.656  26.640  1.00  0.00     0.020 A 
ATOM     93  C   UNL A   1      52.877  28.310  24.349  1.00  0.00     0.020 A 
ATOM     94  C   UNL A   1      53.789  27.951  25.343  1.00  0.00     0.054 A 
BRANCH  94  95
ATOM     95  S   UNL A   1      55.556  27.806  24.955  1.00  0.00     0.124 S 
ATOM     96  O   UNL A   1      55.826  29.080  24.293  1.00  0.00    -0.237 OA
ATOM     97  O   UNL A   1      56.162  27.643  26.275  1.00  0.00    -0.237 OA
ATOM     98  O   UNL A   1      55.626  26.628  24.095  1.00  0.00    -0.744 OA
ENDBRANCH  94  95
ENDBRANCH  68  89
ENDBRANCH  42  43
ENDBRANCH  35  37
ENDBRANCH  34  35
ENDBRANCH  33  34
ENDBRANCH  32  33
ENDBRANCH  31  32
ENDBRANCH   1  31
TORSDOF 21
ENDMDL
MODEL 3
REMARK VINA RESULT:     -10.3      5.972      8.278
REMARK SMILES CC1(C)S[C@@H](c2cccc3c2sc2ccccc23)[NH2+][C@@H]1C(=O)OCCOCCOCCOC(=O)c1ccc(-c2c3nc(c(-c4ccc(S(=O)(=O)[O-])cc4)c4ccc([nH]4)c(-c4ccc(S(=O)(=O)[O-])cc4)c4nc(c(-c5ccc(S(=O)(=O)[O-])cc5)c5ccc2[nH]5)C=C4)C=C3)cc1
REMARK SMILES IDX 28 1 27 2 26 3 25 4 24 5 23 6 21 7 22 8 20 9 1 10 2 11 3 12
REMARK SMILES IDX 4 13 5 14 19 15 6 18 7 19 11 20 8 21 10 22 12 23 9 24 18 25
REMARK SMILES IDX 13 26 17 27 14 28 16 29 15 30 29 31 30 32 31 33 32 34 33 35
REMARK SMILES IDX 34 36 35 37 36 38 94 39 37 40 93 41 38 42 39 43 40 44 87 45
REMARK SMILES IDX 41 46 92 47 86 48 88 49 42 50 91 51 85 52 84 53 43 55 73 56
REMARK SMILES IDX 54 57 72 58 55 59 58 60 71 61 89 62 56 63 57 64 70 66 90 67
REMARK SMILES IDX 59 68 44 69 45 70 53 71 46 72 52 73 47 74 48 75 49 76 50 77
REMARK SMILES IDX 51 78 74 79 75 80 83 81 76 82 82 83 77 84 78 85 79 86 80 87
REMARK SMILES IDX 81 88 60 89 61 90 69 91 62 92 68 93 63 94 64 95 65 96 66 97
REMARK SMILES IDX 67 98
REMARK H PARENT 19 16 19 17 88 54 58 65
REMARK Flexibility Score: inf
ROOT
ATOM      1  C   UNL A   1      33.910  32.955  28.041  1.00  0.00     0.188 C 
ENDROOT
BRANCH   1   2
ATOM      2  C   UNL A   1      34.813  31.715  27.862  1.00  0.00     0.188 C 
BRANCH   2   3
ATOM      3  O   UNL A   1      34.106  30.504  27.629  1.00  0.00    -0.376 OA
BRANCH   3   4
ATOM      4  C   UNL A   1      32.734  30.632  27.274  1.00  0.00     0.202 C 
BRANCH   4   5
ATOM      5  C   UNL A   1      32.243  29.504  26.367  1.00  0.00     0.261 C 
BRANCH   5   6
ATOM      6  O   UNL A   1      31.716  28.396  27.111  1.00  0.00    -0.459 OA
BRANCH   6   7
ATOM      7  C   UNL A   1      31.689  27.183  26.488  1.00  0.00     0.366 C 
ATOM      8  O   UNL A   1      30.950  26.265  26.811  1.00  0.00    -0.245 OA
BRANCH   7   9
ATOM      9  C   UNL A   1      32.720  27.195  25.334  1.00  0.00     0.310 C 
ATOM     10  C   UNL A   1      33.244  27.411  22.860  1.00  0.00     0.030 C 
ATOM     11  C   UNL A   1      32.213  26.921  23.901  1.00  0.00     0.079 C 
ATOM     12  C   UNL A   1      30.862  27.548  23.559  1.00  0.00     0.030 C 
ATOM     13  S   UNL A   1      32.190  25.098  23.817  1.00  0.00    -0.081 SA
ATOM     14  C   UNL A   1      33.191  24.896  25.325  1.00  0.00     0.276 C 
ATOM     15  N   UNL A   1      33.780  26.201  25.647  1.00  0.00    -0.319 N 
ATOM     16  H   UNL A   1      34.609  26.370  25.076  1.00  0.00     0.348 HD
ATOM     17  H   UNL A   1      34.078  26.255  26.621  1.00  0.00     0.348 HD
BRANCH  14  18
ATOM     18  C   UNL A   1      34.262  23.830  25.252  1.00  0.00     0.038 A 
ATOM     19  C   UNL A   1      35.631  24.160  25.354  1.00  0.00     0.012 A 
ATOM     20  C   UNL A   1      33.942  22.445  25.147  1.00  0.00     0.046 A 
ATOM     21  C   UNL A   1      36.624  23.196  25.283  1.00  0.00     0.001 A 
ATOM     22  C   UNL A   1      34.923  21.456  25.041  1.00  0.00     0.001 A 
ATOM     23  S   UNL A   1      32.370  21.735  25.147  1.00  0.00    -0.135 S 
ATOM     24  C   UNL A   1      36.282  21.857  25.107  1.00  0.00     0.010 A 
ATOM     25  C   UNL A   1      34.353  20.133  24.849  1.00  0.00     0.000 A 
ATOM     26  C   UNL A   1      32.962  20.151  24.912  1.00  0.00     0.036 A 
ATOM     27  C   UNL A   1      34.984  18.883  24.618  1.00  0.00     0.010 A 
ATOM     28  C   UNL A   1      32.194  18.977  24.783  1.00  0.00     0.019 A 
ATOM     29  C   UNL A   1      34.227  17.717  24.461  1.00  0.00     0.001 A 
ATOM     30  C   UNL A   1      32.844  17.765  24.552  1.00  0.00     0.002 A 
ENDBRANCH  14  18
ENDBRANCH   7   9
ENDBRANCH   6   7
ENDBRANCH   5   6
ENDBRANCH   4   5
ENDBRANCH   3   4
ENDBRANCH   2   3
ENDBRANCH   1   2
BRANCH   1  31
ATOM     31  O   UNL A   1      34.419  34.131  28.656  1.00  0.00    -0.376 OA
BRANCH  31  32
ATOM     32  C   UNL A   1      33.718  35.354  28.503  1.00  0.00     0.202 C 
BRANCH  32  33
ATOM     33  C   UNL A   1      32.700  35.720  29.587  1.00  0.00     0.261 C 
BRANCH  33  34
ATOM     34  O   UNL A   1      33.296  36.164  30.820  1.00  0.00    -0.460 OA
BRANCH  34  35
ATOM     35  C   UNL A   1      33.167  35.313  31.869  1.00  0.00     0.338 C 
ATOM     36  O   UNL A   1      32.152  35.079  32.503  1.00  0.00    -0.246 OA
BRANCH  35  37
ATOM     37  C   UNL A   1      34.415  34.542  32.056  1.00  0.00     0.060 A 
ATOM     38  C   UNL A   1      34.358  33.378  32.836  1.00  0.00     0.016 A 
ATOM     39  C   UNL A   1      35.635  34.987  31.543  1.00  0.00     0.016 A 
ATOM     40  C   UNL A   1      35.525  32.677  33.140  1.00  0.00     0.010 A 
ATOM     41  C   UNL A   1      36.808  34.296  31.868  1.00  0.00     0.010 A 
ATOM     42  C   UNL A   1      36.763  33.158  32.696  1.00  0.00    -0.014 A 
BRANCH  42  43
ATOM     43  C   UNL A   1      38.021  32.590  33.243  1.00  0.00     0.031 A 
ATOM     44  C   UNL A   1      38.693  31.469  32.494  1.00  0.00     0.074 A 
ATOM     45  C   UNL A   1      38.564  33.055  34.383  1.00  0.00     0.049 A 
ATOM     46  N   UNL A   1      39.754  30.777  32.815  1.00  0.00    -0.248 NA
ATOM     47  C   UNL A   1      38.084  31.082  31.210  1.00  0.00     0.031 C 
ATOM     48  C   UNL A   1      38.047  34.166  35.179  1.00  0.00     0.029 A 
ATOM     49  N   UNL A   1      39.673  32.631  35.075  1.00  0.00    -0.354 N 
ATOM     50  C   UNL A   1      39.936  29.865  31.782  1.00  0.00     0.074 A 
ATOM     51  C   UNL A   1      38.866  30.082  30.832  1.00  0.00     0.031 C 
ATOM     52  C   UNL A   1      38.827  34.323  36.264  1.00  0.00     0.029 A 
ATOM     53  C   UNL A   1      39.877  33.304  36.255  1.00  0.00     0.049 A 
ATOM     54  H   UNL A   1      40.265  31.912  34.756  1.00  0.00     0.167 HD
ATOM     55  C   UNL A   1      40.904  28.928  31.634  1.00  0.00     0.031 A 
ATOM     56  C   UNL A   1      40.786  33.104  37.230  1.00  0.00     0.031 A 
ATOM     57  C   UNL A   1      41.955  28.691  32.587  1.00  0.00     0.049 A 
ATOM     58  C   UNL A   1      41.803  31.999  37.087  1.00  0.00     0.074 A 
ATOM     59  C   UNL A   1      42.983  27.768  32.520  1.00  0.00     0.029 A 
ATOM     60  N   UNL A   1      42.105  29.373  33.784  1.00  0.00    -0.354 N 
ATOM     61  N   UNL A   1      41.973  31.157  36.095  1.00  0.00    -0.248 NA
ATOM     62  C   UNL A   1      42.751  31.818  38.198  1.00  0.00     0.031 C 
ATOM     63  C   UNL A   1      43.727  27.857  33.703  1.00  0.00     0.029 A 
ATOM     64  C   UNL A   1      43.194  28.874  34.479  1.00  0.00     0.049 A 
ATOM     65  H   UNL A   1      41.524  30.104  34.095  1.00  0.00     0.167 HD
ATOM     66  C   UNL A   1      43.064  30.367  36.450  1.00  0.00     0.074 A 
ATOM     67  C   UNL A   1      43.518  30.836  37.742  1.00  0.00     0.031 C 
ATOM     68  C   UNL A   1      43.639  29.349  35.763  1.00  0.00     0.031 A 
BRANCH  55  69
ATOM     69  C   UNL A   1      40.842  28.060  30.407  1.00  0.00    -0.014 A 
ATOM     70  C   UNL A   1      41.876  28.074  29.453  1.00  0.00     0.010 A 
ATOM     71  C   UNL A   1      39.746  27.199  30.220  1.00  0.00     0.010 A 
ATOM     72  C   UNL A   1      41.794  27.270  28.313  1.00  0.00     0.020 A 
ATOM     73  C   UNL A   1      39.673  26.376  29.093  1.00  0.00     0.020 A 
ATOM     74  C   UNL A   1      40.690  26.431  28.138  1.00  0.00     0.054 A 
BRANCH  74  75
ATOM     75  S   UNL A   1      40.614  25.388  26.655  1.00  0.00     0.124 S 
ATOM     76  O   UNL A   1      41.049  26.316  25.614  1.00  0.00    -0.237 OA
ATOM     77  O   UNL A   1      41.552  24.314  26.970  1.00  0.00    -0.237 OA
ATOM     78  O   UNL A   1      39.211  24.986  26.585  1.00  0.00    -0.744 OA
ENDBRANCH  74  75
ENDBRANCH  55  69
BRANCH  56  79
ATOM     79  C   UNL A   1      40.765  33.951  38.454  1.00  0.00    -0.014 A 
ATOM     80  C   UNL A   1      40.056  33.543  39.596  1.00  0.00     0.010 A 
ATOM     81  C   UNL A   1      41.448  35.181  38.476  1.00  0.00     0.010 A 
ATOM     82  C   UNL A   1      40.016  34.356  40.733  1.00  0.00     0.020 A 
ATOM     83  C   UNL A   1      41.432  35.984  39.619  1.00  0.00     0.020 A 
ATOM     84  C   UNL A   1      40.705  35.572  40.737  1.00  0.00     0.054 A 
BRANCH  84  85
ATOM     85  S   UNL A   1      40.681  36.590  42.239  1.00  0.00     0.124 S 
ATOM     86  O   UNL A   1      41.711  37.582  41.950  1.00  0.00    -0.237 OA
ATOM     87  O   UNL A   1      39.308  37.091  42.259  1.00  0.00    -0.237 OA
ATOM     88  O   UNL A   1      41.006  35.640  43.300  1.00  0.00    -0.744 OA
ENDBRANCH  84  85
ENDBRANCH  56  79
BRANCH  68  89
ATOM     89  C   UNL A   1      44.850  28.690  36.370  1.00  0.00    -0.014 A 
ATOM     90  C   UNL A   1      46.149  29.150  36.093  1.00  0.00     0.010 A 
ATOM     91  C   UNL A   1      44.678  27.636  37.287  1.00  0.00     0.010 A 
ATOM     92  C   UNL A   1      47.256  28.554  36.704  1.00  0.00     0.020 A 
ATOM     93  C   UNL A   1      45.780  27.053  37.918  1.00  0.00     0.020 A 
ATOM     94  C   UNL A   1      47.064  27.508  37.613  1.00  0.00     0.054 A 
BRANCH  94  95
ATOM     95  S   UNL A   1      48.511  26.784  38.436  1.00  0.00     0.124 S 
ATOM     96  O   UNL A   1      49.614  27.440  37.741  1.00  0.00    -0.237 OA
ATOM     97  O   UNL A   1      48.321  27.181  39.829  1.00  0.00    -0.237 OA
ATOM     98  O   UNL A   1      48.374  25.352  38.179  1.00  0.00    -0.744 OA
ENDBRANCH  94  95
ENDBRANCH  68  89
ENDBRANCH  42  43
ENDBRANCH  35  37
ENDBRANCH  34  35
ENDBRANCH  33  34
ENDBRANCH  32  33
ENDBRANCH  31  32
ENDBRANCH   1  31
TORSDOF 21
ENDMDL
