MODEL 1
REMARK VINA RESULT:      -9.4      0.000      0.000
REMARK SMILES COc1cc(NS(=O)(=O)c2ccc(F)cc2)c(C(=O)OCCOCCOCCOC(=O)c2ccc(-c3c4nc(c(-c5ccc(S(=O)(=O)[O-])cc5)c5ccc([nH]5)c(-c5ccc(S(=O)(=O)[O-])cc5)c5nc(c(-c6ccc(S(=O)(=O)[O-])cc6)c6ccc3[nH]6)C=C5)C=C4)cc2)cc1OC
REMARK SMILES IDX 24 1 23 2 22 3 21 4 20 5 18 6 19 7 17 8 3 9 4 10 93 11 5 12
REMARK SMILES IDX 92 13 2 14 1 15 94 16 95 17 6 18 7 20 8 21 9 22 10 23 11 24
REMARK SMILES IDX 16 25 12 26 15 27 13 28 14 29 25 30 26 31 27 32 28 33 29 34
REMARK SMILES IDX 30 35 31 36 32 37 33 38 91 39 34 40 90 41 35 42 36 43 37 44
REMARK SMILES IDX 84 45 38 46 89 47 83 48 85 49 39 50 88 51 82 52 81 53 40 55
REMARK SMILES IDX 70 56 51 57 69 58 52 59 55 60 68 61 86 62 53 63 54 64 67 66
REMARK SMILES IDX 87 67 56 68 41 69 42 70 50 71 43 72 49 73 44 74 45 75 46 76
REMARK SMILES IDX 47 77 48 78 71 79 72 80 80 81 73 82 79 83 74 84 75 85 76 86
REMARK SMILES IDX 77 87 78 88 57 89 58 90 66 91 59 92 65 93 60 94 61 95 62 96
REMARK SMILES IDX 63 97 64 98
REMARK H PARENT 6 19 85 54 55 65
REMARK Flexibility Score: inf
ROOT
ATOM      1  C   UNL A   1      34.883  30.234  27.690  1.00  0.00     0.188 C 
ENDROOT
BRANCH   1   2
ATOM      2  O   UNL A   1      33.504  30.501  27.872  1.00  0.00    -0.376 OA
BRANCH   2   3
ATOM      3  C   UNL A   1      32.666  30.736  26.753  1.00  0.00     0.202 C 
BRANCH   3   4
ATOM      4  C   UNL A   1      32.849  29.941  25.461  1.00  0.00     0.261 C 
BRANCH   4   5
ATOM      5  O   UNL A   1      32.461  28.566  25.584  1.00  0.00    -0.460 OA
BRANCH   5   6
ATOM      6  C   UNL A   1      33.200  27.690  24.859  1.00  0.00     0.340 C 
ATOM      7  O   UNL A   1      34.125  27.948  24.108  1.00  0.00    -0.246 OA
BRANCH   6   8
ATOM      8  C   UNL A   1      32.831  26.307  25.222  1.00  0.00     0.088 A 
ATOM      9  C   UNL A   1      32.171  23.725  25.995  1.00  0.00     0.162 A 
ATOM     10  C   UNL A   1      31.224  24.539  25.350  1.00  0.00     0.078 A 
ATOM     11  C   UNL A   1      33.482  24.166  26.183  1.00  0.00     0.161 A 
ATOM     12  C   UNL A   1      31.511  25.866  25.030  1.00  0.00     0.067 A 
ATOM     13  C   UNL A   1      33.810  25.455  25.757  1.00  0.00     0.068 A 
BRANCH   9  14
ATOM     14  O   UNL A   1      31.747  22.496  26.427  1.00  0.00    -0.493 OA
ATOM     15  C   UNL A   1      30.330  22.358  26.252  1.00  0.00     0.278 C 
ENDBRANCH   9  14
BRANCH  11  16
ATOM     16  O   UNL A   1      34.533  23.505  26.752  1.00  0.00    -0.493 OA
ATOM     17  C   UNL A   1      34.279  22.636  27.846  1.00  0.00     0.278 C 
ENDBRANCH  11  16
BRANCH  12  18
ATOM     18  N   UNL A   1      30.490  26.814  24.700  1.00  0.00    -0.279 N 
ATOM     19  H   UNL A   1      30.309  27.512  25.371  1.00  0.00     0.180 HD
BRANCH  18  20
ATOM     20  S   UNL A   1      29.571  26.872  23.307  1.00  0.00     0.261 S 
ATOM     21  O   UNL A   1      30.475  26.604  22.211  1.00  0.00    -0.201 OA
ATOM     22  O   UNL A   1      28.394  26.071  23.549  1.00  0.00    -0.201 OA
BRANCH  20  23
ATOM     23  C   UNL A   1      29.068  28.573  23.174  1.00  0.00     0.088 A 
ATOM     24  C   UNL A   1      29.977  29.593  23.481  1.00  0.00     0.025 A 
ATOM     25  C   UNL A   1      27.707  28.854  22.985  1.00  0.00     0.025 A 
ATOM     26  C   UNL A   1      29.504  30.893  23.662  1.00  0.00     0.040 A 
ATOM     27  C   UNL A   1      27.244  30.156  23.167  1.00  0.00     0.040 A 
ATOM     28  C   UNL A   1      28.143  31.158  23.520  1.00  0.00     0.123 A 
ATOM     29  F   UNL A   1      27.687  32.391  23.779  1.00  0.00    -0.207 F 
ENDBRANCH  20  23
ENDBRANCH  18  20
ENDBRANCH  12  18
ENDBRANCH   6   8
ENDBRANCH   5   6
ENDBRANCH   4   5
ENDBRANCH   3   4
ENDBRANCH   2   3
ENDBRANCH   1   2
BRANCH   1  30
ATOM     30  C   UNL A   1      35.939  31.327  27.956  1.00  0.00     0.188 C 
BRANCH  30  31
ATOM     31  O   UNL A   1      35.572  32.682  28.119  1.00  0.00    -0.376 OA
BRANCH  31  32
ATOM     32  C   UNL A   1      35.161  33.180  29.381  1.00  0.00     0.202 C 
BRANCH  32  33
ATOM     33  C   UNL A   1      35.539  32.519  30.711  1.00  0.00     0.261 C 
BRANCH  33  34
ATOM     34  O   UNL A   1      36.938  32.434  30.993  1.00  0.00    -0.460 OA
BRANCH  34  35
ATOM     35  C   UNL A   1      37.314  31.305  31.644  1.00  0.00     0.338 C 
ATOM     36  O   UNL A   1      36.717  30.740  32.544  1.00  0.00    -0.246 OA
BRANCH  35  37
ATOM     37  C   UNL A   1      38.502  30.733  30.985  1.00  0.00     0.060 A 
ATOM     38  C   UNL A   1      39.502  30.190  31.797  1.00  0.00     0.016 A 
ATOM     39  C   UNL A   1      38.651  30.766  29.596  1.00  0.00     0.016 A 
ATOM     40  C   UNL A   1      40.669  29.696  31.220  1.00  0.00     0.010 A 
ATOM     41  C   UNL A   1      39.832  30.286  29.022  1.00  0.00     0.010 A 
ATOM     42  C   UNL A   1      40.854  29.763  29.833  1.00  0.00    -0.014 A 
BRANCH  42  43
ATOM     43  C   UNL A   1      42.182  29.436  29.262  1.00  0.00     0.031 A 
ATOM     44  C   UNL A   1      42.414  28.046  28.739  1.00  0.00     0.074 A 
ATOM     45  C   UNL A   1      43.154  30.363  29.171  1.00  0.00     0.049 A 
ATOM     46  N   UNL A   1      43.492  27.529  28.209  1.00  0.00    -0.248 NA
ATOM     47  C   UNL A   1      41.274  27.116  28.819  1.00  0.00     0.031 C 
ATOM     48  C   UNL A   1      43.033  31.760  29.578  1.00  0.00     0.029 A 
ATOM     49  N   UNL A   1      44.438  30.263  28.694  1.00  0.00    -0.354 N 
ATOM     50  C   UNL A   1      43.163  26.218  27.892  1.00  0.00     0.074 A 
ATOM     51  C   UNL A   1      41.790  26.011  28.301  1.00  0.00     0.031 C 
ATOM     52  C   UNL A   1      44.196  32.390  29.333  1.00  0.00     0.029 A 
ATOM     53  C   UNL A   1      45.155  31.434  28.784  1.00  0.00     0.049 A 
ATOM     54  H   UNL A   1      44.812  29.432  28.321  1.00  0.00     0.167 HD
ATOM     55  C   UNL A   1      43.935  25.267  27.317  1.00  0.00     0.031 A 
ATOM     56  C   UNL A   1      46.442  31.695  28.475  1.00  0.00     0.031 A 
ATOM     57  C   UNL A   1      45.311  25.456  26.947  1.00  0.00     0.049 A 
ATOM     58  C   UNL A   1      47.308  30.588  27.922  1.00  0.00     0.074 A 
ATOM     59  C   UNL A   1      46.186  24.538  26.392  1.00  0.00     0.029 A 
ATOM     60  N   UNL A   1      46.017  26.638  27.104  1.00  0.00    -0.354 N 
ATOM     61  N   UNL A   1      46.982  29.352  27.622  1.00  0.00    -0.248 NA
ATOM     62  C   UNL A   1      48.720  30.912  27.666  1.00  0.00     0.031 C 
ATOM     63  C   UNL A   1      47.435  25.151  26.259  1.00  0.00     0.029 A 
ATOM     64  C   UNL A   1      47.322  26.468  26.674  1.00  0.00     0.049 A 
ATOM     65  H   UNL A   1      45.646  27.474  27.468  1.00  0.00     0.167 HD
ATOM     66  C   UNL A   1      48.139  28.764  27.120  1.00  0.00     0.074 A 
ATOM     67  C   UNL A   1      49.169  29.782  27.137  1.00  0.00     0.031 C 
ATOM     68  C   UNL A   1      48.334  27.493  26.686  1.00  0.00     0.031 A 
BRANCH  55  69
ATOM     69  C   UNL A   1      43.316  23.915  27.093  1.00  0.00    -0.014 A 
ATOM     70  C   UNL A   1      42.817  23.548  25.831  1.00  0.00     0.010 A 
ATOM     71  C   UNL A   1      43.275  22.985  28.147  1.00  0.00     0.010 A 
ATOM     72  C   UNL A   1      42.267  22.279  25.633  1.00  0.00     0.020 A 
ATOM     73  C   UNL A   1      42.746  21.708  27.946  1.00  0.00     0.020 A 
ATOM     74  C   UNL A   1      42.235  21.366  26.692  1.00  0.00     0.054 A 
BRANCH  74  75
ATOM     75  S   UNL A   1      41.554  19.712  26.396  1.00  0.00     0.124 S 
ATOM     76  O   UNL A   1      41.773  19.060  27.685  1.00  0.00    -0.237 OA
ATOM     77  O   UNL A   1      40.160  19.995  26.066  1.00  0.00    -0.237 OA
ATOM     78  O   UNL A   1      42.360  19.196  25.293  1.00  0.00    -0.744 OA
ENDBRANCH  74  75
ENDBRANCH  55  69
BRANCH  56  79
ATOM     79  C   UNL A   1      47.022  33.050  28.710  1.00  0.00    -0.014 A 
ATOM     80  C   UNL A   1      47.563  33.394  29.962  1.00  0.00     0.010 A 
ATOM     81  C   UNL A   1      46.979  34.026  27.696  1.00  0.00     0.010 A 
ATOM     82  C   UNL A   1      48.011  34.696  30.209  1.00  0.00     0.020 A 
ATOM     83  C   UNL A   1      47.454  35.320  27.929  1.00  0.00     0.020 A 
ATOM     84  C   UNL A   1      47.948  35.653  29.192  1.00  0.00     0.054 A 
BRANCH  84  85
ATOM     85  S   UNL A   1      48.537  37.337  29.530  1.00  0.00     0.124 S 
ATOM     86  O   UNL A   1      49.113  37.193  30.863  1.00  0.00    -0.237 OA
ATOM     87  O   UNL A   1      49.495  37.563  28.450  1.00  0.00    -0.237 OA
ATOM     88  O   UNL A   1      47.324  38.146  29.456  1.00  0.00    -0.744 OA
ENDBRANCH  84  85
ENDBRANCH  56  79
BRANCH  68  89
ATOM     89  C   UNL A   1      49.697  27.133  26.154  1.00  0.00    -0.014 A 
ATOM     90  C   UNL A   1      50.710  26.652  27.002  1.00  0.00     0.010 A 
ATOM     91  C   UNL A   1      49.944  27.214  24.771  1.00  0.00     0.010 A 
ATOM     92  C   UNL A   1      51.954  26.284  26.479  1.00  0.00     0.020 A 
ATOM     93  C   UNL A   1      51.176  26.822  24.241  1.00  0.00     0.020 A 
ATOM     94  C   UNL A   1      52.179  26.370  25.102  1.00  0.00     0.054 A 
BRANCH  94  95
ATOM     95  S   UNL A   1      53.783  25.839  24.441  1.00  0.00     0.124 S 
ATOM     96  O   UNL A   1      53.752  24.400  24.686  1.00  0.00    -0.237 OA
ATOM     97  O   UNL A   1      53.702  26.239  23.039  1.00  0.00    -0.237 OA
ATOM     98  O   UNL A   1      54.753  26.586  25.240  1.00  0.00    -0.744 OA
ENDBRANCH  94  95
ENDBRANCH  68  89
ENDBRANCH  42  43
ENDBRANCH  35  37
ENDBRANCH  34  35
ENDBRANCH  33  34
ENDBRANCH  32  33
ENDBRANCH  31  32
ENDBRANCH  30  31
ENDBRANCH   1  30
TORSDOF 25
ENDMDL
MODEL 2
REMARK VINA RESULT:      -9.2      4.761      8.791
REMARK SMILES COc1cc(NS(=O)(=O)c2ccc(F)cc2)c(C(=O)OCCOCCOCCOC(=O)c2ccc(-c3c4nc(c(-c5ccc(S(=O)(=O)[O-])cc5)c5ccc([nH]5)c(-c5ccc(S(=O)(=O)[O-])cc5)c5nc(c(-c6ccc(S(=O)(=O)[O-])cc6)c6ccc3[nH]6)C=C5)C=C4)cc2)cc1OC
REMARK SMILES IDX 24 1 23 2 22 3 21 4 20 5 18 6 19 7 17 8 3 9 4 10 93 11 5 12
REMARK SMILES IDX 92 13 2 14 1 15 94 16 95 17 6 18 7 20 8 21 9 22 10 23 11 24
REMARK SMILES IDX 16 25 12 26 15 27 13 28 14 29 25 30 26 31 27 32 28 33 29 34
REMARK SMILES IDX 30 35 31 36 32 37 33 38 91 39 34 40 90 41 35 42 36 43 37 44
REMARK SMILES IDX 84 45 38 46 89 47 83 48 85 49 39 50 88 51 82 52 81 53 40 55
REMARK SMILES IDX 70 56 51 57 69 58 52 59 55 60 68 61 86 62 53 63 54 64 67 66
REMARK SMILES IDX 87 67 56 68 41 69 42 70 50 71 43 72 49 73 44 74 45 75 46 76
REMARK SMILES IDX 47 77 48 78 71 79 72 80 80 81 73 82 79 83 74 84 75 85 76 86
REMARK SMILES IDX 77 87 78 88 57 89 58 90 66 91 59 92 65 93 60 94 61 95 62 96
REMARK SMILES IDX 63 97 64 98
REMARK H PARENT 6 19 85 54 55 65
REMARK Flexibility Score: inf
ROOT
ATOM      1  C   UNL A   1      33.102  28.638  25.804  1.00  0.00     0.188 C 
ENDROOT
BRANCH   1   2
ATOM      2  O   UNL A   1      32.969  28.779  24.401  1.00  0.00    -0.376 OA
BRANCH   2   3
ATOM      3  C   UNL A   1      34.116  28.775  23.568  1.00  0.00     0.202 C 
BRANCH   3   4
ATOM      4  C   UNL A   1      34.125  27.986  22.259  1.00  0.00     0.261 C 
BRANCH   4   5
ATOM      5  O   UNL A   1      32.963  27.165  22.086  1.00  0.00    -0.460 OA
BRANCH   5   6
ATOM      6  C   UNL A   1      33.210  25.849  21.877  1.00  0.00     0.340 C 
ATOM      7  O   UNL A   1      33.345  25.284  20.805  1.00  0.00    -0.246 OA
BRANCH   6   8
ATOM      8  C   UNL A   1      33.460  25.177  23.168  1.00  0.00     0.088 A 
ATOM      9  C   UNL A   1      34.016  23.959  25.598  1.00  0.00     0.162 A 
ATOM     10  C   UNL A   1      32.806  24.647  25.408  1.00  0.00     0.078 A 
ATOM     11  C   UNL A   1      34.922  23.802  24.547  1.00  0.00     0.161 A 
ATOM     12  C   UNL A   1      32.546  25.336  24.223  1.00  0.00     0.067 A 
ATOM     13  C   UNL A   1      34.613  24.390  23.319  1.00  0.00     0.068 A 
BRANCH   9  14
ATOM     14  O   UNL A   1      34.260  23.460  26.851  1.00  0.00    -0.493 OA
ATOM     15  C   UNL A   1      33.609  22.195  27.029  1.00  0.00     0.278 C 
ENDBRANCH   9  14
BRANCH  11  16
ATOM     16  O   UNL A   1      36.118  23.141  24.540  1.00  0.00    -0.493 OA
ATOM     17  C   UNL A   1      37.121  23.542  25.461  1.00  0.00     0.278 C 
ENDBRANCH  11  16
BRANCH  12  18
ATOM     18  N   UNL A   1      31.508  26.317  24.117  1.00  0.00    -0.279 N 
ATOM     19  H   UNL A   1      31.796  27.238  23.923  1.00  0.00     0.180 HD
BRANCH  18  20
ATOM     20  S   UNL A   1      29.864  26.078  24.286  1.00  0.00     0.261 S 
ATOM     21  O   UNL A   1      29.501  25.056  23.330  1.00  0.00    -0.201 OA
ATOM     22  O   UNL A   1      29.605  25.938  25.700  1.00  0.00    -0.201 OA
BRANCH  20  23
ATOM     23  C   UNL A   1      29.132  27.602  23.735  1.00  0.00     0.088 A 
ATOM     24  C   UNL A   1      27.741  27.696  23.598  1.00  0.00     0.025 A 
ATOM     25  C   UNL A   1      29.975  28.604  23.231  1.00  0.00     0.025 A 
ATOM     26  C   UNL A   1      27.200  28.772  22.894  1.00  0.00     0.040 A 
ATOM     27  C   UNL A   1      29.423  29.675  22.530  1.00  0.00     0.040 A 
ATOM     28  C   UNL A   1      28.044  29.740  22.354  1.00  0.00     0.123 A 
ATOM     29  F   UNL A   1      27.521  30.722  21.609  1.00  0.00    -0.207 F 
ENDBRANCH  20  23
ENDBRANCH  18  20
ENDBRANCH  12  18
ENDBRANCH   6   8
ENDBRANCH   5   6
ENDBRANCH   4   5
ENDBRANCH   3   4
ENDBRANCH   2   3
ENDBRANCH   1   2
BRANCH   1  30
ATOM     30  C   UNL A   1      32.209  29.449  26.765  1.00  0.00     0.188 C 
BRANCH  30  31
ATOM     31  O   UNL A   1      32.145  30.860  26.699  1.00  0.00    -0.376 OA
BRANCH  31  32
ATOM     32  C   UNL A   1      32.877  31.666  27.605  1.00  0.00     0.202 C 
BRANCH  32  33
ATOM     33  C   UNL A   1      34.400  31.599  27.753  1.00  0.00     0.261 C 
BRANCH  33  34
ATOM     34  O   UNL A   1      35.005  32.662  28.494  1.00  0.00    -0.460 OA
BRANCH  34  35
ATOM     35  C   UNL A   1      35.178  32.400  29.814  1.00  0.00     0.338 C 
ATOM     36  O   UNL A   1      34.374  32.579  30.712  1.00  0.00    -0.246 OA
BRANCH  35  37
ATOM     37  C   UNL A   1      36.454  31.689  30.008  1.00  0.00     0.060 A 
ATOM     38  C   UNL A   1      36.439  30.513  30.764  1.00  0.00     0.016 A 
ATOM     39  C   UNL A   1      37.652  32.189  29.491  1.00  0.00     0.016 A 
ATOM     40  C   UNL A   1      37.633  29.843  31.025  1.00  0.00     0.010 A 
ATOM     41  C   UNL A   1      38.850  31.523  29.771  1.00  0.00     0.010 A 
ATOM     42  C   UNL A   1      38.847  30.356  30.553  1.00  0.00    -0.014 A 
BRANCH  42  43
ATOM     43  C   UNL A   1      40.119  29.754  31.021  1.00  0.00     0.031 A 
ATOM     44  C   UNL A   1      40.762  30.314  32.259  1.00  0.00     0.074 A 
ATOM     45  C   UNL A   1      40.673  28.705  30.387  1.00  0.00     0.049 A 
ATOM     46  N   UNL A   1      41.875  29.959  32.848  1.00  0.00    -0.248 NA
ATOM     47  C   UNL A   1      40.052  31.418  32.927  1.00  0.00     0.031 C 
ATOM     48  C   UNL A   1      40.114  28.029  29.219  1.00  0.00     0.029 A 
ATOM     49  N   UNL A   1      41.835  28.019  30.647  1.00  0.00    -0.354 N 
ATOM     50  C   UNL A   1      41.999  30.792  33.951  1.00  0.00     0.074 A 
ATOM     51  C   UNL A   1      40.857  31.680  33.946  1.00  0.00     0.031 C 
ATOM     52  C   UNL A   1      40.932  27.023  28.862  1.00  0.00     0.029 A 
ATOM     53  C   UNL A   1      42.090  27.004  29.754  1.00  0.00     0.049 A 
ATOM     54  H   UNL A   1      42.429  28.232  31.402  1.00  0.00     0.167 HD
ATOM     55  C   UNL A   1      42.978  30.820  34.885  1.00  0.00     0.031 A 
ATOM     56  C   UNL A   1      43.146  26.170  29.659  1.00  0.00     0.031 A 
ATOM     57  C   UNL A   1      44.135  29.967  34.870  1.00  0.00     0.049 A 
ATOM     58  C   UNL A   1      44.272  26.288  30.660  1.00  0.00     0.074 A 
ATOM     59  C   UNL A   1      45.200  29.948  35.754  1.00  0.00     0.029 A 
ATOM     60  N   UNL A   1      44.385  28.989  33.920  1.00  0.00    -0.354 N 
ATOM     61  N   UNL A   1      44.373  27.078  31.704  1.00  0.00    -0.248 NA
ATOM     62  C   UNL A   1      45.428  25.399  30.470  1.00  0.00     0.031 C 
ATOM     63  C   UNL A   1      46.119  28.992  35.309  1.00  0.00     0.029 A 
ATOM     64  C   UNL A   1      45.597  28.374  34.184  1.00  0.00     0.049 A 
ATOM     65  H   UNL A   1      43.790  28.766  33.168  1.00  0.00     0.167 HD
ATOM     66  C   UNL A   1      45.589  26.761  32.304  1.00  0.00     0.074 A 
ATOM     67  C   UNL A   1      46.178  25.696  31.521  1.00  0.00     0.031 C 
ATOM     68  C   UNL A   1      46.167  27.307  33.403  1.00  0.00     0.031 A 
BRANCH  55  69
ATOM     69  C   UNL A   1      42.861  31.843  35.980  1.00  0.00    -0.014 A 
ATOM     70  C   UNL A   1      43.333  33.154  35.800  1.00  0.00     0.010 A 
ATOM     71  C   UNL A   1      42.228  31.499  37.188  1.00  0.00     0.010 A 
ATOM     72  C   UNL A   1      43.195  34.100  36.819  1.00  0.00     0.020 A 
ATOM     73  C   UNL A   1      42.068  32.448  38.201  1.00  0.00     0.020 A 
ATOM     74  C   UNL A   1      42.562  33.741  38.014  1.00  0.00     0.054 A 
BRANCH  74  75
ATOM     75  S   UNL A   1      42.358  34.999  39.303  1.00  0.00     0.124 S 
ATOM     76  O   UNL A   1      43.377  34.603  40.273  1.00  0.00    -0.237 OA
ATOM     77  O   UNL A   1      42.627  36.241  38.584  1.00  0.00    -0.237 OA
ATOM     78  O   UNL A   1      40.977  34.824  39.746  1.00  0.00    -0.744 OA
ENDBRANCH  74  75
ENDBRANCH  55  69
BRANCH  56  79
ATOM     79  C   UNL A   1      43.228  25.167  28.558  1.00  0.00    -0.014 A 
ATOM     80  C   UNL A   1      42.694  23.875  28.720  1.00  0.00     0.010 A 
ATOM     81  C   UNL A   1      43.896  25.481  27.360  1.00  0.00     0.010 A 
ATOM     82  C   UNL A   1      42.863  22.906  27.725  1.00  0.00     0.020 A 
ATOM     83  C   UNL A   1      44.041  24.524  26.350  1.00  0.00     0.020 A 
ATOM     84  C   UNL A   1      43.542  23.236  26.548  1.00  0.00     0.054 A 
BRANCH  84  85
ATOM     85  S   UNL A   1      43.748  21.966  25.267  1.00  0.00     0.124 S 
ATOM     86  O   UNL A   1      45.105  21.495  25.524  1.00  0.00    -0.237 OA
ATOM     87  O   UNL A   1      42.681  21.020  25.580  1.00  0.00    -0.237 OA
ATOM     88  O   UNL A   1      43.568  22.706  24.020  1.00  0.00    -0.744 OA
ENDBRANCH  84  85
ENDBRANCH  56  79
BRANCH  68  89
ATOM     89  C   UNL A   1      47.488  26.739  33.857  1.00  0.00    -0.014 A 
ATOM     90  C   UNL A   1      47.552  25.575  34.643  1.00  0.00     0.010 A 
ATOM     91  C   UNL A   1      48.685  27.344  33.431  1.00  0.00     0.010 A 
ATOM     92  C   UNL A   1      48.790  25.042  35.016  1.00  0.00     0.020 A 
ATOM     93  C   UNL A   1      49.923  26.799  33.779  1.00  0.00     0.020 A 
ATOM     94  C   UNL A   1      49.968  25.657  34.580  1.00  0.00     0.054 A 
BRANCH  94  95
ATOM     95  S   UNL A   1      51.562  24.918  35.036  1.00  0.00     0.124 S 
ATOM     96  O   UNL A   1      51.641  25.220  36.462  1.00  0.00    -0.237 OA
ATOM     97  O   UNL A   1      51.370  23.509  34.701  1.00  0.00    -0.237 OA
ATOM     98  O   UNL A   1      52.526  25.625  34.195  1.00  0.00    -0.744 OA
ENDBRANCH  94  95
ENDBRANCH  68  89
ENDBRANCH  42  43
ENDBRANCH  35  37
ENDBRANCH  34  35
ENDBRANCH  33  34
ENDBRANCH  32  33
ENDBRANCH  31  32
ENDBRANCH  30  31
ENDBRANCH   1  30
TORSDOF 25
ENDMDL
MODEL 3
REMARK VINA RESULT:      -8.2      4.985      9.154
REMARK SMILES COc1cc(NS(=O)(=O)c2ccc(F)cc2)c(C(=O)OCCOCCOCCOC(=O)c2ccc(-c3c4nc(c(-c5ccc(S(=O)(=O)[O-])cc5)c5ccc([nH]5)c(-c5ccc(S(=O)(=O)[O-])cc5)c5nc(c(-c6ccc(S(=O)(=O)[O-])cc6)c6ccc3[nH]6)C=C5)C=C4)cc2)cc1OC
REMARK SMILES IDX 24 1 23 2 22 3 21 4 20 5 18 6 19 7 17 8 3 9 4 10 93 11 5 12
REMARK SMILES IDX 92 13 2 14 1 15 94 16 95 17 6 18 7 20 8 21 9 22 10 23 11 24
REMARK SMILES IDX 16 25 12 26 15 27 13 28 14 29 25 30 26 31 27 32 28 33 29 34
REMARK SMILES IDX 30 35 31 36 32 37 33 38 91 39 34 40 90 41 35 42 36 43 37 44
REMARK SMILES IDX 84 45 38 46 89 47 83 48 85 49 39 50 88 51 82 52 81 53 40 55
REMARK SMILES IDX 70 56 51 57 69 58 52 59 55 60 68 61 86 62 53 63 54 64 67 66
REMARK SMILES IDX 87 67 56 68 41 69 42 70 50 71 43 72 49 73 44 74 45 75 46 76
REMARK SMILES IDX 47 77 48 78 71 79 72 80 80 81 73 82 79 83 74 84 75 85 76 86
REMARK SMILES IDX 77 87 78 88 57 89 58 90 66 91 59 92 65 93 60 94 61 95 62 96
REMARK SMILES IDX 63 97 64 98
REMARK H PARENT 6 19 85 54 55 65
REMARK Flexibility Score: inf
ROOT
ATOM      1  C   UNL A   1      33.039  28.891  25.940  1.00  0.00     0.188 C 
ENDROOT
BRANCH   1   2
ATOM      2  O   UNL A   1      32.907  28.841  24.531  1.00  0.00    -0.376 OA
BRANCH   2   3
ATOM      3  C   UNL A   1      34.057  28.828  23.703  1.00  0.00     0.202 C 
BRANCH   3   4
ATOM      4  C   UNL A   1      34.068  28.033  22.397  1.00  0.00     0.261 C 
BRANCH   4   5
ATOM      5  O   UNL A   1      32.925  27.182  22.244  1.00  0.00    -0.460 OA
BRANCH   5   6
ATOM      6  C   UNL A   1      33.203  25.878  21.998  1.00  0.00     0.340 C 
ATOM      7  O   UNL A   1      33.366  25.350  20.911  1.00  0.00    -0.246 OA
BRANCH   6   8
ATOM      8  C   UNL A   1      33.449  25.171  23.271  1.00  0.00     0.088 A 
ATOM      9  C   UNL A   1      33.996  23.889  25.670  1.00  0.00     0.162 A 
ATOM     10  C   UNL A   1      32.777  24.564  25.485  1.00  0.00     0.078 A 
ATOM     11  C   UNL A   1      34.916  23.779  24.626  1.00  0.00     0.161 A 
ATOM     12  C   UNL A   1      32.520  25.283  24.319  1.00  0.00     0.067 A 
ATOM     13  C   UNL A   1      34.612  24.398  23.412  1.00  0.00     0.068 A 
BRANCH   9  14
ATOM     14  O   UNL A   1      34.233  23.357  26.910  1.00  0.00    -0.493 OA
ATOM     15  C   UNL A   1      33.245  22.369  27.235  1.00  0.00     0.278 C 
ENDBRANCH   9  14
BRANCH  11  16
ATOM     16  O   UNL A   1      36.123  23.138  24.614  1.00  0.00    -0.493 OA
ATOM     17  C   UNL A   1      37.216  23.732  25.297  1.00  0.00     0.278 C 
ENDBRANCH  11  16
BRANCH  12  18
ATOM     18  N   UNL A   1      31.467  26.251  24.230  1.00  0.00    -0.279 N 
ATOM     19  H   UNL A   1      31.743  27.197  24.226  1.00  0.00     0.180 HD
BRANCH  18  20
ATOM     20  S   UNL A   1      29.826  25.960  24.134  1.00  0.00     0.261 S 
ATOM     21  O   UNL A   1      29.655  24.920  23.144  1.00  0.00    -0.201 OA
ATOM     22  O   UNL A   1      29.346  25.821  25.489  1.00  0.00    -0.201 OA
BRANCH  20  23
ATOM     23  C   UNL A   1      29.146  27.455  23.454  1.00  0.00     0.088 A 
ATOM     24  C   UNL A   1      29.991  28.534  23.161  1.00  0.00     0.025 A 
ATOM     25  C   UNL A   1      27.751  27.607  23.436  1.00  0.00     0.025 A 
ATOM     26  C   UNL A   1      29.430  29.787  22.913  1.00  0.00     0.040 A 
ATOM     27  C   UNL A   1      27.202  28.864  23.187  1.00  0.00     0.040 A 
ATOM     28  C   UNL A   1      28.046  29.944  22.944  1.00  0.00     0.123 A 
ATOM     29  F   UNL A   1      27.522  31.167  22.789  1.00  0.00    -0.207 F 
ENDBRANCH  20  23
ENDBRANCH  18  20
ENDBRANCH  12  18
ENDBRANCH   6   8
ENDBRANCH   5   6
ENDBRANCH   4   5
ENDBRANCH   3   4
ENDBRANCH   2   3
ENDBRANCH   1   2
BRANCH   1  30
ATOM     30  C   UNL A   1      32.256  29.931  26.768  1.00  0.00     0.188 C 
BRANCH  30  31
ATOM     31  O   UNL A   1      32.415  31.318  26.549  1.00  0.00    -0.376 OA
BRANCH  31  32
ATOM     32  C   UNL A   1      32.917  32.165  27.569  1.00  0.00     0.202 C 
BRANCH  32  33
ATOM     33  C   UNL A   1      34.391  32.202  27.984  1.00  0.00     0.261 C 
BRANCH  33  34
ATOM     34  O   UNL A   1      34.829  33.399  28.631  1.00  0.00    -0.460 OA
BRANCH  34  35
ATOM     35  C   UNL A   1      35.016  33.279  29.970  1.00  0.00     0.338 C 
ATOM     36  O   UNL A   1      34.166  33.348  30.841  1.00  0.00    -0.246 OA
BRANCH  35  37
ATOM     37  C   UNL A   1      36.408  32.876  30.235  1.00  0.00     0.060 A 
ATOM     38  C   UNL A   1      36.625  31.838  31.146  1.00  0.00     0.016 A 
ATOM     39  C   UNL A   1      37.484  33.531  29.631  1.00  0.00     0.016 A 
ATOM     40  C   UNL A   1      37.928  31.466  31.473  1.00  0.00     0.010 A 
ATOM     41  C   UNL A   1      38.789  33.166  29.976  1.00  0.00     0.010 A 
ATOM     42  C   UNL A   1      39.017  32.143  30.911  1.00  0.00    -0.014 A 
BRANCH  42  43
ATOM     43  C   UNL A   1      40.380  31.882  31.433  1.00  0.00     0.031 A 
ATOM     44  C   UNL A   1      40.812  32.584  32.690  1.00  0.00     0.074 A 
ATOM     45  C   UNL A   1      41.206  31.009  30.829  1.00  0.00     0.049 A 
ATOM     46  N   UNL A   1      41.954  32.521  33.324  1.00  0.00    -0.248 NA
ATOM     47  C   UNL A   1      39.820  33.471  33.321  1.00  0.00     0.031 C 
ATOM     48  C   UNL A   1      40.882  30.215  29.646  1.00  0.00     0.029 A 
ATOM     49  N   UNL A   1      42.493  30.639  31.139  1.00  0.00    -0.354 N 
ATOM     50  C   UNL A   1      41.820  33.357  34.424  1.00  0.00     0.074 A 
ATOM     51  C   UNL A   1      40.491  33.927  34.368  1.00  0.00     0.031 C 
ATOM     52  C   UNL A   1      41.942  29.450  29.329  1.00  0.00     0.029 A 
ATOM     53  C   UNL A   1      43.031  29.723  30.265  1.00  0.00     0.049 A 
ATOM     54  H   UNL A   1      42.984  30.994  31.915  1.00  0.00     0.167 HD
ATOM     55  C   UNL A   1      42.723  33.630  35.394  1.00  0.00     0.031 A 
ATOM     56  C   UNL A   1      44.267  29.184  30.218  1.00  0.00     0.031 A 
ATOM     57  C   UNL A   1      44.058  33.098  35.431  1.00  0.00     0.049 A 
ATOM     58  C   UNL A   1      45.286  29.580  31.261  1.00  0.00     0.074 A 
ATOM     59  C   UNL A   1      45.058  33.348  36.355  1.00  0.00     0.029 A 
ATOM     60  N   UNL A   1      44.584  32.217  34.499  1.00  0.00    -0.354 N 
ATOM     61  N   UNL A   1      45.143  30.368  32.300  1.00  0.00    -0.248 NA
ATOM     62  C   UNL A   1      46.636  29.013  31.122  1.00  0.00     0.031 C 
ATOM     63  C   UNL A   1      46.205  32.656  35.954  1.00  0.00     0.029 A 
ATOM     64  C   UNL A   1      45.901  31.928  34.815  1.00  0.00     0.049 A 
ATOM     65  H   UNL A   1      44.094  31.852  33.727  1.00  0.00     0.167 HD
ATOM     66  C   UNL A   1      46.375  30.369  32.949  1.00  0.00     0.074 A 
ATOM     67  C   UNL A   1      47.245  29.489  32.199  1.00  0.00     0.031 C 
ATOM     68  C   UNL A   1      46.753  31.041  34.066  1.00  0.00     0.031 A 
BRANCH  55  69
ATOM     69  C   UNL A   1      42.308  34.588  36.476  1.00  0.00    -0.014 A 
ATOM     70  C   UNL A   1      42.437  35.977  36.302  1.00  0.00     0.010 A 
ATOM     71  C   UNL A   1      41.738  34.093  37.663  1.00  0.00     0.010 A 
ATOM     72  C   UNL A   1      42.024  36.855  37.307  1.00  0.00     0.020 A 
ATOM     73  C   UNL A   1      41.303  34.968  38.661  1.00  0.00     0.020 A 
ATOM     74  C   UNL A   1      41.459  36.345  38.481  1.00  0.00     0.054 A 
BRANCH  74  75
ATOM     75  S   UNL A   1      40.893  37.508  39.751  1.00  0.00     0.124 S 
ATOM     76  O   UNL A   1      39.593  37.919  39.227  1.00  0.00    -0.237 OA
ATOM     77  O   UNL A   1      40.851  36.676  40.951  1.00  0.00    -0.237 OA
ATOM     78  O   UNL A   1      41.919  38.548  39.753  1.00  0.00    -0.744 OA
ENDBRANCH  74  75
ENDBRANCH  55  69
BRANCH  56  79
ATOM     79  C   UNL A   1      44.643  28.235  29.129  1.00  0.00    -0.014 A 
ATOM     80  C   UNL A   1      45.226  28.702  27.937  1.00  0.00     0.010 A 
ATOM     81  C   UNL A   1      44.362  26.862  29.256  1.00  0.00     0.010 A 
ATOM     82  C   UNL A   1      45.482  27.823  26.879  1.00  0.00     0.020 A 
ATOM     83  C   UNL A   1      44.645  25.975  28.213  1.00  0.00     0.020 A 
ATOM     84  C   UNL A   1      45.183  26.464  27.022  1.00  0.00     0.054 A 
BRANCH  84  85
ATOM     85  S   UNL A   1      45.526  25.339  25.640  1.00  0.00     0.124 S 
ATOM     86  O   UNL A   1      45.974  26.262  24.602  1.00  0.00    -0.237 OA
ATOM     87  O   UNL A   1      46.555  24.461  26.190  1.00  0.00    -0.237 OA
ATOM     88  O   UNL A   1      44.238  24.697  25.393  1.00  0.00    -0.744 OA
ENDBRANCH  84  85
ENDBRANCH  56  79
BRANCH  68  89
ATOM     89  C   UNL A   1      48.155  30.825  34.575  1.00  0.00    -0.014 A 
ATOM     90  C   UNL A   1      49.214  31.662  34.180  1.00  0.00     0.010 A 
ATOM     91  C   UNL A   1      48.401  29.810  35.518  1.00  0.00     0.010 A 
ATOM     92  C   UNL A   1      50.498  31.470  34.698  1.00  0.00     0.020 A 
ATOM     93  C   UNL A   1      49.677  29.632  36.059  1.00  0.00     0.020 A 
ATOM     94  C   UNL A   1      50.721  30.456  35.635  1.00  0.00     0.054 A 
BRANCH  94  95
ATOM     95  S   UNL A   1      52.385  30.258  36.332  1.00  0.00     0.124 S 
ATOM     96  O   UNL A   1      52.099  30.026  37.745  1.00  0.00    -0.237 OA
ATOM     97  O   UNL A   1      52.905  29.105  35.600  1.00  0.00    -0.237 OA
ATOM     98  O   UNL A   1      53.042  31.527  36.029  1.00  0.00    -0.744 OA
ENDBRANCH  94  95
ENDBRANCH  68  89
ENDBRANCH  42  43
ENDBRANCH  35  37
ENDBRANCH  34  35
ENDBRANCH  33  34
ENDBRANCH  32  33
ENDBRANCH  31  32
ENDBRANCH  30  31
ENDBRANCH   1  30
TORSDOF 25
ENDMDL
