MODEL 1
REMARK VINA RESULT:     -10.3      0.000      0.000
REMARK SMILES COc1ccc([C@H]2CC(c3ccc(S(C)(=O)=O)cc3)=NN2c2ccc(C(=O)OCCOCCOCCOC(=O)c3ccc(-c4c5nc(c(-c6ccc(S(=O)(=O)[O-])cc6)c6ccc([nH]6)c(-c6ccc(S(=O)(=O)[O-])cc6)c6nc(c(-c7ccc(S(=O)(=O)[O-])cc7)c7ccc4[nH]7)C=C6)C=C5)cc3)cc2)cc1
REMARK SMILES IDX 32 1 31 2 30 3 29 4 28 5 26 6 27 7 25 8 22 9 23 10 101 11
REMARK SMILES IDX 24 12 100 13 21 14 7 15 8 16 9 17 20 18 6 19 3 20 4 21
REMARK SMILES IDX 103 22 5 23 102 24 2 25 1 26 10 27 11 28 19 29 12 30 18 31
REMARK SMILES IDX 13 32 14 33 15 34 16 35 17 36 33 37 34 38 35 39 36 40 37 41
REMARK SMILES IDX 38 42 39 43 40 44 41 45 99 46 42 47 98 48 43 49 44 50 45 51
REMARK SMILES IDX 92 52 46 53 97 54 91 55 93 56 47 57 96 58 90 59 89 60 48 62
REMARK SMILES IDX 78 63 59 64 77 65 60 66 63 67 76 68 94 69 61 70 62 71 75 73
REMARK SMILES IDX 95 74 64 75 49 76 50 77 58 78 51 79 57 80 52 81 53 82 54 83
REMARK SMILES IDX 55 84 56 85 79 86 80 87 88 88 81 89 87 90 82 91 83 92 84 93
REMARK SMILES IDX 85 94 86 95 65 96 66 97 74 98 67 99 73 100 68 101 69 102
REMARK SMILES IDX 70 103 71 104 72 105
REMARK H PARENT 93 61 63 72
REMARK Flexibility Score: inf
ROOT
ATOM      1  C   UNL A   1      43.425  25.230  27.185  1.00  0.00     0.188 C 
ENDROOT
BRANCH   1   2
ATOM      2  O   UNL A   1      42.760  24.001  27.000  1.00  0.00    -0.376 OA
BRANCH   2   3
ATOM      3  C   UNL A   1      41.419  23.956  26.548  1.00  0.00     0.202 C 
BRANCH   3   4
ATOM      4  C   UNL A   1      40.402  22.839  26.847  1.00  0.00     0.261 C 
BRANCH   4   5
ATOM      5  O   UNL A   1      39.025  23.107  26.577  1.00  0.00    -0.460 OA
BRANCH   5   6
ATOM      6  C   UNL A   1      38.424  22.226  25.735  1.00  0.00     0.338 C 
ATOM      7  O   UNL A   1      38.664  21.036  25.636  1.00  0.00    -0.246 OA
BRANCH   6   8
ATOM      8  C   UNL A   1      37.292  22.882  25.046  1.00  0.00     0.060 A 
ATOM      9  C   UNL A   1      35.019  24.048  23.872  1.00  0.00     0.060 A 
ATOM     10  C   UNL A   1      35.415  24.407  25.167  1.00  0.00     0.029 A 
ATOM     11  C   UNL A   1      35.837  23.163  23.147  1.00  0.00     0.029 A 
ATOM     12  C   UNL A   1      36.523  23.802  25.767  1.00  0.00     0.018 A 
ATOM     13  C   UNL A   1      36.980  22.594  23.718  1.00  0.00     0.018 A 
BRANCH   9  14
ATOM     14  N   UNL A   1      33.797  24.471  23.358  1.00  0.00    -0.257 N 
ATOM     15  C   UNL A   1      32.916  23.565  22.618  1.00  0.00     0.144 C 
ATOM     16  C   UNL A   1      31.639  24.391  22.456  1.00  0.00     0.091 C 
ATOM     17  C   UNL A   1      32.025  25.634  23.207  1.00  0.00     0.071 C 
ATOM     18  N   UNL A   1      33.217  25.650  23.720  1.00  0.00    -0.176 NA
BRANCH  15  19
ATOM     19  C   UNL A   1      32.665  22.243  23.334  1.00  0.00    -0.023 A 
ATOM     20  C   UNL A   1      32.273  19.810  24.707  1.00  0.00     0.118 A 
ATOM     21  C   UNL A   1      32.451  20.999  25.414  1.00  0.00     0.047 A 
ATOM     22  C   UNL A   1      32.231  19.841  23.315  1.00  0.00     0.047 A 
ATOM     23  C   UNL A   1      32.656  22.203  24.736  1.00  0.00     0.010 A 
ATOM     24  C   UNL A   1      32.422  21.049  22.633  1.00  0.00     0.010 A 
BRANCH  20  25
ATOM     25  O   UNL A   1      32.091  18.689  25.469  1.00  0.00    -0.497 OA
ATOM     26  C   UNL A   1      33.090  17.688  25.298  1.00  0.00     0.278 C 
ENDBRANCH  20  25
ENDBRANCH  15  19
BRANCH  17  27
ATOM     27  C   UNL A   1      31.084  26.760  23.263  1.00  0.00    -0.002 A 
ATOM     28  C   UNL A   1      31.540  28.042  22.936  1.00  0.00     0.011 A 
ATOM     29  C   UNL A   1      29.733  26.531  23.540  1.00  0.00     0.011 A 
ATOM     30  C   UNL A   1      30.631  29.102  22.863  1.00  0.00     0.021 A 
ATOM     31  C   UNL A   1      28.826  27.593  23.491  1.00  0.00     0.021 A 
ATOM     32  C   UNL A   1      29.279  28.871  23.147  1.00  0.00     0.067 A 
BRANCH  32  33
ATOM     33  S   UNL A   1      28.117  30.211  22.989  1.00  0.00     0.175 S 
ATOM     34  C   UNL A   1      28.097  30.582  21.255  1.00  0.00     0.163 C 
ATOM     35  O   UNL A   1      26.820  29.679  23.364  1.00  0.00    -0.224 OA
ATOM     36  O   UNL A   1      28.673  31.357  23.685  1.00  0.00    -0.224 OA
ENDBRANCH  32  33
ENDBRANCH  17  27
ENDBRANCH   9  14
ENDBRANCH   6   8
ENDBRANCH   5   6
ENDBRANCH   4   5
ENDBRANCH   3   4
ENDBRANCH   2   3
ENDBRANCH   1   2
BRANCH   1  37
ATOM     37  C   UNL A   1      43.304  25.936  28.550  1.00  0.00     0.188 C 
BRANCH  37  38
ATOM     38  O   UNL A   1      43.920  25.380  29.694  1.00  0.00    -0.376 OA
BRANCH  38  39
ATOM     39  C   UNL A   1      43.674  24.033  30.058  1.00  0.00     0.202 C 
BRANCH  39  40
ATOM     40  C   UNL A   1      44.426  23.273  31.167  1.00  0.00     0.261 C 
BRANCH  40  41
ATOM     41  O   UNL A   1      43.854  23.285  32.478  1.00  0.00    -0.460 OA
BRANCH  41  42
ATOM     42  C   UNL A   1      44.627  23.841  33.440  1.00  0.00     0.338 C 
ATOM     43  O   UNL A   1      45.708  23.431  33.851  1.00  0.00    -0.246 OA
BRANCH  42  44
ATOM     44  C   UNL A   1      44.053  25.136  33.837  1.00  0.00     0.060 A 
ATOM     45  C   UNL A   1      44.553  26.305  33.249  1.00  0.00     0.016 A 
ATOM     46  C   UNL A   1      43.063  25.199  34.818  1.00  0.00     0.016 A 
ATOM     47  C   UNL A   1      44.077  27.549  33.659  1.00  0.00     0.010 A 
ATOM     48  C   UNL A   1      42.605  26.447  35.243  1.00  0.00     0.010 A 
ATOM     49  C   UNL A   1      43.130  27.629  34.688  1.00  0.00    -0.014 A 
BRANCH  49  50
ATOM     50  C   UNL A   1      42.820  28.940  35.307  1.00  0.00     0.031 A 
ATOM     51  C   UNL A   1      43.610  29.366  36.516  1.00  0.00     0.074 A 
ATOM     52  C   UNL A   1      41.864  29.742  34.804  1.00  0.00     0.049 A 
ATOM     53  N   UNL A   1      43.475  30.433  37.260  1.00  0.00    -0.248 NA
ATOM     54  C   UNL A   1      44.697  28.468  36.942  1.00  0.00     0.031 C 
ATOM     55  C   UNL A   1      41.067  29.466  33.611  1.00  0.00     0.029 A 
ATOM     56  N   UNL A   1      41.399  30.955  35.247  1.00  0.00    -0.354 N 
ATOM     57  C   UNL A   1      44.449  30.330  38.246  1.00  0.00     0.074 A 
ATOM     58  C   UNL A   1      45.149  29.085  38.023  1.00  0.00     0.031 C 
ATOM     59  C   UNL A   1      40.199  30.477  33.423  1.00  0.00     0.029 A 
ATOM     60  C   UNL A   1      40.354  31.451  34.502  1.00  0.00     0.049 A 
ATOM     61  H   UNL A   1      41.776  31.426  36.024  1.00  0.00     0.167 HD
ATOM     62  C   UNL A   1      44.738  31.197  39.245  1.00  0.00     0.031 A 
ATOM     63  C   UNL A   1      39.597  32.550  34.686  1.00  0.00     0.031 A 
ATOM     64  C   UNL A   1      44.029  32.427  39.475  1.00  0.00     0.049 A 
ATOM     65  C   UNL A   1      39.882  33.457  35.859  1.00  0.00     0.074 A 
ATOM     66  C   UNL A   1      44.251  33.377  40.456  1.00  0.00     0.029 A 
ATOM     67  N   UNL A   1      42.957  32.876  38.718  1.00  0.00    -0.354 N 
ATOM     68  N   UNL A   1      40.821  33.359  36.770  1.00  0.00    -0.248 NA
ATOM     69  C   UNL A   1      39.009  34.628  36.022  1.00  0.00     0.031 C 
ATOM     70  C   UNL A   1      43.276  34.371  40.331  1.00  0.00     0.029 A 
ATOM     71  C   UNL A   1      42.492  34.077  39.227  1.00  0.00     0.049 A 
ATOM     72  H   UNL A   1      42.582  32.411  37.936  1.00  0.00     0.167 HD
ATOM     73  C   UNL A   1      40.673  34.474  37.590  1.00  0.00     0.074 A 
ATOM     74  C   UNL A   1      39.565  35.239  37.059  1.00  0.00     0.031 C 
ATOM     75  C   UNL A   1      41.393  34.836  38.682  1.00  0.00     0.031 A 
BRANCH  62  76
ATOM     76  C   UNL A   1      45.854  30.831  40.187  1.00  0.00    -0.014 A 
ATOM     77  C   UNL A   1      45.633  29.970  41.276  1.00  0.00     0.010 A 
ATOM     78  C   UNL A   1      47.154  31.311  39.947  1.00  0.00     0.010 A 
ATOM     79  C   UNL A   1      46.687  29.618  42.125  1.00  0.00     0.020 A 
ATOM     80  C   UNL A   1      48.216  30.939  40.776  1.00  0.00     0.020 A 
ATOM     81  C   UNL A   1      47.973  30.104  41.867  1.00  0.00     0.054 A 
BRANCH  81  82
ATOM     82  S   UNL A   1      49.327  29.594  42.961  1.00  0.00     0.124 S 
ATOM     83  O   UNL A   1      48.722  29.749  44.281  1.00  0.00    -0.237 OA
ATOM     84  O   UNL A   1      49.574  28.217  42.542  1.00  0.00    -0.237 OA
ATOM     85  O   UNL A   1      50.397  30.539  42.652  1.00  0.00    -0.744 OA
ENDBRANCH  81  82
ENDBRANCH  62  76
BRANCH  63  86
ATOM     86  C   UNL A   1      38.472  32.853  33.757  1.00  0.00    -0.014 A 
ATOM     87  C   UNL A   1      38.656  33.718  32.662  1.00  0.00     0.010 A 
ATOM     88  C   UNL A   1      37.196  32.302  33.982  1.00  0.00     0.010 A 
ATOM     89  C   UNL A   1      37.580  34.049  31.831  1.00  0.00     0.020 A 
ATOM     90  C   UNL A   1      36.126  32.606  33.134  1.00  0.00     0.020 A 
ATOM     91  C   UNL A   1      36.322  33.492  32.073  1.00  0.00     0.054 A 
BRANCH  91  92
ATOM     92  S   UNL A   1      34.948  33.920  30.968  1.00  0.00     0.124 S 
ATOM     93  O   UNL A   1      34.148  32.701  30.992  1.00  0.00    -0.237 OA
ATOM     94  O   UNL A   1      34.358  35.078  31.635  1.00  0.00    -0.237 OA
ATOM     95  O   UNL A   1      35.609  34.212  29.698  1.00  0.00    -0.744 OA
ENDBRANCH  91  92
ENDBRANCH  63  86
BRANCH  75  96
ATOM     96  C   UNL A   1      41.048  36.143  39.349  1.00  0.00    -0.014 A 
ATOM     97  C   UNL A   1      40.006  36.238  40.288  1.00  0.00     0.010 A 
ATOM     98  C   UNL A   1      41.825  37.283  39.073  1.00  0.00     0.010 A 
ATOM     99  C   UNL A   1      39.726  37.457  40.912  1.00  0.00     0.020 A 
ATOM    100  C   UNL A   1      41.570  38.496  39.719  1.00  0.00     0.020 A 
ATOM    101  C   UNL A   1      40.511  38.579  40.624  1.00  0.00     0.054 A 
BRANCH 101 102
ATOM    102  S   UNL A   1      40.156  40.137  41.481  1.00  0.00     0.124 S 
ATOM    103  O   UNL A   1      39.317  40.835  40.510  1.00  0.00    -0.237 OA
ATOM    104  O   UNL A   1      39.475  39.688  42.693  1.00  0.00    -0.237 OA
ATOM    105  O   UNL A   1      41.477  40.723  41.698  1.00  0.00    -0.744 OA
ENDBRANCH 101 102
ENDBRANCH  75  96
ENDBRANCH  49  50
ENDBRANCH  42  44
ENDBRANCH  41  42
ENDBRANCH  40  41
ENDBRANCH  39  40
ENDBRANCH  38  39
ENDBRANCH  37  38
ENDBRANCH   1  37
TORSDOF 25
ENDMDL
MODEL 2
REMARK VINA RESULT:      -9.6      4.974      6.797
REMARK SMILES COc1ccc([C@H]2CC(c3ccc(S(C)(=O)=O)cc3)=NN2c2ccc(C(=O)OCCOCCOCCOC(=O)c3ccc(-c4c5nc(c(-c6ccc(S(=O)(=O)[O-])cc6)c6ccc([nH]6)c(-c6ccc(S(=O)(=O)[O-])cc6)c6nc(c(-c7ccc(S(=O)(=O)[O-])cc7)c7ccc4[nH]7)C=C6)C=C5)cc3)cc2)cc1
REMARK SMILES IDX 32 1 31 2 30 3 29 4 28 5 26 6 27 7 25 8 22 9 23 10 101 11
REMARK SMILES IDX 24 12 100 13 21 14 7 15 8 16 9 17 20 18 6 19 3 20 4 21
REMARK SMILES IDX 103 22 5 23 102 24 2 25 1 26 10 27 11 28 19 29 12 30 18 31
REMARK SMILES IDX 13 32 14 33 15 34 16 35 17 36 33 37 34 38 35 39 36 40 37 41
REMARK SMILES IDX 38 42 39 43 40 44 41 45 99 46 42 47 98 48 43 49 44 50 45 51
REMARK SMILES IDX 92 52 46 53 97 54 91 55 93 56 47 57 96 58 90 59 89 60 48 62
REMARK SMILES IDX 78 63 59 64 77 65 60 66 63 67 76 68 94 69 61 70 62 71 75 73
REMARK SMILES IDX 95 74 64 75 49 76 50 77 58 78 51 79 57 80 52 81 53 82 54 83
REMARK SMILES IDX 55 84 56 85 79 86 80 87 88 88 81 89 87 90 82 91 83 92 84 93
REMARK SMILES IDX 85 94 86 95 65 96 66 97 74 98 67 99 73 100 68 101 69 102
REMARK SMILES IDX 70 103 71 104 72 105
REMARK H PARENT 93 61 63 72
REMARK Flexibility Score: inf
ROOT
ATOM      1  C   UNL A   1      42.306  26.518  25.274  1.00  0.00     0.188 C 
ENDROOT
BRANCH   1   2
ATOM      2  O   UNL A   1      41.944  25.220  25.687  1.00  0.00    -0.376 OA
BRANCH   2   3
ATOM      3  C   UNL A   1      40.714  24.979  26.345  1.00  0.00     0.202 C 
BRANCH   3   4
ATOM      4  C   UNL A   1      40.273  23.644  26.974  1.00  0.00     0.261 C 
BRANCH   4   5
ATOM      5  O   UNL A   1      38.878  23.333  26.958  1.00  0.00    -0.460 OA
BRANCH   5   6
ATOM      6  C   UNL A   1      38.502  22.437  26.008  1.00  0.00     0.338 C 
ATOM      7  O   UNL A   1      38.921  21.302  25.872  1.00  0.00    -0.246 OA
BRANCH   6   8
ATOM      8  C   UNL A   1      37.363  22.975  25.233  1.00  0.00     0.060 A 
ATOM      9  C   UNL A   1      35.078  23.916  23.894  1.00  0.00     0.060 A 
ATOM     10  C   UNL A   1      35.380  24.364  25.186  1.00  0.00     0.029 A 
ATOM     11  C   UNL A   1      35.991  23.059  23.255  1.00  0.00     0.029 A 
ATOM     12  C   UNL A   1      36.496  23.871  25.868  1.00  0.00     0.018 A 
ATOM     13  C   UNL A   1      37.140  22.602  23.909  1.00  0.00     0.018 A 
BRANCH   9  14
ATOM     14  N   UNL A   1      33.857  24.224  23.301  1.00  0.00    -0.257 N 
ATOM     15  C   UNL A   1      33.047  23.206  22.629  1.00  0.00     0.144 C 
ATOM     16  C   UNL A   1      31.739  23.947  22.343  1.00  0.00     0.091 C 
ATOM     17  C   UNL A   1      32.039  25.276  22.977  1.00  0.00     0.071 C 
ATOM     18  N   UNL A   1      33.209  25.402  23.523  1.00  0.00    -0.176 NA
BRANCH  15  19
ATOM     19  C   UNL A   1      32.832  21.951  23.465  1.00  0.00    -0.023 A 
ATOM     20  C   UNL A   1      32.357  19.615  24.974  1.00  0.00     0.118 A 
ATOM     21  C   UNL A   1      32.278  19.584  23.583  1.00  0.00     0.047 A 
ATOM     22  C   UNL A   1      32.730  20.795  25.614  1.00  0.00     0.047 A 
ATOM     23  C   UNL A   1      32.503  20.743  22.834  1.00  0.00     0.010 A 
ATOM     24  C   UNL A   1      32.970  21.954  24.864  1.00  0.00     0.010 A 
BRANCH  20  25
ATOM     25  O   UNL A   1      32.109  18.429  25.608  1.00  0.00    -0.497 OA
ATOM     26  C   UNL A   1      32.807  17.311  25.067  1.00  0.00     0.278 C 
ENDBRANCH  20  25
ENDBRANCH  15  19
BRANCH  17  27
ATOM     27  C   UNL A   1      31.045  26.354  22.889  1.00  0.00    -0.002 A 
ATOM     28  C   UNL A   1      29.870  26.257  23.642  1.00  0.00     0.011 A 
ATOM     29  C   UNL A   1      31.321  27.501  22.140  1.00  0.00     0.011 A 
ATOM     30  C   UNL A   1      28.973  27.330  23.667  1.00  0.00     0.021 A 
ATOM     31  C   UNL A   1      30.415  28.565  22.143  1.00  0.00     0.021 A 
ATOM     32  C   UNL A   1      29.249  28.476  22.911  1.00  0.00     0.067 A 
BRANCH  32  33
ATOM     33  S   UNL A   1      28.135  29.862  22.996  1.00  0.00     0.175 S 
ATOM     34  C   UNL A   1      28.043  30.462  21.330  1.00  0.00     0.163 C 
ATOM     35  O   UNL A   1      26.838  29.328  23.368  1.00  0.00    -0.224 OA
ATOM     36  O   UNL A   1      28.770  30.886  23.805  1.00  0.00    -0.224 OA
ENDBRANCH  32  33
ENDBRANCH  17  27
ENDBRANCH   9  14
ENDBRANCH   6   8
ENDBRANCH   5   6
ENDBRANCH   4   5
ENDBRANCH   3   4
ENDBRANCH   2   3
ENDBRANCH   1   2
BRANCH   1  37
ATOM     37  C   UNL A   1      43.102  27.407  26.250  1.00  0.00     0.188 C 
BRANCH  37  38
ATOM     38  O   UNL A   1      42.500  27.871  27.440  1.00  0.00    -0.376 OA
BRANCH  38  39
ATOM     39  C   UNL A   1      41.479  28.852  27.392  1.00  0.00     0.202 C 
BRANCH  39  40
ATOM     40  C   UNL A   1      39.970  28.546  27.335  1.00  0.00     0.261 C 
BRANCH  40  41
ATOM     41  O   UNL A   1      39.069  29.652  27.431  1.00  0.00    -0.460 OA
BRANCH  41  42
ATOM     42  C   UNL A   1      38.296  29.672  28.541  1.00  0.00     0.338 C 
ATOM     43  O   UNL A   1      37.325  28.961  28.782  1.00  0.00    -0.246 OA
BRANCH  42  44
ATOM     44  C   UNL A   1      38.886  30.590  29.528  1.00  0.00     0.060 A 
ATOM     45  C   UNL A   1      38.423  31.911  29.585  1.00  0.00     0.016 A 
ATOM     46  C   UNL A   1      39.924  30.162  30.357  1.00  0.00     0.016 A 
ATOM     47  C   UNL A   1      39.015  32.819  30.461  1.00  0.00     0.010 A 
ATOM     48  C   UNL A   1      40.530  31.080  31.217  1.00  0.00     0.010 A 
ATOM     49  C   UNL A   1      40.099  32.419  31.253  1.00  0.00    -0.014 A 
BRANCH  49  50
ATOM     50  C   UNL A   1      40.897  33.435  31.981  1.00  0.00     0.031 A 
ATOM     51  C   UNL A   1      40.709  33.561  33.469  1.00  0.00     0.074 A 
ATOM     52  C   UNL A   1      41.777  34.224  31.339  1.00  0.00     0.049 A 
ATOM     53  N   UNL A   1      41.246  34.414  34.303  1.00  0.00    -0.248 NA
ATOM     54  C   UNL A   1      39.794  32.595  34.101  1.00  0.00     0.031 C 
ATOM     55  C   UNL A   1      42.085  34.165  29.911  1.00  0.00     0.029 A 
ATOM     56  N   UNL A   1      42.569  35.240  31.813  1.00  0.00    -0.354 N 
ATOM     57  C   UNL A   1      40.726  34.097  35.552  1.00  0.00     0.074 A 
ATOM     58  C   UNL A   1      39.812  32.992  35.365  1.00  0.00     0.031 C 
ATOM     59  C   UNL A   1      42.993  35.114  29.622  1.00  0.00     0.029 A 
ATOM     60  C   UNL A   1      43.300  35.872  30.834  1.00  0.00     0.049 A 
ATOM     61  H   UNL A   1      42.609  35.495  32.763  1.00  0.00     0.167 HD
ATOM     62  C   UNL A   1      40.991  34.670  36.750  1.00  0.00     0.031 A 
ATOM     63  C   UNL A   1      44.104  36.951  30.906  1.00  0.00     0.031 A 
ATOM     64  C   UNL A   1      41.889  35.780  36.932  1.00  0.00     0.049 A 
ATOM     65  C   UNL A   1      44.315  37.628  32.239  1.00  0.00     0.074 A 
ATOM     66  C   UNL A   1      42.229  36.427  38.107  1.00  0.00     0.029 A 
ATOM     67  N   UNL A   1      42.584  36.411  35.912  1.00  0.00    -0.354 N 
ATOM     68  N   UNL A   1      43.836  37.304  33.416  1.00  0.00    -0.248 NA
ATOM     69  C   UNL A   1      45.185  38.814  32.252  1.00  0.00     0.031 C 
ATOM     70  C   UNL A   1      43.083  37.487  37.790  1.00  0.00     0.029 A 
ATOM     71  C   UNL A   1      43.332  37.455  36.427  1.00  0.00     0.049 A 
ATOM     72  H   UNL A   1      42.551  36.154  34.962  1.00  0.00     0.167 HD
ATOM     73  C   UNL A   1      44.375  38.222  34.313  1.00  0.00     0.074 A 
ATOM     74  C   UNL A   1      45.227  39.105  33.545  1.00  0.00     0.031 C 
ATOM     75  C   UNL A   1      44.186  38.322  35.653  1.00  0.00     0.031 A 
BRANCH  62  76
ATOM     76  C   UNL A   1      40.277  34.126  37.958  1.00  0.00    -0.014 A 
ATOM     77  C   UNL A   1      38.888  34.280  38.113  1.00  0.00     0.010 A 
ATOM     78  C   UNL A   1      40.997  33.403  38.927  1.00  0.00     0.010 A 
ATOM     79  C   UNL A   1      38.237  33.744  39.228  1.00  0.00     0.020 A 
ATOM     80  C   UNL A   1      40.346  32.841  40.028  1.00  0.00     0.020 A 
ATOM     81  C   UNL A   1      38.970  33.025  40.177  1.00  0.00     0.054 A 
BRANCH  81  82
ATOM     82  S   UNL A   1      38.089  32.305  41.590  1.00  0.00     0.124 S 
ATOM     83  O   UNL A   1      36.817  33.021  41.548  1.00  0.00    -0.237 OA
ATOM     84  O   UNL A   1      38.024  30.890  41.236  1.00  0.00    -0.237 OA
ATOM     85  O   UNL A   1      38.945  32.622  42.731  1.00  0.00    -0.744 OA
ENDBRANCH  81  82
ENDBRANCH  62  76
BRANCH  63  86
ATOM     86  C   UNL A   1      44.757  37.487  29.678  1.00  0.00    -0.014 A 
ATOM     87  C   UNL A   1      45.976  36.953  29.220  1.00  0.00     0.010 A 
ATOM     88  C   UNL A   1      44.177  38.560  28.975  1.00  0.00     0.010 A 
ATOM     89  C   UNL A   1      46.616  37.502  28.104  1.00  0.00     0.020 A 
ATOM     90  C   UNL A   1      44.799  39.091  27.841  1.00  0.00     0.020 A 
ATOM     91  C   UNL A   1      46.024  38.568  27.423  1.00  0.00     0.054 A 
BRANCH  91  92
ATOM     92  S   UNL A   1      46.863  39.249  25.965  1.00  0.00     0.124 S 
ATOM     93  O   UNL A   1      45.750  39.806  25.206  1.00  0.00    -0.237 OA
ATOM     94  O   UNL A   1      47.777  40.224  26.556  1.00  0.00    -0.237 OA
ATOM     95  O   UNL A   1      47.509  38.083  25.366  1.00  0.00    -0.744 OA
ENDBRANCH  91  92
ENDBRANCH  63  86
BRANCH  75  96
ATOM     96  C   UNL A   1      44.954  39.388  36.392  1.00  0.00    -0.014 A 
ATOM     97  C   UNL A   1      44.727  40.755  36.158  1.00  0.00     0.010 A 
ATOM     98  C   UNL A   1      45.878  39.009  37.384  1.00  0.00     0.010 A 
ATOM     99  C   UNL A   1      45.434  41.723  36.879  1.00  0.00     0.020 A 
ATOM    100  C   UNL A   1      46.563  39.972  38.129  1.00  0.00     0.020 A 
ATOM    101  C   UNL A   1      46.347  41.324  37.862  1.00  0.00     0.054 A 
BRANCH 101 102
ATOM    102  S   UNL A   1      47.218  42.599  38.813  1.00  0.00     0.124 S 
ATOM    103  O   UNL A   1      46.608  42.465  40.133  1.00  0.00    -0.237 OA
ATOM    104  O   UNL A   1      48.612  42.173  38.718  1.00  0.00    -0.237 OA
ATOM    105  O   UNL A   1      46.902  43.838  38.104  1.00  0.00    -0.744 OA
ENDBRANCH 101 102
ENDBRANCH  75  96
ENDBRANCH  49  50
ENDBRANCH  42  44
ENDBRANCH  41  42
ENDBRANCH  40  41
ENDBRANCH  39  40
ENDBRANCH  38  39
ENDBRANCH  37  38
ENDBRANCH   1  37
TORSDOF 25
ENDMDL
MODEL 3
REMARK VINA RESULT:      -9.5      5.368     12.158
REMARK SMILES COc1ccc([C@H]2CC(c3ccc(S(C)(=O)=O)cc3)=NN2c2ccc(C(=O)OCCOCCOCCOC(=O)c3ccc(-c4c5nc(c(-c6ccc(S(=O)(=O)[O-])cc6)c6ccc([nH]6)c(-c6ccc(S(=O)(=O)[O-])cc6)c6nc(c(-c7ccc(S(=O)(=O)[O-])cc7)c7ccc4[nH]7)C=C6)C=C5)cc3)cc2)cc1
REMARK SMILES IDX 32 1 31 2 30 3 29 4 28 5 26 6 27 7 25 8 22 9 23 10 101 11
REMARK SMILES IDX 24 12 100 13 21 14 7 15 8 16 9 17 20 18 6 19 3 20 4 21
REMARK SMILES IDX 103 22 5 23 102 24 2 25 1 26 10 27 11 28 19 29 12 30 18 31
REMARK SMILES IDX 13 32 14 33 15 34 16 35 17 36 33 37 34 38 35 39 36 40 37 41
REMARK SMILES IDX 38 42 39 43 40 44 41 45 99 46 42 47 98 48 43 49 44 50 45 51
REMARK SMILES IDX 92 52 46 53 97 54 91 55 93 56 47 57 96 58 90 59 89 60 48 62
REMARK SMILES IDX 78 63 59 64 77 65 60 66 63 67 76 68 94 69 61 70 62 71 75 73
REMARK SMILES IDX 95 74 64 75 49 76 50 77 58 78 51 79 57 80 52 81 53 82 54 83
REMARK SMILES IDX 55 84 56 85 79 86 80 87 88 88 81 89 87 90 82 91 83 92 84 93
REMARK SMILES IDX 85 94 86 95 65 96 66 97 74 98 67 99 73 100 68 101 69 102
REMARK SMILES IDX 70 103 71 104 72 105
REMARK H PARENT 93 61 63 72
REMARK Flexibility Score: inf
ROOT
ATOM      1  C   UNL A   1      37.130  30.304  31.563  1.00  0.00     0.188 C 
ENDROOT
BRANCH   1   2
ATOM      2  O   UNL A   1      37.975  29.974  30.484  1.00  0.00    -0.376 OA
BRANCH   2   3
ATOM      3  C   UNL A   1      37.992  30.755  29.303  1.00  0.00     0.202 C 
BRANCH   3   4
ATOM      4  C   UNL A   1      36.830  30.904  28.302  1.00  0.00     0.261 C 
BRANCH   4   5
ATOM      5  O   UNL A   1      35.711  30.028  28.450  1.00  0.00    -0.460 OA
BRANCH   5   6
ATOM      6  C   UNL A   1      34.545  30.497  27.936  1.00  0.00     0.338 C 
ATOM      7  O   UNL A   1      34.185  31.660  27.891  1.00  0.00    -0.246 OA
BRANCH   6   8
ATOM      8  C   UNL A   1      33.812  29.399  27.269  1.00  0.00     0.060 A 
ATOM      9  C   UNL A   1      32.390  27.232  26.180  1.00  0.00     0.060 A 
ATOM     10  C   UNL A   1      31.757  28.139  27.039  1.00  0.00     0.029 A 
ATOM     11  C   UNL A   1      33.722  27.486  25.808  1.00  0.00     0.029 A 
ATOM     12  C   UNL A   1      32.471  29.197  27.611  1.00  0.00     0.018 A 
ATOM     13  C   UNL A   1      34.430  28.574  26.331  1.00  0.00     0.018 A 
BRANCH   9  14
ATOM     14  N   UNL A   1      31.754  26.057  25.791  1.00  0.00    -0.257 N 
ATOM     15  C   UNL A   1      30.373  26.053  25.304  1.00  0.00     0.144 C 
ATOM     16  C   UNL A   1      30.194  24.618  24.803  1.00  0.00     0.091 C 
ATOM     17  C   UNL A   1      31.571  24.071  25.056  1.00  0.00     0.071 C 
ATOM     18  N   UNL A   1      32.428  24.891  25.582  1.00  0.00    -0.176 NA
BRANCH  15  19
ATOM     19  C   UNL A   1      30.110  27.085  24.214  1.00  0.00    -0.023 A 
ATOM     20  C   UNL A   1      29.685  29.046  22.232  1.00  0.00     0.118 A 
ATOM     21  C   UNL A   1      30.969  28.564  22.483  1.00  0.00     0.047 A 
ATOM     22  C   UNL A   1      28.603  28.510  22.926  1.00  0.00     0.047 A 
ATOM     23  C   UNL A   1      31.183  27.600  23.471  1.00  0.00     0.010 A 
ATOM     24  C   UNL A   1      28.814  27.534  23.908  1.00  0.00     0.010 A 
BRANCH  20  25
ATOM     25  O   UNL A   1      29.590  29.995  21.251  1.00  0.00    -0.497 OA
ATOM     26  C   UNL A   1      28.293  30.566  21.103  1.00  0.00     0.278 C 
ENDBRANCH  20  25
ENDBRANCH  15  19
BRANCH  17  27
ATOM     27  C   UNL A   1      31.847  22.659  24.765  1.00  0.00    -0.002 A 
ATOM     28  C   UNL A   1      32.294  22.304  23.488  1.00  0.00     0.011 A 
ATOM     29  C   UNL A   1      31.758  21.704  25.782  1.00  0.00     0.011 A 
ATOM     30  C   UNL A   1      32.680  20.985  23.231  1.00  0.00     0.021 A 
ATOM     31  C   UNL A   1      32.120  20.380  25.522  1.00  0.00     0.021 A 
ATOM     32  C   UNL A   1      32.585  20.029  24.250  1.00  0.00     0.067 A 
BRANCH  32  33
ATOM     33  S   UNL A   1      33.137  18.366  23.935  1.00  0.00     0.175 S 
ATOM     34  C   UNL A   1      32.515  17.423  25.302  1.00  0.00     0.163 C 
ATOM     35  O   UNL A   1      32.465  17.928  22.726  1.00  0.00    -0.224 OA
ATOM     36  O   UNL A   1      34.587  18.363  24.014  1.00  0.00    -0.224 OA
ENDBRANCH  32  33
ENDBRANCH  17  27
ENDBRANCH   9  14
ENDBRANCH   6   8
ENDBRANCH   5   6
ENDBRANCH   4   5
ENDBRANCH   3   4
ENDBRANCH   2   3
ENDBRANCH   1   2
BRANCH   1  37
ATOM     37  C   UNL A   1      37.017  31.782  31.986  1.00  0.00     0.188 C 
BRANCH  37  38
ATOM     38  O   UNL A   1      35.985  32.194  32.859  1.00  0.00    -0.376 OA
BRANCH  38  39
ATOM     39  C   UNL A   1      36.109  33.394  33.601  1.00  0.00     0.202 C 
BRANCH  39  40
ATOM     40  C   UNL A   1      36.663  33.485  35.035  1.00  0.00     0.261 C 
BRANCH  40  41
ATOM     41  O   UNL A   1      37.021  32.261  35.682  1.00  0.00    -0.460 OA
BRANCH  41  42
ATOM     42  C   UNL A   1      38.099  32.332  36.497  1.00  0.00     0.338 C 
ATOM     43  O   UNL A   1      38.138  32.784  37.637  1.00  0.00    -0.246 OA
BRANCH  42  44
ATOM     44  C   UNL A   1      39.229  31.629  35.871  1.00  0.00     0.060 A 
ATOM     45  C   UNL A   1      40.531  31.948  36.276  1.00  0.00     0.016 A 
ATOM     46  C   UNL A   1      39.006  30.698  34.856  1.00  0.00     0.016 A 
ATOM     47  C   UNL A   1      41.622  31.348  35.649  1.00  0.00     0.010 A 
ATOM     48  C   UNL A   1      40.100  30.116  34.213  1.00  0.00     0.010 A 
ATOM     49  C   UNL A   1      41.414  30.460  34.586  1.00  0.00    -0.014 A 
BRANCH  49  50
ATOM     50  C   UNL A   1      42.558  30.029  33.747  1.00  0.00     0.031 A 
ATOM     51  C   UNL A   1      43.064  30.970  32.687  1.00  0.00     0.074 A 
ATOM     52  C   UNL A   1      43.144  28.831  33.926  1.00  0.00     0.049 A 
ATOM     53  N   UNL A   1      44.005  30.787  31.797  1.00  0.00    -0.248 NA
ATOM     54  C   UNL A   1      42.422  32.295  32.623  1.00  0.00     0.031 C 
ATOM     55  C   UNL A   1      42.780  27.854  34.951  1.00  0.00     0.029 A 
ATOM     56  N   UNL A   1      44.171  28.233  33.239  1.00  0.00    -0.354 N 
ATOM     57  C   UNL A   1      44.060  31.965  31.061  1.00  0.00     0.074 A 
ATOM     58  C   UNL A   1      43.042  32.846  31.589  1.00  0.00     0.031 C 
ATOM     59  C   UNL A   1      43.564  26.769  34.816  1.00  0.00     0.029 A 
ATOM     60  C   UNL A   1      44.458  26.960  33.674  1.00  0.00     0.049 A 
ATOM     61  H   UNL A   1      44.655  28.672  32.504  1.00  0.00     0.167 HD
ATOM     62  C   UNL A   1      44.889  32.288  30.040  1.00  0.00     0.031 A 
ATOM     63  C   UNL A   1      45.324  26.048  33.191  1.00  0.00     0.031 A 
ATOM     64  C   UNL A   1      45.890  31.404  29.505  1.00  0.00     0.049 A 
ATOM     65  C   UNL A   1      46.177  26.399  31.995  1.00  0.00     0.074 A 
ATOM     66  C   UNL A   1      46.785  31.641  28.476  1.00  0.00     0.029 A 
ATOM     67  N   UNL A   1      46.127  30.113  29.952  1.00  0.00    -0.354 N 
ATOM     68  N   UNL A   1      46.235  27.525  31.324  1.00  0.00    -0.248 NA
ATOM     69  C   UNL A   1      47.087  25.357  31.499  1.00  0.00     0.031 C 
ATOM     70  C   UNL A   1      47.521  30.473  28.260  1.00  0.00     0.029 A 
ATOM     71  C   UNL A   1      47.136  29.533  29.203  1.00  0.00     0.049 A 
ATOM     72  H   UNL A   1      45.649  29.674  30.692  1.00  0.00     0.167 HD
ATOM     73  C   UNL A   1      47.213  27.337  30.351  1.00  0.00     0.074 A 
ATOM     74  C   UNL A   1      47.729  25.997  30.531  1.00  0.00     0.031 C 
ATOM     75  C   UNL A   1      47.650  28.199  29.398  1.00  0.00     0.031 A 
BRANCH  62  76
ATOM     76  C   UNL A   1      44.729  33.646  29.412  1.00  0.00    -0.014 A 
ATOM     77  C   UNL A   1      45.468  34.751  29.869  1.00  0.00     0.010 A 
ATOM     78  C   UNL A   1      43.865  33.808  28.312  1.00  0.00     0.010 A 
ATOM     79  C   UNL A   1      45.327  35.999  29.255  1.00  0.00     0.020 A 
ATOM     80  C   UNL A   1      43.743  35.046  27.678  1.00  0.00     0.020 A 
ATOM     81  C   UNL A   1      44.466  36.138  28.161  1.00  0.00     0.054 A 
BRANCH  81  82
ATOM     82  S   UNL A   1      44.338  37.760  27.360  1.00  0.00     0.124 S 
ATOM     83  O   UNL A   1      43.129  37.604  26.556  1.00  0.00    -0.237 OA
ATOM     84  O   UNL A   1      44.223  38.669  28.496  1.00  0.00    -0.237 OA
ATOM     85  O   UNL A   1      45.581  37.870  26.600  1.00  0.00    -0.744 OA
ENDBRANCH  81  82
ENDBRANCH  62  76
BRANCH  63  86
ATOM     86  C   UNL A   1      45.421  24.697  33.813  1.00  0.00    -0.014 A 
ATOM     87  C   UNL A   1      46.497  24.369  34.658  1.00  0.00     0.010 A 
ATOM     88  C   UNL A   1      44.449  23.717  33.538  1.00  0.00     0.010 A 
ATOM     89  C   UNL A   1      46.617  23.080  35.187  1.00  0.00     0.020 A 
ATOM     90  C   UNL A   1      44.548  22.437  34.090  1.00  0.00     0.020 A 
ATOM     91  C   UNL A   1      45.642  22.122  34.899  1.00  0.00     0.054 A 
BRANCH  91  92
ATOM     92  S   UNL A   1      45.807  20.463  35.616  1.00  0.00     0.124 S 
ATOM     93  O   UNL A   1      47.166  20.099  35.230  1.00  0.00    -0.237 OA
ATOM     94  O   UNL A   1      45.600  20.714  37.040  1.00  0.00    -0.237 OA
ATOM     95  O   UNL A   1      44.745  19.700  34.963  1.00  0.00    -0.744 OA
ENDBRANCH  91  92
ENDBRANCH  63  86
BRANCH  75  96
ATOM     96  C   UNL A   1      48.778  27.747  28.507  1.00  0.00    -0.014 A 
ATOM     97  C   UNL A   1      50.121  28.014  28.826  1.00  0.00     0.010 A 
ATOM     98  C   UNL A   1      48.486  26.986  27.359  1.00  0.00     0.010 A 
ATOM     99  C   UNL A   1      51.149  27.558  27.994  1.00  0.00     0.020 A 
ATOM    100  C   UNL A   1      49.512  26.501  26.543  1.00  0.00     0.020 A 
ATOM    101  C   UNL A   1      50.837  26.803  26.858  1.00  0.00     0.054 A 
BRANCH 101 102
ATOM    102  S   UNL A   1      52.191  26.186  25.821  1.00  0.00     0.124 S 
ATOM    103  O   UNL A   1      52.194  24.761  26.140  1.00  0.00    -0.237 OA
ATOM    104  O   UNL A   1      51.744  26.528  24.474  1.00  0.00    -0.237 OA
ATOM    105  O   UNL A   1      53.356  26.931  26.292  1.00  0.00    -0.744 OA
ENDBRANCH 101 102
ENDBRANCH  75  96
ENDBRANCH  49  50
ENDBRANCH  42  44
ENDBRANCH  41  42
ENDBRANCH  40  41
ENDBRANCH  39  40
ENDBRANCH  38  39
ENDBRANCH  37  38
ENDBRANCH   1  37
TORSDOF 25
ENDMDL
