MODEL 1
REMARK VINA RESULT:      -9.0      0.000      0.000
REMARK SMILES COC(CNS(=O)(=O)c1ccc(Cl)c(C(=O)OCCOCCOCCOC(=O)c2ccc(-c3c4nc(c(-c5ccc(S(=O)(=O)[O-])cc5)c5ccc([nH]5)c(-c5ccc(S(=O)(=O)[O-])cc5)c5nc(c(-c6ccc(S(=O)(=O)[O-])cc6)c6ccc3[nH]6)C=C5)C=C4)cc2)c1Cl)OC
REMARK SMILES IDX 21 1 20 2 19 3 18 4 17 5 15 6 16 7 14 8 9 9 10 10 89 11
REMARK SMILES IDX 11 12 90 13 12 14 13 15 6 16 7 17 8 18 5 19 4 21 3 22 2 23
REMARK SMILES IDX 1 24 91 25 92 26 22 27 23 28 24 29 25 30 26 31 27 32 28 33
REMARK SMILES IDX 29 34 30 35 88 36 31 37 87 38 32 39 33 40 34 41 81 42 35 43
REMARK SMILES IDX 86 44 80 45 82 46 36 47 85 48 79 49 78 50 37 52 67 53 48 54
REMARK SMILES IDX 66 55 49 56 52 57 65 58 83 59 50 60 51 61 64 63 84 64 53 65
REMARK SMILES IDX 38 66 39 67 47 68 40 69 46 70 41 71 42 72 43 73 44 74 45 75
REMARK SMILES IDX 68 76 69 77 77 78 70 79 76 80 71 81 72 82 73 83 74 84 75 85
REMARK SMILES IDX 54 86 55 87 63 88 56 89 62 90 57 91 58 92 59 93 60 94 61 95
REMARK H PARENT 5 20 82 51 52 62
REMARK Flexibility Score: inf
ROOT
ATOM      1  C   UNL A   1      36.154  20.910  25.076  1.00  0.00     0.188 C 
ENDROOT
BRANCH   1   2
ATOM      2  O   UNL A   1      35.585  21.946  25.869  1.00  0.00    -0.376 OA
BRANCH   2   3
ATOM      3  C   UNL A   1      34.817  21.503  26.981  1.00  0.00     0.202 C 
BRANCH   3   4
ATOM      4  C   UNL A   1      33.662  22.440  27.333  1.00  0.00     0.261 C 
BRANCH   4   5
ATOM      5  O   UNL A   1      33.216  23.182  26.186  1.00  0.00    -0.460 OA
BRANCH   5   6
ATOM      6  C   UNL A   1      32.150  22.716  25.510  1.00  0.00     0.341 C 
ATOM      7  O   UNL A   1      31.710  21.580  25.511  1.00  0.00    -0.246 OA
BRANCH   6   8
ATOM      8  C   UNL A   1      31.563  23.832  24.745  1.00  0.00     0.098 A 
ATOM      9  C   UNL A   1      31.628  25.332  22.839  1.00  0.00     0.102 A 
ATOM     10  C   UNL A   1      30.568  26.065  23.410  1.00  0.00     0.025 A 
ATOM     11  C   UNL A   1      32.096  24.178  23.485  1.00  0.00     0.077 A 
ATOM     12  C   UNL A   1      30.021  25.690  24.637  1.00  0.00     0.023 A 
ATOM     13  Cl  UNL A   1      33.245  23.107  22.773  1.00  0.00    -0.082 Cl
ATOM     14  C   UNL A   1      30.538  24.593  25.323  1.00  0.00     0.057 A 
ATOM     15  Cl  UNL A   1      29.904  24.274  26.898  1.00  0.00    -0.083 Cl
BRANCH   9  16
ATOM     16  S   UNL A   1      32.472  26.132  21.485  1.00  0.00     0.242 S 
ATOM     17  O   UNL A   1      31.642  25.957  20.304  1.00  0.00    -0.207 OA
ATOM     18  O   UNL A   1      33.830  25.658  21.511  1.00  0.00    -0.207 OA
BRANCH  16  19
ATOM     19  N   UNL A   1      32.622  27.753  21.843  1.00  0.00    -0.206 NA
ATOM     20  H   UNL A   1      32.677  28.253  20.955  1.00  0.00     0.141 HD
BRANCH  19  21
ATOM     21  C   UNL A   1      33.783  28.196  22.672  1.00  0.00     0.161 C 
BRANCH  21  22
ATOM     22  C   UNL A   1      33.359  28.828  24.031  1.00  0.00     0.263 C 
BRANCH  22  23
ATOM     23  O   UNL A   1      33.632  28.021  25.173  1.00  0.00    -0.355 OA
ATOM     24  C   UNL A   1      34.151  26.726  24.966  1.00  0.00     0.198 C 
ENDBRANCH  22  23
BRANCH  22  25
ATOM     25  O   UNL A   1      32.096  29.501  24.019  1.00  0.00    -0.355 OA
ATOM     26  C   UNL A   1      31.344  29.476  25.213  1.00  0.00     0.198 C 
ENDBRANCH  22  25
ENDBRANCH  21  22
ENDBRANCH  19  21
ENDBRANCH  16  19
ENDBRANCH   9  16
ENDBRANCH   6   8
ENDBRANCH   5   6
ENDBRANCH   4   5
ENDBRANCH   3   4
ENDBRANCH   2   3
ENDBRANCH   1   2
BRANCH   1  27
ATOM     27  C   UNL A   1      37.696  20.917  25.004  1.00  0.00     0.188 C 
BRANCH  27  28
ATOM     28  O   UNL A   1      38.457  22.100  25.215  1.00  0.00    -0.376 OA
BRANCH  28  29
ATOM     29  C   UNL A   1      39.047  22.347  26.480  1.00  0.00     0.202 C 
BRANCH  29  30
ATOM     30  C   UNL A   1      40.035  23.512  26.619  1.00  0.00     0.261 C 
BRANCH  30  31
ATOM     31  O   UNL A   1      39.458  24.820  26.489  1.00  0.00    -0.460 OA
BRANCH  31  32
ATOM     32  C   UNL A   1      40.326  25.841  26.702  1.00  0.00     0.338 C 
ATOM     33  O   UNL A   1      41.234  26.191  25.966  1.00  0.00    -0.246 OA
BRANCH  32  34
ATOM     34  C   UNL A   1      39.943  26.613  27.905  1.00  0.00     0.060 A 
ATOM     35  C   UNL A   1      40.487  27.895  28.030  1.00  0.00     0.016 A 
ATOM     36  C   UNL A   1      39.135  26.096  28.923  1.00  0.00     0.016 A 
ATOM     37  C   UNL A   1      40.255  28.641  29.183  1.00  0.00     0.010 A 
ATOM     38  C   UNL A   1      38.918  26.845  30.094  1.00  0.00     0.010 A 
ATOM     39  C   UNL A   1      39.493  28.117  30.241  1.00  0.00    -0.014 A 
BRANCH  39  40
ATOM     40  C   UNL A   1      39.478  28.866  31.531  1.00  0.00     0.031 A 
ATOM     41  C   UNL A   1      40.681  28.745  32.429  1.00  0.00     0.074 A 
ATOM     42  C   UNL A   1      38.489  29.721  31.861  1.00  0.00     0.049 A 
ATOM     43  N   UNL A   1      41.032  29.480  33.453  1.00  0.00    -0.248 NA
ATOM     44  C   UNL A   1      41.620  27.656  32.114  1.00  0.00     0.031 C 
ATOM     45  C   UNL A   1      37.287  29.963  31.069  1.00  0.00     0.029 A 
ATOM     46  N   UNL A   1      38.385  30.614  32.906  1.00  0.00    -0.354 N 
ATOM     47  C   UNL A   1      42.222  28.930  33.917  1.00  0.00     0.074 A 
ATOM     48  C   UNL A   1      42.550  27.824  33.041  1.00  0.00     0.031 C 
ATOM     49  C   UNL A   1      36.618  31.004  31.598  1.00  0.00     0.029 A 
ATOM     50  C   UNL A   1      37.321  31.484  32.785  1.00  0.00     0.049 A 
ATOM     51  H   UNL A   1      39.011  30.630  33.666  1.00  0.00     0.167 HD
ATOM     52  C   UNL A   1      42.957  29.280  34.997  1.00  0.00     0.031 A 
ATOM     53  C   UNL A   1      36.982  32.572  33.515  1.00  0.00     0.031 A 
ATOM     54  C   UNL A   1      42.601  30.320  35.922  1.00  0.00     0.049 A 
ATOM     55  C   UNL A   1      37.835  32.952  34.704  1.00  0.00     0.074 A 
ATOM     56  C   UNL A   1      43.242  30.688  37.092  1.00  0.00     0.029 A 
ATOM     57  N   UNL A   1      41.494  31.144  35.795  1.00  0.00    -0.354 N 
ATOM     58  N   UNL A   1      38.986  32.459  35.092  1.00  0.00    -0.248 NA
ATOM     59  C   UNL A   1      37.330  34.042  35.557  1.00  0.00     0.031 C 
ATOM     60  C   UNL A   1      42.492  31.701  37.700  1.00  0.00     0.029 A 
ATOM     61  C   UNL A   1      41.419  32.002  36.878  1.00  0.00     0.049 A 
ATOM     62  H   UNL A   1      40.856  31.121  35.046  1.00  0.00     0.167 HD
ATOM     63  C   UNL A   1      39.337  33.173  36.236  1.00  0.00     0.074 A 
ATOM     64  C   UNL A   1      38.311  34.175  36.438  1.00  0.00     0.031 C 
ATOM     65  C   UNL A   1      40.395  32.997  37.065  1.00  0.00     0.031 A 
BRANCH  52  66
ATOM     66  C   UNL A   1      44.166  28.438  35.293  1.00  0.00    -0.014 A 
ATOM     67  C   UNL A   1      44.116  27.386  36.224  1.00  0.00     0.010 A 
ATOM     68  C   UNL A   1      45.377  28.727  34.638  1.00  0.00     0.010 A 
ATOM     69  C   UNL A   1      45.273  26.662  36.525  1.00  0.00     0.020 A 
ATOM     70  C   UNL A   1      46.528  27.993  34.922  1.00  0.00     0.020 A 
ATOM     71  C   UNL A   1      46.474  26.978  35.880  1.00  0.00     0.054 A 
BRANCH  71  72
ATOM     72  S   UNL A   1      47.967  26.036  36.297  1.00  0.00     0.124 S 
ATOM     73  O   UNL A   1      47.960  24.995  35.272  1.00  0.00    -0.237 OA
ATOM     74  O   UNL A   1      49.024  27.035  36.171  1.00  0.00    -0.237 OA
ATOM     75  O   UNL A   1      47.712  25.571  37.658  1.00  0.00    -0.744 OA
ENDBRANCH  71  72
ENDBRANCH  52  66
BRANCH  53  76
ATOM     76  C   UNL A   1      35.815  33.431  33.138  1.00  0.00    -0.014 A 
ATOM     77  C   UNL A   1      35.987  34.493  32.229  1.00  0.00     0.010 A 
ATOM     78  C   UNL A   1      34.540  33.234  33.698  1.00  0.00     0.010 A 
ATOM     79  C   UNL A   1      34.923  35.328  31.879  1.00  0.00     0.020 A 
ATOM     80  C   UNL A   1      33.464  34.054  33.337  1.00  0.00     0.020 A 
ATOM     81  C   UNL A   1      33.664  35.102  32.434  1.00  0.00     0.054 A 
BRANCH  81  82
ATOM     82  S   UNL A   1      32.286  36.171  31.936  1.00  0.00     0.124 S 
ATOM     83  O   UNL A   1      32.367  36.111  30.480  1.00  0.00    -0.237 OA
ATOM     84  O   UNL A   1      31.132  35.501  32.532  1.00  0.00    -0.237 OA
ATOM     85  O   UNL A   1      32.624  37.461  32.531  1.00  0.00    -0.744 OA
ENDBRANCH  81  82
ENDBRANCH  53  76
BRANCH  65  86
ATOM     86  C   UNL A   1      40.492  33.890  38.276  1.00  0.00    -0.014 A 
ATOM     87  C   UNL A   1      41.129  35.143  38.198  1.00  0.00     0.010 A 
ATOM     88  C   UNL A   1      39.891  33.505  39.487  1.00  0.00     0.010 A 
ATOM     89  C   UNL A   1      41.194  35.976  39.317  1.00  0.00     0.020 A 
ATOM     90  C   UNL A   1      39.931  34.348  40.603  1.00  0.00     0.020 A 
ATOM     91  C   UNL A   1      40.596  35.573  40.514  1.00  0.00     0.054 A 
BRANCH  91  92
ATOM     92  S   UNL A   1      40.655  36.692  41.941  1.00  0.00     0.124 S 
ATOM     93  O   UNL A   1      39.543  37.596  41.663  1.00  0.00    -0.237 OA
ATOM     94  O   UNL A   1      40.461  35.786  43.070  1.00  0.00    -0.237 OA
ATOM     95  O   UNL A   1      41.985  37.292  41.853  1.00  0.00    -0.744 OA
ENDBRANCH  91  92
ENDBRANCH  65  86
ENDBRANCH  39  40
ENDBRANCH  32  34
ENDBRANCH  31  32
ENDBRANCH  30  31
ENDBRANCH  29  30
ENDBRANCH  28  29
ENDBRANCH  27  28
ENDBRANCH   1  27
TORSDOF 26
ENDMDL
MODEL 2
REMARK VINA RESULT:      -8.7      6.767      8.848
REMARK SMILES COC(CNS(=O)(=O)c1ccc(Cl)c(C(=O)OCCOCCOCCOC(=O)c2ccc(-c3c4nc(c(-c5ccc(S(=O)(=O)[O-])cc5)c5ccc([nH]5)c(-c5ccc(S(=O)(=O)[O-])cc5)c5nc(c(-c6ccc(S(=O)(=O)[O-])cc6)c6ccc3[nH]6)C=C5)C=C4)cc2)c1Cl)OC
REMARK SMILES IDX 21 1 20 2 19 3 18 4 17 5 15 6 16 7 14 8 9 9 10 10 89 11
REMARK SMILES IDX 11 12 90 13 12 14 13 15 6 16 7 17 8 18 5 19 4 21 3 22 2 23
REMARK SMILES IDX 1 24 91 25 92 26 22 27 23 28 24 29 25 30 26 31 27 32 28 33
REMARK SMILES IDX 29 34 30 35 88 36 31 37 87 38 32 39 33 40 34 41 81 42 35 43
REMARK SMILES IDX 86 44 80 45 82 46 36 47 85 48 79 49 78 50 37 52 67 53 48 54
REMARK SMILES IDX 66 55 49 56 52 57 65 58 83 59 50 60 51 61 64 63 84 64 53 65
REMARK SMILES IDX 38 66 39 67 47 68 40 69 46 70 41 71 42 72 43 73 44 74 45 75
REMARK SMILES IDX 68 76 69 77 77 78 70 79 76 80 71 81 72 82 73 83 74 84 75 85
REMARK SMILES IDX 54 86 55 87 63 88 56 89 62 90 57 91 58 92 59 93 60 94 61 95
REMARK H PARENT 5 20 82 51 52 62
REMARK Flexibility Score: inf
ROOT
ATOM      1  C   UNL A   1      40.892  21.355  26.513  1.00  0.00     0.188 C 
ENDROOT
BRANCH   1   2
ATOM      2  O   UNL A   1      39.847  22.319  26.457  1.00  0.00    -0.376 OA
BRANCH   2   3
ATOM      3  C   UNL A   1      38.713  21.936  25.687  1.00  0.00     0.202 C 
BRANCH   3   4
ATOM      4  C   UNL A   1      37.485  22.810  25.941  1.00  0.00     0.261 C 
BRANCH   4   5
ATOM      5  O   UNL A   1      36.355  22.025  26.356  1.00  0.00    -0.460 OA
BRANCH   5   6
ATOM      6  C   UNL A   1      35.540  21.542  25.400  1.00  0.00     0.341 C 
ATOM      7  O   UNL A   1      35.461  20.393  25.004  1.00  0.00    -0.246 OA
BRANCH   6   8
ATOM      8  C   UNL A   1      34.715  22.653  24.889  1.00  0.00     0.098 A 
ATOM      9  C   UNL A   1      32.684  23.977  24.991  1.00  0.00     0.102 A 
ATOM     10  C   UNL A   1      33.071  24.618  23.798  1.00  0.00     0.025 A 
ATOM     11  C   UNL A   1      33.535  23.023  25.570  1.00  0.00     0.077 A 
ATOM     12  C   UNL A   1      34.260  24.274  23.156  1.00  0.00     0.023 A 
ATOM     13  Cl  UNL A   1      33.249  22.331  27.123  1.00  0.00    -0.082 Cl
ATOM     14  C   UNL A   1      35.068  23.268  23.681  1.00  0.00     0.057 A 
ATOM     15  Cl  UNL A   1      36.451  22.801  22.757  1.00  0.00    -0.083 Cl
BRANCH   9  16
ATOM     16  S   UNL A   1      30.989  24.235  25.487  1.00  0.00     0.242 S 
ATOM     17  O   UNL A   1      31.008  25.193  26.580  1.00  0.00    -0.207 OA
ATOM     18  O   UNL A   1      30.408  22.930  25.658  1.00  0.00    -0.207 OA
BRANCH  16  19
ATOM     19  N   UNL A   1      30.152  24.864  24.191  1.00  0.00    -0.206 NA
ATOM     20  H   UNL A   1      30.791  24.873  23.395  1.00  0.00     0.141 HD
BRANCH  19  21
ATOM     21  C   UNL A   1      29.577  26.238  24.311  1.00  0.00     0.161 C 
BRANCH  21  22
ATOM     22  C   UNL A   1      30.425  27.321  23.581  1.00  0.00     0.263 C 
BRANCH  22  23
ATOM     23  O   UNL A   1      31.138  28.201  24.445  1.00  0.00    -0.355 OA
ATOM     24  C   UNL A   1      32.531  28.027  24.571  1.00  0.00     0.198 C 
ENDBRANCH  22  23
BRANCH  22  25
ATOM     25  O   UNL A   1      29.792  27.925  22.447  1.00  0.00    -0.355 OA
ATOM     26  C   UNL A   1      28.942  29.024  22.695  1.00  0.00     0.198 C 
ENDBRANCH  22  25
ENDBRANCH  21  22
ENDBRANCH  19  21
ENDBRANCH  16  19
ENDBRANCH   9  16
ENDBRANCH   6   8
ENDBRANCH   5   6
ENDBRANCH   4   5
ENDBRANCH   3   4
ENDBRANCH   2   3
ENDBRANCH   1   2
BRANCH   1  27
ATOM     27  C   UNL A   1      40.458  19.904  26.211  1.00  0.00     0.188 C 
BRANCH  27  28
ATOM     28  O   UNL A   1      41.365  18.935  25.700  1.00  0.00    -0.376 OA
BRANCH  28  29
ATOM     29  C   UNL A   1      42.693  18.877  26.194  1.00  0.00     0.202 C 
BRANCH  29  30
ATOM     30  C   UNL A   1      43.799  18.341  25.276  1.00  0.00     0.261 C 
BRANCH  30  31
ATOM     31  O   UNL A   1      44.943  19.197  25.137  1.00  0.00    -0.460 OA
BRANCH  31  32
ATOM     32  C   UNL A   1      44.757  20.253  24.306  1.00  0.00     0.338 C 
ATOM     33  O   UNL A   1      44.525  20.205  23.109  1.00  0.00    -0.246 OA
BRANCH  32  34
ATOM     34  C   UNL A   1      44.714  21.521  25.068  1.00  0.00     0.060 A 
ATOM     35  C   UNL A   1      44.435  22.682  24.342  1.00  0.00     0.016 A 
ATOM     36  C   UNL A   1      45.001  21.604  26.435  1.00  0.00     0.016 A 
ATOM     37  C   UNL A   1      44.478  23.925  24.972  1.00  0.00     0.010 A 
ATOM     38  C   UNL A   1      45.062  22.861  27.063  1.00  0.00     0.010 A 
ATOM     39  C   UNL A   1      44.820  24.033  26.330  1.00  0.00    -0.014 A 
BRANCH  39  40
ATOM     40  C   UNL A   1      45.077  25.397  26.881  1.00  0.00     0.031 A 
ATOM     41  C   UNL A   1      46.427  26.015  26.630  1.00  0.00     0.074 A 
ATOM     42  C   UNL A   1      44.117  26.125  27.486  1.00  0.00     0.049 A 
ATOM     43  N   UNL A   1      46.811  27.258  26.763  1.00  0.00    -0.248 NA
ATOM     44  C   UNL A   1      47.479  25.103  26.150  1.00  0.00     0.031 C 
ATOM     45  C   UNL A   1      42.758  25.667  27.759  1.00  0.00     0.029 A 
ATOM     46  N   UNL A   1      44.114  27.441  27.897  1.00  0.00    -0.354 N 
ATOM     47  C   UNL A   1      48.153  27.275  26.401  1.00  0.00     0.074 A 
ATOM     48  C   UNL A   1      48.506  25.926  26.010  1.00  0.00     0.031 C 
ATOM     49  C   UNL A   1      42.027  26.707  28.198  1.00  0.00     0.029 A 
ATOM     50  C   UNL A   1      42.867  27.900  28.271  1.00  0.00     0.049 A 
ATOM     51  H   UNL A   1      44.924  28.001  27.922  1.00  0.00     0.167 HD
ATOM     52  C   UNL A   1      49.029  28.306  26.431  1.00  0.00     0.031 A 
ATOM     53  C   UNL A   1      42.442  29.145  28.586  1.00  0.00     0.031 A 
ATOM     54  C   UNL A   1      48.715  29.629  26.894  1.00  0.00     0.049 A 
ATOM     55  C   UNL A   1      43.439  30.282  28.589  1.00  0.00     0.074 A 
ATOM     56  C   UNL A   1      49.561  30.714  27.040  1.00  0.00     0.029 A 
ATOM     57  N   UNL A   1      47.459  30.042  27.311  1.00  0.00    -0.354 N 
ATOM     58  N   UNL A   1      44.687  30.293  28.189  1.00  0.00    -0.248 NA
ATOM     59  C   UNL A   1      42.960  31.579  29.096  1.00  0.00     0.031 C 
ATOM     60  C   UNL A   1      48.827  31.769  27.594  1.00  0.00     0.029 A 
ATOM     61  C   UNL A   1      47.512  31.357  27.737  1.00  0.00     0.049 A 
ATOM     62  H   UNL A   1      46.649  29.481  27.305  1.00  0.00     0.167 HD
ATOM     63  C   UNL A   1      45.142  31.592  28.402  1.00  0.00     0.074 A 
ATOM     64  C   UNL A   1      44.018  32.354  28.904  1.00  0.00     0.031 C 
ATOM     65  C   UNL A   1      46.385  32.105  28.232  1.00  0.00     0.031 A 
BRANCH  52  66
ATOM     66  C   UNL A   1      50.449  27.996  26.053  1.00  0.00    -0.014 A 
ATOM     67  C   UNL A   1      51.384  27.560  27.009  1.00  0.00     0.010 A 
ATOM     68  C   UNL A   1      50.855  28.166  24.717  1.00  0.00     0.010 A 
ATOM     69  C   UNL A   1      52.714  27.341  26.640  1.00  0.00     0.020 A 
ATOM     70  C   UNL A   1      52.177  27.928  24.341  1.00  0.00     0.020 A 
ATOM     71  C   UNL A   1      53.103  27.537  25.310  1.00  0.00     0.054 A 
BRANCH  71  72
ATOM     72  S   UNL A   1      54.838  27.262  24.856  1.00  0.00     0.124 S 
ATOM     73  O   UNL A   1      55.224  28.575  24.343  1.00  0.00    -0.237 OA
ATOM     74  O   UNL A   1      55.446  26.881  26.127  1.00  0.00    -0.237 OA
ATOM     75  O   UNL A   1      54.769  26.199  23.858  1.00  0.00    -0.744 OA
ENDBRANCH  71  72
ENDBRANCH  52  66
BRANCH  53  76
ATOM     76  C   UNL A   1      41.000  29.426  28.878  1.00  0.00    -0.014 A 
ATOM     77  C   UNL A   1      40.593  29.719  30.194  1.00  0.00     0.010 A 
ATOM     78  C   UNL A   1      40.018  29.368  27.874  1.00  0.00     0.010 A 
ATOM     79  C   UNL A   1      39.251  29.958  30.502  1.00  0.00     0.020 A 
ATOM     80  C   UNL A   1      38.674  29.626  28.171  1.00  0.00     0.020 A 
ATOM     81  C   UNL A   1      38.297  29.912  29.485  1.00  0.00     0.054 A 
BRANCH  81  82
ATOM     82  S   UNL A   1      36.566  30.266  29.896  1.00  0.00     0.124 S 
ATOM     83  O   UNL A   1      36.321  29.340  30.998  1.00  0.00    -0.237 OA
ATOM     84  O   UNL A   1      36.608  31.681  30.258  1.00  0.00    -0.237 OA
ATOM     85  O   UNL A   1      35.854  29.968  28.656  1.00  0.00    -0.744 OA
ENDBRANCH  81  82
ENDBRANCH  53  76
BRANCH  65  86
ATOM     86  C   UNL A   1      46.606  33.549  28.603  1.00  0.00    -0.014 A 
ATOM     87  C   UNL A   1      46.980  33.906  29.912  1.00  0.00     0.010 A 
ATOM     88  C   UNL A   1      46.500  34.553  27.625  1.00  0.00     0.010 A 
ATOM     89  C   UNL A   1      47.208  35.244  30.244  1.00  0.00     0.020 A 
ATOM     90  C   UNL A   1      46.753  35.891  27.948  1.00  0.00     0.020 A 
ATOM     91  C   UNL A   1      47.090  36.229  29.260  1.00  0.00     0.054 A 
BRANCH  91  92
ATOM     92  S   UNL A   1      47.435  37.954  29.705  1.00  0.00     0.124 S 
ATOM     93  O   UNL A   1      48.327  37.800  30.849  1.00  0.00    -0.237 OA
ATOM     94  O   UNL A   1      48.054  38.483  28.491  1.00  0.00    -0.237 OA
ATOM     95  O   UNL A   1      46.114  38.501  30.011  1.00  0.00    -0.744 OA
ENDBRANCH  91  92
ENDBRANCH  65  86
ENDBRANCH  39  40
ENDBRANCH  32  34
ENDBRANCH  31  32
ENDBRANCH  30  31
ENDBRANCH  29  30
ENDBRANCH  28  29
ENDBRANCH  27  28
ENDBRANCH   1  27
TORSDOF 26
ENDMDL
MODEL 3
REMARK VINA RESULT:      -8.5      6.601     11.886
REMARK SMILES COC(CNS(=O)(=O)c1ccc(Cl)c(C(=O)OCCOCCOCCOC(=O)c2ccc(-c3c4nc(c(-c5ccc(S(=O)(=O)[O-])cc5)c5ccc([nH]5)c(-c5ccc(S(=O)(=O)[O-])cc5)c5nc(c(-c6ccc(S(=O)(=O)[O-])cc6)c6ccc3[nH]6)C=C5)C=C4)cc2)c1Cl)OC
REMARK SMILES IDX 21 1 20 2 19 3 18 4 17 5 15 6 16 7 14 8 9 9 10 10 89 11
REMARK SMILES IDX 11 12 90 13 12 14 13 15 6 16 7 17 8 18 5 19 4 21 3 22 2 23
REMARK SMILES IDX 1 24 91 25 92 26 22 27 23 28 24 29 25 30 26 31 27 32 28 33
REMARK SMILES IDX 29 34 30 35 88 36 31 37 87 38 32 39 33 40 34 41 81 42 35 43
REMARK SMILES IDX 86 44 80 45 82 46 36 47 85 48 79 49 78 50 37 52 67 53 48 54
REMARK SMILES IDX 66 55 49 56 52 57 65 58 83 59 50 60 51 61 64 63 84 64 53 65
REMARK SMILES IDX 38 66 39 67 47 68 40 69 46 70 41 71 42 72 43 73 44 74 45 75
REMARK SMILES IDX 68 76 69 77 77 78 70 79 76 80 71 81 72 82 73 83 74 84 75 85
REMARK SMILES IDX 54 86 55 87 63 88 56 89 62 90 57 91 58 92 59 93 60 94 61 95
REMARK H PARENT 5 20 82 51 52 62
REMARK Flexibility Score: inf
ROOT
ATOM      1  C   UNL A   1      34.620  30.407  27.233  1.00  0.00     0.188 C 
ENDROOT
BRANCH   1   2
ATOM      2  O   UNL A   1      33.320  29.873  27.457  1.00  0.00    -0.376 OA
BRANCH   2   3
ATOM      3  C   UNL A   1      33.231  28.454  27.393  1.00  0.00     0.202 C 
BRANCH   3   4
ATOM      4  C   UNL A   1      32.800  27.936  26.022  1.00  0.00     0.261 C 
BRANCH   4   5
ATOM      5  O   UNL A   1      31.895  26.825  26.138  1.00  0.00    -0.460 OA
BRANCH   5   6
ATOM      6  C   UNL A   1      31.546  26.178  25.011  1.00  0.00     0.341 C 
ATOM      7  O   UNL A   1      30.594  26.410  24.287  1.00  0.00    -0.246 OA
BRANCH   6   8
ATOM      8  C   UNL A   1      32.533  25.108  24.766  1.00  0.00     0.098 A 
ATOM      9  C   UNL A   1      33.578  23.025  25.439  1.00  0.00     0.102 A 
ATOM     10  C   UNL A   1      34.527  23.198  24.412  1.00  0.00     0.025 A 
ATOM     11  C   UNL A   1      32.543  23.960  25.586  1.00  0.00     0.077 A 
ATOM     12  C   UNL A   1      34.483  24.316  23.580  1.00  0.00     0.023 A 
ATOM     13  Cl  UNL A   1      31.225  23.735  26.676  1.00  0.00    -0.082 Cl
ATOM     14  C   UNL A   1      33.507  25.291  23.776  1.00  0.00     0.057 A 
ATOM     15  Cl  UNL A   1      33.600  26.713  22.799  1.00  0.00    -0.083 Cl
BRANCH   9  16
ATOM     16  S   UNL A   1      33.975  21.774  26.649  1.00  0.00     0.242 S 
ATOM     17  O   UNL A   1      33.477  22.249  27.929  1.00  0.00    -0.207 OA
ATOM     18  O   UNL A   1      35.366  21.456  26.468  1.00  0.00    -0.207 OA
BRANCH  16  19
ATOM     19  N   UNL A   1      33.197  20.364  26.221  1.00  0.00    -0.206 NA
ATOM     20  H   UNL A   1      32.952  19.881  27.086  1.00  0.00     0.141 HD
BRANCH  19  21
ATOM     21  C   UNL A   1      33.923  19.382  25.358  1.00  0.00     0.161 C 
BRANCH  21  22
ATOM     22  C   UNL A   1      32.968  18.474  24.529  1.00  0.00     0.263 C 
BRANCH  22  23
ATOM     23  O   UNL A   1      33.354  17.104  24.470  1.00  0.00    -0.355 OA
ATOM     24  C   UNL A   1      32.871  16.232  25.468  1.00  0.00     0.198 C 
ENDBRANCH  22  23
BRANCH  22  25
ATOM     25  O   UNL A   1      32.490  19.049  23.309  1.00  0.00    -0.355 OA
ATOM     26  C   UNL A   1      32.200  18.162  22.250  1.00  0.00     0.198 C 
ENDBRANCH  22  25
ENDBRANCH  21  22
ENDBRANCH  19  21
ENDBRANCH  16  19
ENDBRANCH   9  16
ENDBRANCH   6   8
ENDBRANCH   5   6
ENDBRANCH   4   5
ENDBRANCH   3   4
ENDBRANCH   2   3
ENDBRANCH   1   2
BRANCH   1  27
ATOM     27  C   UNL A   1      34.847  31.827  27.795  1.00  0.00     0.188 C 
BRANCH  27  28
ATOM     28  O   UNL A   1      34.436  32.195  29.106  1.00  0.00    -0.376 OA
BRANCH  28  29
ATOM     29  C   UNL A   1      35.238  33.070  29.881  1.00  0.00     0.202 C 
BRANCH  29  30
ATOM     30  C   UNL A   1      36.509  32.518  30.539  1.00  0.00     0.261 C 
BRANCH  30  31
ATOM     31  O   UNL A   1      36.325  31.323  31.314  1.00  0.00    -0.460 OA
BRANCH  31  32
ATOM     32  C   UNL A   1      36.666  30.179  30.670  1.00  0.00     0.338 C 
ATOM     33  O   UNL A   1      35.901  29.344  30.213  1.00  0.00    -0.246 OA
BRANCH  32  34
ATOM     34  C   UNL A   1      38.126  30.122  30.437  1.00  0.00     0.060 A 
ATOM     35  C   UNL A   1      38.552  30.096  29.106  1.00  0.00     0.016 A 
ATOM     36  C   UNL A   1      39.064  30.027  31.472  1.00  0.00     0.016 A 
ATOM     37  C   UNL A   1      39.904  29.940  28.810  1.00  0.00     0.010 A 
ATOM     38  C   UNL A   1      40.426  29.851  31.168  1.00  0.00     0.010 A 
ATOM     39  C   UNL A   1      40.854  29.786  29.833  1.00  0.00    -0.014 A 
BRANCH  39  40
ATOM     40  C   UNL A   1      42.240  29.391  29.448  1.00  0.00     0.031 A 
ATOM     41  C   UNL A   1      42.444  28.019  28.861  1.00  0.00     0.074 A 
ATOM     42  C   UNL A   1      43.280  30.248  29.503  1.00  0.00     0.049 A 
ATOM     43  N   UNL A   1      43.472  27.535  28.213  1.00  0.00    -0.248 NA
ATOM     44  C   UNL A   1      41.325  27.074  29.015  1.00  0.00     0.031 C 
ATOM     45  C   UNL A   1      43.218  31.615  30.012  1.00  0.00     0.029 A 
ATOM     46  N   UNL A   1      44.572  30.124  29.038  1.00  0.00    -0.354 N 
ATOM     47  C   UNL A   1      43.132  26.224  27.899  1.00  0.00     0.074 A 
ATOM     48  C   UNL A   1      41.790  26.001  28.396  1.00  0.00     0.031 C 
ATOM     49  C   UNL A   1      44.381  32.234  29.744  1.00  0.00     0.029 A 
ATOM     50  C   UNL A   1      45.287  31.304  29.074  1.00  0.00     0.049 A 
ATOM     51  H   UNL A   1      44.948  29.275  28.711  1.00  0.00     0.167 HD
ATOM     52  C   UNL A   1      43.880  25.273  27.292  1.00  0.00     0.031 A 
ATOM     53  C   UNL A   1      46.508  31.611  28.580  1.00  0.00     0.031 A 
ATOM     54  C   UNL A   1      45.240  25.455  26.868  1.00  0.00     0.049 A 
ATOM     55  C   UNL A   1      47.312  30.535  27.886  1.00  0.00     0.074 A 
ATOM     56  C   UNL A   1      46.103  24.521  26.321  1.00  0.00     0.029 A 
ATOM     57  N   UNL A   1      45.945  26.644  26.965  1.00  0.00    -0.354 N 
ATOM     58  N   UNL A   1      46.953  29.320  27.545  1.00  0.00    -0.248 NA
ATOM     59  C   UNL A   1      48.694  30.879  27.514  1.00  0.00     0.031 C 
ATOM     60  C   UNL A   1      47.348  25.134  26.135  1.00  0.00     0.029 A 
ATOM     61  C   UNL A   1      47.240  26.463  26.513  1.00  0.00     0.049 A 
ATOM     62  H   UNL A   1      45.579  27.491  27.307  1.00  0.00     0.167 HD
ATOM     63  C   UNL A   1      48.067  28.756  26.928  1.00  0.00     0.074 A 
ATOM     64  C   UNL A   1      49.087  29.782  26.882  1.00  0.00     0.031 C 
ATOM     65  C   UNL A   1      48.245  27.493  26.469  1.00  0.00     0.031 A 
BRANCH  52  66
ATOM     66  C   UNL A   1      43.262  23.910  27.161  1.00  0.00    -0.014 A 
ATOM     67  C   UNL A   1      43.110  23.065  28.274  1.00  0.00     0.010 A 
ATOM     68  C   UNL A   1      42.848  23.465  25.893  1.00  0.00     0.010 A 
ATOM     69  C   UNL A   1      42.590  21.778  28.111  1.00  0.00     0.020 A 
ATOM     70  C   UNL A   1      42.311  22.189  25.729  1.00  0.00     0.020 A 
ATOM     71  C   UNL A   1      42.205  21.345  26.837  1.00  0.00     0.054 A 
BRANCH  71  72
ATOM     72  S   UNL A   1      41.548  19.665  26.645  1.00  0.00     0.124 S 
ATOM     73  O   UNL A   1      42.040  19.302  25.318  1.00  0.00    -0.237 OA
ATOM     74  O   UNL A   1      42.163  18.950  27.760  1.00  0.00    -0.237 OA
ATOM     75  O   UNL A   1      40.103  19.846  26.746  1.00  0.00    -0.744 OA
ENDBRANCH  71  72
ENDBRANCH  52  66
BRANCH  53  76
ATOM     76  C   UNL A   1      47.053  33.004  28.660  1.00  0.00    -0.014 A 
ATOM     77  C   UNL A   1      47.779  33.411  29.796  1.00  0.00     0.010 A 
ATOM     78  C   UNL A   1      46.828  33.945  27.640  1.00  0.00     0.010 A 
ATOM     79  C   UNL A   1      48.276  34.713  29.911  1.00  0.00     0.020 A 
ATOM     80  C   UNL A   1      47.340  35.245  27.739  1.00  0.00     0.020 A 
ATOM     81  C   UNL A   1      48.054  35.623  28.878  1.00  0.00     0.054 A 
BRANCH  81  82
ATOM     82  S   UNL A   1      48.743  37.295  29.028  1.00  0.00     0.124 S 
ATOM     83  O   UNL A   1      47.883  37.887  30.048  1.00  0.00    -0.237 OA
ATOM     84  O   UNL A   1      50.121  37.037  29.436  1.00  0.00    -0.237 OA
ATOM     85  O   UNL A   1      48.592  37.847  27.683  1.00  0.00    -0.744 OA
ENDBRANCH  81  82
ENDBRANCH  53  76
BRANCH  65  86
ATOM     86  C   UNL A   1      49.592  27.140  25.893  1.00  0.00    -0.014 A 
ATOM     87  C   UNL A   1      50.626  26.662  26.720  1.00  0.00     0.010 A 
ATOM     88  C   UNL A   1      49.812  27.225  24.507  1.00  0.00     0.010 A 
ATOM     89  C   UNL A   1      51.865  26.312  26.176  1.00  0.00     0.020 A 
ATOM     90  C   UNL A   1      51.042  26.851  23.955  1.00  0.00     0.020 A 
ATOM     91  C   UNL A   1      52.066  26.411  24.797  1.00  0.00     0.054 A 
BRANCH  91  92
ATOM     92  S   UNL A   1      53.668  25.908  24.109  1.00  0.00     0.124 S 
ATOM     93  O   UNL A   1      54.594  26.777  24.830  1.00  0.00    -0.237 OA
ATOM     94  O   UNL A   1      53.737  24.490  24.455  1.00  0.00    -0.237 OA
ATOM     95  O   UNL A   1      53.533  26.188  22.681  1.00  0.00    -0.744 OA
ENDBRANCH  91  92
ENDBRANCH  65  86
ENDBRANCH  39  40
ENDBRANCH  32  34
ENDBRANCH  31  32
ENDBRANCH  30  31
ENDBRANCH  29  30
ENDBRANCH  28  29
ENDBRANCH  27  28
ENDBRANCH   1  27
TORSDOF 26
ENDMDL
