MODEL 1
REMARK VINA RESULT:      -9.8      0.000      0.000
REMARK SMILES CCc1cc(/C=C/C(=O)OCCOCCOCCOC(=O)c2ccc(-c3c4nc(c(-c5ccc(S(=O)(=O)[O-])cc5)c5ccc([nH]5)c(-c5ccc(S(=O)(=O)[O-])cc5)c5nc(c(-c6ccc(S(=O)(=O)[O-])cc6)c6ccc3[nH]6)C=C5)C=C4)cc2)cc(C(=O)c2ccccc2)c1
REMARK SMILES IDX 14 1 13 2 12 3 11 4 10 5 8 6 9 7 7 8 6 9 5 10 3 11 4 12
REMARK SMILES IDX 92 13 83 14 82 15 2 16 1 17 84 18 85 19 86 20 87 21 91 22
REMARK SMILES IDX 88 23 90 24 89 25 15 26 16 27 17 28 18 29 19 30 20 31 21 32
REMARK SMILES IDX 22 33 23 34 81 35 24 36 80 37 25 38 26 39 27 40 74 41 28 42
REMARK SMILES IDX 79 43 73 44 75 45 29 46 78 47 72 48 71 49 30 51 60 52 41 53
REMARK SMILES IDX 59 54 42 55 45 56 58 57 76 58 43 59 44 60 57 62 77 63 46 64
REMARK SMILES IDX 31 65 32 66 40 67 33 68 39 69 34 70 35 71 36 72 37 73 38 74
REMARK SMILES IDX 61 75 62 76 70 77 63 78 69 79 64 80 65 81 66 82 67 83 68 84
REMARK SMILES IDX 47 85 48 86 56 87 49 88 55 89 50 90 51 91 52 92 53 93 54 94
REMARK H PARENT 75 50 45 61
REMARK Flexibility Score: inf
ROOT
ATOM      1  C   UNL A   1      32.344  36.075  31.078  1.00  0.00     0.188 C 
ENDROOT
BRANCH   1   2
ATOM      2  O   UNL A   1      32.686  35.020  30.201  1.00  0.00    -0.376 OA
BRANCH   2   3
ATOM      3  C   UNL A   1      33.529  35.259  29.087  1.00  0.00     0.202 C 
BRANCH   3   4
ATOM      4  C   UNL A   1      34.134  34.133  28.236  1.00  0.00     0.261 C 
BRANCH   4   5
ATOM      5  O   UNL A   1      33.411  32.895  28.238  1.00  0.00    -0.460 OA
BRANCH   5   6
ATOM      6  C   UNL A   1      34.159  31.791  27.987  1.00  0.00     0.330 C 
ATOM      7  O   UNL A   1      35.344  31.646  28.244  1.00  0.00    -0.247 OA
BRANCH   6   8
ATOM      8  C   UNL A   1      33.349  30.673  27.462  1.00  0.00     0.094 C 
ATOM      9  C   UNL A   1      33.125  30.420  26.163  1.00  0.00     0.015 C 
BRANCH   9  10
ATOM     10  C   UNL A   1      32.286  29.306  25.686  1.00  0.00    -0.024 A 
ATOM     11  C   UNL A   1      31.427  27.018  25.884  1.00  0.00    -0.047 A 
ATOM     12  C   UNL A   1      32.219  28.075  26.361  1.00  0.00     0.011 A 
ATOM     13  C   UNL A   1      30.664  27.224  24.728  1.00  0.00     0.016 A 
ATOM     14  C   UNL A   1      30.672  28.459  24.066  1.00  0.00     0.023 A 
ATOM     15  C   UNL A   1      31.485  29.494  24.552  1.00  0.00     0.020 A 
BRANCH  11  16
ATOM     16  C   UNL A   1      31.359  25.722  26.664  1.00  0.00     0.032 C 
ATOM     17  C   UNL A   1      30.369  24.691  26.132  1.00  0.00     0.009 C 
ENDBRANCH  11  16
BRANCH  14  18
ATOM     18  C   UNL A   1      29.876  28.701  22.823  1.00  0.00     0.193 C 
ATOM     19  O   UNL A   1      29.716  27.805  21.999  1.00  0.00    -0.289 OA
BRANCH  18  20
ATOM     20  C   UNL A   1      29.199  29.994  22.584  1.00  0.00     0.022 A 
ATOM     21  C   UNL A   1      28.692  30.687  23.686  1.00  0.00     0.012 A 
ATOM     22  C   UNL A   1      29.076  30.526  21.295  1.00  0.00     0.012 A 
ATOM     23  C   UNL A   1      28.109  31.942  23.507  1.00  0.00     0.001 A 
ATOM     24  C   UNL A   1      28.498  31.785  21.123  1.00  0.00     0.001 A 
ATOM     25  C   UNL A   1      28.024  32.494  22.228  1.00  0.00     0.000 A 
ENDBRANCH  18  20
ENDBRANCH  14  18
ENDBRANCH   9  10
ENDBRANCH   6   8
ENDBRANCH   5   6
ENDBRANCH   4   5
ENDBRANCH   3   4
ENDBRANCH   2   3
ENDBRANCH   1   2
BRANCH   1  26
ATOM     26  C   UNL A   1      33.316  37.251  31.295  1.00  0.00     0.188 C 
BRANCH  26  27
ATOM     27  O   UNL A   1      34.235  37.207  32.362  1.00  0.00    -0.376 OA
BRANCH  27  28
ATOM     28  C   UNL A   1      34.249  36.118  33.271  1.00  0.00     0.202 C 
BRANCH  28  29
ATOM     29  C   UNL A   1      35.274  34.971  33.294  1.00  0.00     0.261 C 
BRANCH  29  30
ATOM     30  O   UNL A   1      35.804  34.521  32.048  1.00  0.00    -0.460 OA
BRANCH  30  31
ATOM     31  C   UNL A   1      35.501  33.244  31.724  1.00  0.00     0.338 C 
ATOM     32  O   UNL A   1      34.387  32.731  31.686  1.00  0.00    -0.246 OA
BRANCH  31  33
ATOM     33  C   UNL A   1      36.717  32.569  31.252  1.00  0.00     0.060 A 
ATOM     34  C   UNL A   1      37.329  31.620  32.082  1.00  0.00     0.016 A 
ATOM     35  C   UNL A   1      37.270  32.904  30.016  1.00  0.00     0.016 A 
ATOM     36  C   UNL A   1      38.514  31.008  31.679  1.00  0.00     0.010 A 
ATOM     37  C   UNL A   1      38.468  32.306  29.625  1.00  0.00     0.010 A 
ATOM     38  C   UNL A   1      39.108  31.375  30.463  1.00  0.00    -0.014 A 
BRANCH  38  39
ATOM     39  C   UNL A   1      40.475  30.915  30.131  1.00  0.00     0.031 A 
ATOM     40  C   UNL A   1      41.605  31.904  30.216  1.00  0.00     0.074 A 
ATOM     41  C   UNL A   1      40.707  29.649  29.742  1.00  0.00     0.049 A 
ATOM     42  N   UNL A   1      42.858  31.759  29.877  1.00  0.00    -0.248 NA
ATOM     43  C   UNL A   1      41.272  33.235  30.752  1.00  0.00     0.031 C 
ATOM     44  C   UNL A   1      39.703  28.588  29.669  1.00  0.00     0.029 A 
ATOM     45  N   UNL A   1      41.866  29.048  29.318  1.00  0.00    -0.354 N 
ATOM     46  C   UNL A   1      43.462  32.983  30.143  1.00  0.00     0.074 A 
ATOM     47  C   UNL A   1      42.434  33.863  30.653  1.00  0.00     0.031 C 
ATOM     48  C   UNL A   1      40.289  27.469  29.207  1.00  0.00     0.029 A 
ATOM     49  C   UNL A   1      41.694  27.746  28.913  1.00  0.00     0.049 A 
ATOM     50  H   UNL A   1      42.737  29.507  29.305  1.00  0.00     0.167 HD
ATOM     51  C   UNL A   1      44.757  33.340  29.975  1.00  0.00     0.031 A 
ATOM     52  C   UNL A   1      42.564  26.889  28.342  1.00  0.00     0.031 A 
ATOM     53  C   UNL A   1      45.770  32.468  29.445  1.00  0.00     0.049 A 
ATOM     54  C   UNL A   1      43.980  27.335  28.085  1.00  0.00     0.074 A 
ATOM     55  C   UNL A   1      47.113  32.733  29.243  1.00  0.00     0.029 A 
ATOM     56  N   UNL A   1      45.551  31.165  29.025  1.00  0.00    -0.354 N 
ATOM     57  N   UNL A   1      44.545  28.489  28.357  1.00  0.00    -0.248 NA
ATOM     58  C   UNL A   1      44.881  26.363  27.448  1.00  0.00     0.031 C 
ATOM     59  C   UNL A   1      47.694  31.610  28.646  1.00  0.00     0.029 A 
ATOM     60  C   UNL A   1      46.728  30.621  28.542  1.00  0.00     0.049 A 
ATOM     61  H   UNL A   1      44.686  30.696  29.065  1.00  0.00     0.167 HD
ATOM     62  C   UNL A   1      45.871  28.367  27.959  1.00  0.00     0.074 A 
ATOM     63  C   UNL A   1      46.029  27.029  27.431  1.00  0.00     0.031 C 
ATOM     64  C   UNL A   1      46.873  29.280  28.031  1.00  0.00     0.031 A 
BRANCH  51  65
ATOM     65  C   UNL A   1      45.139  34.752  30.328  1.00  0.00    -0.014 A 
ATOM     66  C   UNL A   1      45.222  35.173  31.668  1.00  0.00     0.010 A 
ATOM     67  C   UNL A   1      45.453  35.664  29.303  1.00  0.00     0.010 A 
ATOM     68  C   UNL A   1      45.575  36.489  31.974  1.00  0.00     0.020 A 
ATOM     69  C   UNL A   1      45.834  36.974  29.608  1.00  0.00     0.020 A 
ATOM     70  C   UNL A   1      45.876  37.382  30.942  1.00  0.00     0.054 A 
BRANCH  70  71
ATOM     71  S   UNL A   1      46.351  39.079  31.370  1.00  0.00     0.124 S 
ATOM     72  O   UNL A   1      46.598  38.970  32.806  1.00  0.00    -0.237 OA
ATOM     73  O   UNL A   1      47.538  39.296  30.546  1.00  0.00    -0.237 OA
ATOM     74  O   UNL A   1      45.183  39.872  30.998  1.00  0.00    -0.744 OA
ENDBRANCH  70  71
ENDBRANCH  51  65
BRANCH  52  75
ATOM     75  C   UNL A   1      42.114  25.524  27.949  1.00  0.00    -0.014 A 
ATOM     76  C   UNL A   1      42.366  24.420  28.782  1.00  0.00     0.010 A 
ATOM     77  C   UNL A   1      41.431  25.323  26.736  1.00  0.00     0.010 A 
ATOM     78  C   UNL A   1      41.959  23.137  28.400  1.00  0.00     0.020 A 
ATOM     79  C   UNL A   1      40.997  24.047  26.364  1.00  0.00     0.020 A 
ATOM     80  C   UNL A   1      41.274  22.960  27.194  1.00  0.00     0.054 A 
BRANCH  80  81
ATOM     81  S   UNL A   1      40.714  21.293  26.744  1.00  0.00     0.124 S 
ATOM     82  O   UNL A   1      39.372  21.552  26.235  1.00  0.00    -0.237 OA
ATOM     83  O   UNL A   1      41.703  20.889  25.748  1.00  0.00    -0.237 OA
ATOM     84  O   UNL A   1      40.776  20.560  28.006  1.00  0.00    -0.744 OA
ENDBRANCH  80  81
ENDBRANCH  52  75
BRANCH  64  85
ATOM     85  C   UNL A   1      48.247  28.855  27.583  1.00  0.00    -0.014 A 
ATOM     86  C   UNL A   1      48.520  28.545  26.240  1.00  0.00     0.010 A 
ATOM     87  C   UNL A   1      49.302  28.854  28.515  1.00  0.00     0.010 A 
ATOM     88  C   UNL A   1      49.821  28.223  25.841  1.00  0.00     0.020 A 
ATOM     89  C   UNL A   1      50.608  28.559  28.116  1.00  0.00     0.020 A 
ATOM     90  C   UNL A   1      50.857  28.236  26.781  1.00  0.00     0.054 A 
BRANCH  90  91
ATOM     91  S   UNL A   1      52.547  27.881  26.224  1.00  0.00     0.124 S 
ATOM     92  O   UNL A   1      52.903  29.112  25.525  1.00  0.00    -0.237 OA
ATOM     93  O   UNL A   1      53.255  27.643  27.479  1.00  0.00    -0.237 OA
ATOM     94  O   UNL A   1      52.391  26.704  25.372  1.00  0.00    -0.744 OA
ENDBRANCH  90  91
ENDBRANCH  64  85
ENDBRANCH  38  39
ENDBRANCH  31  33
ENDBRANCH  30  31
ENDBRANCH  29  30
ENDBRANCH  28  29
ENDBRANCH  27  28
ENDBRANCH  26  27
ENDBRANCH   1  26
TORSDOF 24
ENDMDL
MODEL 2
REMARK VINA RESULT:      -9.3      7.279      8.791
REMARK SMILES CCc1cc(/C=C/C(=O)OCCOCCOCCOC(=O)c2ccc(-c3c4nc(c(-c5ccc(S(=O)(=O)[O-])cc5)c5ccc([nH]5)c(-c5ccc(S(=O)(=O)[O-])cc5)c5nc(c(-c6ccc(S(=O)(=O)[O-])cc6)c6ccc3[nH]6)C=C5)C=C4)cc2)cc(C(=O)c2ccccc2)c1
REMARK SMILES IDX 14 1 13 2 12 3 11 4 10 5 8 6 9 7 7 8 6 9 5 10 3 11 4 12
REMARK SMILES IDX 92 13 83 14 82 15 2 16 1 17 84 18 85 19 86 20 87 21 91 22
REMARK SMILES IDX 88 23 90 24 89 25 15 26 16 27 17 28 18 29 19 30 20 31 21 32
REMARK SMILES IDX 22 33 23 34 81 35 24 36 80 37 25 38 26 39 27 40 74 41 28 42
REMARK SMILES IDX 79 43 73 44 75 45 29 46 78 47 72 48 71 49 30 51 60 52 41 53
REMARK SMILES IDX 59 54 42 55 45 56 58 57 76 58 43 59 44 60 57 62 77 63 46 64
REMARK SMILES IDX 31 65 32 66 40 67 33 68 39 69 34 70 35 71 36 72 37 73 38 74
REMARK SMILES IDX 61 75 62 76 70 77 63 78 69 79 64 80 65 81 66 82 67 83 68 84
REMARK SMILES IDX 47 85 48 86 56 87 49 88 55 89 50 90 51 91 52 92 53 93 54 94
REMARK H PARENT 75 50 45 61
REMARK Flexibility Score: inf
ROOT
ATOM      1  C   UNL A   1      32.568  35.801  30.884  1.00  0.00     0.188 C 
ENDROOT
BRANCH   1   2
ATOM      2  O   UNL A   1      33.186  34.756  30.159  1.00  0.00    -0.376 OA
BRANCH   2   3
ATOM      3  C   UNL A   1      33.565  34.947  28.807  1.00  0.00     0.202 C 
BRANCH   3   4
ATOM      4  C   UNL A   1      34.203  33.844  27.951  1.00  0.00     0.261 C 
BRANCH   4   5
ATOM      5  O   UNL A   1      33.454  32.626  27.846  1.00  0.00    -0.460 OA
BRANCH   5   6
ATOM      6  C   UNL A   1      34.184  31.488  27.962  1.00  0.00     0.330 C 
ATOM      7  O   UNL A   1      35.189  31.340  28.640  1.00  0.00    -0.247 OA
BRANCH   6   8
ATOM      8  C   UNL A   1      33.560  30.347  27.262  1.00  0.00     0.094 C 
ATOM      9  C   UNL A   1      32.940  30.411  26.073  1.00  0.00     0.015 C 
BRANCH   9  10
ATOM     10  C   UNL A   1      32.307  29.249  25.424  1.00  0.00    -0.024 A 
ATOM     11  C   UNL A   1      32.227  26.857  24.891  1.00  0.00    -0.047 A 
ATOM     12  C   UNL A   1      32.835  27.952  25.529  1.00  0.00     0.011 A 
ATOM     13  C   UNL A   1      31.048  27.076  24.168  1.00  0.00     0.016 A 
ATOM     14  C   UNL A   1      30.472  28.351  24.092  1.00  0.00     0.023 A 
ATOM     15  C   UNL A   1      31.108  29.431  24.723  1.00  0.00     0.020 A 
BRANCH  11  16
ATOM     16  C   UNL A   1      32.812  25.471  25.063  1.00  0.00     0.032 C 
ATOM     17  C   UNL A   1      34.251  25.305  24.585  1.00  0.00     0.009 C 
ENDBRANCH  11  16
BRANCH  14  18
ATOM     18  C   UNL A   1      29.221  28.614  23.316  1.00  0.00     0.193 C 
ATOM     19  O   UNL A   1      28.402  27.719  23.127  1.00  0.00    -0.289 OA
BRANCH  18  20
ATOM     20  C   UNL A   1      28.897  29.969  22.818  1.00  0.00     0.022 A 
ATOM     21  C   UNL A   1      28.953  30.197  21.440  1.00  0.00     0.012 A 
ATOM     22  C   UNL A   1      28.528  30.998  23.692  1.00  0.00     0.012 A 
ATOM     23  C   UNL A   1      28.586  31.442  20.929  1.00  0.00     0.001 A 
ATOM     24  C   UNL A   1      28.155  32.239  23.174  1.00  0.00     0.001 A 
ATOM     25  C   UNL A   1      28.177  32.457  21.795  1.00  0.00     0.000 A 
ENDBRANCH  18  20
ENDBRANCH  14  18
ENDBRANCH   9  10
ENDBRANCH   6   8
ENDBRANCH   5   6
ENDBRANCH   4   5
ENDBRANCH   3   4
ENDBRANCH   2   3
ENDBRANCH   1   2
BRANCH   1  26
ATOM     26  C   UNL A   1      33.298  37.144  31.080  1.00  0.00     0.188 C 
BRANCH  26  27
ATOM     27  O   UNL A   1      33.966  37.403  32.294  1.00  0.00    -0.376 OA
BRANCH  27  28
ATOM     28  C   UNL A   1      34.026  36.424  33.318  1.00  0.00     0.202 C 
BRANCH  28  29
ATOM     29  C   UNL A   1      35.167  35.416  33.541  1.00  0.00     0.261 C 
BRANCH  29  30
ATOM     30  O   UNL A   1      35.934  35.011  32.409  1.00  0.00    -0.460 OA
BRANCH  30  31
ATOM     31  C   UNL A   1      36.031  33.675  32.231  1.00  0.00     0.338 C 
ATOM     32  O   UNL A   1      35.420  32.985  31.420  1.00  0.00    -0.246 OA
BRANCH  31  33
ATOM     33  C   UNL A   1      37.126  33.160  33.062  1.00  0.00     0.060 A 
ATOM     34  C   UNL A   1      36.822  32.303  34.128  1.00  0.00     0.016 A 
ATOM     35  C   UNL A   1      38.441  33.557  32.816  1.00  0.00     0.016 A 
ATOM     36  C   UNL A   1      37.838  31.847  34.965  1.00  0.00     0.010 A 
ATOM     37  C   UNL A   1      39.454  33.118  33.668  1.00  0.00     0.010 A 
ATOM     38  C   UNL A   1      39.155  32.281  34.759  1.00  0.00    -0.014 A 
BRANCH  38  39
ATOM     39  C   UNL A   1      40.200  32.001  35.770  1.00  0.00     0.031 A 
ATOM     40  C   UNL A   1      40.490  33.047  36.811  1.00  0.00     0.074 A 
ATOM     41  C   UNL A   1      40.892  30.848  35.751  1.00  0.00     0.049 A 
ATOM     42  N   UNL A   1      41.424  33.067  37.725  1.00  0.00    -0.248 NA
ATOM     43  C   UNL A   1      39.612  34.228  36.815  1.00  0.00     0.031 C 
ATOM     44  C   UNL A   1      40.668  29.740  34.824  1.00  0.00     0.029 A 
ATOM     45  N   UNL A   1      41.940  30.429  36.532  1.00  0.00    -0.354 N 
ATOM     46  C   UNL A   1      41.257  34.268  38.405  1.00  0.00     0.074 A 
ATOM     47  C   UNL A   1      40.145  34.957  37.786  1.00  0.00     0.031 C 
ATOM     48  C   UNL A   1      41.567  28.773  35.080  1.00  0.00     0.029 A 
ATOM     49  C   UNL A   1      42.453  29.211  36.156  1.00  0.00     0.049 A 
ATOM     50  H   UNL A   1      42.291  30.952  37.290  1.00  0.00     0.167 HD
ATOM     51  C   UNL A   1      41.967  34.753  39.450  1.00  0.00     0.031 A 
ATOM     52  C   UNL A   1      43.534  28.544  36.608  1.00  0.00     0.031 A 
ATOM     53  C   UNL A   1      43.085  34.075  40.046  1.00  0.00     0.049 A 
ATOM     54  C   UNL A   1      44.362  29.142  37.716  1.00  0.00     0.074 A 
ATOM     55  C   UNL A   1      43.867  34.480  41.114  1.00  0.00     0.029 A 
ATOM     56  N   UNL A   1      43.589  32.855  39.621  1.00  0.00    -0.354 N 
ATOM     57  N   UNL A   1      44.184  30.269  38.363  1.00  0.00    -0.248 NA
ATOM     58  C   UNL A   1      45.536  28.376  38.159  1.00  0.00     0.031 C 
ATOM     59  C   UNL A   1      44.878  33.532  41.298  1.00  0.00     0.029 A 
ATOM     60  C   UNL A   1      44.686  32.503  40.390  1.00  0.00     0.049 A 
ATOM     61  H   UNL A   1      43.221  32.318  38.883  1.00  0.00     0.167 HD
ATOM     62  C   UNL A   1      45.199  30.329  39.312  1.00  0.00     0.074 A 
ATOM     63  C   UNL A   1      45.986  29.124  39.158  1.00  0.00     0.031 C 
ATOM     64  C   UNL A   1      45.452  31.292  40.234  1.00  0.00     0.031 A 
BRANCH  51  65
ATOM     65  C   UNL A   1      41.579  36.105  39.985  1.00  0.00    -0.014 A 
ATOM     66  C   UNL A   1      42.091  37.288  39.420  1.00  0.00     0.010 A 
ATOM     67  C   UNL A   1      40.663  36.195  41.049  1.00  0.00     0.010 A 
ATOM     68  C   UNL A   1      41.722  38.533  39.935  1.00  0.00     0.020 A 
ATOM     69  C   UNL A   1      40.270  37.440  41.547  1.00  0.00     0.020 A 
ATOM     70  C   UNL A   1      40.815  38.601  40.996  1.00  0.00     0.054 A 
BRANCH  70  71
ATOM     71  S   UNL A   1      40.338  40.232  41.631  1.00  0.00     0.124 S 
ATOM     72  O   UNL A   1      41.603  40.728  42.167  1.00  0.00    -0.237 OA
ATOM     73  O   UNL A   1      39.856  40.912  40.431  1.00  0.00    -0.237 OA
ATOM     74  O   UNL A   1      39.314  39.932  42.627  1.00  0.00    -0.744 OA
ENDBRANCH  70  71
ENDBRANCH  51  65
BRANCH  52  75
ATOM     75  C   UNL A   1      43.913  27.240  35.995  1.00  0.00    -0.014 A 
ATOM     76  C   UNL A   1      44.815  27.190  34.918  1.00  0.00     0.010 A 
ATOM     77  C   UNL A   1      43.372  26.038  36.489  1.00  0.00     0.010 A 
ATOM     78  C   UNL A   1      45.154  25.965  34.334  1.00  0.00     0.020 A 
ATOM     79  C   UNL A   1      43.730  24.810  35.927  1.00  0.00     0.020 A 
ATOM     80  C   UNL A   1      44.611  24.782  34.845  1.00  0.00     0.054 A 
BRANCH  80  81
ATOM     81  S   UNL A   1      45.104  23.202  34.101  1.00  0.00     0.124 S 
ATOM     82  O   UNL A   1      44.673  23.370  32.717  1.00  0.00    -0.237 OA
ATOM     83  O   UNL A   1      46.548  23.190  34.318  1.00  0.00    -0.237 OA
ATOM     84  O   UNL A   1      44.357  22.213  34.874  1.00  0.00    -0.744 OA
ENDBRANCH  80  81
ENDBRANCH  52  75
BRANCH  64  85
ATOM     85  C   UNL A   1      46.592  31.067  41.193  1.00  0.00    -0.014 A 
ATOM     86  C   UNL A   1      46.401  30.420  42.425  1.00  0.00     0.010 A 
ATOM     87  C   UNL A   1      47.895  31.437  40.808  1.00  0.00     0.010 A 
ATOM     88  C   UNL A   1      47.490  30.161  43.263  1.00  0.00     0.020 A 
ATOM     89  C   UNL A   1      48.989  31.157  41.629  1.00  0.00     0.020 A 
ATOM     90  C   UNL A   1      48.778  30.528  42.857  1.00  0.00     0.054 A 
BRANCH  90  91
ATOM     91  S   UNL A   1      50.182  30.122  43.932  1.00  0.00     0.124 S 
ATOM     92  O   UNL A   1      50.624  28.843  43.386  1.00  0.00    -0.237 OA
ATOM     93  O   UNL A   1      51.089  31.246  43.715  1.00  0.00    -0.237 OA
ATOM     94  O   UNL A   1      49.590  30.058  45.267  1.00  0.00    -0.744 OA
ENDBRANCH  90  91
ENDBRANCH  64  85
ENDBRANCH  38  39
ENDBRANCH  31  33
ENDBRANCH  30  31
ENDBRANCH  29  30
ENDBRANCH  28  29
ENDBRANCH  27  28
ENDBRANCH  26  27
ENDBRANCH   1  26
TORSDOF 24
ENDMDL
MODEL 3
REMARK VINA RESULT:      -9.2      2.383      8.861
REMARK SMILES CCc1cc(/C=C/C(=O)OCCOCCOCCOC(=O)c2ccc(-c3c4nc(c(-c5ccc(S(=O)(=O)[O-])cc5)c5ccc([nH]5)c(-c5ccc(S(=O)(=O)[O-])cc5)c5nc(c(-c6ccc(S(=O)(=O)[O-])cc6)c6ccc3[nH]6)C=C5)C=C4)cc2)cc(C(=O)c2ccccc2)c1
REMARK SMILES IDX 14 1 13 2 12 3 11 4 10 5 8 6 9 7 7 8 6 9 5 10 3 11 4 12
REMARK SMILES IDX 92 13 83 14 82 15 2 16 1 17 84 18 85 19 86 20 87 21 91 22
REMARK SMILES IDX 88 23 90 24 89 25 15 26 16 27 17 28 18 29 19 30 20 31 21 32
REMARK SMILES IDX 22 33 23 34 81 35 24 36 80 37 25 38 26 39 27 40 74 41 28 42
REMARK SMILES IDX 79 43 73 44 75 45 29 46 78 47 72 48 71 49 30 51 60 52 41 53
REMARK SMILES IDX 59 54 42 55 45 56 58 57 76 58 43 59 44 60 57 62 77 63 46 64
REMARK SMILES IDX 31 65 32 66 40 67 33 68 39 69 34 70 35 71 36 72 37 73 38 74
REMARK SMILES IDX 61 75 62 76 70 77 63 78 69 79 64 80 65 81 66 82 67 83 68 84
REMARK SMILES IDX 47 85 48 86 56 87 49 88 55 89 50 90 51 91 52 92 53 93 54 94
REMARK H PARENT 75 50 45 61
REMARK Flexibility Score: inf
ROOT
ATOM      1  C   UNL A   1      35.835  33.186  30.824  1.00  0.00     0.188 C 
ENDROOT
BRANCH   1   2
ATOM      2  O   UNL A   1      35.754  33.820  29.562  1.00  0.00    -0.376 OA
BRANCH   2   3
ATOM      3  C   UNL A   1      34.503  33.974  28.916  1.00  0.00     0.202 C 
BRANCH   3   4
ATOM      4  C   UNL A   1      33.988  33.005  27.842  1.00  0.00     0.261 C 
BRANCH   4   5
ATOM      5  O   UNL A   1      33.773  31.655  28.274  1.00  0.00    -0.460 OA
BRANCH   5   6
ATOM      6  C   UNL A   1      34.407  30.707  27.539  1.00  0.00     0.330 C 
ATOM      7  O   UNL A   1      35.609  30.488  27.524  1.00  0.00    -0.247 OA
BRANCH   6   8
ATOM      8  C   UNL A   1      33.462  29.832  26.816  1.00  0.00     0.094 C 
ATOM      9  C   UNL A   1      33.207  28.549  27.117  1.00  0.00     0.015 C 
BRANCH   9  10
ATOM     10  C   UNL A   1      32.274  27.705  26.350  1.00  0.00    -0.024 A 
ATOM     11  C   UNL A   1      30.634  27.389  24.554  1.00  0.00    -0.047 A 
ATOM     12  C   UNL A   1      31.531  28.202  25.266  1.00  0.00     0.011 A 
ATOM     13  C   UNL A   1      30.517  26.043  24.923  1.00  0.00     0.016 A 
ATOM     14  C   UNL A   1      31.286  25.508  25.966  1.00  0.00     0.023 A 
ATOM     15  C   UNL A   1      32.161  26.346  26.673  1.00  0.00     0.020 A 
BRANCH  11  16
ATOM     16  C   UNL A   1      29.882  27.960  23.370  1.00  0.00     0.032 C 
ATOM     17  C   UNL A   1      30.399  29.298  22.852  1.00  0.00     0.009 C 
ENDBRANCH  11  16
BRANCH  14  18
ATOM     18  C   UNL A   1      31.170  24.079  26.388  1.00  0.00     0.193 C 
ATOM     19  O   UNL A   1      30.298  23.729  27.179  1.00  0.00    -0.289 OA
BRANCH  18  20
ATOM     20  C   UNL A   1      32.046  23.035  25.813  1.00  0.00     0.022 A 
ATOM     21  C   UNL A   1      32.223  23.011  24.427  1.00  0.00     0.012 A 
ATOM     22  C   UNL A   1      32.697  22.100  26.626  1.00  0.00     0.012 A 
ATOM     23  C   UNL A   1      33.096  22.086  23.856  1.00  0.00     0.001 A 
ATOM     24  C   UNL A   1      33.576  21.181  26.049  1.00  0.00     0.001 A 
ATOM     25  C   UNL A   1      33.780  21.180  24.668  1.00  0.00     0.000 A 
ENDBRANCH  18  20
ENDBRANCH  14  18
ENDBRANCH   9  10
ENDBRANCH   6   8
ENDBRANCH   5   6
ENDBRANCH   4   5
ENDBRANCH   3   4
ENDBRANCH   2   3
ENDBRANCH   1   2
BRANCH   1  26
ATOM     26  C   UNL A   1      34.701  33.360  31.853  1.00  0.00     0.188 C 
BRANCH  26  27
ATOM     27  O   UNL A   1      34.891  32.924  33.179  1.00  0.00    -0.376 OA
BRANCH  27  28
ATOM     28  C   UNL A   1      36.121  33.140  33.850  1.00  0.00     0.202 C 
BRANCH  28  29
ATOM     29  C   UNL A   1      37.126  32.053  34.272  1.00  0.00     0.261 C 
BRANCH  29  30
ATOM     30  O   UNL A   1      37.993  31.519  33.273  1.00  0.00    -0.460 OA
BRANCH  30  31
ATOM     31  C   UNL A   1      38.774  32.428  32.647  1.00  0.00     0.338 C 
ATOM     32  O   UNL A   1      38.732  33.649  32.760  1.00  0.00    -0.246 OA
BRANCH  31  33
ATOM     33  C   UNL A   1      39.826  31.723  31.903  1.00  0.00     0.060 A 
ATOM     34  C   UNL A   1      40.676  30.851  32.596  1.00  0.00     0.016 A 
ATOM     35  C   UNL A   1      39.998  31.958  30.539  1.00  0.00     0.016 A 
ATOM     36  C   UNL A   1      41.717  30.215  31.922  1.00  0.00     0.010 A 
ATOM     37  C   UNL A   1      41.054  31.337  29.871  1.00  0.00     0.010 A 
ATOM     38  C   UNL A   1      41.932  30.483  30.564  1.00  0.00    -0.014 A 
BRANCH  38  39
ATOM     39  C   UNL A   1      43.163  30.006  29.894  1.00  0.00     0.031 A 
ATOM     40  C   UNL A   1      43.162  28.629  29.289  1.00  0.00     0.074 A 
ATOM     41  C   UNL A   1      44.267  30.772  29.842  1.00  0.00     0.049 A 
ATOM     42  N   UNL A   1      44.147  27.964  28.746  1.00  0.00    -0.248 NA
ATOM     43  C   UNL A   1      41.879  27.908  29.302  1.00  0.00     0.031 C 
ATOM     44  C   UNL A   1      44.374  32.139  30.349  1.00  0.00     0.029 A 
ATOM     45  N   UNL A   1      45.517  30.494  29.350  1.00  0.00    -0.354 N 
ATOM     46  C   UNL A   1      43.609  26.740  28.367  1.00  0.00     0.074 A 
ATOM     47  C   UNL A   1      42.216  26.747  28.758  1.00  0.00     0.031 C 
ATOM     48  C   UNL A   1      45.632  32.575  30.156  1.00  0.00     0.029 A 
ATOM     49  C   UNL A   1      46.425  31.506  29.554  1.00  0.00     0.049 A 
ATOM     50  H   UNL A   1      45.743  29.651  28.893  1.00  0.00     0.167 HD
ATOM     51  C   UNL A   1      44.221  25.702  27.750  1.00  0.00     0.031 A 
ATOM     52  C   UNL A   1      47.751  31.549  29.312  1.00  0.00     0.031 A 
ATOM     53  C   UNL A   1      45.611  25.690  27.385  1.00  0.00     0.049 A 
ATOM     54  C   UNL A   1      48.430  30.350  28.702  1.00  0.00     0.074 A 
ATOM     55  C   UNL A   1      46.325  24.689  26.749  1.00  0.00     0.029 A 
ATOM     56  N   UNL A   1      46.502  26.724  27.630  1.00  0.00    -0.354 N 
ATOM     57  N   UNL A   1      47.907  29.205  28.331  1.00  0.00    -0.248 NA
ATOM     58  C   UNL A   1      49.879  30.449  28.473  1.00  0.00     0.031 C 
ATOM     59  C   UNL A   1      47.660  25.094  26.663  1.00  0.00     0.029 A 
ATOM     60  C   UNL A   1      47.765  26.375  27.181  1.00  0.00     0.049 A 
ATOM     61  H   UNL A   1      46.272  27.579  28.060  1.00  0.00     0.167 HD
ATOM     62  C   UNL A   1      48.954  28.465  27.793  1.00  0.00     0.074 A 
ATOM     63  C   UNL A   1      50.140  29.290  27.882  1.00  0.00     0.031 C 
ATOM     64  C   UNL A   1      48.934  27.215  27.264  1.00  0.00     0.031 A 
BRANCH  51  65
ATOM     65  C   UNL A   1      43.396  24.474  27.472  1.00  0.00    -0.014 A 
ATOM     66  C   UNL A   1      42.800  24.264  26.215  1.00  0.00     0.010 A 
ATOM     67  C   UNL A   1      43.241  23.499  28.474  1.00  0.00     0.010 A 
ATOM     68  C   UNL A   1      42.035  23.120  25.979  1.00  0.00     0.020 A 
ATOM     69  C   UNL A   1      42.500  22.339  28.232  1.00  0.00     0.020 A 
ATOM     70  C   UNL A   1      41.888  22.166  26.989  1.00  0.00     0.054 A 
BRANCH  70  71
ATOM     71  S   UNL A   1      40.905  20.680  26.647  1.00  0.00     0.124 S 
ATOM     72  O   UNL A   1      41.747  19.978  25.682  1.00  0.00    -0.237 OA
ATOM     73  O   UNL A   1      40.805  20.054  27.964  1.00  0.00    -0.237 OA
ATOM     74  O   UNL A   1      39.652  21.207  26.114  1.00  0.00    -0.744 OA
ENDBRANCH  70  71
ENDBRANCH  51  65
BRANCH  52  75
ATOM     75  C   UNL A   1      48.533  32.765  29.670  1.00  0.00    -0.014 A 
ATOM     76  C   UNL A   1      49.112  32.895  30.945  1.00  0.00     0.010 A 
ATOM     77  C   UNL A   1      48.703  33.802  28.734  1.00  0.00     0.010 A 
ATOM     78  C   UNL A   1      49.831  34.046  31.283  1.00  0.00     0.020 A 
ATOM     79  C   UNL A   1      49.445  34.942  29.058  1.00  0.00     0.020 A 
ATOM     80  C   UNL A   1      49.994  35.061  30.336  1.00  0.00     0.054 A 
BRANCH  80  81
ATOM     81  S   UNL A   1      50.972  36.524  30.783  1.00  0.00     0.124 S 
ATOM     82  O   UNL A   1      50.111  37.177  31.762  1.00  0.00    -0.237 OA
ATOM     83  O   UNL A   1      52.198  35.932  31.312  1.00  0.00    -0.237 OA
ATOM     84  O   UNL A   1      51.127  37.231  29.514  1.00  0.00    -0.744 OA
ENDBRANCH  80  81
ENDBRANCH  52  75
BRANCH  64  85
ATOM     85  C   UNL A   1      50.215  26.674  26.685  1.00  0.00    -0.014 A 
ATOM     86  C   UNL A   1      50.547  26.859  25.332  1.00  0.00     0.010 A 
ATOM     87  C   UNL A   1      51.142  26.045  27.538  1.00  0.00     0.010 A 
ATOM     88  C   UNL A   1      51.776  26.408  24.840  1.00  0.00     0.020 A 
ATOM     89  C   UNL A   1      52.381  25.617  27.057  1.00  0.00     0.020 A 
ATOM     90  C   UNL A   1      52.687  25.794  25.706  1.00  0.00     0.054 A 
BRANCH  90  91
ATOM     91  S   UNL A   1      54.301  25.279  25.056  1.00  0.00     0.124 S 
ATOM     92  O   UNL A   1      54.330  25.940  23.756  1.00  0.00    -0.237 OA
ATOM     93  O   UNL A   1      55.230  25.807  26.052  1.00  0.00    -0.237 OA
ATOM     94  O   UNL A   1      54.208  23.821  25.013  1.00  0.00    -0.744 OA
ENDBRANCH  90  91
ENDBRANCH  64  85
ENDBRANCH  38  39
ENDBRANCH  31  33
ENDBRANCH  30  31
ENDBRANCH  29  30
ENDBRANCH  28  29
ENDBRANCH  27  28
ENDBRANCH  26  27
ENDBRANCH   1  26
TORSDOF 24
ENDMDL
