MODEL 1
REMARK VINA RESULT:     -10.8      0.000      0.000
REMARK SMILES O=C(CC[N@@H+]1C[C@@H](c2ccccc2)[C@@H]2[C@H]1[C@H]1CC[N@H+]2CC1)OCCOCCOCCOC(=O)c1ccc(-c2c3nc(c(-c4ccc(S(=O)(=O)[O-])cc4)c4ccc([nH]4)c(-c4ccc(S(=O)(=O)[O-])cc4)c4nc(c(-c5ccc(S(=O)(=O)[O-])cc5)c5ccc2[nH]5)C=C4)C=C3)cc1
REMARK SMILES IDX 26 1 25 2 24 3 23 4 22 5 2 6 1 7 3 8 4 9 5 10 6 11 15 12
REMARK SMILES IDX 7 14 14 15 16 16 19 17 17 18 21 19 18 20 20 21 8 23 9 24
REMARK SMILES IDX 13 25 10 26 12 27 11 28 27 29 28 30 29 31 30 32 31 33 32 34
REMARK SMILES IDX 33 35 34 36 35 37 93 38 36 39 92 40 37 41 38 42 39 43 86 44
REMARK SMILES IDX 40 45 91 46 85 47 87 48 41 49 90 50 84 51 83 52 42 54 72 55
REMARK SMILES IDX 53 56 71 57 54 58 57 59 70 60 88 61 55 62 56 63 69 65 89 66
REMARK SMILES IDX 58 67 43 68 44 69 52 70 45 71 51 72 46 73 47 74 48 75 49 76
REMARK SMILES IDX 50 77 73 78 74 79 82 80 75 81 81 82 76 83 77 84 78 85 79 86
REMARK SMILES IDX 80 87 59 88 60 89 68 90 61 91 67 92 62 93 63 94 64 95 65 96
REMARK SMILES IDX 66 97
REMARK H PARENT 5 13 19 22 87 53 57 64
REMARK Flexibility Score: inf
ROOT
ATOM      1  C   UNL A   1      31.379  29.057  24.843  1.00  0.00     0.188 C 
ENDROOT
BRANCH   1   2
ATOM      2  O   UNL A   1      30.518  29.717  23.939  1.00  0.00    -0.376 OA
BRANCH   2   3
ATOM      3  C   UNL A   1      29.894  28.951  22.922  1.00  0.00     0.202 C 
BRANCH   3   4
ATOM      4  C   UNL A   1      29.902  27.435  23.073  1.00  0.00     0.261 C 
BRANCH   4   5
ATOM      5  O   UNL A   1      31.088  26.663  22.742  1.00  0.00    -0.463 OA
BRANCH   5   6
ATOM      6  C   UNL A   1      31.405  25.369  22.960  1.00  0.00     0.311 C 
ATOM      7  O   UNL A   1      32.278  24.840  22.273  1.00  0.00    -0.252 OA
BRANCH   6   8
ATOM      8  C   UNL A   1      30.624  24.550  23.944  1.00  0.00     0.184 C 
BRANCH   8   9
ATOM      9  C   UNL A   1      31.430  23.971  25.093  1.00  0.00     0.274 C 
BRANCH   9  10
ATOM     10  N   UNL A   1      32.345  22.880  24.702  1.00  0.00    -0.326 N 
ATOM     11  C   UNL A   1      31.833  21.544  25.166  1.00  0.00     0.277 C 
ATOM     12  C   UNL A   1      33.723  23.102  25.229  1.00  0.00     0.247 C 
ATOM     13  H   UNL A   1      32.386  22.880  23.683  1.00  0.00     0.348 HD
ATOM     14  C   UNL A   1      32.949  20.521  25.520  1.00  0.00     0.139 C 
ATOM     15  C   UNL A   1      34.113  21.430  25.955  1.00  0.00     0.256 C 
ATOM     16  C   UNL A   1      35.063  23.528  24.016  1.00  0.00     0.065 C 
ATOM     17  N   UNL A   1      35.670  21.013  25.891  1.00  0.00    -0.327 N 
ATOM     18  C   UNL A   1      34.974  22.139  23.996  1.00  0.00     0.071 C 
ATOM     19  C   UNL A   1      36.733  22.796  23.810  1.00  0.00     0.071 C 
ATOM     20  C   UNL A   1      35.802  22.377  25.735  1.00  0.00     0.263 C 
ATOM     21  C   UNL A   1      36.744  21.077  24.661  1.00  0.00     0.263 C 
ATOM     22  H   UNL A   1      35.810  20.163  26.436  1.00  0.00     0.348 HD
BRANCH  14  23
ATOM     23  C   UNL A   1      33.284  19.359  24.586  1.00  0.00    -0.033 A 
ATOM     24  C   UNL A   1      34.286  18.401  24.798  1.00  0.00     0.004 A 
ATOM     25  C   UNL A   1      32.471  19.186  23.452  1.00  0.00     0.004 A 
ATOM     26  C   UNL A   1      34.417  17.277  23.974  1.00  0.00     0.000 A 
ATOM     27  C   UNL A   1      32.623  18.086  22.602  1.00  0.00     0.000 A 
ATOM     28  C   UNL A   1      33.581  17.118  22.876  1.00  0.00     0.000 A 
ENDBRANCH  14  23
ENDBRANCH   9  10
ENDBRANCH   8   9
ENDBRANCH   6   8
ENDBRANCH   5   6
ENDBRANCH   4   5
ENDBRANCH   3   4
ENDBRANCH   2   3
ENDBRANCH   1   2
BRANCH   1  29
ATOM     29  C   UNL A   1      32.877  29.289  24.612  1.00  0.00     0.188 C 
BRANCH  29  30
ATOM     30  O   UNL A   1      33.813  28.810  25.565  1.00  0.00    -0.376 OA
BRANCH  30  31
ATOM     31  C   UNL A   1      34.055  29.567  26.746  1.00  0.00     0.202 C 
BRANCH  31  32
ATOM     32  C   UNL A   1      35.080  29.087  27.791  1.00  0.00     0.261 C 
BRANCH  32  33
ATOM     33  O   UNL A   1      36.099  30.037  28.161  1.00  0.00    -0.460 OA
BRANCH  33  34
ATOM     34  C   UNL A   1      36.867  29.701  29.223  1.00  0.00     0.338 C 
ATOM     35  O   UNL A   1      36.523  29.692  30.402  1.00  0.00    -0.246 OA
BRANCH  34  36
ATOM     36  C   UNL A   1      38.173  29.173  28.784  1.00  0.00     0.060 A 
ATOM     37  C   UNL A   1      38.996  28.540  29.729  1.00  0.00     0.016 A 
ATOM     38  C   UNL A   1      38.632  29.375  27.481  1.00  0.00     0.016 A 
ATOM     39  C   UNL A   1      40.280  28.119  29.382  1.00  0.00     0.010 A 
ATOM     40  C   UNL A   1      39.936  28.991  27.145  1.00  0.00     0.010 A 
ATOM     41  C   UNL A   1      40.777  28.390  28.102  1.00  0.00    -0.014 A 
BRANCH  41  42
ATOM     42  C   UNL A   1      42.231  28.249  27.833  1.00  0.00     0.031 A 
ATOM     43  C   UNL A   1      43.122  29.434  28.097  1.00  0.00     0.074 A 
ATOM     44  C   UNL A   1      42.761  27.098  27.381  1.00  0.00     0.049 A 
ATOM     45  N   UNL A   1      44.407  29.571  27.890  1.00  0.00    -0.248 NA
ATOM     46  C   UNL A   1      42.474  30.626  28.672  1.00  0.00     0.031 C 
ATOM     47  C   UNL A   1      42.022  25.861  27.138  1.00  0.00     0.029 A 
ATOM     48  N   UNL A   1      44.056  26.791  27.035  1.00  0.00    -0.354 N 
ATOM     49  C   UNL A   1      44.718  30.865  28.293  1.00  0.00     0.074 A 
ATOM     50  C   UNL A   1      43.486  31.478  28.737  1.00  0.00     0.031 C 
ATOM     51  C   UNL A   1      42.873  24.932  26.665  1.00  0.00     0.029 A 
ATOM     52  C   UNL A   1      44.208  25.518  26.540  1.00  0.00     0.049 A 
ATOM     53  H   UNL A   1      44.804  27.423  27.134  1.00  0.00     0.167 HD
ATOM     54  C   UNL A   1      45.920  31.487  28.294  1.00  0.00     0.031 A 
ATOM     55  C   UNL A   1      45.291  24.904  26.020  1.00  0.00     0.031 A 
ATOM     56  C   UNL A   1      47.143  30.883  27.836  1.00  0.00     0.049 A 
ATOM     57  C   UNL A   1      46.605  25.644  25.957  1.00  0.00     0.074 A 
ATOM     58  C   UNL A   1      48.414  31.428  27.814  1.00  0.00     0.029 A 
ATOM     59  N   UNL A   1      47.247  29.604  27.309  1.00  0.00    -0.354 N 
ATOM     60  N   UNL A   1      46.890  26.858  26.364  1.00  0.00    -0.248 NA
ATOM     61  C   UNL A   1      47.747  24.924  25.371  1.00  0.00     0.031 C 
ATOM     62  C   UNL A   1      49.275  30.505  27.212  1.00  0.00     0.029 A 
ATOM     63  C   UNL A   1      48.555  29.356  26.928  1.00  0.00     0.049 A 
ATOM     64  H   UNL A   1      46.501  28.968  27.220  1.00  0.00     0.167 HD
ATOM     65  C   UNL A   1      48.247  27.036  26.112  1.00  0.00     0.074 A 
ATOM     66  C   UNL A   1      48.729  25.801  25.528  1.00  0.00     0.031 C 
ATOM     67  C   UNL A   1      49.025  28.122  26.346  1.00  0.00     0.031 A 
BRANCH  54  68
ATOM     68  C   UNL A   1      45.963  32.917  28.766  1.00  0.00    -0.014 A 
ATOM     69  C   UNL A   1      45.760  33.990  27.879  1.00  0.00     0.010 A 
ATOM     70  C   UNL A   1      46.173  33.188  30.131  1.00  0.00     0.010 A 
ATOM     71  C   UNL A   1      45.803  35.308  28.343  1.00  0.00     0.020 A 
ATOM     72  C   UNL A   1      46.187  34.503  30.603  1.00  0.00     0.020 A 
ATOM     73  C   UNL A   1      46.016  35.556  29.702  1.00  0.00     0.054 A 
BRANCH  73  74
ATOM     74  S   UNL A   1      46.039  37.274  30.279  1.00  0.00     0.124 S 
ATOM     75  O   UNL A   1      44.810  37.345  31.066  1.00  0.00    -0.237 OA
ATOM     76  O   UNL A   1      47.280  37.336  31.047  1.00  0.00    -0.237 OA
ATOM     77  O   UNL A   1      46.033  38.056  29.045  1.00  0.00    -0.744 OA
ENDBRANCH  73  74
ENDBRANCH  54  68
BRANCH  55  78
ATOM     78  C   UNL A   1      45.178  23.517  25.489  1.00  0.00    -0.014 A 
ATOM     79  C   UNL A   1      45.657  22.419  26.226  1.00  0.00     0.010 A 
ATOM     80  C   UNL A   1      44.588  23.288  24.232  1.00  0.00     0.010 A 
ATOM     81  C   UNL A   1      45.557  21.122  25.713  1.00  0.00     0.020 A 
ATOM     82  C   UNL A   1      44.459  21.990  23.729  1.00  0.00     0.020 A 
ATOM     83  C   UNL A   1      44.953  20.915  24.470  1.00  0.00     0.054 A 
BRANCH  83  84
ATOM     84  S   UNL A   1      44.773  19.218  23.854  1.00  0.00     0.124 S 
ATOM     85  O   UNL A   1      43.609  18.746  24.597  1.00  0.00    -0.237 OA
ATOM     86  O   UNL A   1      44.571  19.423  22.422  1.00  0.00    -0.237 OA
ATOM     87  O   UNL A   1      46.042  18.589  24.211  1.00  0.00    -0.744 OA
ENDBRANCH  83  84
ENDBRANCH  55  78
BRANCH  67  88
ATOM     88  C   UNL A   1      50.493  28.022  26.015  1.00  0.00    -0.014 A 
ATOM     89  C   UNL A   1      51.425  27.529  26.944  1.00  0.00     0.010 A 
ATOM     90  C   UNL A   1      50.935  28.369  24.723  1.00  0.00     0.010 A 
ATOM     91  C   UNL A   1      52.775  27.414  26.600  1.00  0.00     0.020 A 
ATOM     92  C   UNL A   1      52.278  28.226  24.365  1.00  0.00     0.020 A 
ATOM     93  C   UNL A   1      53.193  27.763  25.311  1.00  0.00     0.054 A 
BRANCH  93  94
ATOM     94  S   UNL A   1      54.943  27.563  24.875  1.00  0.00     0.124 S 
ATOM     95  O   UNL A   1      55.606  27.824  26.150  1.00  0.00    -0.237 OA
ATOM     96  O   UNL A   1      55.000  26.180  24.409  1.00  0.00    -0.237 OA
ATOM     97  O   UNL A   1      55.162  28.572  23.842  1.00  0.00    -0.744 OA
ENDBRANCH  93  94
ENDBRANCH  67  88
ENDBRANCH  41  42
ENDBRANCH  34  36
ENDBRANCH  33  34
ENDBRANCH  32  33
ENDBRANCH  31  32
ENDBRANCH  30  31
ENDBRANCH  29  30
ENDBRANCH   1  29
TORSDOF 23
ENDMDL
MODEL 2
REMARK VINA RESULT:     -10.2      1.384      7.864
REMARK SMILES O=C(CC[N@@H+]1C[C@@H](c2ccccc2)[C@@H]2[C@H]1[C@H]1CC[N@H+]2CC1)OCCOCCOCCOC(=O)c1ccc(-c2c3nc(c(-c4ccc(S(=O)(=O)[O-])cc4)c4ccc([nH]4)c(-c4ccc(S(=O)(=O)[O-])cc4)c4nc(c(-c5ccc(S(=O)(=O)[O-])cc5)c5ccc2[nH]5)C=C4)C=C3)cc1
REMARK SMILES IDX 26 1 25 2 24 3 23 4 22 5 2 6 1 7 3 8 4 9 5 10 6 11 15 12
REMARK SMILES IDX 7 14 14 15 16 16 19 17 17 18 21 19 18 20 20 21 8 23 9 24
REMARK SMILES IDX 13 25 10 26 12 27 11 28 27 29 28 30 29 31 30 32 31 33 32 34
REMARK SMILES IDX 33 35 34 36 35 37 93 38 36 39 92 40 37 41 38 42 39 43 86 44
REMARK SMILES IDX 40 45 91 46 85 47 87 48 41 49 90 50 84 51 83 52 42 54 72 55
REMARK SMILES IDX 53 56 71 57 54 58 57 59 70 60 88 61 55 62 56 63 69 65 89 66
REMARK SMILES IDX 58 67 43 68 44 69 52 70 45 71 51 72 46 73 47 74 48 75 49 76
REMARK SMILES IDX 50 77 73 78 74 79 82 80 75 81 81 82 76 83 77 84 78 85 79 86
REMARK SMILES IDX 80 87 59 88 60 89 68 90 61 91 67 92 62 93 63 94 64 95 65 96
REMARK SMILES IDX 66 97
REMARK H PARENT 5 13 19 22 87 53 57 64
REMARK Flexibility Score: inf
ROOT
ATOM      1  C   UNL A   1      31.815  29.688  25.057  1.00  0.00     0.188 C 
ENDROOT
BRANCH   1   2
ATOM      2  O   UNL A   1      30.629  29.528  24.309  1.00  0.00    -0.376 OA
BRANCH   2   3
ATOM      3  C   UNL A   1      30.663  28.699  23.159  1.00  0.00     0.202 C 
BRANCH   3   4
ATOM      4  C   UNL A   1      32.023  28.411  22.535  1.00  0.00     0.261 C 
BRANCH   4   5
ATOM      5  O   UNL A   1      32.645  27.107  22.680  1.00  0.00    -0.463 OA
BRANCH   5   6
ATOM      6  C   UNL A   1      32.207  25.962  23.246  1.00  0.00     0.311 C 
ATOM      7  O   UNL A   1      31.771  25.065  22.527  1.00  0.00    -0.252 OA
BRANCH   6   8
ATOM      8  C   UNL A   1      32.141  25.829  24.739  1.00  0.00     0.184 C 
BRANCH   8   9
ATOM      9  C   UNL A   1      31.544  24.530  25.251  1.00  0.00     0.274 C 
BRANCH   9  10
ATOM     10  N   UNL A   1      32.303  23.323  24.868  1.00  0.00    -0.326 N 
ATOM     11  C   UNL A   1      31.627  22.073  25.362  1.00  0.00     0.277 C 
ATOM     12  C   UNL A   1      33.705  23.371  25.375  1.00  0.00     0.247 C 
ATOM     13  H   UNL A   1      32.329  23.301  23.849  1.00  0.00     0.348 HD
ATOM     14  C   UNL A   1      32.604  20.918  25.722  1.00  0.00     0.139 C 
ATOM     15  C   UNL A   1      33.884  21.674  26.126  1.00  0.00     0.256 C 
ATOM     16  C   UNL A   1      35.072  23.598  24.139  1.00  0.00     0.065 C 
ATOM     17  N   UNL A   1      35.371  21.055  26.052  1.00  0.00    -0.327 N 
ATOM     18  C   UNL A   1      34.803  22.232  24.146  1.00  0.00     0.071 C 
ATOM     19  C   UNL A   1      36.630  22.649  23.927  1.00  0.00     0.071 C 
ATOM     20  C   UNL A   1      35.678  22.388  25.870  1.00  0.00     0.263 C 
ATOM     21  C   UNL A   1      36.427  20.958  24.808  1.00  0.00     0.263 C 
ATOM     22  H   UNL A   1      35.407  20.203  26.610  1.00  0.00     0.348 HD
BRANCH  14  23
ATOM     23  C   UNL A   1      32.771  19.708  24.804  1.00  0.00    -0.033 A 
ATOM     24  C   UNL A   1      33.181  18.427  25.205  1.00  0.00     0.004 A 
ATOM     25  C   UNL A   1      32.412  19.865  23.454  1.00  0.00     0.004 A 
ATOM     26  C   UNL A   1      33.149  17.336  24.329  1.00  0.00     0.000 A 
ATOM     27  C   UNL A   1      32.418  18.786  22.564  1.00  0.00     0.000 A 
ATOM     28  C   UNL A   1      32.763  17.516  23.007  1.00  0.00     0.000 A 
ENDBRANCH  14  23
ENDBRANCH   9  10
ENDBRANCH   8   9
ENDBRANCH   6   8
ENDBRANCH   5   6
ENDBRANCH   4   5
ENDBRANCH   3   4
ENDBRANCH   2   3
ENDBRANCH   1   2
BRANCH   1  29
ATOM     29  C   UNL A   1      31.764  30.760  26.151  1.00  0.00     0.188 C 
BRANCH  29  30
ATOM     30  O   UNL A   1      32.477  30.558  27.361  1.00  0.00    -0.376 OA
BRANCH  30  31
ATOM     31  C   UNL A   1      33.731  31.205  27.547  1.00  0.00     0.202 C 
BRANCH  31  32
ATOM     32  C   UNL A   1      35.002  30.386  27.844  1.00  0.00     0.261 C 
BRANCH  32  33
ATOM     33  O   UNL A   1      36.098  31.110  28.436  1.00  0.00    -0.460 OA
BRANCH  33  34
ATOM     34  C   UNL A   1      36.684  30.530  29.508  1.00  0.00     0.338 C 
ATOM     35  O   UNL A   1      36.206  30.418  30.634  1.00  0.00    -0.246 OA
BRANCH  34  36
ATOM     36  C   UNL A   1      37.953  29.878  29.127  1.00  0.00     0.060 A 
ATOM     37  C   UNL A   1      38.854  29.516  30.141  1.00  0.00     0.016 A 
ATOM     38  C   UNL A   1      38.301  29.705  27.787  1.00  0.00     0.016 A 
ATOM     39  C   UNL A   1      40.107  28.993  29.821  1.00  0.00     0.010 A 
ATOM     40  C   UNL A   1      39.574  29.219  27.466  1.00  0.00     0.010 A 
ATOM     41  C   UNL A   1      40.495  28.891  28.480  1.00  0.00    -0.014 A 
BRANCH  41  42
ATOM     42  C   UNL A   1      41.923  28.656  28.144  1.00  0.00     0.031 A 
ATOM     43  C   UNL A   1      42.344  27.261  27.762  1.00  0.00     0.074 A 
ATOM     44  C   UNL A   1      42.829  29.651  28.157  1.00  0.00     0.049 A 
ATOM     45  N   UNL A   1      43.536  26.800  27.482  1.00  0.00    -0.248 NA
ATOM     46  C   UNL A   1      41.275  26.251  27.689  1.00  0.00     0.031 C 
ATOM     47  C   UNL A   1      42.544  31.054  28.453  1.00  0.00     0.029 A 
ATOM     48  N   UNL A   1      44.183  29.623  27.924  1.00  0.00    -0.354 N 
ATOM     49  C   UNL A   1      43.364  25.447  27.215  1.00  0.00     0.074 A 
ATOM     50  C   UNL A   1      41.957  25.156  27.387  1.00  0.00     0.031 C 
ATOM     51  C   UNL A   1      43.694  31.750  28.400  1.00  0.00     0.029 A 
ATOM     52  C   UNL A   1      44.798  30.839  28.101  1.00  0.00     0.049 A 
ATOM     53  H   UNL A   1      44.666  28.809  27.654  1.00  0.00     0.167 HD
ATOM     54  C   UNL A   1      44.292  24.528  26.858  1.00  0.00     0.031 A 
ATOM     55  C   UNL A   1      46.105  31.174  28.055  1.00  0.00     0.031 A 
ATOM     56  C   UNL A   1      45.693  24.812  26.704  1.00  0.00     0.049 A 
ATOM     57  C   UNL A   1      47.132  30.117  27.734  1.00  0.00     0.074 A 
ATOM     58  C   UNL A   1      46.708  23.950  26.329  1.00  0.00     0.029 A 
ATOM     59  N   UNL A   1      46.281  26.049  26.927  1.00  0.00    -0.354 N 
ATOM     60  N   UNL A   1      46.952  28.846  27.460  1.00  0.00    -0.248 NA
ATOM     61  C   UNL A   1      48.540  30.542  27.707  1.00  0.00     0.031 C 
ATOM     62  C   UNL A   1      47.918  24.647  26.391  1.00  0.00     0.029 A 
ATOM     63  C   UNL A   1      47.649  25.963  26.731  1.00  0.00     0.049 A 
ATOM     64  H   UNL A   1      45.796  26.865  27.186  1.00  0.00     0.167 HD
ATOM     65  C   UNL A   1      48.218  28.329  27.199  1.00  0.00     0.074 A 
ATOM     66  C   UNL A   1      49.154  29.426  27.336  1.00  0.00     0.031 C 
ATOM     67  C   UNL A   1      48.573  27.062  26.871  1.00  0.00     0.031 A 
BRANCH  54  68
ATOM     68  C   UNL A   1      43.824  23.110  26.654  1.00  0.00    -0.014 A 
ATOM     69  C   UNL A   1      44.195  22.370  25.516  1.00  0.00     0.010 A 
ATOM     70  C   UNL A   1      43.030  22.495  27.639  1.00  0.00     0.010 A 
ATOM     71  C   UNL A   1      43.750  21.056  25.351  1.00  0.00     0.020 A 
ATOM     72  C   UNL A   1      42.608  21.172  27.493  1.00  0.00     0.020 A 
ATOM     73  C   UNL A   1      42.959  20.465  26.341  1.00  0.00     0.054 A 
BRANCH  73  74
ATOM     74  S   UNL A   1      42.418  18.749  26.113  1.00  0.00     0.124 S 
ATOM     75  O   UNL A   1      41.026  18.922  25.707  1.00  0.00    -0.237 OA
ATOM     76  O   UNL A   1      43.321  18.266  25.071  1.00  0.00    -0.237 OA
ATOM     77  O   UNL A   1      42.611  18.146  27.430  1.00  0.00    -0.744 OA
ENDBRANCH  73  74
ENDBRANCH  54  68
BRANCH  55  78
ATOM     78  C   UNL A   1      46.525  32.573  28.347  1.00  0.00    -0.014 A 
ATOM     79  C   UNL A   1      46.818  32.981  29.661  1.00  0.00     0.010 A 
ATOM     80  C   UNL A   1      46.632  33.512  27.303  1.00  0.00     0.010 A 
ATOM     81  C   UNL A   1      47.200  34.300  29.926  1.00  0.00     0.020 A 
ATOM     82  C   UNL A   1      47.042  34.823  27.560  1.00  0.00     0.020 A 
ATOM     83  C   UNL A   1      47.316  35.211  28.872  1.00  0.00     0.054 A 
BRANCH  83  84
ATOM     84  S   UNL A   1      47.878  36.899  29.231  1.00  0.00     0.124 S 
ATOM     85  O   UNL A   1      48.347  37.348  27.924  1.00  0.00    -0.237 OA
ATOM     86  O   UNL A   1      46.660  37.537  29.722  1.00  0.00    -0.237 OA
ATOM     87  O   UNL A   1      48.919  36.705  30.238  1.00  0.00    -0.744 OA
ENDBRANCH  83  84
ENDBRANCH  55  78
BRANCH  67  88
ATOM     88  C   UNL A   1      50.030  26.788  26.593  1.00  0.00    -0.014 A 
ATOM     89  C   UNL A   1      50.918  26.421  27.620  1.00  0.00     0.010 A 
ATOM     90  C   UNL A   1      50.502  26.837  25.267  1.00  0.00     0.010 A 
ATOM     91  C   UNL A   1      52.256  26.139  27.331  1.00  0.00     0.020 A 
ATOM     92  C   UNL A   1      51.832  26.525  24.970  1.00  0.00     0.020 A 
ATOM     93  C   UNL A   1      52.704  26.193  26.007  1.00  0.00     0.054 A 
BRANCH  93  94
ATOM     94  S   UNL A   1      54.436  25.780  25.652  1.00  0.00     0.124 S 
ATOM     95  O   UNL A   1      54.521  26.035  24.217  1.00  0.00    -0.237 OA
ATOM     96  O   UNL A   1      55.168  26.716  26.501  1.00  0.00    -0.237 OA
ATOM     97  O   UNL A   1      54.546  24.376  26.043  1.00  0.00    -0.744 OA
ENDBRANCH  93  94
ENDBRANCH  67  88
ENDBRANCH  41  42
ENDBRANCH  34  36
ENDBRANCH  33  34
ENDBRANCH  32  33
ENDBRANCH  31  32
ENDBRANCH  30  31
ENDBRANCH  29  30
ENDBRANCH   1  29
TORSDOF 23
ENDMDL
MODEL 3
REMARK VINA RESULT:     -10.2      1.530      2.102
REMARK SMILES O=C(CC[N@@H+]1C[C@@H](c2ccccc2)[C@@H]2[C@H]1[C@H]1CC[N@H+]2CC1)OCCOCCOCCOC(=O)c1ccc(-c2c3nc(c(-c4ccc(S(=O)(=O)[O-])cc4)c4ccc([nH]4)c(-c4ccc(S(=O)(=O)[O-])cc4)c4nc(c(-c5ccc(S(=O)(=O)[O-])cc5)c5ccc2[nH]5)C=C4)C=C3)cc1
REMARK SMILES IDX 26 1 25 2 24 3 23 4 22 5 2 6 1 7 3 8 4 9 5 10 6 11 15 12
REMARK SMILES IDX 7 14 14 15 16 16 19 17 17 18 21 19 18 20 20 21 8 23 9 24
REMARK SMILES IDX 13 25 10 26 12 27 11 28 27 29 28 30 29 31 30 32 31 33 32 34
REMARK SMILES IDX 33 35 34 36 35 37 93 38 36 39 92 40 37 41 38 42 39 43 86 44
REMARK SMILES IDX 40 45 91 46 85 47 87 48 41 49 90 50 84 51 83 52 42 54 72 55
REMARK SMILES IDX 53 56 71 57 54 58 57 59 70 60 88 61 55 62 56 63 69 65 89 66
REMARK SMILES IDX 58 67 43 68 44 69 52 70 45 71 51 72 46 73 47 74 48 75 49 76
REMARK SMILES IDX 50 77 73 78 74 79 82 80 75 81 81 82 76 83 77 84 78 85 79 86
REMARK SMILES IDX 80 87 59 88 60 89 68 90 61 91 67 92 62 93 63 94 64 95 65 96
REMARK SMILES IDX 66 97
REMARK H PARENT 5 13 19 22 87 53 57 64
REMARK Flexibility Score: inf
ROOT
ATOM      1  C   UNL A   1      32.975  28.899  23.944  1.00  0.00     0.188 C 
ENDROOT
BRANCH   1   2
ATOM      2  O   UNL A   1      31.635  28.916  23.500  1.00  0.00    -0.376 OA
BRANCH   2   3
ATOM      3  C   UNL A   1      31.162  27.814  22.743  1.00  0.00     0.202 C 
BRANCH   3   4
ATOM      4  C   UNL A   1      32.077  26.603  22.610  1.00  0.00     0.261 C 
BRANCH   4   5
ATOM      5  O   UNL A   1      31.525  25.263  22.517  1.00  0.00    -0.463 OA
BRANCH   5   6
ATOM      6  C   UNL A   1      30.967  24.456  23.444  1.00  0.00     0.311 C 
ATOM      7  O   UNL A   1      30.439  23.404  23.087  1.00  0.00    -0.252 OA
BRANCH   6   8
ATOM      8  C   UNL A   1      30.884  24.891  24.878  1.00  0.00     0.184 C 
BRANCH   8   9
ATOM      9  C   UNL A   1      31.588  23.986  25.874  1.00  0.00     0.274 C 
BRANCH   9  10
ATOM     10  N   UNL A   1      32.428  22.942  25.254  1.00  0.00    -0.326 N 
ATOM     11  C   UNL A   1      31.997  21.567  25.686  1.00  0.00     0.277 C 
ATOM     12  C   UNL A   1      33.873  23.139  25.570  1.00  0.00     0.247 C 
ATOM     13  H   UNL A   1      32.305  23.023  24.245  1.00  0.00     0.348 HD
ATOM     14  C   UNL A   1      33.155  20.533  25.773  1.00  0.00     0.139 C 
ATOM     15  C   UNL A   1      34.375  21.420  26.087  1.00  0.00     0.256 C 
ATOM     16  C   UNL A   1      35.001  23.677  24.196  1.00  0.00     0.065 C 
ATOM     17  N   UNL A   1      35.901  21.028  25.742  1.00  0.00    -0.327 N 
ATOM     18  C   UNL A   1      34.910  22.293  24.080  1.00  0.00     0.071 C 
ATOM     19  C   UNL A   1      36.616  22.984  23.667  1.00  0.00     0.071 C 
ATOM     20  C   UNL A   1      36.006  22.403  25.677  1.00  0.00     0.263 C 
ATOM     21  C   UNL A   1      36.763  21.203  24.365  1.00  0.00     0.263 C 
ATOM     22  H   UNL A   1      36.127  20.140  26.187  1.00  0.00     0.348 HD
BRANCH  14  23
ATOM     23  C   UNL A   1      33.336  19.453  24.707  1.00  0.00    -0.033 A 
ATOM     24  C   UNL A   1      34.256  18.396  24.760  1.00  0.00     0.004 A 
ATOM     25  C   UNL A   1      32.455  19.472  23.611  1.00  0.00     0.004 A 
ATOM     26  C   UNL A   1      34.242  17.360  23.819  1.00  0.00     0.000 A 
ATOM     27  C   UNL A   1      32.463  18.461  22.645  1.00  0.00     0.000 A 
ATOM     28  C   UNL A   1      33.341  17.391  22.762  1.00  0.00     0.000 A 
ENDBRANCH  14  23
ENDBRANCH   9  10
ENDBRANCH   8   9
ENDBRANCH   6   8
ENDBRANCH   5   6
ENDBRANCH   4   5
ENDBRANCH   3   4
ENDBRANCH   2   3
ENDBRANCH   1   2
BRANCH   1  29
ATOM     29  C   UNL A   1      33.241  29.635  25.262  1.00  0.00     0.188 C 
BRANCH  29  30
ATOM     30  O   UNL A   1      33.504  28.889  26.439  1.00  0.00    -0.376 OA
BRANCH  30  31
ATOM     31  C   UNL A   1      33.885  29.572  27.629  1.00  0.00     0.202 C 
BRANCH  31  32
ATOM     32  C   UNL A   1      35.326  29.474  28.164  1.00  0.00     0.261 C 
BRANCH  32  33
ATOM     33  O   UNL A   1      35.805  30.613  28.906  1.00  0.00    -0.460 OA
BRANCH  33  34
ATOM     34  C   UNL A   1      36.402  30.343  30.089  1.00  0.00     0.338 C 
ATOM     35  O   UNL A   1      35.842  30.106  31.156  1.00  0.00    -0.246 OA
BRANCH  34  36
ATOM     36  C   UNL A   1      37.863  30.204  29.923  1.00  0.00     0.060 A 
ATOM     37  C   UNL A   1      38.437  30.562  28.693  1.00  0.00     0.016 A 
ATOM     38  C   UNL A   1      38.652  29.642  30.927  1.00  0.00     0.016 A 
ATOM     39  C   UNL A   1      39.796  30.350  28.458  1.00  0.00     0.010 A 
ATOM     40  C   UNL A   1      40.007  29.391  30.676  1.00  0.00     0.010 A 
ATOM     41  C   UNL A   1      40.578  29.714  29.429  1.00  0.00    -0.014 A 
BRANCH  41  42
ATOM     42  C   UNL A   1      41.920  29.191  29.065  1.00  0.00     0.031 A 
ATOM     43  C   UNL A   1      43.086  30.144  29.088  1.00  0.00     0.074 A 
ATOM     44  C   UNL A   1      42.113  27.900  28.738  1.00  0.00     0.049 A 
ATOM     45  N   UNL A   1      44.335  29.936  28.759  1.00  0.00    -0.248 NA
ATOM     46  C   UNL A   1      42.802  31.516  29.540  1.00  0.00     0.031 C 
ATOM     47  C   UNL A   1      41.084  26.863  28.731  1.00  0.00     0.029 A 
ATOM     48  N   UNL A   1      43.253  27.247  28.334  1.00  0.00    -0.354 N 
ATOM     49  C   UNL A   1      44.982  31.152  28.951  1.00  0.00     0.074 A 
ATOM     50  C   UNL A   1      43.985  32.096  29.402  1.00  0.00     0.031 C 
ATOM     51  C   UNL A   1      41.636  25.705  28.325  1.00  0.00     0.029 A 
ATOM     52  C   UNL A   1      43.048  25.927  28.012  1.00  0.00     0.049 A 
ATOM     53  H   UNL A   1      44.134  27.684  28.282  1.00  0.00     0.167 HD
ATOM     54  C   UNL A   1      46.289  31.455  28.767  1.00  0.00     0.031 A 
ATOM     55  C   UNL A   1      43.893  25.010  27.497  1.00  0.00     0.031 A 
ATOM     56  C   UNL A   1      47.278  30.521  28.300  1.00  0.00     0.049 A 
ATOM     57  C   UNL A   1      45.327  25.392  27.224  1.00  0.00     0.074 A 
ATOM     58  C   UNL A   1      48.630  30.731  28.099  1.00  0.00     0.029 A 
ATOM     59  N   UNL A   1      47.021  29.203  27.951  1.00  0.00    -0.354 N 
ATOM     60  N   UNL A   1      45.931  26.538  27.432  1.00  0.00    -0.248 NA
ATOM     61  C   UNL A   1      46.197  24.351  26.654  1.00  0.00     0.031 C 
ATOM     62  C   UNL A   1      49.179  29.562  27.564  1.00  0.00     0.029 A 
ATOM     63  C   UNL A   1      48.184  28.599  27.503  1.00  0.00     0.049 A 
ATOM     64  H   UNL A   1      46.143  28.764  28.013  1.00  0.00     0.167 HD
ATOM     65  C   UNL A   1      47.255  26.347  27.048  1.00  0.00     0.074 A 
ATOM     66  C   UNL A   1      47.368  24.972  26.606  1.00  0.00     0.031 C 
ATOM     67  C   UNL A   1      48.286  27.229  27.064  1.00  0.00     0.031 A 
BRANCH  54  68
ATOM     68  C   UNL A   1      46.716  32.876  29.028  1.00  0.00    -0.014 A 
ATOM     69  C   UNL A   1      46.925  33.352  30.336  1.00  0.00     0.010 A 
ATOM     70  C   UNL A   1      46.950  33.739  27.941  1.00  0.00     0.010 A 
ATOM     71  C   UNL A   1      47.323  34.674  30.552  1.00  0.00     0.020 A 
ATOM     72  C   UNL A   1      47.378  35.052  28.152  1.00  0.00     0.020 A 
ATOM     73  C   UNL A   1      47.547  35.516  29.458  1.00  0.00     0.054 A 
BRANCH  73  74
ATOM     74  S   UNL A   1      48.091  37.218  29.768  1.00  0.00     0.124 S 
ATOM     75  O   UNL A   1      48.788  37.543  28.526  1.00  0.00    -0.237 OA
ATOM     76  O   UNL A   1      46.829  37.921  29.982  1.00  0.00    -0.237 OA
ATOM     77  O   UNL A   1      48.944  37.101  30.947  1.00  0.00    -0.744 OA
ENDBRANCH  73  74
ENDBRANCH  54  68
BRANCH  55  78
ATOM     78  C   UNL A   1      43.401  23.641  27.176  1.00  0.00    -0.014 A 
ATOM     79  C   UNL A   1      43.228  23.229  25.843  1.00  0.00     0.010 A 
ATOM     80  C   UNL A   1      43.099  22.738  28.213  1.00  0.00     0.010 A 
ATOM     81  C   UNL A   1      42.753  21.945  25.553  1.00  0.00     0.020 A 
ATOM     82  C   UNL A   1      42.653  21.445  27.926  1.00  0.00     0.020 A 
ATOM     83  C   UNL A   1      42.475  21.059  26.597  1.00  0.00     0.054 A 
BRANCH  83  84
ATOM     84  S   UNL A   1      41.925  19.376  26.196  1.00  0.00     0.124 S 
ATOM     85  O   UNL A   1      40.481  19.548  26.080  1.00  0.00    -0.237 OA
ATOM     86  O   UNL A   1      42.634  19.104  24.948  1.00  0.00    -0.237 OA
ATOM     87  O   UNL A   1      42.373  18.589  27.342  1.00  0.00    -0.744 OA
ENDBRANCH  83  84
ENDBRANCH  55  78
BRANCH  67  88
ATOM     88  C   UNL A   1      49.643  26.734  26.631  1.00  0.00    -0.014 A 
ATOM     89  C   UNL A   1      50.474  26.010  27.504  1.00  0.00     0.010 A 
ATOM     90  C   UNL A   1      50.064  26.943  25.304  1.00  0.00     0.010 A 
ATOM     91  C   UNL A   1      51.714  25.532  27.067  1.00  0.00     0.020 A 
ATOM     92  C   UNL A   1      51.289  26.440  24.855  1.00  0.00     0.020 A 
ATOM     93  C   UNL A   1      52.112  25.750  25.744  1.00  0.00     0.054 A 
BRANCH  93  94
ATOM     94  S   UNL A   1      53.706  25.082  25.190  1.00  0.00     0.124 S 
ATOM     95  O   UNL A   1      53.793  25.595  23.826  1.00  0.00    -0.237 OA
ATOM     96  O   UNL A   1      54.647  25.668  26.142  1.00  0.00    -0.237 OA
ATOM     97  O   UNL A   1      53.535  23.636  25.301  1.00  0.00    -0.744 OA
ENDBRANCH  93  94
ENDBRANCH  67  88
ENDBRANCH  41  42
ENDBRANCH  34  36
ENDBRANCH  33  34
ENDBRANCH  32  33
ENDBRANCH  31  32
ENDBRANCH  30  31
ENDBRANCH  29  30
ENDBRANCH   1  29
TORSDOF 23
ENDMDL
