MODEL 1
REMARK VINA RESULT:      -9.9      0.000      0.000
REMARK SMILES O=C(OCCOCCOCCOC(=O)[C@@H](NC(=O)[C@H]1CC[C@@H]2CCCC[C@H]2[NH2+]1)C1CC1)c1ccc(-c2c3nc(c(-c4ccc(S(=O)(=O)[O-])cc4)c4ccc([nH]4)c(-c4ccc(S(=O)(=O)[O-])cc4)c4nc(c(-c5ccc(S(=O)(=O)[O-])cc5)c5ccc2[nH]5)C=C4)C=C3)cc1
REMARK SMILES IDX 7 1 6 2 5 3 4 4 3 5 2 6 1 7 32 8 33 9 91 10 34 11 90 12
REMARK SMILES IDX 35 13 36 14 37 15 84 16 38 17 89 18 83 19 85 20 39 21 88 22
REMARK SMILES IDX 82 23 81 24 40 26 70 27 51 28 69 29 52 30 55 31 68 32 86 33
REMARK SMILES IDX 53 34 54 35 67 37 87 38 56 39 41 40 42 41 50 42 43 43 49 44
REMARK SMILES IDX 44 45 45 46 46 47 47 48 48 49 71 50 72 51 80 52 73 53 79 54
REMARK SMILES IDX 74 55 75 56 76 57 77 58 78 59 57 60 58 61 66 62 59 63 65 64
REMARK SMILES IDX 60 65 61 66 62 67 63 68 64 69 8 70 9 71 10 72 11 73 12 74
REMARK SMILES IDX 13 75 14 76 15 77 16 78 17 79 18 81 19 82 20 83 28 84 21 85
REMARK SMILES IDX 27 86 22 89 26 90 23 91 25 92 24 93 29 94 30 95 31 96
REMARK H PARENT 85 25 55 36 16 80 28 87 28 88
REMARK Flexibility Score: inf
ROOT
ATOM      1  C   UNL A   1      35.161  33.643  27.881  1.00  0.00     0.188 C 
ENDROOT
BRANCH   1   2
ATOM      2  O   UNL A   1      34.647  34.964  28.077  1.00  0.00    -0.376 OA
BRANCH   2   3
ATOM      3  C   UNL A   1      33.318  34.991  28.609  1.00  0.00     0.202 C 
BRANCH   3   4
ATOM      4  C   UNL A   1      32.871  36.306  29.273  1.00  0.00     0.261 C 
BRANCH   4   5
ATOM      5  O   UNL A   1      33.160  36.394  30.679  1.00  0.00    -0.460 OA
BRANCH   5   6
ATOM      6  C   UNL A   1      33.089  35.438  31.637  1.00  0.00     0.338 C 
ATOM      7  O   UNL A   1      32.012  35.299  32.227  1.00  0.00    -0.246 OA
BRANCH   6   8
ATOM      8  C   UNL A   1      34.223  34.547  32.029  1.00  0.00     0.060 A 
ATOM      9  C   UNL A   1      34.138  33.460  32.898  1.00  0.00     0.016 A 
ATOM     10  C   UNL A   1      35.471  34.804  31.437  1.00  0.00     0.016 A 
ATOM     11  C   UNL A   1      35.263  32.726  33.271  1.00  0.00     0.010 A 
ATOM     12  C   UNL A   1      36.594  34.029  31.755  1.00  0.00     0.010 A 
ATOM     13  C   UNL A   1      36.505  33.011  32.715  1.00  0.00    -0.014 A 
BRANCH  13  14
ATOM     14  C   UNL A   1      37.728  32.351  33.230  1.00  0.00     0.031 A 
ATOM     15  C   UNL A   1      38.279  31.191  32.488  1.00  0.00     0.074 A 
ATOM     16  C   UNL A   1      38.469  32.846  34.237  1.00  0.00     0.049 A 
ATOM     17  N   UNL A   1      39.380  30.541  32.735  1.00  0.00    -0.248 NA
ATOM     18  C   UNL A   1      37.581  30.784  31.259  1.00  0.00     0.031 C 
ATOM     19  C   UNL A   1      38.307  34.179  34.758  1.00  0.00     0.029 A 
ATOM     20  N   UNL A   1      39.515  32.336  34.978  1.00  0.00    -0.354 N 
ATOM     21  C   UNL A   1      39.545  29.689  31.665  1.00  0.00     0.074 A 
ATOM     22  C   UNL A   1      38.397  29.848  30.799  1.00  0.00     0.031 C 
ATOM     23  C   UNL A   1      39.127  34.341  35.798  1.00  0.00     0.029 A 
ATOM     24  C   UNL A   1      39.850  33.135  36.052  1.00  0.00     0.049 A 
ATOM     25  H   UNL A   1      39.974  31.493  34.763  1.00  0.00     0.167 HD
ATOM     26  C   UNL A   1      40.594  28.877  31.427  1.00  0.00     0.031 A 
ATOM     27  C   UNL A   1      40.656  32.976  37.117  1.00  0.00     0.031 A 
ATOM     28  C   UNL A   1      41.706  28.716  32.325  1.00  0.00     0.049 A 
ATOM     29  C   UNL A   1      41.638  31.877  36.982  1.00  0.00     0.074 A 
ATOM     30  C   UNL A   1      42.768  27.839  32.216  1.00  0.00     0.029 A 
ATOM     31  N   UNL A   1      41.892  29.428  33.505  1.00  0.00    -0.354 N 
ATOM     32  N   UNL A   1      41.760  31.050  35.977  1.00  0.00    -0.248 NA
ATOM     33  C   UNL A   1      42.667  31.772  38.016  1.00  0.00     0.031 C 
ATOM     34  C   UNL A   1      43.551  27.959  33.368  1.00  0.00     0.029 A 
ATOM     35  C   UNL A   1      43.016  28.957  34.167  1.00  0.00     0.049 A 
ATOM     36  H   UNL A   1      41.313  30.157  33.823  1.00  0.00     0.167 HD
ATOM     37  C   UNL A   1      42.936  30.378  36.206  1.00  0.00     0.074 A 
ATOM     38  C   UNL A   1      43.482  30.893  37.451  1.00  0.00     0.031 C 
ATOM     39  C   UNL A   1      43.515  29.438  35.430  1.00  0.00     0.031 A 
BRANCH  26  40
ATOM     40  C   UNL A   1      40.494  28.035  30.196  1.00  0.00    -0.014 A 
ATOM     41  C   UNL A   1      39.623  26.933  30.122  1.00  0.00     0.010 A 
ATOM     42  C   UNL A   1      41.349  28.322  29.122  1.00  0.00     0.010 A 
ATOM     43  C   UNL A   1      39.636  26.109  28.994  1.00  0.00     0.020 A 
ATOM     44  C   UNL A   1      41.347  27.517  27.986  1.00  0.00     0.020 A 
ATOM     45  C   UNL A   1      40.501  26.408  27.935  1.00  0.00     0.054 A 
BRANCH  45  46
ATOM     46  S   UNL A   1      40.492  25.331  26.479  1.00  0.00     0.124 S 
ATOM     47  O   UNL A   1      41.003  26.222  25.442  1.00  0.00    -0.237 OA
ATOM     48  O   UNL A   1      41.381  24.249  26.876  1.00  0.00    -0.237 OA
ATOM     49  O   UNL A   1      39.081  24.957  26.337  1.00  0.00    -0.744 OA
ENDBRANCH  45  46
ENDBRANCH  26  40
BRANCH  27  50
ATOM     50  C   UNL A   1      40.670  33.883  38.307  1.00  0.00    -0.014 A 
ATOM     51  C   UNL A   1      41.418  35.074  38.332  1.00  0.00     0.010 A 
ATOM     52  C   UNL A   1      39.967  33.513  39.471  1.00  0.00     0.010 A 
ATOM     53  C   UNL A   1      41.457  35.878  39.484  1.00  0.00     0.020 A 
ATOM     54  C   UNL A   1      39.997  34.316  40.622  1.00  0.00     0.020 A 
ATOM     55  C   UNL A   1      40.736  35.501  40.621  1.00  0.00     0.054 A 
BRANCH  55  56
ATOM     56  S   UNL A   1      40.627  36.651  42.033  1.00  0.00     0.124 S 
ATOM     57  O   UNL A   1      39.202  36.962  42.073  1.00  0.00    -0.237 OA
ATOM     58  O   UNL A   1      41.126  35.848  43.148  1.00  0.00    -0.237 OA
ATOM     59  O   UNL A   1      41.503  37.754  41.643  1.00  0.00    -0.744 OA
ENDBRANCH  55  56
ENDBRANCH  27  50
BRANCH  39  60
ATOM     60  C   UNL A   1      44.794  28.882  35.963  1.00  0.00    -0.014 A 
ATOM     61  C   UNL A   1      44.774  27.773  36.826  1.00  0.00     0.010 A 
ATOM     62  C   UNL A   1      46.012  29.490  35.625  1.00  0.00     0.010 A 
ATOM     63  C   UNL A   1      45.958  27.305  37.383  1.00  0.00     0.020 A 
ATOM     64  C   UNL A   1      47.204  28.996  36.148  1.00  0.00     0.020 A 
ATOM     65  C   UNL A   1      47.165  27.917  37.036  1.00  0.00     0.054 A 
BRANCH  65  66
ATOM     66  S   UNL A   1      48.695  27.245  37.727  1.00  0.00     0.124 S 
ATOM     67  O   UNL A   1      49.712  27.962  36.964  1.00  0.00    -0.237 OA
ATOM     68  O   UNL A   1      48.592  27.609  39.138  1.00  0.00    -0.237 OA
ATOM     69  O   UNL A   1      48.598  25.813  37.451  1.00  0.00    -0.744 OA
ENDBRANCH  65  66
ENDBRANCH  39  60
ENDBRANCH  13  14
ENDBRANCH   6   8
ENDBRANCH   5   6
ENDBRANCH   4   5
ENDBRANCH   3   4
ENDBRANCH   2   3
ENDBRANCH   1   2
BRANCH   1  70
ATOM     70  C   UNL A   1      34.137  32.539  28.122  1.00  0.00     0.188 C 
BRANCH  70  71
ATOM     71  O   UNL A   1      34.175  31.403  27.265  1.00  0.00    -0.376 OA
BRANCH  71  72
ATOM     72  C   UNL A   1      33.141  30.437  27.389  1.00  0.00     0.202 C 
BRANCH  72  73
ATOM     73  C   UNL A   1      32.841  29.488  26.214  1.00  0.00     0.261 C 
BRANCH  73  74
ATOM     74  O   UNL A   1      33.781  28.434  25.976  1.00  0.00    -0.462 OA
BRANCH  74  75
ATOM     75  C   UNL A   1      33.776  28.000  24.685  1.00  0.00     0.329 C 
ATOM     76  O   UNL A   1      33.952  28.743  23.721  1.00  0.00    -0.250 OA
BRANCH  75  77
ATOM     77  C   UNL A   1      33.527  26.486  24.534  1.00  0.00     0.195 C 
BRANCH  77  78
ATOM     78  N   UNL A   1      33.561  25.929  23.173  1.00  0.00    -0.337 N 
ATOM     79  C   UNL A   1      32.775  26.138  22.081  1.00  0.00     0.278 C 
ATOM     80  H   UNL A   1      34.289  25.284  23.025  1.00  0.00     0.164 HD
ATOM     81  O   UNL A   1      33.288  25.874  20.993  1.00  0.00    -0.268 OA
BRANCH  79  82
ATOM     82  C   UNL A   1      31.341  26.657  22.260  1.00  0.00     0.272 C 
ATOM     83  C   UNL A   1      30.678  26.151  23.539  1.00  0.00     0.076 C 
ATOM     84  N   UNL A   1      31.246  28.115  22.045  1.00  0.00    -0.333 N 
ATOM     85  C   UNL A   1      29.207  26.565  23.528  1.00  0.00     0.016 C 
ATOM     86  C   UNL A   1      29.842  28.555  22.059  1.00  0.00     0.186 C 
ATOM     87  H   UNL A   1      31.661  28.347  21.142  1.00  0.00     0.347 HD
ATOM     88  H   UNL A   1      31.745  28.590  22.796  1.00  0.00     0.347 HD
ATOM     89  C   UNL A   1      29.065  28.073  23.302  1.00  0.00     0.048 C 
ATOM     90  C   UNL A   1      29.799  30.088  21.982  1.00  0.00     0.065 C 
ATOM     91  C   UNL A   1      27.609  28.529  23.208  1.00  0.00     0.010 C 
ATOM     92  C   UNL A   1      28.362  30.611  21.992  1.00  0.00     0.006 C 
ATOM     93  C   UNL A   1      27.545  30.054  23.155  1.00  0.00     0.001 C 
ENDBRANCH  79  82
ENDBRANCH  77  78
BRANCH  77  94
ATOM     94  C   UNL A   1      34.292  25.636  25.535  1.00  0.00     0.023 C 
ATOM     95  C   UNL A   1      33.657  24.375  26.117  1.00  0.00     0.007 C 
ATOM     96  C   UNL A   1      34.858  24.270  25.236  1.00  0.00     0.007 C 
ENDBRANCH  77  94
ENDBRANCH  75  77
ENDBRANCH  74  75
ENDBRANCH  73  74
ENDBRANCH  72  73
ENDBRANCH  71  72
ENDBRANCH  70  71
ENDBRANCH   1  70
TORSDOF 23
ENDMDL
MODEL 2
REMARK VINA RESULT:      -9.8      0.898      7.934
REMARK SMILES O=C(OCCOCCOCCOC(=O)[C@@H](NC(=O)[C@H]1CC[C@@H]2CCCC[C@H]2[NH2+]1)C1CC1)c1ccc(-c2c3nc(c(-c4ccc(S(=O)(=O)[O-])cc4)c4ccc([nH]4)c(-c4ccc(S(=O)(=O)[O-])cc4)c4nc(c(-c5ccc(S(=O)(=O)[O-])cc5)c5ccc2[nH]5)C=C4)C=C3)cc1
REMARK SMILES IDX 7 1 6 2 5 3 4 4 3 5 2 6 1 7 32 8 33 9 91 10 34 11 90 12
REMARK SMILES IDX 35 13 36 14 37 15 84 16 38 17 89 18 83 19 85 20 39 21 88 22
REMARK SMILES IDX 82 23 81 24 40 26 70 27 51 28 69 29 52 30 55 31 68 32 86 33
REMARK SMILES IDX 53 34 54 35 67 37 87 38 56 39 41 40 42 41 50 42 43 43 49 44
REMARK SMILES IDX 44 45 45 46 46 47 47 48 48 49 71 50 72 51 80 52 73 53 79 54
REMARK SMILES IDX 74 55 75 56 76 57 77 58 78 59 57 60 58 61 66 62 59 63 65 64
REMARK SMILES IDX 60 65 61 66 62 67 63 68 64 69 8 70 9 71 10 72 11 73 12 74
REMARK SMILES IDX 13 75 14 76 15 77 16 78 17 79 18 81 19 82 20 83 28 84 21 85
REMARK SMILES IDX 27 86 22 89 26 90 23 91 25 92 24 93 29 94 30 95 31 96
REMARK H PARENT 85 25 55 36 16 80 28 87 28 88
REMARK Flexibility Score: inf
ROOT
ATOM      1  C   UNL A   1      35.226  33.720  28.048  1.00  0.00     0.188 C 
ENDROOT
BRANCH   1   2
ATOM      2  O   UNL A   1      34.605  34.985  28.296  1.00  0.00    -0.376 OA
BRANCH   2   3
ATOM      3  C   UNL A   1      33.250  34.881  28.743  1.00  0.00     0.202 C 
BRANCH   3   4
ATOM      4  C   UNL A   1      32.659  36.124  29.435  1.00  0.00     0.261 C 
BRANCH   4   5
ATOM      5  O   UNL A   1      32.959  36.226  30.838  1.00  0.00    -0.460 OA
BRANCH   5   6
ATOM      6  C   UNL A   1      33.065  35.251  31.772  1.00  0.00     0.338 C 
ATOM      7  O   UNL A   1      32.055  34.977  32.430  1.00  0.00    -0.246 OA
BRANCH   6   8
ATOM      8  C   UNL A   1      34.317  34.487  32.061  1.00  0.00     0.060 A 
ATOM      9  C   UNL A   1      34.390  33.277  32.751  1.00  0.00     0.016 A 
ATOM     10  C   UNL A   1      35.517  35.016  31.557  1.00  0.00     0.016 A 
ATOM     11  C   UNL A   1      35.609  32.670  33.045  1.00  0.00     0.010 A 
ATOM     12  C   UNL A   1      36.741  34.378  31.792  1.00  0.00     0.010 A 
ATOM     13  C   UNL A   1      36.799  33.220  32.580  1.00  0.00    -0.014 A 
BRANCH  13  14
ATOM     14  C   UNL A   1      38.103  32.677  33.030  1.00  0.00     0.031 A 
ATOM     15  C   UNL A   1      38.613  33.067  34.367  1.00  0.00     0.074 A 
ATOM     16  C   UNL A   1      38.774  31.717  32.371  1.00  0.00     0.049 A 
ATOM     17  N   UNL A   1      39.686  32.631  34.965  1.00  0.00    -0.248 NA
ATOM     18  C   UNL A   1      37.768  33.955  35.179  1.00  0.00     0.031 C 
ATOM     19  C   UNL A   1      38.197  30.939  31.305  1.00  0.00     0.029 A 
ATOM     20  N   UNL A   1      40.044  31.195  32.498  1.00  0.00    -0.354 N 
ATOM     21  C   UNL A   1      39.619  33.139  36.244  1.00  0.00     0.074 A 
ATOM     22  C   UNL A   1      38.440  33.975  36.320  1.00  0.00     0.031 C 
ATOM     23  C   UNL A   1      39.133  30.131  30.802  1.00  0.00     0.029 A 
ATOM     24  C   UNL A   1      40.379  30.342  31.468  1.00  0.00     0.049 A 
ATOM     25  H   UNL A   1      40.647  31.408  33.246  1.00  0.00     0.167 HD
ATOM     26  C   UNL A   1      40.462  32.886  37.264  1.00  0.00     0.031 A 
ATOM     27  C   UNL A   1      41.524  29.750  31.082  1.00  0.00     0.031 A 
ATOM     28  C   UNL A   1      41.645  32.077  37.147  1.00  0.00     0.049 A 
ATOM     29  C   UNL A   1      42.580  29.726  32.119  1.00  0.00     0.074 A 
ATOM     30  C   UNL A   1      42.616  31.845  38.102  1.00  0.00     0.029 A 
ATOM     31  N   UNL A   1      42.032  31.384  36.005  1.00  0.00    -0.354 N 
ATOM     32  N   UNL A   1      42.518  30.244  33.317  1.00  0.00    -0.248 NA
ATOM     33  C   UNL A   1      43.775  28.931  31.835  1.00  0.00     0.031 C 
ATOM     34  C   UNL A   1      43.631  31.084  37.515  1.00  0.00     0.029 A 
ATOM     35  C   UNL A   1      43.265  30.783  36.214  1.00  0.00     0.049 A 
ATOM     36  H   UNL A   1      41.509  31.328  35.173  1.00  0.00     0.167 HD
ATOM     37  C   UNL A   1      43.628  29.768  33.972  1.00  0.00     0.074 A 
ATOM     38  C   UNL A   1      44.345  28.924  33.031  1.00  0.00     0.031 C 
ATOM     39  C   UNL A   1      43.993  29.996  35.251  1.00  0.00     0.031 A 
BRANCH  26  40
ATOM     40  C   UNL A   1      40.164  33.602  38.542  1.00  0.00    -0.014 A 
ATOM     41  C   UNL A   1      40.784  34.821  38.869  1.00  0.00     0.010 A 
ATOM     42  C   UNL A   1      39.295  32.992  39.460  1.00  0.00     0.010 A 
ATOM     43  C   UNL A   1      40.559  35.404  40.119  1.00  0.00     0.020 A 
ATOM     44  C   UNL A   1      39.050  33.583  40.696  1.00  0.00     0.020 A 
ATOM     45  C   UNL A   1      39.694  34.777  41.023  1.00  0.00     0.054 A 
BRANCH  45  46
ATOM     46  S   UNL A   1      39.409  35.558  42.633  1.00  0.00     0.124 S 
ATOM     47  O   UNL A   1      38.017  35.209  42.895  1.00  0.00    -0.237 OA
ATOM     48  O   UNL A   1      40.395  34.907  43.483  1.00  0.00    -0.237 OA
ATOM     49  O   UNL A   1      39.655  36.981  42.372  1.00  0.00    -0.744 OA
ENDBRANCH  45  46
ENDBRANCH  26  40
BRANCH  27  50
ATOM     50  C   UNL A   1      41.716  29.061  29.767  1.00  0.00    -0.014 A 
ATOM     51  C   UNL A   1      41.974  29.772  28.581  1.00  0.00     0.010 A 
ATOM     52  C   UNL A   1      41.574  27.662  29.688  1.00  0.00     0.010 A 
ATOM     53  C   UNL A   1      42.095  29.102  27.351  1.00  0.00     0.020 A 
ATOM     54  C   UNL A   1      41.699  26.988  28.463  1.00  0.00     0.020 A 
ATOM     55  C   UNL A   1      41.968  27.711  27.299  1.00  0.00     0.054 A 
BRANCH  55  56
ATOM     56  S   UNL A   1      42.330  26.837  25.739  1.00  0.00     0.124 S 
ATOM     57  O   UNL A   1      43.487  26.025  26.098  1.00  0.00    -0.237 OA
ATOM     58  O   UNL A   1      41.096  26.097  25.486  1.00  0.00    -0.237 OA
ATOM     59  O   UNL A   1      42.590  27.921  24.794  1.00  0.00    -0.744 OA
ENDBRANCH  55  56
ENDBRANCH  27  50
BRANCH  39  60
ATOM     60  C   UNL A   1      45.269  29.343  35.667  1.00  0.00    -0.014 A 
ATOM     61  C   UNL A   1      46.486  30.035  35.546  1.00  0.00     0.010 A 
ATOM     62  C   UNL A   1      45.253  28.025  36.149  1.00  0.00     0.010 A 
ATOM     63  C   UNL A   1      47.681  29.399  35.860  1.00  0.00     0.020 A 
ATOM     64  C   UNL A   1      46.445  27.401  36.505  1.00  0.00     0.020 A 
ATOM     65  C   UNL A   1      47.652  28.088  36.342  1.00  0.00     0.054 A 
BRANCH  65  66
ATOM     66  S   UNL A   1      49.217  27.310  36.802  1.00  0.00     0.124 S 
ATOM     67  O   UNL A   1      50.142  27.896  35.836  1.00  0.00    -0.237 OA
ATOM     68  O   UNL A   1      49.393  27.744  38.185  1.00  0.00    -0.237 OA
ATOM     69  O   UNL A   1      48.955  25.882  36.632  1.00  0.00    -0.744 OA
ENDBRANCH  65  66
ENDBRANCH  39  60
ENDBRANCH  13  14
ENDBRANCH   6   8
ENDBRANCH   5   6
ENDBRANCH   4   5
ENDBRANCH   3   4
ENDBRANCH   2   3
ENDBRANCH   1   2
BRANCH   1  70
ATOM     70  C   UNL A   1      34.313  32.524  28.292  1.00  0.00     0.188 C 
BRANCH  70  71
ATOM     71  O   UNL A   1      34.440  31.405  27.422  1.00  0.00    -0.376 OA
BRANCH  71  72
ATOM     72  C   UNL A   1      33.341  30.511  27.316  1.00  0.00     0.202 C 
BRANCH  72  73
ATOM     73  C   UNL A   1      33.112  29.738  26.004  1.00  0.00     0.261 C 
BRANCH  73  74
ATOM     74  O   UNL A   1      33.821  28.503  25.847  1.00  0.00    -0.462 OA
BRANCH  74  75
ATOM     75  C   UNL A   1      33.816  28.048  24.564  1.00  0.00     0.329 C 
ATOM     76  O   UNL A   1      34.017  28.769  23.589  1.00  0.00    -0.250 OA
BRANCH  75  77
ATOM     77  C   UNL A   1      33.530  26.538  24.437  1.00  0.00     0.195 C 
BRANCH  77  78
ATOM     78  N   UNL A   1      33.535  25.962  23.083  1.00  0.00    -0.337 N 
ATOM     79  C   UNL A   1      32.730  26.163  22.003  1.00  0.00     0.278 C 
ATOM     80  H   UNL A   1      34.254  25.308  22.931  1.00  0.00     0.164 HD
ATOM     81  O   UNL A   1      33.222  25.880  20.910  1.00  0.00    -0.268 OA
BRANCH  79  82
ATOM     82  C   UNL A   1      31.304  26.697  22.200  1.00  0.00     0.272 C 
ATOM     83  C   UNL A   1      30.637  26.163  23.464  1.00  0.00     0.076 C 
ATOM     84  N   UNL A   1      31.231  28.162  22.028  1.00  0.00    -0.333 N 
ATOM     85  C   UNL A   1      29.172  26.599  23.468  1.00  0.00     0.016 C 
ATOM     86  C   UNL A   1      29.834  28.622  22.058  1.00  0.00     0.186 C 
ATOM     87  H   UNL A   1      31.647  28.415  21.131  1.00  0.00     0.347 HD
ATOM     88  H   UNL A   1      31.738  28.607  22.792  1.00  0.00     0.347 HD
ATOM     89  C   UNL A   1      29.052  28.115  23.287  1.00  0.00     0.048 C 
ATOM     90  C   UNL A   1      29.813  30.158  22.026  1.00  0.00     0.065 C 
ATOM     91  C   UNL A   1      27.602  28.595  23.210  1.00  0.00     0.010 C 
ATOM     92  C   UNL A   1      28.384  30.700  22.055  1.00  0.00     0.006 C 
ATOM     93  C   UNL A   1      27.561  30.122  23.202  1.00  0.00     0.001 C 
ENDBRANCH  79  82
ENDBRANCH  77  78
BRANCH  77  94
ATOM     94  C   UNL A   1      34.287  25.684  25.440  1.00  0.00     0.023 C 
ATOM     95  C   UNL A   1      33.595  24.507  26.124  1.00  0.00     0.007 C 
ATOM     96  C   UNL A   1      34.733  24.266  25.187  1.00  0.00     0.007 C 
ENDBRANCH  77  94
ENDBRANCH  75  77
ENDBRANCH  74  75
ENDBRANCH  73  74
ENDBRANCH  72  73
ENDBRANCH  71  72
ENDBRANCH  70  71
ENDBRANCH   1  70
TORSDOF 23
ENDMDL
MODEL 3
REMARK VINA RESULT:      -9.5      2.325      8.792
REMARK SMILES O=C(OCCOCCOCCOC(=O)[C@@H](NC(=O)[C@H]1CC[C@@H]2CCCC[C@H]2[NH2+]1)C1CC1)c1ccc(-c2c3nc(c(-c4ccc(S(=O)(=O)[O-])cc4)c4ccc([nH]4)c(-c4ccc(S(=O)(=O)[O-])cc4)c4nc(c(-c5ccc(S(=O)(=O)[O-])cc5)c5ccc2[nH]5)C=C4)C=C3)cc1
REMARK SMILES IDX 7 1 6 2 5 3 4 4 3 5 2 6 1 7 32 8 33 9 91 10 34 11 90 12
REMARK SMILES IDX 35 13 36 14 37 15 84 16 38 17 89 18 83 19 85 20 39 21 88 22
REMARK SMILES IDX 82 23 81 24 40 26 70 27 51 28 69 29 52 30 55 31 68 32 86 33
REMARK SMILES IDX 53 34 54 35 67 37 87 38 56 39 41 40 42 41 50 42 43 43 49 44
REMARK SMILES IDX 44 45 45 46 46 47 47 48 48 49 71 50 72 51 80 52 73 53 79 54
REMARK SMILES IDX 74 55 75 56 76 57 77 58 78 59 57 60 58 61 66 62 59 63 65 64
REMARK SMILES IDX 60 65 61 66 62 67 63 68 64 69 8 70 9 71 10 72 11 73 12 74
REMARK SMILES IDX 13 75 14 76 15 77 16 78 17 79 18 81 19 82 20 83 28 84 21 85
REMARK SMILES IDX 27 86 22 89 26 90 23 91 25 92 24 93 29 94 30 95 31 96
REMARK H PARENT 85 25 55 36 16 80 28 87 28 88
REMARK Flexibility Score: inf
ROOT
ATOM      1  C   UNL A   1      37.966  21.402  25.119  1.00  0.00     0.188 C 
ENDROOT
BRANCH   1   2
ATOM      2  O   UNL A   1      38.615  21.553  26.385  1.00  0.00    -0.376 OA
BRANCH   2   3
ATOM      3  C   UNL A   1      39.737  22.440  26.353  1.00  0.00     0.202 C 
BRANCH   3   4
ATOM      4  C   UNL A   1      39.850  23.447  27.512  1.00  0.00     0.261 C 
BRANCH   4   5
ATOM      5  O   UNL A   1      40.794  24.510  27.292  1.00  0.00    -0.460 OA
BRANCH   5   6
ATOM      6  C   UNL A   1      40.578  25.838  27.134  1.00  0.00     0.338 C 
ATOM      7  O   UNL A   1      40.430  26.261  25.982  1.00  0.00    -0.246 OA
BRANCH   6   8
ATOM      8  C   UNL A   1      40.511  26.824  28.256  1.00  0.00     0.060 A 
ATOM      9  C   UNL A   1      41.319  27.952  28.394  1.00  0.00     0.016 A 
ATOM     10  C   UNL A   1      39.520  26.616  29.230  1.00  0.00     0.016 A 
ATOM     11  C   UNL A   1      41.242  28.779  29.513  1.00  0.00     0.010 A 
ATOM     12  C   UNL A   1      39.392  27.480  30.325  1.00  0.00     0.010 A 
ATOM     13  C   UNL A   1      40.287  28.546  30.497  1.00  0.00    -0.014 A 
BRANCH  13  14
ATOM     14  C   UNL A   1      40.311  29.314  31.764  1.00  0.00     0.031 A 
ATOM     15  C   UNL A   1      41.365  29.009  32.762  1.00  0.00     0.074 A 
ATOM     16  C   UNL A   1      39.538  30.389  31.994  1.00  0.00     0.049 A 
ATOM     17  N   UNL A   1      41.598  29.628  33.885  1.00  0.00    -0.248 NA
ATOM     18  C   UNL A   1      42.345  27.971  32.412  1.00  0.00     0.031 C 
ATOM     19  C   UNL A   1      38.790  31.060  30.963  1.00  0.00     0.029 A 
ATOM     20  N   UNL A   1      39.269  31.135  33.123  1.00  0.00    -0.354 N 
ATOM     21  C   UNL A   1      42.782  29.101  34.350  1.00  0.00     0.074 A 
ATOM     22  C   UNL A   1      43.188  28.060  33.429  1.00  0.00     0.031 C 
ATOM     23  C   UNL A   1      38.063  32.033  31.517  1.00  0.00     0.029 A 
ATOM     24  C   UNL A   1      38.252  32.048  32.932  1.00  0.00     0.049 A 
ATOM     25  H   UNL A   1      39.752  31.028  33.973  1.00  0.00     0.167 HD
ATOM     26  C   UNL A   1      43.475  29.493  35.437  1.00  0.00     0.031 A 
ATOM     27  C   UNL A   1      37.550  32.845  33.757  1.00  0.00     0.031 A 
ATOM     28  C   UNL A   1      43.027  30.508  36.353  1.00  0.00     0.049 A 
ATOM     29  C   UNL A   1      38.169  33.052  35.085  1.00  0.00     0.074 A 
ATOM     30  C   UNL A   1      43.614  30.903  37.539  1.00  0.00     0.029 A 
ATOM     31  N   UNL A   1      41.877  31.274  36.199  1.00  0.00    -0.354 N 
ATOM     32  N   UNL A   1      39.275  32.516  35.529  1.00  0.00    -0.248 NA
ATOM     33  C   UNL A   1      37.559  34.056  35.956  1.00  0.00     0.031 C 
ATOM     34  C   UNL A   1      42.778  31.845  38.145  1.00  0.00     0.029 A 
ATOM     35  C   UNL A   1      41.702  32.089  37.308  1.00  0.00     0.049 A 
ATOM     36  H   UNL A   1      41.276  31.242  35.419  1.00  0.00     0.167 HD
ATOM     37  C   UNL A   1      39.552  33.180  36.698  1.00  0.00     0.074 A 
ATOM     38  C   UNL A   1      38.490  34.154  36.893  1.00  0.00     0.031 C 
ATOM     39  C   UNL A   1      40.613  33.009  37.515  1.00  0.00     0.031 A 
BRANCH  26  40
ATOM     40  C   UNL A   1      44.721  28.719  35.724  1.00  0.00    -0.014 A 
ATOM     41  C   UNL A   1      45.969  29.104  35.202  1.00  0.00     0.010 A 
ATOM     42  C   UNL A   1      44.614  27.540  36.478  1.00  0.00     0.010 A 
ATOM     43  C   UNL A   1      47.089  28.296  35.406  1.00  0.00     0.020 A 
ATOM     44  C   UNL A   1      45.734  26.745  36.704  1.00  0.00     0.020 A 
ATOM     45  C   UNL A   1      46.961  27.120  36.155  1.00  0.00     0.054 A 
BRANCH  45  46
ATOM     46  S   UNL A   1      48.431  26.095  36.416  1.00  0.00     0.124 S 
ATOM     47  O   UNL A   1      49.510  27.041  36.149  1.00  0.00    -0.237 OA
ATOM     48  O   UNL A   1      48.287  25.677  37.803  1.00  0.00    -0.237 OA
ATOM     49  O   UNL A   1      48.284  25.024  35.424  1.00  0.00    -0.744 OA
ENDBRANCH  45  46
ENDBRANCH  26  40
BRANCH  27  50
ATOM     50  C   UNL A   1      36.302  33.574  33.364  1.00  0.00    -0.014 A 
ATOM     51  C   UNL A   1      35.022  33.020  33.550  1.00  0.00     0.010 A 
ATOM     52  C   UNL A   1      36.400  34.827  32.729  1.00  0.00     0.010 A 
ATOM     53  C   UNL A   1      33.871  33.703  33.121  1.00  0.00     0.020 A 
ATOM     54  C   UNL A   1      35.253  35.516  32.304  1.00  0.00     0.020 A 
ATOM     55  C   UNL A   1      33.991  34.955  32.510  1.00  0.00     0.054 A 
BRANCH  55  56
ATOM     56  S   UNL A   1      32.487  35.920  32.145  1.00  0.00     0.124 S 
ATOM     57  O   UNL A   1      31.427  35.033  32.611  1.00  0.00    -0.237 OA
ATOM     58  O   UNL A   1      32.680  37.136  32.931  1.00  0.00    -0.237 OA
ATOM     59  O   UNL A   1      32.552  36.119  30.698  1.00  0.00    -0.744 OA
ENDBRANCH  55  56
ENDBRANCH  27  50
BRANCH  39  60
ATOM     60  C   UNL A   1      40.622  33.881  38.726  1.00  0.00    -0.014 A 
ATOM     61  C   UNL A   1      41.462  35.006  38.777  1.00  0.00     0.010 A 
ATOM     62  C   UNL A   1      39.812  33.555  39.825  1.00  0.00     0.010 A 
ATOM     63  C   UNL A   1      41.527  35.772  39.935  1.00  0.00     0.020 A 
ATOM     64  C   UNL A   1      39.845  34.346  40.970  1.00  0.00     0.020 A 
ATOM     65  C   UNL A   1      40.714  35.440  41.021  1.00  0.00     0.054 A 
BRANCH  65  66
ATOM     66  S   UNL A   1      40.774  36.493  42.490  1.00  0.00     0.124 S 
ATOM     67  O   UNL A   1      41.844  37.425  42.149  1.00  0.00    -0.237 OA
ATOM     68  O   UNL A   1      39.430  37.063  42.527  1.00  0.00    -0.237 OA
ATOM     69  O   UNL A   1      41.078  35.558  43.572  1.00  0.00    -0.744 OA
ENDBRANCH  65  66
ENDBRANCH  39  60
ENDBRANCH  13  14
ENDBRANCH   6   8
ENDBRANCH   5   6
ENDBRANCH   4   5
ENDBRANCH   3   4
ENDBRANCH   2   3
ENDBRANCH   1   2
BRANCH   1  70
ATOM     70  C   UNL A   1      36.569  22.013  25.063  1.00  0.00     0.188 C 
BRANCH  70  71
ATOM     71  O   UNL A   1      36.266  23.057  25.981  1.00  0.00    -0.376 OA
BRANCH  71  72
ATOM     72  C   UNL A   1      36.046  24.361  25.462  1.00  0.00     0.202 C 
BRANCH  72  73
ATOM     73  C   UNL A   1      34.625  24.785  25.048  1.00  0.00     0.261 C 
BRANCH  73  74
ATOM     74  O   UNL A   1      33.792  25.343  26.072  1.00  0.00    -0.462 OA
BRANCH  74  75
ATOM     75  C   UNL A   1      33.465  26.644  25.840  1.00  0.00     0.329 C 
ATOM     76  O   UNL A   1      34.063  27.593  26.345  1.00  0.00    -0.250 OA
BRANCH  75  77
ATOM     77  C   UNL A   1      32.269  26.828  24.883  1.00  0.00     0.195 C 
BRANCH  77  78
ATOM     78  N   UNL A   1      30.923  26.615  25.437  1.00  0.00    -0.337 N 
ATOM     79  C   UNL A   1      30.249  25.484  25.787  1.00  0.00     0.278 C 
ATOM     80  H   UNL A   1      30.416  27.445  25.581  1.00  0.00     0.164 HD
ATOM     81  O   UNL A   1      29.338  25.636  26.603  1.00  0.00    -0.268 OA
BRANCH  79  82
ATOM     82  C   UNL A   1      30.636  24.138  25.160  1.00  0.00     0.272 C 
ATOM     83  C   UNL A   1      30.991  24.249  23.680  1.00  0.00     0.076 C 
ATOM     84  N   UNL A   1      31.619  23.403  25.982  1.00  0.00    -0.333 N 
ATOM     85  C   UNL A   1      31.174  22.843  23.110  1.00  0.00     0.016 C 
ATOM     86  C   UNL A   1      31.844  22.053  25.445  1.00  0.00     0.186 C 
ATOM     87  H   UNL A   1      31.267  23.329  26.937  1.00  0.00     0.347 HD
ATOM     88  H   UNL A   1      32.502  23.912  25.968  1.00  0.00     0.347 HD
ATOM     89  C   UNL A   1      32.185  22.045  23.939  1.00  0.00     0.048 C 
ATOM     90  C   UNL A   1      32.977  21.382  26.237  1.00  0.00     0.065 C 
ATOM     91  C   UNL A   1      32.350  20.604  23.456  1.00  0.00     0.010 C 
ATOM     92  C   UNL A   1      33.260  19.970  25.725  1.00  0.00     0.006 C 
ATOM     93  C   UNL A   1      33.490  19.928  24.216  1.00  0.00     0.001 C 
ENDBRANCH  79  82
ENDBRANCH  77  78
BRANCH  77  94
ATOM     94  C   UNL A   1      32.359  28.078  24.024  1.00  0.00     0.023 C 
ATOM     95  C   UNL A   1      33.000  28.014  22.639  1.00  0.00     0.007 C 
ATOM     96  C   UNL A   1      31.543  28.315  22.778  1.00  0.00     0.007 C 
ENDBRANCH  77  94
ENDBRANCH  75  77
ENDBRANCH  74  75
ENDBRANCH  73  74
ENDBRANCH  72  73
ENDBRANCH  71  72
ENDBRANCH  70  71
ENDBRANCH   1  70
TORSDOF 23
ENDMDL
