MODEL 1
REMARK VINA RESULT:     -10.1      0.000      0.000
REMARK SMILES O=C(OCCOCCOCCOC(=O)[C@@H]1C=C[C@H](NC(=O)[C@@H]2Cc3ccccc3O2)C1)c1ccc(-c2c3nc(c(-c4ccc(S(=O)(=O)[O-])cc4)c4ccc([nH]4)c(-c4ccc(S(=O)(=O)[O-])cc4)c4nc(c(-c5ccc(S(=O)(=O)[O-])cc5)c5ccc2[nH]5)C=C4)C=C3)cc1
REMARK SMILES IDX 7 1 6 2 5 3 4 4 3 5 2 6 1 7 32 8 33 9 91 10 34 11 90 12
REMARK SMILES IDX 35 13 36 14 37 15 84 16 38 17 89 18 83 19 85 20 39 21 88 22
REMARK SMILES IDX 82 23 81 24 40 26 70 27 51 28 69 29 52 30 55 31 68 32 86 33
REMARK SMILES IDX 53 34 54 35 67 37 87 38 56 39 41 40 42 41 50 42 43 43 49 44
REMARK SMILES IDX 44 45 45 46 46 47 47 48 48 49 71 50 72 51 80 52 73 53 79 54
REMARK SMILES IDX 74 55 75 56 76 57 77 58 78 59 57 60 58 61 66 62 59 63 65 64
REMARK SMILES IDX 60 65 61 66 62 67 63 68 64 69 8 70 9 71 10 72 11 73 12 74
REMARK SMILES IDX 13 75 14 76 15 77 16 78 31 79 17 80 18 81 19 82 20 83 21 85
REMARK SMILES IDX 22 86 23 87 30 88 24 89 29 90 25 91 28 92 26 93 27 94
REMARK H PARENT 85 25 55 36 19 84
REMARK Flexibility Score: inf
ROOT
ATOM      1  C   UNL A   1      32.467  30.428  26.931  1.00  0.00     0.188 C 
ENDROOT
BRANCH   1   2
ATOM      2  O   UNL A   1      33.414  30.508  28.001  1.00  0.00    -0.376 OA
BRANCH   2   3
ATOM      3  C   UNL A   1      34.256  31.662  27.929  1.00  0.00     0.202 C 
BRANCH   3   4
ATOM      4  C   UNL A   1      35.236  31.819  29.107  1.00  0.00     0.261 C 
BRANCH   4   5
ATOM      5  O   UNL A   1      36.539  31.256  28.849  1.00  0.00    -0.460 OA
BRANCH   5   6
ATOM      6  C   UNL A   1      37.045  30.054  29.197  1.00  0.00     0.338 C 
ATOM      7  O   UNL A   1      36.352  29.271  29.845  1.00  0.00    -0.246 OA
BRANCH   6   8
ATOM      8  C   UNL A   1      38.439  29.665  28.866  1.00  0.00     0.060 A 
ATOM      9  C   UNL A   1      39.380  29.269  29.813  1.00  0.00     0.016 A 
ATOM     10  C   UNL A   1      38.790  29.585  27.518  1.00  0.00     0.016 A 
ATOM     11  C   UNL A   1      40.685  28.945  29.459  1.00  0.00     0.010 A 
ATOM     12  C   UNL A   1      40.068  29.156  27.152  1.00  0.00     0.010 A 
ATOM     13  C   UNL A   1      41.051  28.881  28.118  1.00  0.00    -0.014 A 
BRANCH  13  14
ATOM     14  C   UNL A   1      42.474  28.679  27.735  1.00  0.00     0.031 A 
ATOM     15  C   UNL A   1      43.451  29.779  28.066  1.00  0.00     0.074 A 
ATOM     16  C   UNL A   1      42.905  27.539  27.153  1.00  0.00     0.049 A 
ATOM     17  N   UNL A   1      44.697  29.923  27.702  1.00  0.00    -0.248 NA
ATOM     18  C   UNL A   1      42.933  30.903  28.866  1.00  0.00     0.031 C 
ATOM     19  C   UNL A   1      42.069  26.388  26.794  1.00  0.00     0.029 A 
ATOM     20  N   UNL A   1      44.169  27.142  26.794  1.00  0.00    -0.354 N 
ATOM     21  C   UNL A   1      45.062  31.193  28.137  1.00  0.00     0.074 A 
ATOM     22  C   UNL A   1      43.893  31.799  28.726  1.00  0.00     0.031 C 
ATOM     23  C   UNL A   1      42.852  25.391  26.345  1.00  0.00     0.029 A 
ATOM     24  C   UNL A   1      44.235  25.850  26.317  1.00  0.00     0.049 A 
ATOM     25  H   UNL A   1      44.957  27.727  26.869  1.00  0.00     0.167 HD
ATOM     26  C   UNL A   1      46.275  31.789  28.098  1.00  0.00     0.031 A 
ATOM     27  C   UNL A   1      45.299  25.127  25.912  1.00  0.00     0.031 A 
ATOM     28  C   UNL A   1      47.458  31.119  27.643  1.00  0.00     0.049 A 
ATOM     29  C   UNL A   1      46.657  25.781  25.943  1.00  0.00     0.074 A 
ATOM     30  C   UNL A   1      48.757  31.587  27.604  1.00  0.00     0.029 A 
ATOM     31  N   UNL A   1      47.482  29.805  27.195  1.00  0.00    -0.354 N 
ATOM     32  N   UNL A   1      46.979  26.995  26.328  1.00  0.00    -0.248 NA
ATOM     33  C   UNL A   1      47.796  24.970  25.492  1.00  0.00     0.031 C 
ATOM     34  C   UNL A   1      49.568  30.554  27.121  1.00  0.00     0.029 A 
ATOM     35  C   UNL A   1      48.778  29.435  26.896  1.00  0.00     0.049 A 
ATOM     36  H   UNL A   1      46.693  29.225  27.104  1.00  0.00     0.167 HD
ATOM     37  C   UNL A   1      48.360  27.082  26.196  1.00  0.00     0.074 A 
ATOM     38  C   UNL A   1      48.813  25.792  25.711  1.00  0.00     0.031 C 
ATOM     39  C   UNL A   1      49.185  28.129  26.447  1.00  0.00     0.031 A 
BRANCH  26  40
ATOM     40  C   UNL A   1      46.349  33.218  28.566  1.00  0.00    -0.014 A 
ATOM     41  C   UNL A   1      46.650  33.541  29.903  1.00  0.00     0.010 A 
ATOM     42  C   UNL A   1      46.037  34.254  27.667  1.00  0.00     0.010 A 
ATOM     43  C   UNL A   1      46.545  34.858  30.354  1.00  0.00     0.020 A 
ATOM     44  C   UNL A   1      45.971  35.580  28.107  1.00  0.00     0.020 A 
ATOM     45  C   UNL A   1      46.191  35.869  29.455  1.00  0.00     0.054 A 
BRANCH  45  46
ATOM     46  S   UNL A   1      46.030  37.563  30.076  1.00  0.00     0.124 S 
ATOM     47  O   UNL A   1      46.919  37.542  31.240  1.00  0.00    -0.237 OA
ATOM     48  O   UNL A   1      46.484  38.367  28.952  1.00  0.00    -0.237 OA
ATOM     49  O   UNL A   1      44.600  37.679  30.390  1.00  0.00    -0.744 OA
ENDBRANCH  45  46
ENDBRANCH  26  40
BRANCH  27  50
ATOM     50  C   UNL A   1      45.142  23.709  25.471  1.00  0.00    -0.014 A 
ATOM     51  C   UNL A   1      45.112  22.667  26.417  1.00  0.00     0.010 A 
ATOM     52  C   UNL A   1      45.045  23.384  24.106  1.00  0.00     0.010 A 
ATOM     53  C   UNL A   1      45.020  21.332  26.008  1.00  0.00     0.020 A 
ATOM     54  C   UNL A   1      44.924  22.051  23.694  1.00  0.00     0.020 A 
ATOM     55  C   UNL A   1      44.928  21.032  24.647  1.00  0.00     0.054 A 
BRANCH  55  56
ATOM     56  S   UNL A   1      44.783  19.294  24.140  1.00  0.00     0.124 S 
ATOM     57  O   UNL A   1      46.139  18.800  24.351  1.00  0.00    -0.237 OA
ATOM     58  O   UNL A   1      43.771  18.781  25.062  1.00  0.00    -0.237 OA
ATOM     59  O   UNL A   1      44.356  19.380  22.746  1.00  0.00    -0.744 OA
ENDBRANCH  55  56
ENDBRANCH  27  50
BRANCH  39  60
ATOM     60  C   UNL A   1      50.658  27.901  26.269  1.00  0.00    -0.014 A 
ATOM     61  C   UNL A   1      51.423  27.269  27.264  1.00  0.00     0.010 A 
ATOM     62  C   UNL A   1      51.263  28.257  25.051  1.00  0.00     0.010 A 
ATOM     63  C   UNL A   1      52.779  27.017  27.050  1.00  0.00     0.020 A 
ATOM     64  C   UNL A   1      52.612  27.983  24.824  1.00  0.00     0.020 A 
ATOM     65  C   UNL A   1      53.364  27.375  25.830  1.00  0.00     0.054 A 
BRANCH  65  66
ATOM     66  S   UNL A   1      55.112  26.983  25.552  1.00  0.00     0.124 S 
ATOM     67  O   UNL A   1      55.618  28.235  24.997  1.00  0.00    -0.237 OA
ATOM     68  O   UNL A   1      55.584  26.653  26.895  1.00  0.00    -0.237 OA
ATOM     69  O   UNL A   1      55.069  25.858  24.620  1.00  0.00    -0.744 OA
ENDBRANCH  65  66
ENDBRANCH  39  60
ENDBRANCH  13  14
ENDBRANCH   6   8
ENDBRANCH   5   6
ENDBRANCH   4   5
ENDBRANCH   3   4
ENDBRANCH   2   3
ENDBRANCH   1   2
BRANCH   1  70
ATOM     70  C   UNL A   1      32.798  29.354  25.895  1.00  0.00     0.188 C 
BRANCH  70  71
ATOM     71  O   UNL A   1      32.805  29.677  24.511  1.00  0.00    -0.376 OA
BRANCH  71  72
ATOM     72  C   UNL A   1      32.863  28.636  23.554  1.00  0.00     0.202 C 
BRANCH  72  73
ATOM     73  C   UNL A   1      31.787  28.591  22.460  1.00  0.00     0.261 C 
BRANCH  73  74
ATOM     74  O   UNL A   1      30.955  27.425  22.424  1.00  0.00    -0.463 OA
BRANCH  74  75
ATOM     75  C   UNL A   1      29.847  27.496  23.212  1.00  0.00     0.312 C 
ATOM     76  O   UNL A   1      29.019  28.402  23.160  1.00  0.00    -0.252 OA
BRANCH  75  77
ATOM     77  C   UNL A   1      29.798  26.404  24.273  1.00  0.00     0.124 C 
ATOM     78  C   UNL A   1      30.442  26.643  25.598  1.00  0.00    -0.014 C 
ATOM     79  C   UNL A   1      30.463  25.094  23.807  1.00  0.00     0.048 C 
ATOM     80  C   UNL A   1      31.408  25.754  25.835  1.00  0.00    -0.006 C 
ATOM     81  C   UNL A   1      31.716  24.878  24.685  1.00  0.00     0.106 C 
BRANCH  81  82
ATOM     82  N   UNL A   1      32.933  25.216  23.941  1.00  0.00    -0.347 N 
ATOM     83  C   UNL A   1      33.478  24.700  22.794  1.00  0.00     0.261 C 
ATOM     84  H   UNL A   1      33.455  25.950  24.339  1.00  0.00     0.164 HD
ATOM     85  O   UNL A   1      33.823  25.533  21.944  1.00  0.00    -0.271 OA
BRANCH  83  86
ATOM     86  C   UNL A   1      33.926  23.224  22.675  1.00  0.00     0.266 C 
ATOM     87  C   UNL A   1      32.753  22.261  22.377  1.00  0.00     0.095 C 
ATOM     88  O   UNL A   1      34.693  22.711  23.759  1.00  0.00    -0.480 OA
ATOM     89  C   UNL A   1      32.931  21.272  23.468  1.00  0.00    -0.002 A 
ATOM     90  C   UNL A   1      34.001  21.647  24.250  1.00  0.00     0.123 A 
ATOM     91  C   UNL A   1      32.231  20.115  23.757  1.00  0.00     0.008 A 
ATOM     92  C   UNL A   1      34.367  20.960  25.389  1.00  0.00     0.047 A 
ATOM     93  C   UNL A   1      32.609  19.374  24.884  1.00  0.00     0.001 A 
ATOM     94  C   UNL A   1      33.655  19.809  25.713  1.00  0.00     0.004 A 
ENDBRANCH  83  86
ENDBRANCH  81  82
ENDBRANCH  75  77
ENDBRANCH  74  75
ENDBRANCH  73  74
ENDBRANCH  72  73
ENDBRANCH  71  72
ENDBRANCH  70  71
ENDBRANCH   1  70
TORSDOF 22
ENDMDL
MODEL 2
REMARK VINA RESULT:     -10.1      1.816      8.144
REMARK SMILES O=C(OCCOCCOCCOC(=O)[C@@H]1C=C[C@H](NC(=O)[C@@H]2Cc3ccccc3O2)C1)c1ccc(-c2c3nc(c(-c4ccc(S(=O)(=O)[O-])cc4)c4ccc([nH]4)c(-c4ccc(S(=O)(=O)[O-])cc4)c4nc(c(-c5ccc(S(=O)(=O)[O-])cc5)c5ccc2[nH]5)C=C4)C=C3)cc1
REMARK SMILES IDX 7 1 6 2 5 3 4 4 3 5 2 6 1 7 32 8 33 9 91 10 34 11 90 12
REMARK SMILES IDX 35 13 36 14 37 15 84 16 38 17 89 18 83 19 85 20 39 21 88 22
REMARK SMILES IDX 82 23 81 24 40 26 70 27 51 28 69 29 52 30 55 31 68 32 86 33
REMARK SMILES IDX 53 34 54 35 67 37 87 38 56 39 41 40 42 41 50 42 43 43 49 44
REMARK SMILES IDX 44 45 45 46 46 47 47 48 48 49 71 50 72 51 80 52 73 53 79 54
REMARK SMILES IDX 74 55 75 56 76 57 77 58 78 59 57 60 58 61 66 62 59 63 65 64
REMARK SMILES IDX 60 65 61 66 62 67 63 68 64 69 8 70 9 71 10 72 11 73 12 74
REMARK SMILES IDX 13 75 14 76 15 77 16 78 31 79 17 80 18 81 19 82 20 83 21 85
REMARK SMILES IDX 22 86 23 87 30 88 24 89 29 90 25 91 28 92 26 93 27 94
REMARK H PARENT 85 25 55 36 19 84
REMARK Flexibility Score: inf
ROOT
ATOM      1  C   UNL A   1      32.315  29.686  25.377  1.00  0.00     0.188 C 
ENDROOT
BRANCH   1   2
ATOM      2  O   UNL A   1      32.844  29.446  26.684  1.00  0.00    -0.376 OA
BRANCH   2   3
ATOM      3  C   UNL A   1      34.271  29.347  26.710  1.00  0.00     0.202 C 
BRANCH   3   4
ATOM      4  C   UNL A   1      34.964  30.297  27.706  1.00  0.00     0.261 C 
BRANCH   4   5
ATOM      5  O   UNL A   1      35.517  29.620  28.854  1.00  0.00    -0.460 OA
BRANCH   5   6
ATOM      6  C   UNL A   1      36.494  30.010  29.699  1.00  0.00     0.338 C 
ATOM      7  O   UNL A   1      36.195  30.570  30.753  1.00  0.00    -0.246 OA
BRANCH   6   8
ATOM      8  C   UNL A   1      37.931  29.832  29.371  1.00  0.00     0.060 A 
ATOM      9  C   UNL A   1      38.435  29.813  28.073  1.00  0.00     0.016 A 
ATOM     10  C   UNL A   1      38.840  29.792  30.428  1.00  0.00     0.016 A 
ATOM     11  C   UNL A   1      39.786  29.610  27.812  1.00  0.00     0.010 A 
ATOM     12  C   UNL A   1      40.210  29.695  30.171  1.00  0.00     0.010 A 
ATOM     13  C   UNL A   1      40.698  29.549  28.861  1.00  0.00    -0.014 A 
BRANCH  13  14
ATOM     14  C   UNL A   1      42.118  29.187  28.603  1.00  0.00     0.031 A 
ATOM     15  C   UNL A   1      42.403  27.803  28.076  1.00  0.00     0.074 A 
ATOM     16  C   UNL A   1      43.126  30.068  28.783  1.00  0.00     0.049 A 
ATOM     17  N   UNL A   1      43.546  27.190  27.925  1.00  0.00    -0.248 NA
ATOM     18  C   UNL A   1      41.234  26.974  27.733  1.00  0.00     0.031 C 
ATOM     19  C   UNL A   1      42.988  31.445  29.270  1.00  0.00     0.029 A 
ATOM     20  N   UNL A   1      44.472  29.948  28.538  1.00  0.00    -0.354 N 
ATOM     21  C   UNL A   1      43.218  25.884  27.577  1.00  0.00     0.074 A 
ATOM     22  C   UNL A   1      41.780  25.778  27.608  1.00  0.00     0.031 C 
ATOM     23  C   UNL A   1      44.182  32.061  29.210  1.00  0.00     0.029 A 
ATOM     24  C   UNL A   1      45.184  31.109  28.746  1.00  0.00     0.049 A 
ATOM     25  H   UNL A   1      44.890  29.107  28.241  1.00  0.00     0.167 HD
ATOM     26  C   UNL A   1      44.036  24.869  27.213  1.00  0.00     0.031 A 
ATOM     27  C   UNL A   1      46.497  31.366  28.574  1.00  0.00     0.031 A 
ATOM     28  C   UNL A   1      45.450  25.031  27.046  1.00  0.00     0.049 A 
ATOM     29  C   UNL A   1      47.385  30.244  28.098  1.00  0.00     0.074 A 
ATOM     30  C   UNL A   1      46.384  24.103  26.629  1.00  0.00     0.029 A 
ATOM     31  N   UNL A   1      46.123  26.229  27.243  1.00  0.00    -0.354 N 
ATOM     32  N   UNL A   1      47.062  29.005  27.804  1.00  0.00    -0.248 NA
ATOM     33  C   UNL A   1      48.810  30.553  27.924  1.00  0.00     0.031 C 
ATOM     34  C   UNL A   1      47.629  24.741  26.582  1.00  0.00     0.029 A 
ATOM     35  C   UNL A   1      47.459  26.073  26.935  1.00  0.00     0.049 A 
ATOM     36  H   UNL A   1      45.709  27.065  27.556  1.00  0.00     0.167 HD
ATOM     37  C   UNL A   1      48.237  28.397  27.380  1.00  0.00     0.074 A 
ATOM     38  C   UNL A   1      49.274  29.409  27.440  1.00  0.00     0.031 C 
ATOM     39  C   UNL A   1      48.449  27.118  26.978  1.00  0.00     0.031 A 
BRANCH  26  40
ATOM     40  C   UNL A   1      43.396  23.528  26.977  1.00  0.00    -0.014 A 
ATOM     41  C   UNL A   1      43.038  22.684  28.046  1.00  0.00     0.010 A 
ATOM     42  C   UNL A   1      43.218  23.071  25.659  1.00  0.00     0.010 A 
ATOM     43  C   UNL A   1      42.606  21.378  27.804  1.00  0.00     0.020 A 
ATOM     44  C   UNL A   1      42.747  21.778  25.411  1.00  0.00     0.020 A 
ATOM     45  C   UNL A   1      42.476  20.928  26.486  1.00  0.00     0.054 A 
BRANCH  45  46
ATOM     46  S   UNL A   1      41.946  19.220  26.202  1.00  0.00     0.124 S 
ATOM     47  O   UNL A   1      40.522  19.393  25.904  1.00  0.00    -0.237 OA
ATOM     48  O   UNL A   1      42.777  18.801  25.083  1.00  0.00    -0.237 OA
ATOM     49  O   UNL A   1      42.235  18.553  27.478  1.00  0.00    -0.744 OA
ENDBRANCH  45  46
ENDBRANCH  26  40
BRANCH  27  50
ATOM     50  C   UNL A   1      47.053  32.729  28.822  1.00  0.00    -0.014 A 
ATOM     51  C   UNL A   1      47.154  33.660  27.770  1.00  0.00     0.010 A 
ATOM     52  C   UNL A   1      47.506  33.104  30.100  1.00  0.00     0.010 A 
ATOM     53  C   UNL A   1      47.724  34.920  27.982  1.00  0.00     0.020 A 
ATOM     54  C   UNL A   1      48.051  34.375  30.323  1.00  0.00     0.020 A 
ATOM     55  C   UNL A   1      48.171  35.269  29.259  1.00  0.00     0.054 A 
BRANCH  55  56
ATOM     56  S   UNL A   1      48.883  36.920  29.517  1.00  0.00     0.124 S 
ATOM     57  O   UNL A   1      50.288  36.612  29.760  1.00  0.00    -0.237 OA
ATOM     58  O   UNL A   1      48.590  37.591  28.252  1.00  0.00    -0.237 OA
ATOM     59  O   UNL A   1      48.145  37.433  30.669  1.00  0.00    -0.744 OA
ENDBRANCH  55  56
ENDBRANCH  27  50
BRANCH  39  60
ATOM     60  C   UNL A   1      49.831  26.765  26.511  1.00  0.00    -0.014 A 
ATOM     61  C   UNL A   1      50.796  26.268  27.403  1.00  0.00     0.010 A 
ATOM     62  C   UNL A   1      50.136  26.859  25.142  1.00  0.00     0.010 A 
ATOM     63  C   UNL A   1      52.055  25.892  26.934  1.00  0.00     0.020 A 
ATOM     64  C   UNL A   1      51.384  26.459  24.665  1.00  0.00     0.020 A 
ATOM     65  C   UNL A   1      52.341  25.990  25.567  1.00  0.00     0.054 A 
BRANCH  65  66
ATOM     66  S   UNL A   1      53.962  25.438  24.972  1.00  0.00     0.124 S 
ATOM     67  O   UNL A   1      53.729  24.017  24.735  1.00  0.00    -0.237 OA
ATOM     68  O   UNL A   1      54.159  26.253  23.776  1.00  0.00    -0.237 OA
ATOM     69  O   UNL A   1      54.860  25.747  26.083  1.00  0.00    -0.744 OA
ENDBRANCH  65  66
ENDBRANCH  39  60
ENDBRANCH  13  14
ENDBRANCH   6   8
ENDBRANCH   5   6
ENDBRANCH   4   5
ENDBRANCH   3   4
ENDBRANCH   2   3
ENDBRANCH   1   2
BRANCH   1  70
ATOM     70  C   UNL A   1      33.053  28.935  24.268  1.00  0.00     0.188 C 
BRANCH  70  71
ATOM     71  O   UNL A   1      32.425  28.726  23.010  1.00  0.00    -0.376 OA
BRANCH  71  72
ATOM     72  C   UNL A   1      32.640  27.510  22.319  1.00  0.00     0.202 C 
BRANCH  72  73
ATOM     73  C   UNL A   1      31.470  26.522  22.200  1.00  0.00     0.261 C 
BRANCH  73  74
ATOM     74  O   UNL A   1      31.226  25.675  23.329  1.00  0.00    -0.463 OA
BRANCH  74  75
ATOM     75  C   UNL A   1      30.348  26.183  24.237  1.00  0.00     0.312 C 
ATOM     76  O   UNL A   1      29.496  27.029  23.977  1.00  0.00    -0.252 OA
BRANCH  75  77
ATOM     77  C   UNL A   1      30.610  25.699  25.658  1.00  0.00     0.124 C 
ATOM     78  C   UNL A   1      31.946  25.942  26.278  1.00  0.00    -0.014 C 
ATOM     79  C   UNL A   1      30.444  24.174  25.804  1.00  0.00     0.048 C 
ATOM     80  C   UNL A   1      32.545  24.796  26.603  1.00  0.00    -0.006 C 
ATOM     81  C   UNL A   1      31.837  23.589  26.126  1.00  0.00     0.106 C 
BRANCH  81  82
ATOM     82  N   UNL A   1      32.413  22.945  24.942  1.00  0.00    -0.347 N 
ATOM     83  C   UNL A   1      32.451  21.635  24.540  1.00  0.00     0.261 C 
ATOM     84  H   UNL A   1      32.853  23.568  24.321  1.00  0.00     0.164 HD
ATOM     85  O   UNL A   1      32.119  21.425  23.365  1.00  0.00    -0.271 OA
BRANCH  83  86
ATOM     86  C   UNL A   1      33.149  20.528  25.368  1.00  0.00     0.266 C 
ATOM     87  C   UNL A   1      34.434  19.993  24.693  1.00  0.00     0.095 C 
ATOM     88  O   UNL A   1      32.333  19.432  25.763  1.00  0.00    -0.480 OA
ATOM     89  C   UNL A   1      34.151  18.538  24.688  1.00  0.00    -0.002 A 
ATOM     90  C   UNL A   1      32.908  18.315  25.239  1.00  0.00     0.123 A 
ATOM     91  C   UNL A   1      34.921  17.472  24.259  1.00  0.00     0.008 A 
ATOM     92  C   UNL A   1      32.336  17.061  25.304  1.00  0.00     0.047 A 
ATOM     93  C   UNL A   1      34.383  16.182  24.353  1.00  0.00     0.001 A 
ATOM     94  C   UNL A   1      33.085  15.980  24.848  1.00  0.00     0.004 A 
ENDBRANCH  83  86
ENDBRANCH  81  82
ENDBRANCH  75  77
ENDBRANCH  74  75
ENDBRANCH  73  74
ENDBRANCH  72  73
ENDBRANCH  71  72
ENDBRANCH  70  71
ENDBRANCH   1  70
TORSDOF 22
ENDMDL
MODEL 3
REMARK VINA RESULT:     -10.0      2.559      7.473
REMARK SMILES O=C(OCCOCCOCCOC(=O)[C@@H]1C=C[C@H](NC(=O)[C@@H]2Cc3ccccc3O2)C1)c1ccc(-c2c3nc(c(-c4ccc(S(=O)(=O)[O-])cc4)c4ccc([nH]4)c(-c4ccc(S(=O)(=O)[O-])cc4)c4nc(c(-c5ccc(S(=O)(=O)[O-])cc5)c5ccc2[nH]5)C=C4)C=C3)cc1
REMARK SMILES IDX 7 1 6 2 5 3 4 4 3 5 2 6 1 7 32 8 33 9 91 10 34 11 90 12
REMARK SMILES IDX 35 13 36 14 37 15 84 16 38 17 89 18 83 19 85 20 39 21 88 22
REMARK SMILES IDX 82 23 81 24 40 26 70 27 51 28 69 29 52 30 55 31 68 32 86 33
REMARK SMILES IDX 53 34 54 35 67 37 87 38 56 39 41 40 42 41 50 42 43 43 49 44
REMARK SMILES IDX 44 45 45 46 46 47 47 48 48 49 71 50 72 51 80 52 73 53 79 54
REMARK SMILES IDX 74 55 75 56 76 57 77 58 78 59 57 60 58 61 66 62 59 63 65 64
REMARK SMILES IDX 60 65 61 66 62 67 63 68 64 69 8 70 9 71 10 72 11 73 12 74
REMARK SMILES IDX 13 75 14 76 15 77 16 78 31 79 17 80 18 81 19 82 20 83 21 85
REMARK SMILES IDX 22 86 23 87 30 88 24 89 29 90 25 91 28 92 26 93 27 94
REMARK H PARENT 85 25 55 36 19 84
REMARK Flexibility Score: inf
ROOT
ATOM      1  C   UNL A   1      37.947  22.846  25.592  1.00  0.00     0.188 C 
ENDROOT
BRANCH   1   2
ATOM      2  O   UNL A   1      38.501  21.619  26.077  1.00  0.00    -0.376 OA
BRANCH   2   3
ATOM      3  C   UNL A   1      38.222  20.497  25.232  1.00  0.00     0.202 C 
BRANCH   3   4
ATOM      4  C   UNL A   1      39.166  19.295  25.426  1.00  0.00     0.261 C 
BRANCH   4   5
ATOM      5  O   UNL A   1      40.210  19.535  26.392  1.00  0.00    -0.460 OA
BRANCH   5   6
ATOM      6  C   UNL A   1      41.507  19.858  26.201  1.00  0.00     0.338 C 
ATOM      7  O   UNL A   1      42.303  18.985  25.857  1.00  0.00    -0.246 OA
BRANCH   6   8
ATOM      8  C   UNL A   1      42.017  21.231  26.445  1.00  0.00     0.060 A 
ATOM      9  C   UNL A   1      41.983  22.251  25.498  1.00  0.00     0.016 A 
ATOM     10  C   UNL A   1      42.453  21.544  27.732  1.00  0.00     0.016 A 
ATOM     11  C   UNL A   1      42.504  23.514  25.761  1.00  0.00     0.010 A 
ATOM     12  C   UNL A   1      42.878  22.841  28.031  1.00  0.00     0.010 A 
ATOM     13  C   UNL A   1      42.959  23.830  27.036  1.00  0.00    -0.014 A 
BRANCH  13  14
ATOM     14  C   UNL A   1      43.650  25.124  27.290  1.00  0.00     0.031 A 
ATOM     15  C   UNL A   1      42.862  26.218  27.964  1.00  0.00     0.074 A 
ATOM     16  C   UNL A   1      44.951  25.314  26.979  1.00  0.00     0.049 A 
ATOM     17  N   UNL A   1      43.172  27.473  28.150  1.00  0.00    -0.248 NA
ATOM     18  C   UNL A   1      41.513  25.863  28.437  1.00  0.00     0.031 C 
ATOM     19  C   UNL A   1      45.835  24.333  26.341  1.00  0.00     0.029 A 
ATOM     20  N   UNL A   1      45.772  26.393  27.194  1.00  0.00    -0.354 N 
ATOM     21  C   UNL A   1      42.019  28.064  28.656  1.00  0.00     0.074 A 
ATOM     22  C   UNL A   1      40.992  27.052  28.682  1.00  0.00     0.031 C 
ATOM     23  C   UNL A   1      47.086  24.824  26.292  1.00  0.00     0.029 A 
ATOM     24  C   UNL A   1      47.084  26.179  26.831  1.00  0.00     0.049 A 
ATOM     25  H   UNL A   1      45.452  27.244  27.573  1.00  0.00     0.167 HD
ATOM     26  C   UNL A   1      41.839  29.326  29.109  1.00  0.00     0.031 A 
ATOM     27  C   UNL A   1      48.157  26.990  26.931  1.00  0.00     0.031 A 
ATOM     28  C   UNL A   1      42.907  30.276  29.212  1.00  0.00     0.049 A 
ATOM     29  C   UNL A   1      47.955  28.369  27.506  1.00  0.00     0.074 A 
ATOM     30  C   UNL A   1      42.874  31.566  29.705  1.00  0.00     0.029 A 
ATOM     31  N   UNL A   1      44.222  30.007  28.858  1.00  0.00    -0.354 N 
ATOM     32  N   UNL A   1      46.850  28.923  27.950  1.00  0.00    -0.248 NA
ATOM     33  C   UNL A   1      49.141  29.231  27.598  1.00  0.00     0.031 C 
ATOM     34  C   UNL A   1      44.173  32.082  29.639  1.00  0.00     0.029 A 
ATOM     35  C   UNL A   1      45.017  31.100  29.140  1.00  0.00     0.049 A 
ATOM     36  H   UNL A   1      44.540  29.164  28.464  1.00  0.00     0.167 HD
ATOM     37  C   UNL A   1      47.214  30.185  28.406  1.00  0.00     0.074 A 
ATOM     38  C   UNL A   1      48.644  30.305  28.197  1.00  0.00     0.031 C 
ATOM     39  C   UNL A   1      46.443  31.162  28.945  1.00  0.00     0.031 A 
BRANCH  26  40
ATOM     40  C   UNL A   1      40.443  29.712  29.518  1.00  0.00    -0.014 A 
ATOM     41  C   UNL A   1      39.415  29.872  28.569  1.00  0.00     0.010 A 
ATOM     42  C   UNL A   1      40.174  29.993  30.870  1.00  0.00     0.010 A 
ATOM     43  C   UNL A   1      38.177  30.394  28.948  1.00  0.00     0.020 A 
ATOM     44  C   UNL A   1      38.921  30.478  31.260  1.00  0.00     0.020 A 
ATOM     45  C   UNL A   1      37.942  30.708  30.291  1.00  0.00     0.054 A 
BRANCH  45  46
ATOM     46  S   UNL A   1      36.339  31.415  30.748  1.00  0.00     0.124 S 
ATOM     47  O   UNL A   1      35.894  30.496  31.798  1.00  0.00    -0.237 OA
ATOM     48  O   UNL A   1      36.688  32.756  31.193  1.00  0.00    -0.237 OA
ATOM     49  O   UNL A   1      35.566  31.353  29.501  1.00  0.00    -0.744 OA
ENDBRANCH  45  46
ENDBRANCH  26  40
BRANCH  27  50
ATOM     50  C   UNL A   1      49.513  26.527  26.510  1.00  0.00    -0.014 A 
ATOM     51  C   UNL A   1      49.977  26.774  25.203  1.00  0.00     0.010 A 
ATOM     52  C   UNL A   1      50.343  25.819  27.398  1.00  0.00     0.010 A 
ATOM     53  C   UNL A   1      51.224  26.296  24.785  1.00  0.00     0.020 A 
ATOM     54  C   UNL A   1      51.604  25.365  26.992  1.00  0.00     0.020 A 
ATOM     55  C   UNL A   1      52.029  25.592  25.683  1.00  0.00     0.054 A 
BRANCH  55  56
ATOM     56  S   UNL A   1      53.656  25.005  25.126  1.00  0.00     0.124 S 
ATOM     57  O   UNL A   1      53.451  23.563  25.057  1.00  0.00    -0.237 OA
ATOM     58  O   UNL A   1      53.814  25.686  23.843  1.00  0.00    -0.237 OA
ATOM     59  O   UNL A   1      54.561  25.461  26.179  1.00  0.00    -0.744 OA
ENDBRANCH  55  56
ENDBRANCH  27  50
BRANCH  39  60
ATOM     60  C   UNL A   1      47.138  32.410  29.407  1.00  0.00    -0.014 A 
ATOM     61  C   UNL A   1      47.672  32.510  30.702  1.00  0.00     0.010 A 
ATOM     62  C   UNL A   1      47.325  33.465  28.497  1.00  0.00     0.010 A 
ATOM     63  C   UNL A   1      48.363  33.658  31.088  1.00  0.00     0.020 A 
ATOM     64  C   UNL A   1      48.039  34.603  28.870  1.00  0.00     0.020 A 
ATOM     65  C   UNL A   1      48.543  34.698  30.168  1.00  0.00     0.054 A 
BRANCH  65  66
ATOM     66  S   UNL A   1      49.497  36.154  30.673  1.00  0.00     0.124 S 
ATOM     67  O   UNL A   1      50.758  35.948  29.967  1.00  0.00    -0.237 OA
ATOM     68  O   UNL A   1      48.676  37.261  30.188  1.00  0.00    -0.237 OA
ATOM     69  O   UNL A   1      49.569  36.032  32.128  1.00  0.00    -0.744 OA
ENDBRANCH  65  66
ENDBRANCH  39  60
ENDBRANCH  13  14
ENDBRANCH   6   8
ENDBRANCH   5   6
ENDBRANCH   4   5
ENDBRANCH   3   4
ENDBRANCH   2   3
ENDBRANCH   1   2
BRANCH   1  70
ATOM     70  C   UNL A   1      36.487  22.730  25.153  1.00  0.00     0.188 C 
BRANCH  70  71
ATOM     71  O   UNL A   1      36.134  22.937  23.792  1.00  0.00    -0.376 OA
BRANCH  71  72
ATOM     72  C   UNL A   1      34.956  23.656  23.481  1.00  0.00     0.202 C 
BRANCH  72  73
ATOM     73  C   UNL A   1      34.628  24.910  24.306  1.00  0.00     0.261 C 
BRANCH  73  74
ATOM     74  O   UNL A   1      33.332  25.486  24.113  1.00  0.00    -0.463 OA
BRANCH  74  75
ATOM     75  C   UNL A   1      32.833  26.133  25.201  1.00  0.00     0.312 C 
ATOM     76  O   UNL A   1      33.333  27.140  25.696  1.00  0.00    -0.252 OA
BRANCH  75  77
ATOM     77  C   UNL A   1      31.658  25.406  25.843  1.00  0.00     0.124 C 
ATOM     78  C   UNL A   1      31.920  24.354  26.867  1.00  0.00    -0.014 C 
ATOM     79  C   UNL A   1      30.787  24.662  24.811  1.00  0.00     0.048 C 
ATOM     80  C   UNL A   1      31.442  23.170  26.479  1.00  0.00    -0.006 C 
ATOM     81  C   UNL A   1      30.934  23.150  25.091  1.00  0.00     0.106 C 
BRANCH  81  82
ATOM     82  N   UNL A   1      31.820  22.525  24.104  1.00  0.00    -0.347 N 
ATOM     83  C   UNL A   1      32.141  21.214  23.862  1.00  0.00     0.261 C 
ATOM     84  H   UNL A   1      32.265  23.165  23.503  1.00  0.00     0.164 HD
ATOM     85  O   UNL A   1      32.075  20.856  22.678  1.00  0.00    -0.271 OA
BRANCH  83  86
ATOM     86  C   UNL A   1      32.835  20.318  24.916  1.00  0.00     0.266 C 
ATOM     87  C   UNL A   1      34.239  19.847  24.472  1.00  0.00     0.095 C 
ATOM     88  O   UNL A   1      32.088  19.200  25.379  1.00  0.00    -0.480 OA
ATOM     89  C   UNL A   1      34.103  18.381  24.653  1.00  0.00    -0.002 A 
ATOM     90  C   UNL A   1      32.829  18.095  25.092  1.00  0.00     0.123 A 
ATOM     91  C   UNL A   1      35.020  17.363  24.473  1.00  0.00     0.008 A 
ATOM     92  C   UNL A   1      32.379  16.804  25.281  1.00  0.00     0.047 A 
ATOM     93  C   UNL A   1      34.603  16.044  24.699  1.00  0.00     0.001 A 
ATOM     94  C   UNL A   1      33.280  15.764  25.074  1.00  0.00     0.004 A 
ENDBRANCH  83  86
ENDBRANCH  81  82
ENDBRANCH  75  77
ENDBRANCH  74  75
ENDBRANCH  73  74
ENDBRANCH  72  73
ENDBRANCH  71  72
ENDBRANCH  70  71
ENDBRANCH   1  70
TORSDOF 22
ENDMDL
