MODEL 1
REMARK VINA RESULT:     -10.1      0.000      0.000
REMARK SMILES C#Cc1ccc2c(c1)C=C(C(=O)OCCOCCOCCOC(=O)c1ccc(-c3c4nc(c(-c5ccc(S(=O)(=O)[O-])cc5)c5ccc([nH]5)c(-c5ccc(S(=O)(=O)[O-])cc5)c5nc(c(-c6ccc(S(=O)(=O)[O-])cc6)c6ccc3[nH]6)C=C5)C=C4)cc1)[C@@H](C(F)(F)F)O2
REMARK SMILES IDX 18 1 17 2 16 3 15 4 14 5 13 6 11 7 12 8 10 9 3 10 4 11 8 12
REMARK SMILES IDX 5 13 7 14 6 15 9 16 90 17 85 18 2 19 1 20 86 21 87 22 88 23
REMARK SMILES IDX 89 24 19 25 20 26 21 27 22 28 23 29 24 30 25 31 26 32 84 33
REMARK SMILES IDX 27 34 83 35 28 36 29 37 30 38 77 39 31 40 82 41 76 42 78 43
REMARK SMILES IDX 32 44 81 45 75 46 74 47 33 49 63 50 44 51 62 52 45 53 48 54
REMARK SMILES IDX 61 55 79 56 46 57 47 58 60 60 80 61 49 62 34 63 35 64 43 65
REMARK SMILES IDX 36 66 42 67 37 68 38 69 39 70 40 71 41 72 64 73 65 74 73 75
REMARK SMILES IDX 66 76 72 77 67 78 68 79 69 80 70 81 71 82 50 83 51 84 59 85
REMARK SMILES IDX 52 86 58 87 53 88 54 89 55 90 56 91 57 92
REMARK H PARENT 78 48 48 59
REMARK Flexibility Score: inf
ROOT
ATOM      1  C   UNL A   1      40.293  20.935  26.202  1.00  0.00     0.188 C 
ENDROOT
BRANCH   1   2
ATOM      2  C   UNL A   1      38.879  21.297  25.700  1.00  0.00     0.188 C 
BRANCH   2   3
ATOM      3  O   UNL A   1      38.325  22.474  26.235  1.00  0.00    -0.376 OA
BRANCH   3   4
ATOM      4  C   UNL A   1      37.534  23.332  25.431  1.00  0.00     0.202 C 
BRANCH   4   5
ATOM      5  C   UNL A   1      36.185  23.968  25.834  1.00  0.00     0.261 C 
BRANCH   5   6
ATOM      6  O   UNL A   1      35.165  23.115  26.361  1.00  0.00    -0.460 OA
BRANCH   6   7
ATOM      7  C   UNL A   1      33.898  23.401  25.976  1.00  0.00     0.338 C 
ATOM      8  O   UNL A   1      33.309  24.454  26.143  1.00  0.00    -0.246 OA
BRANCH   7   9
ATOM      9  C   UNL A   1      33.371  22.281  25.165  1.00  0.00     0.087 C 
ATOM     10  C   UNL A   1      32.655  17.557  24.604  1.00  0.00     0.025 A 
ATOM     11  C   UNL A   1      32.300  17.777  23.272  1.00  0.00     0.021 A 
ATOM     12  C   UNL A   1      32.942  18.642  25.438  1.00  0.00     0.029 A 
ATOM     13  C   UNL A   1      32.207  19.080  22.781  1.00  0.00     0.048 A 
ATOM     14  C   UNL A   1      32.901  19.948  24.930  1.00  0.00     0.018 A 
ATOM     15  C   UNL A   1      32.508  20.163  23.607  1.00  0.00     0.128 A 
ATOM     16  C   UNL A   1      33.344  21.071  25.740  1.00  0.00     0.027 C 
ATOM     17  O   UNL A   1      32.401  21.398  23.036  1.00  0.00    -0.475 OA
ATOM     18  C   UNL A   1      32.880  22.557  23.770  1.00  0.00     0.316 C 
BRANCH  10  19
ATOM     19  C   UNL A   1      32.771  16.222  25.100  1.00  0.00    -0.070 C 
ATOM     20  C   UNL A   1      32.884  15.106  25.535  1.00  0.00     0.010 C 
ENDBRANCH  10  19
BRANCH  18  21
ATOM     21  C   UNL A   1      33.942  23.262  22.916  1.00  0.00     0.430 C 
ATOM     22  F   UNL A   1      33.627  23.213  21.598  1.00  0.00    -0.167 F 
ATOM     23  F   UNL A   1      34.054  24.573  23.234  1.00  0.00    -0.167 F 
ATOM     24  F   UNL A   1      35.164  22.704  23.060  1.00  0.00    -0.167 F 
ENDBRANCH  18  21
ENDBRANCH   7   9
ENDBRANCH   6   7
ENDBRANCH   5   6
ENDBRANCH   4   5
ENDBRANCH   3   4
ENDBRANCH   2   3
ENDBRANCH   1   2
BRANCH   1  25
ATOM     25  O   UNL A   1      40.798  19.639  25.958  1.00  0.00    -0.376 OA
BRANCH  25  26
ATOM     26  C   UNL A   1      42.071  19.279  26.473  1.00  0.00     0.202 C 
BRANCH  26  27
ATOM     27  C   UNL A   1      43.199  18.607  25.655  1.00  0.00     0.261 C 
BRANCH  27  28
ATOM     28  O   UNL A   1      43.591  19.210  24.416  1.00  0.00    -0.460 OA
BRANCH  28  29
ATOM     29  C   UNL A   1      44.876  19.646  24.335  1.00  0.00     0.338 C 
ATOM     30  O   UNL A   1      45.816  19.065  23.820  1.00  0.00    -0.246 OA
BRANCH  29  31
ATOM     31  C   UNL A   1      44.914  21.057  24.780  1.00  0.00     0.060 A 
ATOM     32  C   UNL A   1      45.242  21.367  26.098  1.00  0.00     0.016 A 
ATOM     33  C   UNL A   1      44.578  22.079  23.877  1.00  0.00     0.016 A 
ATOM     34  C   UNL A   1      45.242  22.703  26.510  1.00  0.00     0.010 A 
ATOM     35  C   UNL A   1      44.558  23.414  24.298  1.00  0.00     0.010 A 
ATOM     36  C   UNL A   1      44.910  23.739  25.614  1.00  0.00    -0.014 A 
BRANCH  36  37
ATOM     37  C   UNL A   1      45.103  25.156  26.024  1.00  0.00     0.031 A 
ATOM     38  C   UNL A   1      43.978  25.999  26.551  1.00  0.00     0.074 A 
ATOM     39  C   UNL A   1      46.343  25.677  25.923  1.00  0.00     0.049 A 
ATOM     40  N   UNL A   1      44.031  27.211  27.044  1.00  0.00    -0.248 NA
ATOM     41  C   UNL A   1      42.626  25.421  26.522  1.00  0.00     0.031 C 
ATOM     42  C   UNL A   1      47.505  24.956  25.404  1.00  0.00     0.029 A 
ATOM     43  N   UNL A   1      46.841  26.908  26.271  1.00  0.00    -0.354 N 
ATOM     44  C   UNL A   1      42.729  27.536  27.408  1.00  0.00     0.074 A 
ATOM     45  C   UNL A   1      41.898  26.410  27.029  1.00  0.00     0.031 C 
ATOM     46  C   UNL A   1      48.589  25.735  25.514  1.00  0.00     0.029 A 
ATOM     47  C   UNL A   1      48.198  27.030  26.067  1.00  0.00     0.049 A 
ATOM     48  H   UNL A   1      46.284  27.634  26.632  1.00  0.00     0.167 HD
ATOM     49  C   UNL A   1      42.282  28.657  28.024  1.00  0.00     0.031 A 
ATOM     50  C   UNL A   1      49.041  28.057  26.301  1.00  0.00     0.031 A 
ATOM     51  C   UNL A   1      43.126  29.772  28.389  1.00  0.00     0.049 A 
ATOM     52  C   UNL A   1      48.508  29.308  26.941  1.00  0.00     0.074 A 
ATOM     53  C   UNL A   1      42.766  30.931  29.055  1.00  0.00     0.029 A 
ATOM     54  N   UNL A   1      44.484  29.878  28.121  1.00  0.00    -0.354 N 
ATOM     55  N   UNL A   1      47.291  29.561  27.362  1.00  0.00    -0.248 NA
ATOM     56  C   UNL A   1      49.458  30.408  27.159  1.00  0.00     0.031 C 
ATOM     57  C   UNL A   1      43.876  31.775  29.104  1.00  0.00     0.029 A 
ATOM     58  C   UNL A   1      44.962  31.102  28.568  1.00  0.00     0.049 A 
ATOM     59  H   UNL A   1      45.029  29.186  27.679  1.00  0.00     0.167 HD
ATOM     60  C   UNL A   1      47.336  30.836  27.916  1.00  0.00     0.074 A 
ATOM     61  C   UNL A   1      48.705  31.293  27.802  1.00  0.00     0.031 C 
ATOM     62  C   UNL A   1      46.329  31.559  28.465  1.00  0.00     0.031 A 
BRANCH  49  63
ATOM     63  C   UNL A   1      40.817  28.759  28.388  1.00  0.00    -0.014 A 
ATOM     64  C   UNL A   1      39.903  29.324  27.476  1.00  0.00     0.010 A 
ATOM     65  C   UNL A   1      40.380  28.469  29.692  1.00  0.00     0.010 A 
ATOM     66  C   UNL A   1      38.604  29.652  27.877  1.00  0.00     0.020 A 
ATOM     67  C   UNL A   1      39.070  28.760  30.087  1.00  0.00     0.020 A 
ATOM     68  C   UNL A   1      38.200  29.379  29.186  1.00  0.00     0.054 A 
BRANCH  68  69
ATOM     69  S   UNL A   1      36.537  29.884  29.710  1.00  0.00     0.124 S 
ATOM     70  O   UNL A   1      36.656  31.338  29.758  1.00  0.00    -0.237 OA
ATOM     71  O   UNL A   1      35.695  29.354  28.640  1.00  0.00    -0.237 OA
ATOM     72  O   UNL A   1      36.371  29.228  31.005  1.00  0.00    -0.744 OA
ENDBRANCH  68  69
ENDBRANCH  49  63
BRANCH  50  73
ATOM     73  C   UNL A   1      50.486  27.902  25.967  1.00  0.00    -0.014 A 
ATOM     74  C   UNL A   1      50.939  28.106  24.648  1.00  0.00     0.010 A 
ATOM     75  C   UNL A   1      51.405  27.467  26.939  1.00  0.00     0.010 A 
ATOM     76  C   UNL A   1      52.257  27.808  24.293  1.00  0.00     0.020 A 
ATOM     77  C   UNL A   1      52.737  27.210  26.597  1.00  0.00     0.020 A 
ATOM     78  C   UNL A   1      53.144  27.349  25.269  1.00  0.00     0.054 A 
BRANCH  78  79
ATOM     79  S   UNL A   1      54.828  26.901  24.765  1.00  0.00     0.124 S 
ATOM     80  O   UNL A   1      55.540  26.935  26.038  1.00  0.00    -0.237 OA
ATOM     81  O   UNL A   1      54.641  25.575  24.182  1.00  0.00    -0.237 OA
ATOM     82  O   UNL A   1      55.194  27.950  23.816  1.00  0.00    -0.744 OA
ENDBRANCH  78  79
ENDBRANCH  50  73
BRANCH  62  83
ATOM     83  C   UNL A   1      46.636  32.938  29.000  1.00  0.00    -0.014 A 
ATOM     84  C   UNL A   1      46.926  33.987  28.105  1.00  0.00     0.010 A 
ATOM     85  C   UNL A   1      46.794  33.163  30.380  1.00  0.00     0.010 A 
ATOM     86  C   UNL A   1      47.425  35.207  28.572  1.00  0.00     0.020 A 
ATOM     87  C   UNL A   1      47.251  34.397  30.854  1.00  0.00     0.020 A 
ATOM     88  C   UNL A   1      47.597  35.399  29.944  1.00  0.00     0.054 A 
BRANCH  88  89
ATOM     89  S   UNL A   1      48.316  36.960  30.523  1.00  0.00     0.124 S 
ATOM     90  O   UNL A   1      48.875  37.517  29.295  1.00  0.00    -0.237 OA
ATOM     91  O   UNL A   1      47.156  37.665  31.064  1.00  0.00    -0.237 OA
ATOM     92  O   UNL A   1      49.300  36.539  31.518  1.00  0.00    -0.744 OA
ENDBRANCH  88  89
ENDBRANCH  62  83
ENDBRANCH  36  37
ENDBRANCH  29  31
ENDBRANCH  28  29
ENDBRANCH  27  28
ENDBRANCH  26  27
ENDBRANCH  25  26
ENDBRANCH   1  25
TORSDOF 22
ENDMDL
MODEL 2
REMARK VINA RESULT:      -9.9      6.374     11.026
REMARK SMILES C#Cc1ccc2c(c1)C=C(C(=O)OCCOCCOCCOC(=O)c1ccc(-c3c4nc(c(-c5ccc(S(=O)(=O)[O-])cc5)c5ccc([nH]5)c(-c5ccc(S(=O)(=O)[O-])cc5)c5nc(c(-c6ccc(S(=O)(=O)[O-])cc6)c6ccc3[nH]6)C=C5)C=C4)cc1)[C@@H](C(F)(F)F)O2
REMARK SMILES IDX 18 1 17 2 16 3 15 4 14 5 13 6 11 7 12 8 10 9 3 10 4 11 8 12
REMARK SMILES IDX 5 13 7 14 6 15 9 16 90 17 85 18 2 19 1 20 86 21 87 22 88 23
REMARK SMILES IDX 89 24 19 25 20 26 21 27 22 28 23 29 24 30 25 31 26 32 84 33
REMARK SMILES IDX 27 34 83 35 28 36 29 37 30 38 77 39 31 40 82 41 76 42 78 43
REMARK SMILES IDX 32 44 81 45 75 46 74 47 33 49 63 50 44 51 62 52 45 53 48 54
REMARK SMILES IDX 61 55 79 56 46 57 47 58 60 60 80 61 49 62 34 63 35 64 43 65
REMARK SMILES IDX 36 66 42 67 37 68 38 69 39 70 40 71 41 72 64 73 65 74 73 75
REMARK SMILES IDX 66 76 72 77 67 78 68 79 69 80 70 81 71 82 50 83 51 84 59 85
REMARK SMILES IDX 52 86 58 87 53 88 54 89 55 90 56 91 57 92
REMARK H PARENT 78 48 48 59
REMARK Flexibility Score: inf
ROOT
ATOM      1  C   UNL A   1      39.186  21.058  25.770  1.00  0.00     0.188 C 
ENDROOT
BRANCH   1   2
ATOM      2  C   UNL A   1      38.133  20.203  25.032  1.00  0.00     0.188 C 
BRANCH   2   3
ATOM      3  O   UNL A   1      36.927  20.856  24.720  1.00  0.00    -0.376 OA
BRANCH   3   4
ATOM      4  C   UNL A   1      36.933  22.163  24.172  1.00  0.00     0.202 C 
BRANCH   4   5
ATOM      5  C   UNL A   1      35.690  22.986  23.769  1.00  0.00     0.261 C 
BRANCH   5   6
ATOM      6  O   UNL A   1      34.565  22.990  24.654  1.00  0.00    -0.460 OA
BRANCH   6   7
ATOM      7  C   UNL A   1      33.384  23.361  24.105  1.00  0.00     0.338 C 
ATOM      8  O   UNL A   1      32.774  22.776  23.227  1.00  0.00    -0.246 OA
BRANCH   7   9
ATOM      9  C   UNL A   1      32.846  24.522  24.848  1.00  0.00     0.087 C 
ATOM     10  C   UNL A   1      33.592  28.740  27.038  1.00  0.00     0.025 A 
ATOM     11  C   UNL A   1      32.306  28.677  27.580  1.00  0.00     0.021 A 
ATOM     12  C   UNL A   1      34.025  27.747  26.154  1.00  0.00     0.029 A 
ATOM     13  C   UNL A   1      31.447  27.638  27.219  1.00  0.00     0.048 A 
ATOM     14  C   UNL A   1      33.181  26.675  25.833  1.00  0.00     0.018 A 
ATOM     15  C   UNL A   1      31.884  26.639  26.348  1.00  0.00     0.128 A 
ATOM     16  C   UNL A   1      33.671  25.561  25.039  1.00  0.00     0.027 C 
ATOM     17  O   UNL A   1      30.979  25.658  26.063  1.00  0.00    -0.475 OA
ATOM     18  C   UNL A   1      31.418  24.488  25.322  1.00  0.00     0.316 C 
BRANCH  10  19
ATOM     19  C   UNL A   1      34.478  29.792  27.426  1.00  0.00    -0.070 C 
ATOM     20  C   UNL A   1      35.205  30.693  27.752  1.00  0.00     0.010 C 
ENDBRANCH  10  19
BRANCH  18  21
ATOM     21  C   UNL A   1      31.124  23.243  26.170  1.00  0.00     0.430 C 
ATOM     22  F   UNL A   1      32.230  22.828  26.836  1.00  0.00    -0.167 F 
ATOM     23  F   UNL A   1      30.180  23.485  27.110  1.00  0.00    -0.167 F 
ATOM     24  F   UNL A   1      30.692  22.206  25.419  1.00  0.00    -0.167 F 
ENDBRANCH  18  21
ENDBRANCH   7   9
ENDBRANCH   6   7
ENDBRANCH   5   6
ENDBRANCH   4   5
ENDBRANCH   3   4
ENDBRANCH   2   3
ENDBRANCH   1   2
BRANCH   1  25
ATOM     25  O   UNL A   1      40.487  20.541  25.951  1.00  0.00    -0.376 OA
BRANCH  25  26
ATOM     26  C   UNL A   1      41.456  21.320  26.637  1.00  0.00     0.202 C 
BRANCH  26  27
ATOM     27  C   UNL A   1      42.057  22.647  26.113  1.00  0.00     0.261 C 
BRANCH  27  28
ATOM     28  O   UNL A   1      41.320  23.857  26.325  1.00  0.00    -0.460 OA
BRANCH  28  29
ATOM     29  C   UNL A   1      41.999  25.019  26.133  1.00  0.00     0.338 C 
ATOM     30  O   UNL A   1      42.583  25.368  25.122  1.00  0.00    -0.246 OA
BRANCH  29  31
ATOM     31  C   UNL A   1      41.726  25.908  27.285  1.00  0.00     0.060 A 
ATOM     32  C   UNL A   1      40.606  25.693  28.085  1.00  0.00     0.016 A 
ATOM     33  C   UNL A   1      42.580  26.994  27.542  1.00  0.00     0.016 A 
ATOM     34  C   UNL A   1      40.346  26.561  29.150  1.00  0.00     0.010 A 
ATOM     35  C   UNL A   1      42.305  27.873  28.595  1.00  0.00     0.010 A 
ATOM     36  C   UNL A   1      41.196  27.652  29.422  1.00  0.00    -0.014 A 
BRANCH  36  37
ATOM     37  C   UNL A   1      41.005  28.442  30.668  1.00  0.00     0.031 A 
ATOM     38  C   UNL A   1      41.864  28.246  31.883  1.00  0.00     0.074 A 
ATOM     39  C   UNL A   1      40.028  29.373  30.678  1.00  0.00     0.049 A 
ATOM     40  N   UNL A   1      41.875  28.941  32.993  1.00  0.00    -0.248 NA
ATOM     41  C   UNL A   1      42.828  27.137  31.859  1.00  0.00     0.031 C 
ATOM     42  C   UNL A   1      39.119  29.633  29.561  1.00  0.00     0.029 A 
ATOM     43  N   UNL A   1      39.652  30.283  31.634  1.00  0.00    -0.354 N 
ATOM     44  C   UNL A   1      42.859  28.373  33.793  1.00  0.00     0.074 A 
ATOM     45  C   UNL A   1      43.389  27.240  33.060  1.00  0.00     0.031 C 
ATOM     46  C   UNL A   1      38.326  30.667  29.874  1.00  0.00     0.029 A 
ATOM     47  C   UNL A   1      38.633  31.116  31.230  1.00  0.00     0.049 A 
ATOM     48  H   UNL A   1      40.069  30.336  32.524  1.00  0.00     0.167 HD
ATOM     49  C   UNL A   1      43.293  28.779  35.011  1.00  0.00     0.031 A 
ATOM     50  C   UNL A   1      38.014  32.133  31.865  1.00  0.00     0.031 A 
ATOM     51  C   UNL A   1      42.747  29.908  35.729  1.00  0.00     0.049 A 
ATOM     52  C   UNL A   1      38.484  32.532  33.236  1.00  0.00     0.074 A 
ATOM     53  C   UNL A   1      43.155  30.419  36.950  1.00  0.00     0.029 A 
ATOM     54  N   UNL A   1      41.685  30.696  35.308  1.00  0.00    -0.354 N 
ATOM     55  N   UNL A   1      39.478  32.041  33.938  1.00  0.00    -0.248 NA
ATOM     56  C   UNL A   1      37.768  33.632  33.898  1.00  0.00     0.031 C 
ATOM     57  C   UNL A   1      42.283  31.447  37.311  1.00  0.00     0.029 A 
ATOM     58  C   UNL A   1      41.397  31.657  36.268  1.00  0.00     0.049 A 
ATOM     59  H   UNL A   1      41.206  30.590  34.454  1.00  0.00     0.167 HD
ATOM     60  C   UNL A   1      39.523  32.789  35.111  1.00  0.00     0.074 A 
ATOM     61  C   UNL A   1      38.473  33.782  35.013  1.00  0.00     0.031 C 
ATOM     62  C   UNL A   1      40.357  32.656  36.171  1.00  0.00     0.031 A 
BRANCH  49  63
ATOM     63  C   UNL A   1      44.437  28.038  35.666  1.00  0.00    -0.014 A 
ATOM     64  C   UNL A   1      45.767  28.349  35.320  1.00  0.00     0.010 A 
ATOM     65  C   UNL A   1      44.195  26.915  36.477  1.00  0.00     0.010 A 
ATOM     66  C   UNL A   1      46.822  27.523  35.720  1.00  0.00     0.020 A 
ATOM     67  C   UNL A   1      45.251  26.107  36.912  1.00  0.00     0.020 A 
ATOM     68  C   UNL A   1      46.554  26.398  36.504  1.00  0.00     0.054 A 
BRANCH  68  69
ATOM     69  S   UNL A   1      47.926  25.295  36.945  1.00  0.00     0.124 S 
ATOM     70  O   UNL A   1      48.842  25.475  35.824  1.00  0.00    -0.237 OA
ATOM     71  O   UNL A   1      48.374  25.845  38.223  1.00  0.00    -0.237 OA
ATOM     72  O   UNL A   1      47.295  23.980  37.030  1.00  0.00    -0.744 OA
ENDBRANCH  68  69
ENDBRANCH  49  63
BRANCH  50  73
ATOM     73  C   UNL A   1      36.918  32.867  31.168  1.00  0.00    -0.014 A 
ATOM     74  C   UNL A   1      35.571  32.605  31.486  1.00  0.00     0.010 A 
ATOM     75  C   UNL A   1      37.206  33.766  30.126  1.00  0.00     0.010 A 
ATOM     76  C   UNL A   1      34.538  33.166  30.731  1.00  0.00     0.020 A 
ATOM     77  C   UNL A   1      36.173  34.365  29.395  1.00  0.00     0.020 A 
ATOM     78  C   UNL A   1      34.848  34.033  29.681  1.00  0.00     0.054 A 
BRANCH  78  79
ATOM     79  S   UNL A   1      33.490  34.689  28.672  1.00  0.00     0.124 S 
ATOM     80  O   UNL A   1      33.171  33.546  27.821  1.00  0.00    -0.237 OA
ATOM     81  O   UNL A   1      32.485  35.026  29.677  1.00  0.00    -0.237 OA
ATOM     82  O   UNL A   1      34.091  35.830  27.987  1.00  0.00    -0.744 OA
ENDBRANCH  78  79
ENDBRANCH  50  73
BRANCH  62  83
ATOM     83  C   UNL A   1      40.197  33.599  37.340  1.00  0.00    -0.014 A 
ATOM     84  C   UNL A   1      39.531  33.166  38.504  1.00  0.00     0.010 A 
ATOM     85  C   UNL A   1      40.561  34.954  37.234  1.00  0.00     0.010 A 
ATOM     86  C   UNL A   1      39.178  34.074  39.506  1.00  0.00     0.020 A 
ATOM     87  C   UNL A   1      40.248  35.858  38.255  1.00  0.00     0.020 A 
ATOM     88  C   UNL A   1      39.528  35.419  39.368  1.00  0.00     0.054 A 
BRANCH  88  89
ATOM     89  S   UNL A   1      38.994  36.594  40.642  1.00  0.00     0.124 S 
ATOM     90  O   UNL A   1      38.667  37.777  39.854  1.00  0.00    -0.237 OA
ATOM     91  O   UNL A   1      37.856  35.908  41.251  1.00  0.00    -0.237 OA
ATOM     92  O   UNL A   1      40.166  36.725  41.504  1.00  0.00    -0.744 OA
ENDBRANCH  88  89
ENDBRANCH  62  83
ENDBRANCH  36  37
ENDBRANCH  29  31
ENDBRANCH  28  29
ENDBRANCH  27  28
ENDBRANCH  26  27
ENDBRANCH  25  26
ENDBRANCH   1  25
TORSDOF 22
ENDMDL
MODEL 3
REMARK VINA RESULT:      -9.8      3.246      9.235
REMARK SMILES C#Cc1ccc2c(c1)C=C(C(=O)OCCOCCOCCOC(=O)c1ccc(-c3c4nc(c(-c5ccc(S(=O)(=O)[O-])cc5)c5ccc([nH]5)c(-c5ccc(S(=O)(=O)[O-])cc5)c5nc(c(-c6ccc(S(=O)(=O)[O-])cc6)c6ccc3[nH]6)C=C5)C=C4)cc1)[C@@H](C(F)(F)F)O2
REMARK SMILES IDX 18 1 17 2 16 3 15 4 14 5 13 6 11 7 12 8 10 9 3 10 4 11 8 12
REMARK SMILES IDX 5 13 7 14 6 15 9 16 90 17 85 18 2 19 1 20 86 21 87 22 88 23
REMARK SMILES IDX 89 24 19 25 20 26 21 27 22 28 23 29 24 30 25 31 26 32 84 33
REMARK SMILES IDX 27 34 83 35 28 36 29 37 30 38 77 39 31 40 82 41 76 42 78 43
REMARK SMILES IDX 32 44 81 45 75 46 74 47 33 49 63 50 44 51 62 52 45 53 48 54
REMARK SMILES IDX 61 55 79 56 46 57 47 58 60 60 80 61 49 62 34 63 35 64 43 65
REMARK SMILES IDX 36 66 42 67 37 68 38 69 39 70 40 71 41 72 64 73 65 74 73 75
REMARK SMILES IDX 66 76 72 77 67 78 68 79 69 80 70 81 71 82 50 83 51 84 59 85
REMARK SMILES IDX 52 86 58 87 53 88 54 89 55 90 56 91 57 92
REMARK H PARENT 78 48 48 59
REMARK Flexibility Score: inf
ROOT
ATOM      1  C   UNL A   1      36.270  21.546  24.787  1.00  0.00     0.188 C 
ENDROOT
BRANCH   1   2
ATOM      2  C   UNL A   1      35.468  22.076  25.995  1.00  0.00     0.188 C 
BRANCH   2   3
ATOM      3  O   UNL A   1      35.228  23.462  26.007  1.00  0.00    -0.376 OA
BRANCH   3   4
ATOM      4  C   UNL A   1      35.005  24.168  24.799  1.00  0.00     0.202 C 
BRANCH   4   5
ATOM      5  C   UNL A   1      33.679  24.226  24.010  1.00  0.00     0.261 C 
BRANCH   5   6
ATOM      6  O   UNL A   1      33.330  25.452  23.362  1.00  0.00    -0.460 OA
BRANCH   6   7
ATOM      7  C   UNL A   1      32.955  26.466  24.178  1.00  0.00     0.338 C 
ATOM      8  O   UNL A   1      33.664  27.063  24.969  1.00  0.00    -0.246 OA
BRANCH   7   9
ATOM      9  C   UNL A   1      31.567  26.863  23.855  1.00  0.00     0.087 C 
ATOM     10  C   UNL A   1      28.512  30.050  21.944  1.00  0.00     0.025 A 
ATOM     11  C   UNL A   1      27.445  29.369  22.532  1.00  0.00     0.021 A 
ATOM     12  C   UNL A   1      29.812  29.549  22.065  1.00  0.00     0.029 A 
ATOM     13  C   UNL A   1      27.673  28.176  23.220  1.00  0.00     0.048 A 
ATOM     14  C   UNL A   1      30.048  28.380  22.802  1.00  0.00     0.018 A 
ATOM     15  C   UNL A   1      28.971  27.683  23.355  1.00  0.00     0.128 A 
ATOM     16  C   UNL A   1      31.406  27.933  23.065  1.00  0.00     0.027 C 
ATOM     17  O   UNL A   1      29.098  26.518  24.054  1.00  0.00    -0.475 OA
ATOM     18  C   UNL A   1      30.427  26.045  24.401  1.00  0.00     0.316 C 
BRANCH  10  19
ATOM     19  C   UNL A   1      28.280  31.283  21.259  1.00  0.00    -0.070 C 
ATOM     20  C   UNL A   1      28.109  32.323  20.678  1.00  0.00     0.010 C 
ENDBRANCH  10  19
BRANCH  18  21
ATOM     21  C   UNL A   1      30.504  25.900  25.927  1.00  0.00     0.430 C 
ATOM     22  F   UNL A   1      31.407  24.955  26.287  1.00  0.00    -0.167 F 
ATOM     23  F   UNL A   1      30.895  27.051  26.523  1.00  0.00    -0.167 F 
ATOM     24  F   UNL A   1      29.315  25.549  26.465  1.00  0.00    -0.167 F 
ENDBRANCH  18  21
ENDBRANCH   7   9
ENDBRANCH   6   7
ENDBRANCH   5   6
ENDBRANCH   4   5
ENDBRANCH   3   4
ENDBRANCH   2   3
ENDBRANCH   1   2
BRANCH   1  25
ATOM     25  O   UNL A   1      36.742  20.216  24.805  1.00  0.00    -0.376 OA
BRANCH  25  26
ATOM     26  C   UNL A   1      38.130  19.973  24.982  1.00  0.00     0.202 C 
BRANCH  26  27
ATOM     27  C   UNL A   1      39.044  20.740  25.968  1.00  0.00     0.261 C 
BRANCH  27  28
ATOM     28  O   UNL A   1      39.974  19.989  26.756  1.00  0.00    -0.460 OA
BRANCH  28  29
ATOM     29  C   UNL A   1      41.234  19.872  26.258  1.00  0.00     0.338 C 
ATOM     30  O   UNL A   1      41.656  18.989  25.533  1.00  0.00    -0.246 OA
BRANCH  29  31
ATOM     31  C   UNL A   1      41.966  21.124  26.557  1.00  0.00     0.060 A 
ATOM     32  C   UNL A   1      42.382  21.956  25.520  1.00  0.00     0.016 A 
ATOM     33  C   UNL A   1      42.273  21.448  27.889  1.00  0.00     0.016 A 
ATOM     34  C   UNL A   1      43.100  23.119  25.818  1.00  0.00     0.010 A 
ATOM     35  C   UNL A   1      43.010  22.600  28.183  1.00  0.00     0.010 A 
ATOM     36  C   UNL A   1      43.412  23.458  27.151  1.00  0.00    -0.014 A 
BRANCH  36  37
ATOM     37  C   UNL A   1      44.006  24.787  27.452  1.00  0.00     0.031 A 
ATOM     38  C   UNL A   1      45.447  25.104  27.177  1.00  0.00     0.074 A 
ATOM     39  C   UNL A   1      43.199  25.732  27.977  1.00  0.00     0.049 A 
ATOM     40  N   UNL A   1      46.065  26.254  27.291  1.00  0.00    -0.248 NA
ATOM     41  C   UNL A   1      46.309  24.002  26.722  1.00  0.00     0.031 C 
ATOM     42  C   UNL A   1      41.788  25.527  28.305  1.00  0.00     0.029 A 
ATOM     43  N   UNL A   1      43.430  27.046  28.300  1.00  0.00    -0.354 N 
ATOM     44  C   UNL A   1      47.379  26.025  26.900  1.00  0.00     0.074 A 
ATOM     45  C   UNL A   1      47.483  24.612  26.597  1.00  0.00     0.031 C 
ATOM     46  C   UNL A   1      41.266  26.685  28.734  1.00  0.00     0.029 A 
ATOM     47  C   UNL A   1      42.311  27.705  28.758  1.00  0.00     0.049 A 
ATOM     48  H   UNL A   1      44.311  27.477  28.214  1.00  0.00     0.167 HD
ATOM     49  C   UNL A   1      48.390  26.920  26.784  1.00  0.00     0.031 A 
ATOM     50  C   UNL A   1      42.133  28.984  29.149  1.00  0.00     0.031 A 
ATOM     51  C   UNL A   1      48.268  28.325  27.097  1.00  0.00     0.049 A 
ATOM     52  C   UNL A   1      43.286  29.944  29.054  1.00  0.00     0.074 A 
ATOM     53  C   UNL A   1      49.229  29.314  26.967  1.00  0.00     0.029 A 
ATOM     54  N   UNL A   1      47.134  28.943  27.604  1.00  0.00    -0.354 N 
ATOM     55  N   UNL A   1      44.496  29.731  28.595  1.00  0.00    -0.248 NA
ATOM     56  C   UNL A   1      43.051  31.322  29.508  1.00  0.00     0.031 C 
ATOM     57  C   UNL A   1      48.711  30.503  27.483  1.00  0.00     0.029 A 
ATOM     58  C   UNL A   1      47.389  30.289  27.834  1.00  0.00     0.049 A 
ATOM     59  H   UNL A   1      46.274  28.495  27.775  1.00  0.00     0.167 HD
ATOM     60  C   UNL A   1      45.158  30.951  28.681  1.00  0.00     0.074 A 
ATOM     61  C   UNL A   1      44.206  31.905  29.211  1.00  0.00     0.031 C 
ATOM     62  C   UNL A   1      46.439  31.247  28.354  1.00  0.00     0.031 A 
BRANCH  49  63
ATOM     63  C   UNL A   1      49.731  26.447  26.267  1.00  0.00    -0.014 A 
ATOM     64  C   UNL A   1      50.702  25.965  27.167  1.00  0.00     0.010 A 
ATOM     65  C   UNL A   1      50.096  26.653  24.924  1.00  0.00     0.010 A 
ATOM     66  C   UNL A   1      52.021  25.755  26.751  1.00  0.00     0.020 A 
ATOM     67  C   UNL A   1      51.405  26.408  24.495  1.00  0.00     0.020 A 
ATOM     68  C   UNL A   1      52.366  25.992  25.419  1.00  0.00     0.054 A 
BRANCH  68  69
ATOM     69  S   UNL A   1      54.099  25.790  24.917  1.00  0.00     0.124 S 
ATOM     70  O   UNL A   1      54.809  26.548  25.943  1.00  0.00    -0.237 OA
ATOM     71  O   UNL A   1      54.275  24.341  24.966  1.00  0.00    -0.237 OA
ATOM     72  O   UNL A   1      54.137  26.369  23.576  1.00  0.00    -0.744 OA
ENDBRANCH  68  69
ENDBRANCH  49  63
BRANCH  50  73
ATOM     73  C   UNL A   1      40.784  29.422  29.612  1.00  0.00    -0.014 A 
ATOM     74  C   UNL A   1      39.818  29.856  28.682  1.00  0.00     0.010 A 
ATOM     75  C   UNL A   1      40.484  29.492  30.984  1.00  0.00     0.010 A 
ATOM     76  C   UNL A   1      38.614  30.418  29.115  1.00  0.00     0.020 A 
ATOM     77  C   UNL A   1      39.261  30.014  31.421  1.00  0.00     0.020 A 
ATOM     78  C   UNL A   1      38.350  30.505  30.483  1.00  0.00     0.054 A 
BRANCH  78  79
ATOM     79  S   UNL A   1      36.812  31.304  31.018  1.00  0.00     0.124 S 
ATOM     80  O   UNL A   1      37.217  32.704  31.105  1.00  0.00    -0.237 OA
ATOM     81  O   UNL A   1      35.893  30.981  29.929  1.00  0.00    -0.237 OA
ATOM     82  O   UNL A   1      36.514  30.660  32.294  1.00  0.00    -0.744 OA
ENDBRANCH  78  79
ENDBRANCH  50  73
BRANCH  62  83
ATOM     83  C   UNL A   1      46.928  32.664  28.547  1.00  0.00    -0.014 A 
ATOM     84  C   UNL A   1      46.855  33.581  27.480  1.00  0.00     0.010 A 
ATOM     85  C   UNL A   1      47.600  33.045  29.723  1.00  0.00     0.010 A 
ATOM     86  C   UNL A   1      47.495  34.822  27.559  1.00  0.00     0.020 A 
ATOM     87  C   UNL A   1      48.204  34.302  29.823  1.00  0.00     0.020 A 
ATOM     88  C   UNL A   1      48.178  35.169  28.727  1.00  0.00     0.054 A 
BRANCH  88  89
ATOM     89  S   UNL A   1      49.065  36.750  28.781  1.00  0.00     0.124 S 
ATOM     90  O   UNL A   1      49.607  36.754  30.136  1.00  0.00    -0.237 OA
ATOM     91  O   UNL A   1      50.047  36.602  27.709  1.00  0.00    -0.237 OA
ATOM     92  O   UNL A   1      48.021  37.740  28.526  1.00  0.00    -0.744 OA
ENDBRANCH  88  89
ENDBRANCH  62  83
ENDBRANCH  36  37
ENDBRANCH  29  31
ENDBRANCH  28  29
ENDBRANCH  27  28
ENDBRANCH  26  27
ENDBRANCH  25  26
ENDBRANCH   1  25
TORSDOF 22
ENDMDL
