MODEL 1
REMARK VINA RESULT:      -9.8      0.000      0.000
REMARK SMILES Cc1nc(SCc2ccccc2)[nH]c(=O)c1CCC(=O)OCCOCCOCCOC(=O)c1ccc(-c2c3nc(c(-c4ccc(S(=O)(=O)[O-])cc4)c4ccc([nH]4)c(-c4ccc(S(=O)(=O)[O-])cc4)c4nc(c(-c5ccc(S(=O)(=O)[O-])cc5)c5ccc2[nH]5)C=C4)C=C3)cc1
REMARK SMILES IDX 25 1 24 2 23 3 22 4 21 5 19 6 20 7 18 8 17 9 16 10 1 11 2 12
REMARK SMILES IDX 3 13 4 14 14 15 13 16 15 17 5 19 6 20 7 21 8 22 12 23 9 24
REMARK SMILES IDX 11 25 10 26 26 27 27 28 28 29 29 30 30 31 31 32 32 33 33 34
REMARK SMILES IDX 34 35 92 36 35 37 91 38 36 39 37 40 38 41 85 42 39 43 90 44
REMARK SMILES IDX 84 45 86 46 40 47 89 48 83 49 82 50 41 52 71 53 52 54 70 55
REMARK SMILES IDX 53 56 56 57 69 58 87 59 54 60 55 61 68 63 88 64 57 65 42 66
REMARK SMILES IDX 43 67 51 68 44 69 50 70 45 71 46 72 47 73 48 74 49 75 72 76
REMARK SMILES IDX 73 77 81 78 74 79 80 80 75 81 76 82 77 83 78 84 79 85 58 86
REMARK SMILES IDX 59 87 67 88 60 89 66 90 61 91 62 92 63 93 64 94 65 95
REMARK H PARENT 13 18 86 51 56 62
REMARK Flexibility Score: inf
ROOT
ATOM      1  C   UNL A   1      31.519  25.370  26.415  1.00  0.00     0.188 C 
ENDROOT
BRANCH   1   2
ATOM      2  O   UNL A   1      30.561  24.351  26.653  1.00  0.00    -0.376 OA
BRANCH   2   3
ATOM      3  C   UNL A   1      30.686  23.239  25.767  1.00  0.00     0.202 C 
BRANCH   3   4
ATOM      4  C   UNL A   1      31.730  22.170  26.177  1.00  0.00     0.261 C 
BRANCH   4   5
ATOM      5  O   UNL A   1      31.625  20.904  25.476  1.00  0.00    -0.463 OA
BRANCH   5   6
ATOM      6  C   UNL A   1      32.495  20.663  24.466  1.00  0.00     0.306 C 
ATOM      7  O   UNL A   1      32.278  19.903  23.531  1.00  0.00    -0.252 OA
BRANCH   6   8
ATOM      8  C   UNL A   1      33.791  21.453  24.605  1.00  0.00     0.128 C 
BRANCH   8   9
ATOM      9  C   UNL A   1      34.347  22.235  23.390  1.00  0.00     0.055 C 
BRANCH   9  10
ATOM     10  C   UNL A   1      34.126  23.736  23.310  1.00  0.00     0.039 A 
ATOM     11  C   UNL A   1      35.151  24.261  25.545  1.00  0.00     0.067 C 
ATOM     12  C   UNL A   1      34.503  24.648  24.237  1.00  0.00     0.049 A 
ATOM     13  N   UNL A   1      34.208  26.000  24.167  1.00  0.00    -0.229 NA
ATOM     14  C   UNL A   1      33.421  26.374  23.219  1.00  0.00     0.168 A 
ATOM     15  C   UNL A   1      33.521  24.328  22.088  1.00  0.00     0.254 A 
ATOM     16  N   UNL A   1      33.051  25.587  22.197  1.00  0.00    -0.301 N 
ATOM     17  O   UNL A   1      33.424  23.758  21.016  1.00  0.00    -0.269 OA
ATOM     18  H   UNL A   1      32.427  25.933  21.518  1.00  0.00     0.172 HD
BRANCH  14  19
ATOM     19  S   UNL A   1      32.639  27.911  23.132  1.00  0.00    -0.083 SA
BRANCH  19  20
ATOM     20  C   UNL A   1      30.989  27.435  22.585  1.00  0.00     0.113 C 
BRANCH  20  21
ATOM     21  C   UNL A   1      29.865  28.458  22.630  1.00  0.00    -0.038 A 
ATOM     22  C   UNL A   1      28.650  28.112  23.237  1.00  0.00     0.004 A 
ATOM     23  C   UNL A   1      29.899  29.672  21.929  1.00  0.00     0.004 A 
ATOM     24  C   UNL A   1      27.515  28.921  23.098  1.00  0.00     0.000 A 
ATOM     25  C   UNL A   1      28.771  30.478  21.774  1.00  0.00     0.000 A 
ATOM     26  C   UNL A   1      27.571  30.093  22.347  1.00  0.00     0.000 A 
ENDBRANCH  20  21
ENDBRANCH  19  20
ENDBRANCH  14  19
ENDBRANCH   9  10
ENDBRANCH   8   9
ENDBRANCH   6   8
ENDBRANCH   5   6
ENDBRANCH   4   5
ENDBRANCH   3   4
ENDBRANCH   2   3
ENDBRANCH   1   2
BRANCH   1  27
ATOM     27  C   UNL A   1      30.939  26.758  26.289  1.00  0.00     0.188 C 
BRANCH  27  28
ATOM     28  O   UNL A   1      31.640  27.784  26.996  1.00  0.00    -0.376 OA
BRANCH  28  29
ATOM     29  C   UNL A   1      31.725  29.022  26.304  1.00  0.00     0.202 C 
BRANCH  29  30
ATOM     30  C   UNL A   1      32.298  30.206  27.113  1.00  0.00     0.261 C 
BRANCH  30  31
ATOM     31  O   UNL A   1      33.730  30.320  27.066  1.00  0.00    -0.460 OA
BRANCH  31  32
ATOM     32  C   UNL A   1      34.253  31.394  27.718  1.00  0.00     0.338 C 
ATOM     33  O   UNL A   1      33.673  32.435  27.986  1.00  0.00    -0.246 OA
BRANCH  32  34
ATOM     34  C   UNL A   1      35.584  31.026  28.275  1.00  0.00     0.060 A 
ATOM     35  C   UNL A   1      35.733  29.761  28.873  1.00  0.00     0.016 A 
ATOM     36  C   UNL A   1      36.691  31.866  28.151  1.00  0.00     0.016 A 
ATOM     37  C   UNL A   1      36.977  29.339  29.347  1.00  0.00     0.010 A 
ATOM     38  C   UNL A   1      37.927  31.463  28.667  1.00  0.00     0.010 A 
ATOM     39  C   UNL A   1      38.070  30.210  29.293  1.00  0.00    -0.014 A 
BRANCH  39  40
ATOM     40  C   UNL A   1      39.274  29.939  30.117  1.00  0.00     0.031 A 
ATOM     41  C   UNL A   1      40.175  28.815  29.675  1.00  0.00     0.074 A 
ATOM     42  C   UNL A   1      39.575  30.649  31.220  1.00  0.00     0.049 A 
ATOM     43  N   UNL A   1      41.224  28.307  30.265  1.00  0.00    -0.248 NA
ATOM     44  C   UNL A   1      39.835  28.175  28.391  1.00  0.00     0.031 C 
ATOM     45  C   UNL A   1      38.828  31.802  31.721  1.00  0.00     0.029 A 
ATOM     46  N   UNL A   1      40.595  30.489  32.127  1.00  0.00    -0.354 N 
ATOM     47  C   UNL A   1      41.656  27.276  29.437  1.00  0.00     0.074 A 
ATOM     48  C   UNL A   1      40.742  27.215  28.318  1.00  0.00     0.031 C 
ATOM     49  C   UNL A   1      39.406  32.235  32.857  1.00  0.00     0.029 A 
ATOM     50  C   UNL A   1      40.537  31.365  33.186  1.00  0.00     0.049 A 
ATOM     51  H   UNL A   1      41.302  29.811  32.028  1.00  0.00     0.167 HD
ATOM     52  C   UNL A   1      42.717  26.453  29.592  1.00  0.00     0.031 A 
ATOM     53  C   UNL A   1      41.290  31.436  34.304  1.00  0.00     0.031 A 
ATOM     54  C   UNL A   1      43.614  26.505  30.714  1.00  0.00     0.049 A 
ATOM     55  C   UNL A   1      42.416  30.449  34.504  1.00  0.00     0.074 A 
ATOM     56  C   UNL A   1      44.726  25.719  30.960  1.00  0.00     0.029 A 
ATOM     57  N   UNL A   1      43.499  27.384  31.779  1.00  0.00    -0.354 N 
ATOM     58  N   UNL A   1      42.821  29.486  33.709  1.00  0.00    -0.248 NA
ATOM     59  C   UNL A   1      43.190  30.562  35.749  1.00  0.00     0.031 C 
ATOM     60  C   UNL A   1      45.244  26.078  32.207  1.00  0.00     0.029 A 
ATOM     61  C   UNL A   1      44.503  27.142  32.700  1.00  0.00     0.049 A 
ATOM     62  H   UNL A   1      42.806  28.078  31.868  1.00  0.00     0.167 HD
ATOM     63  C   UNL A   1      43.920  28.908  34.339  1.00  0.00     0.074 A 
ATOM     64  C   UNL A   1      44.119  29.629  35.579  1.00  0.00     0.031 C 
ATOM     65  C   UNL A   1      44.698  27.876  33.925  1.00  0.00     0.031 A 
BRANCH  52  66
ATOM     66  C   UNL A   1      42.934  25.393  28.545  1.00  0.00    -0.014 A 
ATOM     67  C   UNL A   1      42.308  24.136  28.632  1.00  0.00     0.010 A 
ATOM     68  C   UNL A   1      43.758  25.671  27.439  1.00  0.00     0.010 A 
ATOM     69  C   UNL A   1      42.533  23.164  27.653  1.00  0.00     0.020 A 
ATOM     70  C   UNL A   1      43.958  24.715  26.440  1.00  0.00     0.020 A 
ATOM     71  C   UNL A   1      43.356  23.461  26.562  1.00  0.00     0.054 A 
BRANCH  71  72
ATOM     72  S   UNL A   1      43.608  22.190  25.293  1.00  0.00     0.124 S 
ATOM     73  O   UNL A   1      43.411  22.950  24.062  1.00  0.00    -0.237 OA
ATOM     74  O   UNL A   1      44.979  21.754  25.549  1.00  0.00    -0.237 OA
ATOM     75  O   UNL A   1      42.577  21.198  25.584  1.00  0.00    -0.744 OA
ENDBRANCH  71  72
ENDBRANCH  52  66
BRANCH  53  76
ATOM     76  C   UNL A   1      40.992  32.464  35.344  1.00  0.00    -0.014 A 
ATOM     77  C   UNL A   1      40.106  32.185  36.401  1.00  0.00     0.010 A 
ATOM     78  C   UNL A   1      41.586  33.738  35.275  1.00  0.00     0.010 A 
ATOM     79  C   UNL A   1      39.811  33.162  37.358  1.00  0.00     0.020 A 
ATOM     80  C   UNL A   1      41.319  34.707  36.247  1.00  0.00     0.020 A 
ATOM     81  C   UNL A   1      40.424  34.417  37.278  1.00  0.00     0.054 A 
BRANCH  81  82
ATOM     82  S   UNL A   1      40.065  35.649  38.561  1.00  0.00     0.124 S 
ATOM     83  O   UNL A   1      41.315  35.683  39.311  1.00  0.00    -0.237 OA
ATOM     84  O   UNL A   1      39.767  36.843  37.774  1.00  0.00    -0.237 OA
ATOM     85  O   UNL A   1      38.922  35.079  39.273  1.00  0.00    -0.744 OA
ENDBRANCH  81  82
ENDBRANCH  53  76
BRANCH  65  86
ATOM     86  C   UNL A   1      45.882  27.493  34.778  1.00  0.00    -0.014 A 
ATOM     87  C   UNL A   1      45.803  26.462  35.730  1.00  0.00     0.010 A 
ATOM     88  C   UNL A   1      47.122  28.120  34.550  1.00  0.00     0.010 A 
ATOM     89  C   UNL A   1      46.939  26.079  36.451  1.00  0.00     0.020 A 
ATOM     90  C   UNL A   1      48.265  27.718  35.245  1.00  0.00     0.020 A 
ATOM     91  C   UNL A   1      48.164  26.706  36.199  1.00  0.00     0.054 A 
BRANCH  91  92
ATOM     92  S   UNL A   1      49.635  26.142  37.101  1.00  0.00     0.124 S 
ATOM     93  O   UNL A   1      49.048  25.351  38.179  1.00  0.00    -0.237 OA
ATOM     94  O   UNL A   1      50.360  25.383  36.085  1.00  0.00    -0.237 OA
ATOM     95  O   UNL A   1      50.282  27.383  37.522  1.00  0.00    -0.744 OA
ENDBRANCH  91  92
ENDBRANCH  65  86
ENDBRANCH  39  40
ENDBRANCH  32  34
ENDBRANCH  31  32
ENDBRANCH  30  31
ENDBRANCH  29  30
ENDBRANCH  28  29
ENDBRANCH  27  28
ENDBRANCH   1  27
TORSDOF 25
ENDMDL
MODEL 2
REMARK VINA RESULT:      -9.6      5.726      8.140
REMARK SMILES Cc1nc(SCc2ccccc2)[nH]c(=O)c1CCC(=O)OCCOCCOCCOC(=O)c1ccc(-c2c3nc(c(-c4ccc(S(=O)(=O)[O-])cc4)c4ccc([nH]4)c(-c4ccc(S(=O)(=O)[O-])cc4)c4nc(c(-c5ccc(S(=O)(=O)[O-])cc5)c5ccc2[nH]5)C=C4)C=C3)cc1
REMARK SMILES IDX 25 1 24 2 23 3 22 4 21 5 19 6 20 7 18 8 17 9 16 10 1 11 2 12
REMARK SMILES IDX 3 13 4 14 14 15 13 16 15 17 5 19 6 20 7 21 8 22 12 23 9 24
REMARK SMILES IDX 11 25 10 26 26 27 27 28 28 29 29 30 30 31 31 32 32 33 33 34
REMARK SMILES IDX 34 35 92 36 35 37 91 38 36 39 37 40 38 41 85 42 39 43 90 44
REMARK SMILES IDX 84 45 86 46 40 47 89 48 83 49 82 50 41 52 71 53 52 54 70 55
REMARK SMILES IDX 53 56 56 57 69 58 87 59 54 60 55 61 68 63 88 64 57 65 42 66
REMARK SMILES IDX 43 67 51 68 44 69 50 70 45 71 46 72 47 73 48 74 49 75 72 76
REMARK SMILES IDX 73 77 81 78 74 79 80 80 75 81 76 82 77 83 78 84 79 85 58 86
REMARK SMILES IDX 59 87 67 88 60 89 66 90 61 91 62 92 63 93 64 94 65 95
REMARK H PARENT 13 18 86 51 56 62
REMARK Flexibility Score: inf
ROOT
ATOM      1  C   UNL A   1      31.655  28.861  25.547  1.00  0.00     0.188 C 
ENDROOT
BRANCH   1   2
ATOM      2  O   UNL A   1      31.629  27.527  25.063  1.00  0.00    -0.376 OA
BRANCH   2   3
ATOM      3  C   UNL A   1      31.687  26.548  26.100  1.00  0.00     0.202 C 
BRANCH   3   4
ATOM      4  C   UNL A   1      32.208  25.152  25.673  1.00  0.00     0.261 C 
BRANCH   4   5
ATOM      5  O   UNL A   1      31.192  24.236  25.192  1.00  0.00    -0.463 OA
BRANCH   5   6
ATOM      6  C   UNL A   1      30.758  24.381  23.916  1.00  0.00     0.306 C 
ATOM      7  O   UNL A   1      29.895  25.175  23.564  1.00  0.00    -0.252 OA
BRANCH   6   8
ATOM      8  C   UNL A   1      31.471  23.450  22.942  1.00  0.00     0.128 C 
BRANCH   8   9
ATOM      9  C   UNL A   1      32.168  22.174  23.473  1.00  0.00     0.055 C 
BRANCH   9  10
ATOM     10  C   UNL A   1      33.599  22.265  23.976  1.00  0.00     0.039 A 
ATOM     11  C   UNL A   1      33.442  20.302  25.538  1.00  0.00     0.067 C 
ATOM     12  C   UNL A   1      34.187  21.428  24.863  1.00  0.00     0.049 A 
ATOM     13  N   UNL A   1      35.469  21.595  25.361  1.00  0.00    -0.229 NA
ATOM     14  C   UNL A   1      36.078  22.684  25.044  1.00  0.00     0.168 A 
ATOM     15  C   UNL A   1      34.513  23.296  23.416  1.00  0.00     0.254 A 
ATOM     16  N   UNL A   1      35.639  23.546  24.114  1.00  0.00    -0.301 N 
ATOM     17  O   UNL A   1      34.311  23.917  22.388  1.00  0.00    -0.269 OA
ATOM     18  H   UNL A   1      36.145  24.373  23.939  1.00  0.00     0.172 HD
BRANCH  14  19
ATOM     19  S   UNL A   1      37.510  23.274  25.808  1.00  0.00    -0.083 SA
BRANCH  19  20
ATOM     20  C   UNL A   1      38.590  21.836  25.688  1.00  0.00     0.113 C 
BRANCH  20  21
ATOM     21  C   UNL A   1      39.935  21.853  26.397  1.00  0.00    -0.038 A 
ATOM     22  C   UNL A   1      40.646  20.653  26.540  1.00  0.00     0.004 A 
ATOM     23  C   UNL A   1      40.428  22.968  27.090  1.00  0.00     0.004 A 
ATOM     24  C   UNL A   1      41.763  20.570  27.382  1.00  0.00     0.000 A 
ATOM     25  C   UNL A   1      41.531  22.891  27.940  1.00  0.00     0.000 A 
ATOM     26  C   UNL A   1      42.191  21.685  28.099  1.00  0.00     0.000 A 
ENDBRANCH  20  21
ENDBRANCH  19  20
ENDBRANCH  14  19
ENDBRANCH   9  10
ENDBRANCH   8   9
ENDBRANCH   6   8
ENDBRANCH   5   6
ENDBRANCH   4   5
ENDBRANCH   3   4
ENDBRANCH   2   3
ENDBRANCH   1   2
BRANCH   1  27
ATOM     27  C   UNL A   1      32.933  29.608  25.252  1.00  0.00     0.188 C 
BRANCH  27  28
ATOM     28  O   UNL A   1      33.590  30.175  26.388  1.00  0.00    -0.376 OA
BRANCH  28  29
ATOM     29  C   UNL A   1      34.179  29.223  27.264  1.00  0.00     0.202 C 
BRANCH  29  30
ATOM     30  C   UNL A   1      35.171  29.788  28.303  1.00  0.00     0.261 C 
BRANCH  30  31
ATOM     31  O   UNL A   1      36.555  29.542  27.997  1.00  0.00    -0.460 OA
BRANCH  31  32
ATOM     32  C   UNL A   1      37.362  29.332  29.073  1.00  0.00     0.338 C 
ATOM     33  O   UNL A   1      37.005  29.173  30.230  1.00  0.00    -0.246 OA
BRANCH  32  34
ATOM     34  C   UNL A   1      38.752  29.087  28.599  1.00  0.00     0.060 A 
ATOM     35  C   UNL A   1      39.701  28.615  29.523  1.00  0.00     0.016 A 
ATOM     36  C   UNL A   1      39.110  29.242  27.259  1.00  0.00     0.016 A 
ATOM     37  C   UNL A   1      41.000  28.303  29.114  1.00  0.00     0.010 A 
ATOM     38  C   UNL A   1      40.422  28.973  26.857  1.00  0.00     0.010 A 
ATOM     39  C   UNL A   1      41.381  28.530  27.788  1.00  0.00    -0.014 A 
BRANCH  39  40
ATOM     40  C   UNL A   1      42.821  28.570  27.429  1.00  0.00     0.031 A 
ATOM     41  C   UNL A   1      43.431  27.307  26.880  1.00  0.00     0.074 A 
ATOM     42  C   UNL A   1      43.576  29.674  27.576  1.00  0.00     0.049 A 
ATOM     43  N   UNL A   1      44.677  27.042  26.587  1.00  0.00    -0.248 NA
ATOM     44  C   UNL A   1      42.503  26.187  26.637  1.00  0.00     0.031 C 
ATOM     45  C   UNL A   1      43.098  30.978  28.032  1.00  0.00     0.029 A 
ATOM     46  N   UNL A   1      44.921  29.863  27.365  1.00  0.00    -0.354 N 
ATOM     47  C   UNL A   1      44.685  25.723  26.147  1.00  0.00     0.074 A 
ATOM     48  C   UNL A   1      43.327  25.234  26.234  1.00  0.00     0.031 C 
ATOM     49  C   UNL A   1      44.139  31.830  28.082  1.00  0.00     0.029 A 
ATOM     50  C   UNL A   1      45.363  31.121  27.705  1.00  0.00     0.049 A 
ATOM     51  H   UNL A   1      45.513  29.164  27.004  1.00  0.00     0.167 HD
ATOM     52  C   UNL A   1      45.728  24.982  25.708  1.00  0.00     0.031 A 
ATOM     53  C   UNL A   1      46.613  31.629  27.736  1.00  0.00     0.031 A 
ATOM     54  C   UNL A   1      47.080  25.466  25.638  1.00  0.00     0.049 A 
ATOM     55  C   UNL A   1      47.778  30.759  27.328  1.00  0.00     0.074 A 
ATOM     56  C   UNL A   1      48.208  24.796  25.200  1.00  0.00     0.029 A 
ATOM     57  N   UNL A   1      47.489  26.732  26.023  1.00  0.00    -0.354 N 
ATOM     58  N   UNL A   1      47.772  29.516  26.903  1.00  0.00    -0.248 NA
ATOM     59  C   UNL A   1      49.118  31.359  27.399  1.00  0.00     0.031 C 
ATOM     60  C   UNL A   1      49.310  25.635  25.383  1.00  0.00     0.029 A 
ATOM     61  C   UNL A   1      48.857  26.856  25.859  1.00  0.00     0.049 A 
ATOM     62  H   UNL A   1      46.894  27.440  26.363  1.00  0.00     0.167 HD
ATOM     63  C   UNL A   1      49.099  29.203  26.619  1.00  0.00     0.074 A 
ATOM     64  C   UNL A   1      49.881  30.386  26.917  1.00  0.00     0.031 C 
ATOM     65  C   UNL A   1      49.622  28.044  26.147  1.00  0.00     0.031 A 
BRANCH  52  66
ATOM     66  C   UNL A   1      45.453  23.554  25.318  1.00  0.00    -0.014 A 
ATOM     67  C   UNL A   1      45.594  22.501  26.240  1.00  0.00     0.010 A 
ATOM     68  C   UNL A   1      45.016  23.266  24.012  1.00  0.00     0.010 A 
ATOM     69  C   UNL A   1      45.342  21.183  25.851  1.00  0.00     0.020 A 
ATOM     70  C   UNL A   1      44.730  21.954  23.629  1.00  0.00     0.020 A 
ATOM     71  C   UNL A   1      44.910  20.917  24.547  1.00  0.00     0.054 A 
BRANCH  71  72
ATOM     72  S   UNL A   1      44.565  19.200  24.079  1.00  0.00     0.124 S 
ATOM     73  O   UNL A   1      44.529  19.287  22.621  1.00  0.00    -0.237 OA
ATOM     74  O   UNL A   1      45.708  18.483  24.637  1.00  0.00    -0.237 OA
ATOM     75  O   UNL A   1      43.282  18.916  24.717  1.00  0.00    -0.744 OA
ENDBRANCH  71  72
ENDBRANCH  52  66
BRANCH  53  76
ATOM     76  C   UNL A   1      46.841  33.031  28.193  1.00  0.00    -0.014 A 
ATOM     77  C   UNL A   1      47.076  33.316  29.551  1.00  0.00     0.010 A 
ATOM     78  C   UNL A   1      46.811  34.094  27.272  1.00  0.00     0.010 A 
ATOM     79  C   UNL A   1      47.263  34.635  29.978  1.00  0.00     0.020 A 
ATOM     80  C   UNL A   1      47.028  35.411  27.689  1.00  0.00     0.020 A 
ATOM     81  C   UNL A   1      47.244  35.675  29.043  1.00  0.00     0.054 A 
BRANCH  81  82
ATOM     82  S   UNL A   1      47.540  37.372  29.615  1.00  0.00     0.124 S 
ATOM     83  O   UNL A   1      47.865  37.167  31.022  1.00  0.00    -0.237 OA
ATOM     84  O   UNL A   1      48.649  37.800  28.766  1.00  0.00    -0.237 OA
ATOM     85  O   UNL A   1      46.270  38.047  29.357  1.00  0.00    -0.744 OA
ENDBRANCH  81  82
ENDBRANCH  53  76
BRANCH  65  86
ATOM     86  C   UNL A   1      51.102  27.998  25.857  1.00  0.00    -0.014 A 
ATOM     87  C   UNL A   1      52.048  27.789  26.875  1.00  0.00     0.010 A 
ATOM     88  C   UNL A   1      51.540  28.073  24.521  1.00  0.00     0.010 A 
ATOM     89  C   UNL A   1      53.407  27.675  26.564  1.00  0.00     0.020 A 
ATOM     90  C   UNL A   1      52.893  27.928  24.203  1.00  0.00     0.020 A 
ATOM     91  C   UNL A   1      53.820  27.740  25.229  1.00  0.00     0.054 A 
BRANCH  91  92
ATOM     92  S   UNL A   1      55.580  27.521  24.847  1.00  0.00     0.124 S 
ATOM     93  O   UNL A   1      56.164  27.370  26.177  1.00  0.00    -0.237 OA
ATOM     94  O   UNL A   1      55.580  26.319  24.019  1.00  0.00    -0.237 OA
ATOM     95  O   UNL A   1      55.940  28.753  24.147  1.00  0.00    -0.744 OA
ENDBRANCH  91  92
ENDBRANCH  65  86
ENDBRANCH  39  40
ENDBRANCH  32  34
ENDBRANCH  31  32
ENDBRANCH  30  31
ENDBRANCH  29  30
ENDBRANCH  28  29
ENDBRANCH  27  28
ENDBRANCH   1  27
TORSDOF 25
ENDMDL
MODEL 3
REMARK VINA RESULT:      -9.6      2.424      8.271
REMARK SMILES Cc1nc(SCc2ccccc2)[nH]c(=O)c1CCC(=O)OCCOCCOCCOC(=O)c1ccc(-c2c3nc(c(-c4ccc(S(=O)(=O)[O-])cc4)c4ccc([nH]4)c(-c4ccc(S(=O)(=O)[O-])cc4)c4nc(c(-c5ccc(S(=O)(=O)[O-])cc5)c5ccc2[nH]5)C=C4)C=C3)cc1
REMARK SMILES IDX 25 1 24 2 23 3 22 4 21 5 19 6 20 7 18 8 17 9 16 10 1 11 2 12
REMARK SMILES IDX 3 13 4 14 14 15 13 16 15 17 5 19 6 20 7 21 8 22 12 23 9 24
REMARK SMILES IDX 11 25 10 26 26 27 27 28 28 29 29 30 30 31 31 32 32 33 33 34
REMARK SMILES IDX 34 35 92 36 35 37 91 38 36 39 37 40 38 41 85 42 39 43 90 44
REMARK SMILES IDX 84 45 86 46 40 47 89 48 83 49 82 50 41 52 71 53 52 54 70 55
REMARK SMILES IDX 53 56 56 57 69 58 87 59 54 60 55 61 68 63 88 64 57 65 42 66
REMARK SMILES IDX 43 67 51 68 44 69 50 70 45 71 46 72 47 73 48 74 49 75 72 76
REMARK SMILES IDX 73 77 81 78 74 79 80 80 75 81 76 82 77 83 78 84 79 85 58 86
REMARK SMILES IDX 59 87 67 88 60 89 66 90 61 91 62 92 63 93 64 94 65 95
REMARK H PARENT 13 18 86 51 56 62
REMARK Flexibility Score: inf
ROOT
ATOM      1  C   UNL A   1      33.994  26.690  25.217  1.00  0.00     0.188 C 
ENDROOT
BRANCH   1   2
ATOM      2  O   UNL A   1      34.155  25.530  26.018  1.00  0.00    -0.376 OA
BRANCH   2   3
ATOM      3  C   UNL A   1      34.657  24.407  25.294  1.00  0.00     0.202 C 
BRANCH   3   4
ATOM      4  C   UNL A   1      36.008  23.838  25.792  1.00  0.00     0.261 C 
BRANCH   4   5
ATOM      5  O   UNL A   1      36.041  22.399  25.976  1.00  0.00    -0.463 OA
BRANCH   5   6
ATOM      6  C   UNL A   1      34.862  21.732  25.989  1.00  0.00     0.306 C 
ATOM      7  O   UNL A   1      34.123  21.651  26.961  1.00  0.00    -0.252 OA
BRANCH   6   8
ATOM      8  C   UNL A   1      34.534  21.090  24.646  1.00  0.00     0.128 C 
BRANCH   8   9
ATOM      9  C   UNL A   1      33.059  20.979  24.188  1.00  0.00     0.055 C 
BRANCH   9  10
ATOM     10  C   UNL A   1      32.195  22.228  24.162  1.00  0.00     0.039 A 
ATOM     11  C   UNL A   1      33.102  23.118  21.993  1.00  0.00     0.067 C 
ATOM     12  C   UNL A   1      32.178  23.166  23.186  1.00  0.00     0.049 A 
ATOM     13  N   UNL A   1      31.436  24.335  23.240  1.00  0.00    -0.229 NA
ATOM     14  C   UNL A   1      30.828  24.587  24.347  1.00  0.00     0.168 A 
ATOM     15  C   UNL A   1      31.195  22.455  25.239  1.00  0.00     0.254 A 
ATOM     16  N   UNL A   1      30.701  23.705  25.350  1.00  0.00    -0.301 N 
ATOM     17  O   UNL A   1      30.802  21.600  26.012  1.00  0.00    -0.269 OA
ATOM     18  H   UNL A   1      30.242  23.974  26.179  1.00  0.00     0.172 HD
BRANCH  14  19
ATOM     19  S   UNL A   1      30.146  26.115  24.775  1.00  0.00    -0.083 SA
BRANCH  19  20
ATOM     20  C   UNL A   1      29.819  26.821  23.150  1.00  0.00     0.113 C 
BRANCH  20  21
ATOM     21  C   UNL A   1      29.277  28.238  23.048  1.00  0.00    -0.038 A 
ATOM     22  C   UNL A   1      27.899  28.455  23.196  1.00  0.00     0.004 A 
ATOM     23  C   UNL A   1      30.047  29.330  22.624  1.00  0.00     0.004 A 
ATOM     24  C   UNL A   1      27.323  29.691  22.880  1.00  0.00     0.000 A 
ATOM     25  C   UNL A   1      29.480  30.561  22.295  1.00  0.00     0.000 A 
ATOM     26  C   UNL A   1      28.112  30.738  22.408  1.00  0.00     0.000 A 
ENDBRANCH  20  21
ENDBRANCH  19  20
ENDBRANCH  14  19
ENDBRANCH   9  10
ENDBRANCH   8   9
ENDBRANCH   6   8
ENDBRANCH   5   6
ENDBRANCH   4   5
ENDBRANCH   3   4
ENDBRANCH   2   3
ENDBRANCH   1   2
BRANCH   1  27
ATOM     27  C   UNL A   1      33.218  27.804  25.876  1.00  0.00     0.188 C 
BRANCH  27  28
ATOM     28  O   UNL A   1      33.484  29.117  25.379  1.00  0.00    -0.376 OA
BRANCH  28  29
ATOM     29  C   UNL A   1      32.472  30.072  25.669  1.00  0.00     0.202 C 
BRANCH  29  30
ATOM     30  C   UNL A   1      32.521  30.696  27.081  1.00  0.00     0.261 C 
BRANCH  30  31
ATOM     31  O   UNL A   1      33.674  30.323  27.854  1.00  0.00    -0.460 OA
BRANCH  31  32
ATOM     32  C   UNL A   1      34.704  31.214  27.833  1.00  0.00     0.338 C 
ATOM     33  O   UNL A   1      34.612  32.430  27.759  1.00  0.00    -0.246 OA
BRANCH  32  34
ATOM     34  C   UNL A   1      35.971  30.501  28.153  1.00  0.00     0.060 A 
ATOM     35  C   UNL A   1      36.087  29.870  29.405  1.00  0.00     0.016 A 
ATOM     36  C   UNL A   1      37.004  30.384  27.222  1.00  0.00     0.016 A 
ATOM     37  C   UNL A   1      37.226  29.130  29.728  1.00  0.00     0.010 A 
ATOM     38  C   UNL A   1      38.164  29.680  27.561  1.00  0.00     0.010 A 
ATOM     39  C   UNL A   1      38.294  29.075  28.825  1.00  0.00    -0.014 A 
BRANCH  39  40
ATOM     40  C   UNL A   1      39.632  28.630  29.289  1.00  0.00     0.031 A 
ATOM     41  C   UNL A   1      40.425  29.593  30.133  1.00  0.00     0.074 A 
ATOM     42  C   UNL A   1      40.143  27.423  28.984  1.00  0.00     0.049 A 
ATOM     43  N   UNL A   1      41.651  29.498  30.578  1.00  0.00    -0.248 NA
ATOM     44  C   UNL A   1      39.738  30.839  30.519  1.00  0.00     0.031 C 
ATOM     45  C   UNL A   1      39.456  26.373  28.234  1.00  0.00     0.029 A 
ATOM     46  N   UNL A   1      41.376  26.885  29.264  1.00  0.00    -0.354 N 
ATOM     47  C   UNL A   1      41.887  30.677  31.276  1.00  0.00     0.074 A 
ATOM     48  C   UNL A   1      40.690  31.481  31.176  1.00  0.00     0.031 C 
ATOM     49  C   UNL A   1      40.286  25.321  28.098  1.00  0.00     0.029 A 
ATOM     50  C   UNL A   1      41.575  25.640  28.714  1.00  0.00     0.049 A 
ATOM     51  H   UNL A   1      42.054  27.348  29.809  1.00  0.00     0.167 HD
ATOM     52  C   UNL A   1      43.000  31.058  31.943  1.00  0.00     0.031 A 
ATOM     53  C   UNL A   1      42.679  24.863  28.686  1.00  0.00     0.031 A 
ATOM     54  C   UNL A   1      44.195  30.263  32.026  1.00  0.00     0.049 A 
ATOM     55  C   UNL A   1      43.942  25.345  29.359  1.00  0.00     0.074 A 
ATOM     56  C   UNL A   1      45.376  30.556  32.686  1.00  0.00     0.029 A 
ATOM     57  N   UNL A   1      44.366  29.025  31.428  1.00  0.00    -0.354 N 
ATOM     58  N   UNL A   1      44.151  26.457  30.026  1.00  0.00    -0.248 NA
ATOM     59  C   UNL A   1      45.119  24.467  29.280  1.00  0.00     0.031 C 
ATOM     60  C   UNL A   1      46.284  29.525  32.429  1.00  0.00     0.029 A 
ATOM     61  C   UNL A   1      45.642  28.553  31.677  1.00  0.00     0.049 A 
ATOM     62  H   UNL A   1      43.681  28.551  30.902  1.00  0.00     0.167 HD
ATOM     63  C   UNL A   1      45.466  26.390  30.479  1.00  0.00     0.074 A 
ATOM     64  C   UNL A   1      46.005  25.128  30.013  1.00  0.00     0.031 C 
ATOM     65  C   UNL A   1      46.163  27.288  31.219  1.00  0.00     0.031 A 
BRANCH  52  66
ATOM     66  C   UNL A   1      42.993  32.416  32.591  1.00  0.00    -0.014 A 
ATOM     67  C   UNL A   1      43.577  33.532  31.964  1.00  0.00     0.010 A 
ATOM     68  C   UNL A   1      42.363  32.585  33.838  1.00  0.00     0.010 A 
ATOM     69  C   UNL A   1      43.566  34.782  32.590  1.00  0.00     0.020 A 
ATOM     70  C   UNL A   1      42.320  33.839  34.452  1.00  0.00     0.020 A 
ATOM     71  C   UNL A   1      42.936  34.927  33.830  1.00  0.00     0.054 A 
BRANCH  71  72
ATOM     72  S   UNL A   1      42.914  36.565  34.607  1.00  0.00     0.124 S 
ATOM     73  O   UNL A   1      41.687  36.508  35.397  1.00  0.00    -0.237 OA
ATOM     74  O   UNL A   1      44.156  36.569  35.376  1.00  0.00    -0.237 OA
ATOM     75  O   UNL A   1      42.883  37.487  33.474  1.00  0.00    -0.744 OA
ENDBRANCH  71  72
ENDBRANCH  52  66
BRANCH  53  76
ATOM     76  C   UNL A   1      42.654  23.553  27.973  1.00  0.00    -0.014 A 
ATOM     77  C   UNL A   1      42.026  22.432  28.546  1.00  0.00     0.010 A 
ATOM     78  C   UNL A   1      43.272  23.415  26.716  1.00  0.00     0.010 A 
ATOM     79  C   UNL A   1      42.028  21.200  27.885  1.00  0.00     0.020 A 
ATOM     80  C   UNL A   1      43.251  22.193  26.037  1.00  0.00     0.020 A 
ATOM     81  C   UNL A   1      42.637  21.089  26.630  1.00  0.00     0.054 A 
BRANCH  81  82
ATOM     82  S   UNL A   1      42.582  19.492  25.769  1.00  0.00     0.124 S 
ATOM     83  O   UNL A   1      43.007  18.567  26.813  1.00  0.00    -0.237 OA
ATOM     84  O   UNL A   1      41.178  19.398  25.374  1.00  0.00    -0.237 OA
ATOM     85  O   UNL A   1      43.522  19.666  24.664  1.00  0.00    -0.744 OA
ENDBRANCH  81  82
ENDBRANCH  53  76
BRANCH  65  86
ATOM     86  C   UNL A   1      47.567  26.929  31.636  1.00  0.00    -0.014 A 
ATOM     87  C   UNL A   1      47.819  26.048  32.701  1.00  0.00     0.010 A 
ATOM     88  C   UNL A   1      48.651  27.416  30.880  1.00  0.00     0.010 A 
ATOM     89  C   UNL A   1      49.130  25.675  33.014  1.00  0.00     0.020 A 
ATOM     90  C   UNL A   1      49.959  27.022  31.170  1.00  0.00     0.020 A 
ATOM     91  C   UNL A   1      50.192  26.160  32.243  1.00  0.00     0.054 A 
BRANCH  91  92
ATOM     92  S   UNL A   1      51.876  25.607  32.629  1.00  0.00     0.124 S 
ATOM     93  O   UNL A   1      52.495  26.833  33.125  1.00  0.00    -0.237 OA
ATOM     94  O   UNL A   1      51.650  24.567  33.629  1.00  0.00    -0.237 OA
ATOM     95  O   UNL A   1      52.388  25.128  31.346  1.00  0.00    -0.744 OA
ENDBRANCH  91  92
ENDBRANCH  65  86
ENDBRANCH  39  40
ENDBRANCH  32  34
ENDBRANCH  31  32
ENDBRANCH  30  31
ENDBRANCH  29  30
ENDBRANCH  28  29
ENDBRANCH  27  28
ENDBRANCH   1  27
TORSDOF 25
ENDMDL
