MODEL 1
REMARK VINA RESULT:      -9.4      0.000      0.000
REMARK SMILES Cc1cccc(O[C@H](C)C(=O)NNC(=O)[C@H]2[C@@H]3CC[C@@H](C3)[C@@H]2C(=O)OCCOCCOCCOC(=O)c2ccc(-c3c4nc(c(-c5ccc(S(=O)(=O)[O-])cc5)c5ccc([nH]5)c(-c5ccc(S(=O)(=O)[O-])cc5)c5nc(c(-c6ccc(S(=O)(=O)[O-])cc6)c6ccc3[nH]6)C=C5)C=C4)cc2)c1
REMARK SMILES IDX 29 1 28 2 27 3 26 4 25 5 23 6 24 7 22 8 16 9 17 10 18 11
REMARK SMILES IDX 21 12 20 13 19 14 14 15 13 16 15 18 12 19 10 20 11 21 8 23
REMARK SMILES IDX 9 24 7 25 6 26 1 27 2 28 3 29 97 30 4 31 5 32 30 33 31 34
REMARK SMILES IDX 32 35 33 36 34 37 35 38 36 39 37 40 38 41 96 42 39 43 95 44
REMARK SMILES IDX 40 45 41 46 42 47 89 48 43 49 94 50 88 51 90 52 44 53 93 54
REMARK SMILES IDX 87 55 86 56 45 58 75 59 56 60 74 61 57 62 60 63 73 64 91 65
REMARK SMILES IDX 58 66 59 67 72 69 92 70 61 71 46 72 47 73 55 74 48 75 54 76
REMARK SMILES IDX 49 77 50 78 51 79 52 80 53 81 76 82 77 83 85 84 78 85 84 86
REMARK SMILES IDX 79 87 80 88 81 89 82 90 83 91 62 92 63 93 71 94 64 95 70 96
REMARK SMILES IDX 65 97 66 98 67 99 68 100 69 101
REMARK H PARENT 13 17 12 22 90 57 60 68
REMARK Flexibility Score: inf
ROOT
ATOM      1  C   UNL A   1      44.281  22.473  34.129  1.00  0.00     0.188 C 
ENDROOT
BRANCH   1   2
ATOM      2  O   UNL A   1      44.892  23.105  32.980  1.00  0.00    -0.376 OA
BRANCH   2   3
ATOM      3  C   UNL A   1      44.193  23.459  31.766  1.00  0.00     0.202 C 
BRANCH   3   4
ATOM      4  C   UNL A   1      44.440  24.749  30.696  1.00  0.00     0.261 C 
BRANCH   4   5
ATOM      5  O   UNL A   1      43.556  26.278  30.286  1.00  0.00    -0.463 OA
BRANCH   5   6
ATOM      6  C   UNL A   1      43.460  27.323  29.268  1.00  0.00     0.310 C 
ATOM      7  O   UNL A   1      44.348  28.072  28.860  1.00  0.00    -0.252 OA
BRANCH   6   8
ATOM      8  C   UNL A   1      42.165  27.675  28.601  1.00  0.00     0.115 C 
ATOM      9  C   UNL A   1      41.741  26.457  27.686  1.00  0.00     0.098 C 
ATOM     10  C   UNL A   1      41.425  27.090  26.306  1.00  0.00     0.003 C 
ATOM     11  C   UNL A   1      42.751  27.325  25.571  1.00  0.00     0.005 C 
ATOM     12  C   UNL A   1      41.011  28.511  26.679  1.00  0.00     0.009 C 
ATOM     13  C   UNL A   1      42.292  28.785  27.478  1.00  0.00     0.004 C 
ATOM     14  C   UNL A   1      43.333  28.519  26.342  1.00  0.00     0.005 C 
BRANCH   9  15
ATOM     15  C   UNL A   1      40.658  25.492  28.087  1.00  0.00     0.242 C 
ATOM     16  N   UNL A   1      40.753  24.213  27.634  1.00  0.00    -0.267 N 
ATOM     17  H   UNL A   1      40.107  23.861  26.979  1.00  0.00     0.191 HD
ATOM     18  O   UNL A   1      39.661  25.847  28.714  1.00  0.00    -0.273 OA
BRANCH  16  19
ATOM     19  N   UNL A   1      41.789  23.410  28.120  1.00  0.00    -0.264 N 
ATOM     20  C   UNL A   1      42.573  22.719  27.240  1.00  0.00     0.279 C 
ATOM     21  O   UNL A   1      43.795  22.889  27.267  1.00  0.00    -0.269 OA
ATOM     22  H   UNL A   1      41.952  23.343  29.088  1.00  0.00     0.191 HD
BRANCH  20  23
ATOM     23  C   UNL A   1      41.930  21.536  26.483  1.00  0.00     0.260 C 
ATOM     24  C   UNL A   1      43.043  20.612  25.978  1.00  0.00     0.064 C 
BRANCH  23  25
ATOM     25  O   UNL A   1      40.713  20.913  26.837  1.00  0.00    -0.481 OA
BRANCH  25  26
ATOM     26  C   UNL A   1      39.574  20.836  26.105  1.00  0.00     0.120 A 
ATOM     27  C   UNL A   1      36.916  23.461  25.266  1.00  0.00     0.044 C 
ATOM     28  C   UNL A   1      37.659  22.160  25.348  1.00  0.00    -0.047 A 
ATOM     29  C   UNL A   1      37.083  21.007  24.813  1.00  0.00     0.003 A 
ATOM     30  C   UNL A   1      38.894  22.059  26.002  1.00  0.00     0.049 A 
ATOM     31  C   UNL A   1      37.763  19.796  24.878  1.00  0.00     0.004 A 
ATOM     32  C   UNL A   1      39.017  19.715  25.496  1.00  0.00     0.046 A 
ENDBRANCH  25  26
ENDBRANCH  23  25
ENDBRANCH  20  23
ENDBRANCH  16  19
ENDBRANCH   9  15
ENDBRANCH   6   8
ENDBRANCH   5   6
ENDBRANCH   4   5
ENDBRANCH   3   4
ENDBRANCH   2   3
ENDBRANCH   1   2
BRANCH   1  33
ATOM     33  C   UNL A   1      45.094  21.699  35.169  1.00  0.00     0.188 C 
BRANCH  33  34
ATOM     34  O   UNL A   1      46.181  21.069  34.536  1.00  0.00    -0.376 OA
BRANCH  34  35
ATOM     35  C   UNL A   1      46.690  19.906  35.147  1.00  0.00     0.202 C 
BRANCH  35  36
ATOM     36  C   UNL A   1      45.929  19.574  36.431  1.00  0.00     0.261 C 
BRANCH  36  37
ATOM     37  O   UNL A   1      46.861  19.278  37.490  1.00  0.00    -0.460 OA
BRANCH  37  38
ATOM     38  C   UNL A   1      46.489  19.758  38.726  1.00  0.00     0.338 C 
ATOM     39  O   UNL A   1      45.833  19.104  39.523  1.00  0.00    -0.246 OA
BRANCH  38  40
ATOM     40  C   UNL A   1      46.785  21.222  38.791  1.00  0.00     0.060 A 
ATOM     41  C   UNL A   1      45.854  22.224  39.083  1.00  0.00     0.016 A 
ATOM     42  C   UNL A   1      47.939  21.637  38.223  1.00  0.00     0.016 A 
ATOM     43  C   UNL A   1      45.954  23.575  38.553  1.00  0.00     0.010 A 
ATOM     44  C   UNL A   1      47.924  22.889  37.612  1.00  0.00     0.010 A 
ATOM     45  C   UNL A   1      46.922  23.950  37.610  1.00  0.00    -0.014 A 
BRANCH  45  46
ATOM     46  C   UNL A   1      46.776  25.404  36.558  1.00  0.00     0.031 A 
ATOM     47  C   UNL A   1      45.466  26.023  35.470  1.00  0.00     0.074 A 
ATOM     48  C   UNL A   1      47.921  26.071  36.263  1.00  0.00     0.049 A 
ATOM     49  N   UNL A   1      45.657  26.688  34.338  1.00  0.00    -0.248 NA
ATOM     50  C   UNL A   1      43.942  25.762  35.478  1.00  0.00     0.031 C 
ATOM     51  C   UNL A   1      48.052  27.354  35.580  1.00  0.00     0.029 A 
ATOM     52  N   UNL A   1      49.235  25.616  36.364  1.00  0.00    -0.354 N 
ATOM     53  C   UNL A   1      44.398  26.976  33.772  1.00  0.00     0.074 A 
ATOM     54  C   UNL A   1      43.487  26.061  34.291  1.00  0.00     0.031 C 
ATOM     55  C   UNL A   1      49.287  27.440  35.067  1.00  0.00     0.029 A 
ATOM     56  C   UNL A   1      49.937  26.162  35.284  1.00  0.00     0.049 A 
ATOM     57  H   UNL A   1      49.599  25.023  37.061  1.00  0.00     0.167 HD
ATOM     58  C   UNL A   1      44.080  28.106  33.084  1.00  0.00     0.031 A 
ATOM     59  C   UNL A   1      50.518  25.365  34.345  1.00  0.00     0.031 A 
ATOM     60  C   UNL A   1      45.284  28.652  32.530  1.00  0.00     0.049 A 
ATOM     61  C   UNL A   1      50.088  25.677  32.922  1.00  0.00     0.074 A 
ATOM     62  C   UNL A   1      46.144  29.693  32.802  1.00  0.00     0.029 A 
ATOM     63  N   UNL A   1      45.977  27.780  31.718  1.00  0.00    -0.354 N 
ATOM     64  N   UNL A   1      49.310  26.668  32.571  1.00  0.00    -0.248 NA
ATOM     65  C   UNL A   1      50.452  24.838  31.779  1.00  0.00     0.031 C 
ATOM     66  C   UNL A   1      47.392  29.395  32.156  1.00  0.00     0.029 A 
ATOM     67  C   UNL A   1      47.251  28.208  31.458  1.00  0.00     0.049 A 
ATOM     68  H   UNL A   1      45.597  26.943  31.364  1.00  0.00     0.167 HD
ATOM     69  C   UNL A   1      48.979  26.545  31.247  1.00  0.00     0.074 A 
ATOM     70  C   UNL A   1      49.752  25.406  30.783  1.00  0.00     0.031 C 
ATOM     71  C   UNL A   1      48.042  27.321  30.626  1.00  0.00     0.031 A 
BRANCH  58  72
ATOM     72  C   UNL A   1      42.674  28.745  33.132  1.00  0.00    -0.014 A 
ATOM     73  C   UNL A   1      42.144  29.152  34.370  1.00  0.00     0.010 A 
ATOM     74  C   UNL A   1      41.764  28.859  32.047  1.00  0.00     0.010 A 
ATOM     75  C   UNL A   1      40.789  29.539  34.522  1.00  0.00     0.020 A 
ATOM     76  C   UNL A   1      40.406  29.195  32.185  1.00  0.00     0.020 A 
ATOM     77  C   UNL A   1      39.918  29.527  33.433  1.00  0.00     0.054 A 
BRANCH  77  78
ATOM     78  S   UNL A   1      38.158  29.914  33.646  1.00  0.00     0.124 S 
ATOM     79  O   UNL A   1      38.084  30.303  35.051  1.00  0.00    -0.237 OA
ATOM     80  O   UNL A   1      37.954  30.989  32.680  1.00  0.00    -0.237 OA
ATOM     81  O   UNL A   1      37.482  28.657  33.324  1.00  0.00    -0.744 OA
ENDBRANCH  77  78
ENDBRANCH  58  72
BRANCH  59  82
ATOM     82  C   UNL A   1      51.004  24.049  34.883  1.00  0.00    -0.014 A 
ATOM     83  C   UNL A   1      50.225  22.903  34.590  1.00  0.00     0.010 A 
ATOM     84  C   UNL A   1      52.313  23.848  35.355  1.00  0.00     0.010 A 
ATOM     85  C   UNL A   1      50.764  21.613  34.662  1.00  0.00     0.020 A 
ATOM     86  C   UNL A   1      52.854  22.547  35.454  1.00  0.00     0.020 A 
ATOM     87  C   UNL A   1      52.084  21.440  35.078  1.00  0.00     0.054 A 
BRANCH  87  88
ATOM     88  S   UNL A   1      52.815  19.777  34.907  1.00  0.00     0.124 S 
ATOM     89  O   UNL A   1      52.781  19.565  33.464  1.00  0.00    -0.237 OA
ATOM     90  O   UNL A   1      54.151  19.964  35.473  1.00  0.00    -0.237 OA
ATOM     91  O   UNL A   1      51.929  18.925  35.693  1.00  0.00    -0.744 OA
ENDBRANCH  87  88
ENDBRANCH  59  82
BRANCH  71  92
ATOM     92  C   UNL A   1      47.668  27.174  29.169  1.00  0.00    -0.014 A 
ATOM     93  C   UNL A   1      47.148  25.976  28.658  1.00  0.00     0.010 A 
ATOM     94  C   UNL A   1      47.946  28.203  28.234  1.00  0.00     0.010 A 
ATOM     95  C   UNL A   1      46.863  25.838  27.292  1.00  0.00     0.020 A 
ATOM     96  C   UNL A   1      47.680  28.071  26.872  1.00  0.00     0.020 A 
ATOM     97  C   UNL A   1      47.122  26.890  26.410  1.00  0.00     0.054 A 
BRANCH  97  98
ATOM     98  S   UNL A   1      46.784  26.681  24.647  1.00  0.00     0.124 S 
ATOM     99  O   UNL A   1      48.123  26.522  24.083  1.00  0.00    -0.237 OA
ATOM    100  O   UNL A   1      45.953  25.481  24.640  1.00  0.00    -0.237 OA
ATOM    101  O   UNL A   1      46.100  27.917  24.271  1.00  0.00    -0.744 OA
ENDBRANCH  97  98
ENDBRANCH  71  92
ENDBRANCH  45  46
ENDBRANCH  38  40
ENDBRANCH  37  38
ENDBRANCH  36  37
ENDBRANCH  35  36
ENDBRANCH  34  35
ENDBRANCH  33  34
ENDBRANCH   1  33
TORSDOF 25
ENDMDL
MODEL 2
REMARK VINA RESULT:      -9.1      1.608      2.391
REMARK SMILES Cc1cccc(O[C@H](C)C(=O)NNC(=O)[C@H]2[C@@H]3CC[C@@H](C3)[C@@H]2C(=O)OCCOCCOCCOC(=O)c2ccc(-c3c4nc(c(-c5ccc(S(=O)(=O)[O-])cc5)c5ccc([nH]5)c(-c5ccc(S(=O)(=O)[O-])cc5)c5nc(c(-c6ccc(S(=O)(=O)[O-])cc6)c6ccc3[nH]6)C=C5)C=C4)cc2)c1
REMARK SMILES IDX 29 1 28 2 27 3 26 4 25 5 23 6 24 7 22 8 16 9 17 10 18 11
REMARK SMILES IDX 21 12 20 13 19 14 14 15 13 16 15 18 12 19 10 20 11 21 8 23
REMARK SMILES IDX 9 24 7 25 6 26 1 27 2 28 3 29 97 30 4 31 5 32 30 33 31 34
REMARK SMILES IDX 32 35 33 36 34 37 35 38 36 39 37 40 38 41 96 42 39 43 95 44
REMARK SMILES IDX 40 45 41 46 42 47 89 48 43 49 94 50 88 51 90 52 44 53 93 54
REMARK SMILES IDX 87 55 86 56 45 58 75 59 56 60 74 61 57 62 60 63 73 64 91 65
REMARK SMILES IDX 58 66 59 67 72 69 92 70 61 71 46 72 47 73 55 74 48 75 54 76
REMARK SMILES IDX 49 77 50 78 51 79 52 80 53 81 76 82 77 83 85 84 78 85 84 86
REMARK SMILES IDX 79 87 80 88 81 89 82 90 83 91 62 92 63 93 71 94 64 95 70 96
REMARK SMILES IDX 65 97 66 98 67 99 68 100 69 101
REMARK H PARENT 13 17 12 22 90 57 60 68
REMARK Flexibility Score: inf
ROOT
ATOM      1  C   UNL A   1      44.221  22.592  34.064  1.00  0.00     0.188 C 
ENDROOT
BRANCH   1   2
ATOM      2  O   UNL A   1      44.870  23.366  33.028  1.00  0.00    -0.376 OA
BRANCH   2   3
ATOM      3  C   UNL A   1      44.265  23.724  31.766  1.00  0.00     0.202 C 
BRANCH   3   4
ATOM      4  C   UNL A   1      44.266  25.197  30.928  1.00  0.00     0.261 C 
BRANCH   4   5
ATOM      5  O   UNL A   1      43.048  26.498  30.597  1.00  0.00    -0.463 OA
BRANCH   5   6
ATOM      6  C   UNL A   1      42.835  27.712  29.812  1.00  0.00     0.310 C 
ATOM      7  O   UNL A   1      43.657  28.580  29.513  1.00  0.00    -0.252 OA
BRANCH   6   8
ATOM      8  C   UNL A   1      41.484  28.106  29.296  1.00  0.00     0.115 C 
ATOM      9  C   UNL A   1      41.028  27.017  28.244  1.00  0.00     0.098 C 
ATOM     10  C   UNL A   1      40.592  27.829  26.997  1.00  0.00     0.003 C 
ATOM     11  C   UNL A   1      41.853  28.219  26.213  1.00  0.00     0.005 C 
ATOM     12  C   UNL A   1      40.167  29.164  27.602  1.00  0.00     0.009 C 
ATOM     13  C   UNL A   1      41.495  29.370  28.341  1.00  0.00     0.004 C 
ATOM     14  C   UNL A   1      42.456  29.311  27.108  1.00  0.00     0.005 C 
BRANCH   9  15
ATOM     15  C   UNL A   1      40.007  25.962  28.573  1.00  0.00     0.242 C 
ATOM     16  N   UNL A   1      40.069  24.788  27.890  1.00  0.00    -0.267 N 
ATOM     17  H   UNL A   1      39.363  24.537  27.252  1.00  0.00     0.191 HD
ATOM     18  O   UNL A   1      39.077  26.169  29.351  1.00  0.00    -0.273 OA
BRANCH  16  19
ATOM     19  N   UNL A   1      41.161  23.944  28.117  1.00  0.00    -0.264 N 
ATOM     20  C   UNL A   1      42.307  24.120  27.395  1.00  0.00     0.279 C 
ATOM     21  O   UNL A   1      43.370  24.303  27.994  1.00  0.00    -0.269 OA
ATOM     22  H   UNL A   1      41.104  23.229  28.791  1.00  0.00     0.191 HD
BRANCH  20  23
ATOM     23  C   UNL A   1      42.269  23.766  25.892  1.00  0.00     0.260 C 
ATOM     24  C   UNL A   1      42.665  25.005  25.083  1.00  0.00     0.064 C 
BRANCH  23  25
ATOM     25  O   UNL A   1      42.638  22.518  25.344  1.00  0.00    -0.481 OA
BRANCH  25  26
ATOM     26  C   UNL A   1      43.884  22.082  25.029  1.00  0.00     0.120 A 
ATOM     27  C   UNL A   1      45.534  18.647  25.390  1.00  0.00     0.044 C 
ATOM     28  C   UNL A   1      45.320  20.101  25.089  1.00  0.00    -0.047 A 
ATOM     29  C   UNL A   1      46.398  20.878  24.665  1.00  0.00     0.003 A 
ATOM     30  C   UNL A   1      44.076  20.715  25.281  1.00  0.00     0.049 A 
ATOM     31  C   UNL A   1      46.212  22.227  24.379  1.00  0.00     0.004 A 
ATOM     32  C   UNL A   1      44.953  22.820  24.532  1.00  0.00     0.046 A 
ENDBRANCH  25  26
ENDBRANCH  23  25
ENDBRANCH  20  23
ENDBRANCH  16  19
ENDBRANCH   9  15
ENDBRANCH   6   8
ENDBRANCH   5   6
ENDBRANCH   4   5
ENDBRANCH   3   4
ENDBRANCH   2   3
ENDBRANCH   1   2
BRANCH   1  33
ATOM     33  C   UNL A   1      45.000  21.697  35.030  1.00  0.00     0.188 C 
BRANCH  33  34
ATOM     34  O   UNL A   1      46.101  21.135  34.358  1.00  0.00    -0.376 OA
BRANCH  34  35
ATOM     35  C   UNL A   1      46.506  19.848  34.762  1.00  0.00     0.202 C 
BRANCH  35  36
ATOM     36  C   UNL A   1      45.817  19.429  36.062  1.00  0.00     0.261 C 
BRANCH  36  37
ATOM     37  O   UNL A   1      46.806  19.169  37.078  1.00  0.00    -0.460 OA
BRANCH  37  38
ATOM     38  C   UNL A   1      46.462  19.613  38.335  1.00  0.00     0.338 C 
ATOM     39  O   UNL A   1      45.778  18.958  39.107  1.00  0.00    -0.246 OA
BRANCH  38  40
ATOM     40  C   UNL A   1      46.827  21.058  38.459  1.00  0.00     0.060 A 
ATOM     41  C   UNL A   1      45.993  22.064  38.956  1.00  0.00     0.016 A 
ATOM     42  C   UNL A   1      47.903  21.477  37.757  1.00  0.00     0.016 A 
ATOM     43  C   UNL A   1      46.073  23.448  38.515  1.00  0.00     0.010 A 
ATOM     44  C   UNL A   1      47.854  22.772  37.246  1.00  0.00     0.010 A 
ATOM     45  C   UNL A   1      46.909  23.863  37.467  1.00  0.00    -0.014 A 
BRANCH  45  46
ATOM     46  C   UNL A   1      46.675  25.397  36.554  1.00  0.00     0.031 A 
ATOM     47  C   UNL A   1      45.299  26.067  35.584  1.00  0.00     0.074 A 
ATOM     48  C   UNL A   1      47.786  26.122  36.269  1.00  0.00     0.049 A 
ATOM     49  N   UNL A   1      45.419  26.832  34.507  1.00  0.00    -0.248 NA
ATOM     50  C   UNL A   1      43.784  25.759  35.636  1.00  0.00     0.031 C 
ATOM     51  C   UNL A   1      47.850  27.462  35.695  1.00  0.00     0.029 A 
ATOM     52  N   UNL A   1      49.116  25.700  36.271  1.00  0.00    -0.354 N 
ATOM     53  C   UNL A   1      44.127  27.129  34.024  1.00  0.00     0.074 A 
ATOM     54  C   UNL A   1      43.267  26.145  34.501  1.00  0.00     0.031 C 
ATOM     55  C   UNL A   1      49.058  27.630  35.137  1.00  0.00     0.029 A 
ATOM     56  C   UNL A   1      49.751  26.359  35.213  1.00  0.00     0.049 A 
ATOM     57  H   UNL A   1      49.527  25.061  36.896  1.00  0.00     0.167 HD
ATOM     58  C   UNL A   1      43.747  28.304  33.453  1.00  0.00     0.031 A 
ATOM     59  C   UNL A   1      50.309  25.664  34.182  1.00  0.00     0.031 A 
ATOM     60  C   UNL A   1      44.909  28.933  32.897  1.00  0.00     0.049 A 
ATOM     61  C   UNL A   1      49.805  26.084  32.812  1.00  0.00     0.074 A 
ATOM     62  C   UNL A   1      45.753  29.972  33.220  1.00  0.00     0.029 A 
ATOM     63  N   UNL A   1      45.586  28.156  31.981  1.00  0.00    -0.354 N 
ATOM     64  N   UNL A   1      48.985  27.077  32.585  1.00  0.00    -0.248 NA
ATOM     65  C   UNL A   1      50.137  25.359  31.585  1.00  0.00     0.031 C 
ATOM     66  C   UNL A   1      46.976  29.770  32.496  1.00  0.00     0.029 A 
ATOM     67  C   UNL A   1      46.835  28.644  31.704  1.00  0.00     0.049 A 
ATOM     68  H   UNL A   1      45.213  27.341  31.572  1.00  0.00     0.167 HD
ATOM     69  C   UNL A   1      48.596  27.059  31.271  1.00  0.00     0.074 A 
ATOM     70  C   UNL A   1      49.376  25.989  30.676  1.00  0.00     0.031 C 
ATOM     71  C   UNL A   1      47.610  27.856  30.762  1.00  0.00     0.031 A 
BRANCH  58  72
ATOM     72  C   UNL A   1      42.329  28.893  33.620  1.00  0.00    -0.014 A 
ATOM     73  C   UNL A   1      41.241  28.261  32.990  1.00  0.00     0.010 A 
ATOM     74  C   UNL A   1      41.997  30.120  34.254  1.00  0.00     0.010 A 
ATOM     75  C   UNL A   1      39.959  28.859  32.914  1.00  0.00     0.020 A 
ATOM     76  C   UNL A   1      40.745  30.751  34.151  1.00  0.00     0.020 A 
ATOM     77  C   UNL A   1      39.726  30.118  33.469  1.00  0.00     0.054 A 
BRANCH  77  78
ATOM     78  S   UNL A   1      38.117  30.935  33.277  1.00  0.00     0.124 S 
ATOM     79  O   UNL A   1      37.287  29.877  32.708  1.00  0.00    -0.237 OA
ATOM     80  O   UNL A   1      37.798  31.323  34.648  1.00  0.00    -0.237 OA
ATOM     81  O   UNL A   1      38.395  32.047  32.368  1.00  0.00    -0.744 OA
ENDBRANCH  77  78
ENDBRANCH  58  72
BRANCH  59  82
ATOM     82  C   UNL A   1      50.854  24.323  34.581  1.00  0.00    -0.014 A 
ATOM     83  C   UNL A   1      50.162  23.178  34.115  1.00  0.00     0.010 A 
ATOM     84  C   UNL A   1      52.153  24.141  35.088  1.00  0.00     0.010 A 
ATOM     85  C   UNL A   1      50.779  21.923  34.057  1.00  0.00     0.020 A 
ATOM     86  C   UNL A   1      52.771  22.871  35.055  1.00  0.00     0.020 A 
ATOM     87  C   UNL A   1      52.088  21.776  34.513  1.00  0.00     0.054 A 
BRANCH  87  88
ATOM     88  S   UNL A   1      52.930  20.192  34.178  1.00  0.00     0.124 S 
ATOM     89  O   UNL A   1      53.192  20.271  32.745  1.00  0.00    -0.237 OA
ATOM     90  O   UNL A   1      54.116  20.282  35.029  1.00  0.00    -0.237 OA
ATOM     91  O   UNL A   1      51.955  19.187  34.589  1.00  0.00    -0.744 OA
ENDBRANCH  87  88
ENDBRANCH  59  82
BRANCH  71  92
ATOM     92  C   UNL A   1      47.172  27.825  29.316  1.00  0.00    -0.014 A 
ATOM     93  C   UNL A   1      46.455  26.742  28.787  1.00  0.00     0.010 A 
ATOM     94  C   UNL A   1      47.578  28.832  28.406  1.00  0.00     0.010 A 
ATOM     95  C   UNL A   1      46.108  26.702  27.428  1.00  0.00     0.020 A 
ATOM     96  C   UNL A   1      47.253  28.794  27.051  1.00  0.00     0.020 A 
ATOM     97  C   UNL A   1      46.503  27.733  26.572  1.00  0.00     0.054 A 
BRANCH  97  98
ATOM     98  S   UNL A   1      46.081  27.645  24.816  1.00  0.00     0.124 S 
ATOM     99  O   UNL A   1      46.722  28.841  24.275  1.00  0.00    -0.237 OA
ATOM    100  O   UNL A   1      46.685  26.376  24.424  1.00  0.00    -0.237 OA
ATOM    101  O   UNL A   1      44.620  27.671  24.804  1.00  0.00    -0.744 OA
ENDBRANCH  97  98
ENDBRANCH  71  92
ENDBRANCH  45  46
ENDBRANCH  38  40
ENDBRANCH  37  38
ENDBRANCH  36  37
ENDBRANCH  35  36
ENDBRANCH  34  35
ENDBRANCH  33  34
ENDBRANCH   1  33
TORSDOF 25
ENDMDL
MODEL 3
REMARK VINA RESULT:      -8.6      2.773     10.147
REMARK SMILES Cc1cccc(O[C@H](C)C(=O)NNC(=O)[C@H]2[C@@H]3CC[C@@H](C3)[C@@H]2C(=O)OCCOCCOCCOC(=O)c2ccc(-c3c4nc(c(-c5ccc(S(=O)(=O)[O-])cc5)c5ccc([nH]5)c(-c5ccc(S(=O)(=O)[O-])cc5)c5nc(c(-c6ccc(S(=O)(=O)[O-])cc6)c6ccc3[nH]6)C=C5)C=C4)cc2)c1
REMARK SMILES IDX 29 1 28 2 27 3 26 4 25 5 23 6 24 7 22 8 16 9 17 10 18 11
REMARK SMILES IDX 21 12 20 13 19 14 14 15 13 16 15 18 12 19 10 20 11 21 8 23
REMARK SMILES IDX 9 24 7 25 6 26 1 27 2 28 3 29 97 30 4 31 5 32 30 33 31 34
REMARK SMILES IDX 32 35 33 36 34 37 35 38 36 39 37 40 38 41 96 42 39 43 95 44
REMARK SMILES IDX 40 45 41 46 42 47 89 48 43 49 94 50 88 51 90 52 44 53 93 54
REMARK SMILES IDX 87 55 86 56 45 58 75 59 56 60 74 61 57 62 60 63 73 64 91 65
REMARK SMILES IDX 58 66 59 67 72 69 92 70 61 71 46 72 47 73 55 74 48 75 54 76
REMARK SMILES IDX 49 77 50 78 51 79 52 80 53 81 76 82 77 83 85 84 78 85 84 86
REMARK SMILES IDX 79 87 80 88 81 89 82 90 83 91 62 92 63 93 71 94 64 95 70 96
REMARK SMILES IDX 65 97 66 98 67 99 68 100 69 101
REMARK H PARENT 13 17 12 22 90 57 60 68
REMARK Flexibility Score: inf
ROOT
ATOM      1  C   UNL A   1      40.774  28.626  28.268  1.00  0.00     0.188 C 
ENDROOT
BRANCH   1   2
ATOM      2  O   UNL A   1      41.609  29.521  27.496  1.00  0.00    -0.376 OA
BRANCH   2   3
ATOM      3  C   UNL A   1      42.072  29.262  26.152  1.00  0.00     0.202 C 
BRANCH   3   4
ATOM      4  C   UNL A   1      42.441  27.797  25.383  1.00  0.00     0.261 C 
BRANCH   4   5
ATOM      5  O   UNL A   1      41.647  26.173  25.244  1.00  0.00    -0.463 OA
BRANCH   5   6
ATOM      6  C   UNL A   1      41.198  25.031  26.038  1.00  0.00     0.310 C 
ATOM      7  O   UNL A   1      40.172  24.929  26.713  1.00  0.00    -0.252 OA
BRANCH   6   8
ATOM      8  C   UNL A   1      42.020  23.788  26.189  1.00  0.00     0.115 C 
ATOM      9  C   UNL A   1      41.492  23.005  27.457  1.00  0.00     0.098 C 
ATOM     10  C   UNL A   1      42.762  22.698  28.292  1.00  0.00     0.003 C 
ATOM     11  C   UNL A   1      43.132  23.958  29.085  1.00  0.00     0.005 C 
ATOM     12  C   UNL A   1      43.856  22.658  27.228  1.00  0.00     0.009 C 
ATOM     13  C   UNL A   1      43.508  24.044  26.670  1.00  0.00     0.004 C 
ATOM     14  C   UNL A   1      43.688  24.873  27.984  1.00  0.00     0.005 C 
BRANCH   9  15
ATOM     15  C   UNL A   1      40.625  21.780  27.340  1.00  0.00     0.242 C 
ATOM     16  N   UNL A   1      39.320  21.959  27.002  1.00  0.00    -0.267 N 
ATOM     17  H   UNL A   1      38.601  21.772  27.648  1.00  0.00     0.191 HD
ATOM     18  O   UNL A   1      41.032  20.657  27.636  1.00  0.00    -0.273 OA
BRANCH  16  19
ATOM     19  N   UNL A   1      39.024  22.414  25.713  1.00  0.00    -0.264 N 
ATOM     20  C   UNL A   1      37.721  22.611  25.353  1.00  0.00     0.279 C 
ATOM     21  O   UNL A   1      37.376  23.721  24.938  1.00  0.00    -0.269 OA
ATOM     22  H   UNL A   1      39.749  22.591  25.071  1.00  0.00     0.191 HD
BRANCH  20  23
ATOM     23  C   UNL A   1      36.828  21.363  25.182  1.00  0.00     0.260 C 
ATOM     24  C   UNL A   1      37.719  20.162  24.847  1.00  0.00     0.064 C 
BRANCH  23  25
ATOM     25  O   UNL A   1      35.667  21.088  25.938  1.00  0.00    -0.481 OA
BRANCH  25  26
ATOM     26  C   UNL A   1      34.507  21.791  25.968  1.00  0.00     0.120 A 
ATOM     27  C   UNL A   1      31.896  22.491  23.258  1.00  0.00     0.044 C 
ATOM     28  C   UNL A   1      32.626  22.493  24.568  1.00  0.00    -0.047 A 
ATOM     29  C   UNL A   1      32.153  23.287  25.614  1.00  0.00     0.003 A 
ATOM     30  C   UNL A   1      33.808  21.763  24.752  1.00  0.00     0.049 A 
ATOM     31  C   UNL A   1      32.819  23.295  26.835  1.00  0.00     0.004 A 
ATOM     32  C   UNL A   1      33.974  22.527  27.022  1.00  0.00     0.046 A 
ENDBRANCH  25  26
ENDBRANCH  23  25
ENDBRANCH  20  23
ENDBRANCH  16  19
ENDBRANCH   9  15
ENDBRANCH   6   8
ENDBRANCH   5   6
ENDBRANCH   4   5
ENDBRANCH   3   4
ENDBRANCH   2   3
ENDBRANCH   1   2
BRANCH   1  33
ATOM     33  C   UNL A   1      40.004  29.086  29.507  1.00  0.00     0.188 C 
BRANCH  33  34
ATOM     34  O   UNL A   1      38.624  29.071  29.230  1.00  0.00    -0.376 OA
BRANCH  34  35
ATOM     35  C   UNL A   1      38.158  29.982  28.262  1.00  0.00     0.202 C 
BRANCH  35  36
ATOM     36  C   UNL A   1      37.066  30.889  28.830  1.00  0.00     0.261 C 
BRANCH  36  37
ATOM     37  O   UNL A   1      37.513  31.476  30.069  1.00  0.00    -0.460 OA
BRANCH  37  38
ATOM     38  C   UNL A   1      38.064  32.731  29.938  1.00  0.00     0.338 C 
ATOM     39  O   UNL A   1      37.691  33.536  29.099  1.00  0.00    -0.246 OA
BRANCH  38  40
ATOM     40  C   UNL A   1      39.301  32.811  30.775  1.00  0.00     0.060 A 
ATOM     41  C   UNL A   1      40.492  33.440  30.402  1.00  0.00     0.016 A 
ATOM     42  C   UNL A   1      39.387  31.954  31.818  1.00  0.00     0.016 A 
ATOM     43  C   UNL A   1      41.798  33.004  30.873  1.00  0.00     0.010 A 
ATOM     44  C   UNL A   1      40.656  31.469  32.128  1.00  0.00     0.010 A 
ATOM     45  C   UNL A   1      41.980  31.844  31.640  1.00  0.00    -0.014 A 
BRANCH  45  46
ATOM     46  C   UNL A   1      43.558  30.993  31.801  1.00  0.00     0.031 A 
ATOM     47  C   UNL A   1      44.346  29.654  30.869  1.00  0.00     0.074 A 
ATOM     48  C   UNL A   1      44.223  31.140  32.974  1.00  0.00     0.049 A 
ATOM     49  N   UNL A   1      45.142  28.725  31.383  1.00  0.00    -0.248 NA
ATOM     50  C   UNL A   1      44.130  29.174  29.414  1.00  0.00     0.031 C 
ATOM     51  C   UNL A   1      45.577  30.698  33.290  1.00  0.00     0.029 A 
ATOM     52  N   UNL A   1      43.721  31.568  34.203  1.00  0.00    -0.354 N 
ATOM     53  C   UNL A   1      45.536  27.852  30.347  1.00  0.00     0.074 A 
ATOM     54  C   UNL A   1      44.589  27.954  29.332  1.00  0.00     0.031 C 
ATOM     55  C   UNL A   1      45.692  30.590  34.622  1.00  0.00     0.029 A 
ATOM     56  C   UNL A   1      44.378  30.825  35.189  1.00  0.00     0.049 A 
ATOM     57  H   UNL A   1      43.035  32.259  34.348  1.00  0.00     0.167 HD
ATOM     58  C   UNL A   1      46.751  27.252  30.238  1.00  0.00     0.031 A 
ATOM     59  C   UNL A   1      43.689  30.007  36.033  1.00  0.00     0.031 A 
ATOM     60  C   UNL A   1      47.328  27.156  31.547  1.00  0.00     0.049 A 
ATOM     61  C   UNL A   1      44.189  28.573  36.044  1.00  0.00     0.074 A 
ATOM     62  C   UNL A   1      48.301  27.803  32.276  1.00  0.00     0.029 A 
ATOM     63  N   UNL A   1      46.545  26.482  32.459  1.00  0.00    -0.354 N 
ATOM     64  N   UNL A   1      45.238  28.137  35.397  1.00  0.00    -0.248 NA
ATOM     65  C   UNL A   1      43.491  27.492  36.742  1.00  0.00     0.031 C 
ATOM     66  C   UNL A   1      48.051  27.524  33.662  1.00  0.00     0.029 A 
ATOM     67  C   UNL A   1      46.965  26.670  33.748  1.00  0.00     0.049 A 
ATOM     68  H   UNL A   1      45.771  25.926  32.211  1.00  0.00     0.167 HD
ATOM     69  C   UNL A   1      45.293  26.770  35.478  1.00  0.00     0.074 A 
ATOM     70  C   UNL A   1      44.199  26.415  36.365  1.00  0.00     0.031 C 
ATOM     71  C   UNL A   1      46.167  26.003  34.761  1.00  0.00     0.031 A 
BRANCH  58  72
ATOM     72  C   UNL A   1      47.420  26.962  28.876  1.00  0.00    -0.014 A 
ATOM     73  C   UNL A   1      48.064  28.005  28.187  1.00  0.00     0.010 A 
ATOM     74  C   UNL A   1      47.348  25.745  28.145  1.00  0.00     0.010 A 
ATOM     75  C   UNL A   1      48.503  27.870  26.847  1.00  0.00     0.020 A 
ATOM     76  C   UNL A   1      47.735  25.604  26.801  1.00  0.00     0.020 A 
ATOM     77  C   UNL A   1      48.306  26.678  26.149  1.00  0.00     0.054 A 
BRANCH  77  78
ATOM     78  S   UNL A   1      48.766  26.538  24.399  1.00  0.00     0.124 S 
ATOM     79  O   UNL A   1      48.324  27.817  23.849  1.00  0.00    -0.237 OA
ATOM     80  O   UNL A   1      50.211  26.344  24.470  1.00  0.00    -0.237 OA
ATOM     81  O   UNL A   1      48.008  25.377  23.930  1.00  0.00    -0.744 OA
ENDBRANCH  77  78
ENDBRANCH  58  72
BRANCH  59  82
ATOM     82  C   UNL A   1      42.303  30.491  36.349  1.00  0.00    -0.014 A 
ATOM     83  C   UNL A   1      42.191  31.677  37.116  1.00  0.00     0.010 A 
ATOM     84  C   UNL A   1      41.157  30.041  35.669  1.00  0.00     0.010 A 
ATOM     85  C   UNL A   1      41.018  32.440  37.118  1.00  0.00     0.020 A 
ATOM     86  C   UNL A   1      39.962  30.795  35.688  1.00  0.00     0.020 A 
ATOM     87  C   UNL A   1      39.911  32.005  36.391  1.00  0.00     0.054 A 
BRANCH  87  88
ATOM     88  S   UNL A   1      38.506  33.155  36.216  1.00  0.00     0.124 S 
ATOM     89  O   UNL A   1      38.787  34.154  37.242  1.00  0.00    -0.237 OA
ATOM     90  O   UNL A   1      38.656  33.625  34.839  1.00  0.00    -0.237 OA
ATOM     91  O   UNL A   1      37.337  32.315  36.453  1.00  0.00    -0.744 OA
ENDBRANCH  87  88
ENDBRANCH  59  82
BRANCH  71  92
ATOM     92  C   UNL A   1      46.216  24.495  34.840  1.00  0.00    -0.014 A 
ATOM     93  C   UNL A   1      45.381  23.688  34.054  1.00  0.00     0.010 A 
ATOM     94  C   UNL A   1      47.019  23.838  35.805  1.00  0.00     0.010 A 
ATOM     95  C   UNL A   1      45.397  22.292  34.184  1.00  0.00     0.020 A 
ATOM     96  C   UNL A   1      47.032  22.452  35.953  1.00  0.00     0.020 A 
ATOM     97  C   UNL A   1      46.229  21.683  35.127  1.00  0.00     0.054 A 
BRANCH  97  98
ATOM     98  S   UNL A   1      46.208  19.885  35.307  1.00  0.00     0.124 S 
ATOM     99  O   UNL A   1      46.601  19.700  36.703  1.00  0.00    -0.237 OA
ATOM    100  O   UNL A   1      44.817  19.567  34.998  1.00  0.00    -0.237 OA
ATOM    101  O   UNL A   1      47.187  19.422  34.326  1.00  0.00    -0.744 OA
ENDBRANCH  97  98
ENDBRANCH  71  92
ENDBRANCH  45  46
ENDBRANCH  38  40
ENDBRANCH  37  38
ENDBRANCH  36  37
ENDBRANCH  35  36
ENDBRANCH  34  35
ENDBRANCH  33  34
ENDBRANCH   1  33
TORSDOF 25
ENDMDL
