MODEL 1
REMARK VINA RESULT:      -9.3      0.000      0.000
REMARK SMILES CS(=O)(=O)c1ccc(-c2cc(Cl)cnc2-c2ccc(C(=O)OCCOCCOCCOC(=O)c3ccc(-c4c5nc(c(-c6ccc(S(=O)(=O)[O-])cc6)c6ccc([nH]6)c(-c6ccc(S(=O)(=O)[O-])cc6)c6nc(c(-c7ccc(S(=O)(=O)[O-])cc7)c7ccc4[nH]7)C=C6)C=C5)cc3)nc2)cc1
REMARK SMILES IDX 26 1 25 2 24 3 23 4 22 5 20 6 21 7 19 8 16 9 17 10 95 11
REMARK SMILES IDX 18 12 94 13 15 14 9 15 10 16 11 17 14 18 12 19 13 20 8 21
REMARK SMILES IDX 5 22 6 23 97 24 7 25 96 26 2 27 1 28 3 29 4 30 27 31 28 32
REMARK SMILES IDX 29 33 30 34 31 35 32 36 33 37 34 38 35 39 93 40 36 41 92 42
REMARK SMILES IDX 37 43 38 44 39 45 86 46 40 47 91 48 85 49 87 50 41 51 90 52
REMARK SMILES IDX 84 53 83 54 42 56 72 57 53 58 71 59 54 60 57 61 70 62 88 63
REMARK SMILES IDX 55 64 56 65 69 67 89 68 58 69 43 70 44 71 52 72 45 73 51 74
REMARK SMILES IDX 46 75 47 76 48 77 49 78 50 79 73 80 74 81 82 82 75 83 81 84
REMARK SMILES IDX 76 85 77 86 78 87 79 88 80 89 59 90 60 91 68 92 61 93 67 94
REMARK SMILES IDX 62 95 63 96 64 97 65 98 66 99
REMARK H PARENT 87 55 57 66
REMARK Flexibility Score: inf
ROOT
ATOM      1  C   UNL A   1      31.967  29.007  25.814  1.00  0.00     0.188 C 
ENDROOT
BRANCH   1   2
ATOM      2  O   UNL A   1      32.312  29.349  24.485  1.00  0.00    -0.376 OA
BRANCH   2   3
ATOM      3  C   UNL A   1      31.925  28.515  23.404  1.00  0.00     0.202 C 
BRANCH   3   4
ATOM      4  C   UNL A   1      32.861  27.462  22.800  1.00  0.00     0.261 C 
BRANCH   4   5
ATOM      5  O   UNL A   1      32.181  26.391  22.136  1.00  0.00    -0.459 OA
BRANCH   5   6
ATOM      6  C   UNL A   1      31.681  25.436  22.966  1.00  0.00     0.356 C 
ATOM      7  O   UNL A   1      30.501  25.207  23.181  1.00  0.00    -0.244 OA
BRANCH   6   8
ATOM      8  C   UNL A   1      32.793  24.592  23.475  1.00  0.00     0.148 A 
ATOM      9  C   UNL A   1      34.967  23.321  24.553  1.00  0.00     0.019 A 
ATOM     10  C   UNL A   1      34.791  23.337  23.160  1.00  0.00     0.014 A 
ATOM     11  C   UNL A   1      33.933  23.828  25.334  1.00  0.00     0.122 A 
ATOM     12  C   UNL A   1      33.693  23.992  22.605  1.00  0.00     0.037 A 
ATOM     13  N   UNL A   1      32.859  24.471  24.828  1.00  0.00    -0.249 NA
BRANCH   9  14
ATOM     14  C   UNL A   1      36.286  23.077  25.146  1.00  0.00     0.080 A 
ATOM     15  C   UNL A   1      36.753  21.750  25.333  1.00  0.00     0.010 A 
ATOM     16  C   UNL A   1      38.001  21.585  25.941  1.00  0.00     0.033 A 
ATOM     17  C   UNL A   1      38.741  22.705  26.303  1.00  0.00     0.060 A 
ATOM     18  N   UNL A   1      37.002  24.179  25.483  1.00  0.00    -0.254 NA
ATOM     19  Cl  UNL A   1      40.271  22.525  27.063  1.00  0.00    -0.083 Cl
ATOM     20  C   UNL A   1      38.216  23.964  26.048  1.00  0.00     0.132 A 
BRANCH  15  21
ATOM     21  C   UNL A   1      35.941  20.588  24.921  1.00  0.00    -0.016 A 
ATOM     22  C   UNL A   1      34.363  18.288  24.605  1.00  0.00     0.067 A 
ATOM     23  C   UNL A   1      33.744  19.528  24.754  1.00  0.00     0.021 A 
ATOM     24  C   UNL A   1      35.756  18.186  24.576  1.00  0.00     0.021 A 
ATOM     25  C   UNL A   1      34.534  20.672  24.882  1.00  0.00     0.010 A 
ATOM     26  C   UNL A   1      36.540  19.333  24.728  1.00  0.00     0.010 A 
BRANCH  22  27
ATOM     27  S   UNL A   1      33.381  16.810  24.538  1.00  0.00     0.175 S 
ATOM     28  C   UNL A   1      34.436  15.596  25.282  1.00  0.00     0.163 C 
ATOM     29  O   UNL A   1      33.196  16.451  23.147  1.00  0.00    -0.224 OA
ATOM     30  O   UNL A   1      32.240  17.011  25.411  1.00  0.00    -0.224 OA
ENDBRANCH  22  27
ENDBRANCH  15  21
ENDBRANCH   9  14
ENDBRANCH   6   8
ENDBRANCH   5   6
ENDBRANCH   4   5
ENDBRANCH   3   4
ENDBRANCH   2   3
ENDBRANCH   1   2
BRANCH   1  31
ATOM     31  C   UNL A   1      31.859  30.109  26.888  1.00  0.00     0.188 C 
BRANCH  31  32
ATOM     32  O   UNL A   1      32.330  31.412  26.618  1.00  0.00    -0.376 OA
BRANCH  32  33
ATOM     33  C   UNL A   1      32.891  32.200  27.652  1.00  0.00     0.202 C 
BRANCH  33  34
ATOM     34  C   UNL A   1      34.222  31.914  28.371  1.00  0.00     0.261 C 
BRANCH  34  35
ATOM     35  O   UNL A   1      35.270  31.309  27.613  1.00  0.00    -0.460 OA
BRANCH  35  36
ATOM     36  C   UNL A   1      35.535  30.017  27.932  1.00  0.00     0.338 C 
ATOM     37  O   UNL A   1      34.972  29.022  27.512  1.00  0.00    -0.246 OA
BRANCH  36  38
ATOM     38  C   UNL A   1      36.753  29.970  28.761  1.00  0.00     0.060 A 
ATOM     39  C   UNL A   1      37.877  30.696  28.347  1.00  0.00     0.016 A 
ATOM     40  C   UNL A   1      36.796  29.179  29.910  1.00  0.00     0.016 A 
ATOM     41  C   UNL A   1      39.063  30.617  29.076  1.00  0.00     0.010 A 
ATOM     42  C   UNL A   1      37.993  29.085  30.625  1.00  0.00     0.010 A 
ATOM     43  C   UNL A   1      39.138  29.781  30.198  1.00  0.00    -0.014 A 
BRANCH  43  44
ATOM     44  C   UNL A   1      40.451  29.502  30.825  1.00  0.00     0.031 A 
ATOM     45  C   UNL A   1      41.328  28.441  30.215  1.00  0.00     0.074 A 
ATOM     46  C   UNL A   1      40.866  30.184  31.909  1.00  0.00     0.049 A 
ATOM     47  N   UNL A   1      42.475  27.974  30.631  1.00  0.00    -0.248 NA
ATOM     48  C   UNL A   1      40.845  27.827  28.965  1.00  0.00     0.031 C 
ATOM     49  C   UNL A   1      40.134  31.269  32.561  1.00  0.00     0.029 A 
ATOM     50  N   UNL A   1      42.010  30.052  32.658  1.00  0.00    -0.354 N 
ATOM     51  C   UNL A   1      42.853  27.016  29.698  1.00  0.00     0.074 A 
ATOM     52  C   UNL A   1      41.799  26.944  28.710  1.00  0.00     0.031 C 
ATOM     53  C   UNL A   1      40.839  31.691  33.627  1.00  0.00     0.029 A 
ATOM     54  C   UNL A   1      42.051  30.885  33.751  1.00  0.00     0.049 A 
ATOM     55  H   UNL A   1      42.732  29.422  32.432  1.00  0.00     0.167 HD
ATOM     56  C   UNL A   1      43.983  26.272  29.659  1.00  0.00     0.031 A 
ATOM     57  C   UNL A   1      42.952  30.965  34.752  1.00  0.00     0.031 A 
ATOM     58  C   UNL A   1      45.022  26.328  30.653  1.00  0.00     0.049 A 
ATOM     59  C   UNL A   1      44.154  30.051  34.738  1.00  0.00     0.074 A 
ATOM     60  C   UNL A   1      46.195  25.596  30.712  1.00  0.00     0.029 A 
ATOM     61  N   UNL A   1      45.013  27.162  31.759  1.00  0.00    -0.354 N 
ATOM     62  N   UNL A   1      44.501  29.154  33.845  1.00  0.00    -0.248 NA
ATOM     63  C   UNL A   1      45.091  30.167  35.865  1.00  0.00     0.031 C 
ATOM     64  C   UNL A   1      46.875  25.955  31.879  1.00  0.00     0.029 A 
ATOM     65  C   UNL A   1      46.155  26.955  32.515  1.00  0.00     0.049 A 
ATOM     66  H   UNL A   1      44.302  27.807  31.976  1.00  0.00     0.167 HD
ATOM     67  C   UNL A   1      45.713  28.628  34.286  1.00  0.00     0.074 A 
ATOM     68  C   UNL A   1      46.046  29.316  35.516  1.00  0.00     0.031 C 
ATOM     69  C   UNL A   1      46.481  27.661  33.726  1.00  0.00     0.031 A 
BRANCH  56  70
ATOM     70  C   UNL A   1      44.152  25.318  28.508  1.00  0.00    -0.014 A 
ATOM     71  C   UNL A   1      44.686  25.757  27.284  1.00  0.00     0.010 A 
ATOM     72  C   UNL A   1      43.838  23.956  28.672  1.00  0.00     0.010 A 
ATOM     73  C   UNL A   1      44.888  24.854  26.237  1.00  0.00     0.020 A 
ATOM     74  C   UNL A   1      44.062  23.045  27.635  1.00  0.00     0.020 A 
ATOM     75  C   UNL A   1      44.577  23.502  26.421  1.00  0.00     0.054 A 
BRANCH  75  76
ATOM     76  S   UNL A   1      44.904  22.346  25.063  1.00  0.00     0.124 S 
ATOM     77  O   UNL A   1      45.106  23.253  23.935  1.00  0.00    -0.237 OA
ATOM     78  O   UNL A   1      46.098  21.641  25.522  1.00  0.00    -0.237 OA
ATOM     79  O   UNL A   1      43.692  21.533  24.998  1.00  0.00    -0.744 OA
ENDBRANCH  75  76
ENDBRANCH  56  70
BRANCH  57  80
ATOM     80  C   UNL A   1      42.744  31.911  35.885  1.00  0.00    -0.014 A 
ATOM     81  C   UNL A   1      43.184  33.244  35.802  1.00  0.00     0.010 A 
ATOM     82  C   UNL A   1      42.154  31.461  37.081  1.00  0.00     0.010 A 
ATOM     83  C   UNL A   1      43.084  34.094  36.909  1.00  0.00     0.020 A 
ATOM     84  C   UNL A   1      42.022  32.317  38.178  1.00  0.00     0.020 A 
ATOM     85  C   UNL A   1      42.510  33.622  38.092  1.00  0.00     0.054 A 
BRANCH  85  86
ATOM     86  S   UNL A   1      42.395  34.738  39.518  1.00  0.00     0.124 S 
ATOM     87  O   UNL A   1      43.657  34.479  40.207  1.00  0.00    -0.237 OA
ATOM     88  O   UNL A   1      42.278  36.050  38.886  1.00  0.00    -0.237 OA
ATOM     89  O   UNL A   1      41.196  34.281  40.216  1.00  0.00    -0.744 OA
ENDBRANCH  85  86
ENDBRANCH  57  80
BRANCH  69  90
ATOM     90  C   UNL A   1      47.787  27.327  34.400  1.00  0.00    -0.014 A 
ATOM     91  C   UNL A   1      47.859  26.364  35.422  1.00  0.00     0.010 A 
ATOM     92  C   UNL A   1      48.971  27.944  33.956  1.00  0.00     0.010 A 
ATOM     93  C   UNL A   1      49.088  26.051  36.011  1.00  0.00     0.020 A 
ATOM     94  C   UNL A   1      50.204  27.612  34.522  1.00  0.00     0.020 A 
ATOM     95  C   UNL A   1      50.253  26.677  35.557  1.00  0.00     0.054 A 
BRANCH  95  96
ATOM     96  S   UNL A   1      51.841  26.221  36.307  1.00  0.00     0.124 S 
ATOM     97  O   UNL A   1      52.792  26.619  35.272  1.00  0.00    -0.237 OA
ATOM     98  O   UNL A   1      51.864  27.028  37.525  1.00  0.00    -0.237 OA
ATOM     99  O   UNL A   1      51.722  24.781  36.524  1.00  0.00    -0.744 OA
ENDBRANCH  95  96
ENDBRANCH  69  90
ENDBRANCH  43  44
ENDBRANCH  36  38
ENDBRANCH  35  36
ENDBRANCH  34  35
ENDBRANCH  33  34
ENDBRANCH  32  33
ENDBRANCH  31  32
ENDBRANCH   1  31
TORSDOF 23
ENDMDL
MODEL 2
REMARK VINA RESULT:      -9.1      2.977      4.190
REMARK SMILES CS(=O)(=O)c1ccc(-c2cc(Cl)cnc2-c2ccc(C(=O)OCCOCCOCCOC(=O)c3ccc(-c4c5nc(c(-c6ccc(S(=O)(=O)[O-])cc6)c6ccc([nH]6)c(-c6ccc(S(=O)(=O)[O-])cc6)c6nc(c(-c7ccc(S(=O)(=O)[O-])cc7)c7ccc4[nH]7)C=C6)C=C5)cc3)nc2)cc1
REMARK SMILES IDX 26 1 25 2 24 3 23 4 22 5 20 6 21 7 19 8 16 9 17 10 95 11
REMARK SMILES IDX 18 12 94 13 15 14 9 15 10 16 11 17 14 18 12 19 13 20 8 21
REMARK SMILES IDX 5 22 6 23 97 24 7 25 96 26 2 27 1 28 3 29 4 30 27 31 28 32
REMARK SMILES IDX 29 33 30 34 31 35 32 36 33 37 34 38 35 39 93 40 36 41 92 42
REMARK SMILES IDX 37 43 38 44 39 45 86 46 40 47 91 48 85 49 87 50 41 51 90 52
REMARK SMILES IDX 84 53 83 54 42 56 72 57 53 58 71 59 54 60 57 61 70 62 88 63
REMARK SMILES IDX 55 64 56 65 69 67 89 68 58 69 43 70 44 71 52 72 45 73 51 74
REMARK SMILES IDX 46 75 47 76 48 77 49 78 50 79 73 80 74 81 82 82 75 83 81 84
REMARK SMILES IDX 76 85 77 86 78 87 79 88 80 89 59 90 60 91 68 92 61 93 67 94
REMARK SMILES IDX 62 95 63 96 64 97 65 98 66 99
REMARK H PARENT 87 55 57 66
REMARK Flexibility Score: inf
ROOT
ATOM      1  C   UNL A   1      32.818  27.995  25.697  1.00  0.00     0.188 C 
ENDROOT
BRANCH   1   2
ATOM      2  O   UNL A   1      31.427  28.220  25.565  1.00  0.00    -0.376 OA
BRANCH   2   3
ATOM      3  C   UNL A   1      30.794  28.095  24.301  1.00  0.00     0.202 C 
BRANCH   3   4
ATOM      4  C   UNL A   1      31.576  28.116  22.983  1.00  0.00     0.261 C 
BRANCH   4   5
ATOM      5  O   UNL A   1      31.738  26.827  22.381  1.00  0.00    -0.459 OA
BRANCH   5   6
ATOM      6  C   UNL A   1      33.031  26.441  22.210  1.00  0.00     0.356 C 
ATOM      7  O   UNL A   1      33.922  27.098  21.696  1.00  0.00    -0.244 OA
BRANCH   6   8
ATOM      8  C   UNL A   1      33.250  25.135  22.883  1.00  0.00     0.148 A 
ATOM      9  C   UNL A   1      33.571  22.583  23.828  1.00  0.00     0.019 A 
ATOM     10  C   UNL A   1      32.608  23.424  24.409  1.00  0.00     0.014 A 
ATOM     11  C   UNL A   1      34.430  23.147  22.890  1.00  0.00     0.122 A 
ATOM     12  C   UNL A   1      32.433  24.719  23.925  1.00  0.00     0.037 A 
ATOM     13  N   UNL A   1      34.285  24.397  22.398  1.00  0.00    -0.249 NA
BRANCH   9  14
ATOM     14  C   UNL A   1      33.482  21.126  23.961  1.00  0.00     0.080 A 
ATOM     15  C   UNL A   1      34.469  20.411  24.689  1.00  0.00     0.010 A 
ATOM     16  C   UNL A   1      34.349  19.019  24.743  1.00  0.00     0.033 A 
ATOM     17  C   UNL A   1      33.269  18.399  24.124  1.00  0.00     0.060 A 
ATOM     18  N   UNL A   1      32.417  20.536  23.364  1.00  0.00    -0.254 NA
ATOM     19  Cl  UNL A   1      33.109  16.690  24.169  1.00  0.00    -0.083 Cl
ATOM     20  C   UNL A   1      32.334  19.186  23.466  1.00  0.00     0.132 A 
BRANCH  15  21
ATOM     21  C   UNL A   1      35.593  21.110  25.343  1.00  0.00    -0.016 A 
ATOM     22  C   UNL A   1      37.690  22.753  26.229  1.00  0.00     0.067 A 
ATOM     23  C   UNL A   1      36.390  23.007  26.663  1.00  0.00     0.021 A 
ATOM     24  C   UNL A   1      37.961  21.670  25.388  1.00  0.00     0.021 A 
ATOM     25  C   UNL A   1      35.355  22.169  26.242  1.00  0.00     0.010 A 
ATOM     26  C   UNL A   1      36.917  20.850  24.953  1.00  0.00     0.010 A 
BRANCH  22  27
ATOM     27  S   UNL A   1      39.005  23.860  26.672  1.00  0.00     0.175 S 
ATOM     28  C   UNL A   1      40.389  22.773  26.882  1.00  0.00     0.163 C 
ATOM     29  O   UNL A   1      38.693  24.442  27.961  1.00  0.00    -0.224 OA
ATOM     30  O   UNL A   1      39.265  24.703  25.520  1.00  0.00    -0.224 OA
ENDBRANCH  22  27
ENDBRANCH  15  21
ENDBRANCH   9  14
ENDBRANCH   6   8
ENDBRANCH   5   6
ENDBRANCH   4   5
ENDBRANCH   3   4
ENDBRANCH   2   3
ENDBRANCH   1   2
BRANCH   1  31
ATOM     31  C   UNL A   1      33.545  28.411  26.992  1.00  0.00     0.188 C 
BRANCH  31  32
ATOM     32  O   UNL A   1      34.095  29.706  27.112  1.00  0.00    -0.376 OA
BRANCH  32  33
ATOM     33  C   UNL A   1      33.254  30.846  27.089  1.00  0.00     0.202 C 
BRANCH  33  34
ATOM     34  C   UNL A   1      33.615  32.234  27.647  1.00  0.00     0.261 C 
BRANCH  34  35
ATOM     35  O   UNL A   1      33.942  32.328  29.033  1.00  0.00    -0.460 OA
BRANCH  35  36
ATOM     36  C   UNL A   1      34.490  33.510  29.414  1.00  0.00     0.338 C 
ATOM     37  O   UNL A   1      34.058  34.628  29.196  1.00  0.00    -0.246 OA
BRANCH  36  38
ATOM     38  C   UNL A   1      35.634  33.242  30.303  1.00  0.00     0.060 A 
ATOM     39  C   UNL A   1      36.863  33.852  30.019  1.00  0.00     0.016 A 
ATOM     40  C   UNL A   1      35.505  32.362  31.377  1.00  0.00     0.016 A 
ATOM     41  C   UNL A   1      37.980  33.565  30.804  1.00  0.00     0.010 A 
ATOM     42  C   UNL A   1      36.631  32.059  32.148  1.00  0.00     0.010 A 
ATOM     43  C   UNL A   1      37.878  32.638  31.849  1.00  0.00    -0.014 A 
BRANCH  43  44
ATOM     44  C   UNL A   1      39.102  32.145  32.523  1.00  0.00     0.031 A 
ATOM     45  C   UNL A   1      39.962  31.140  31.804  1.00  0.00     0.074 A 
ATOM     46  C   UNL A   1      39.455  32.588  33.743  1.00  0.00     0.049 A 
ATOM     47  N   UNL A   1      41.030  30.514  32.222  1.00  0.00    -0.248 NA
ATOM     48  C   UNL A   1      39.564  30.798  30.427  1.00  0.00     0.031 C 
ATOM     49  C   UNL A   1      38.736  33.598  34.520  1.00  0.00     0.029 A 
ATOM     50  N   UNL A   1      40.509  32.233  34.548  1.00  0.00    -0.354 N 
ATOM     51  C   UNL A   1      41.433  29.708  31.164  1.00  0.00     0.074 A 
ATOM     52  C   UNL A   1      40.478  29.899  30.095  1.00  0.00     0.031 C 
ATOM     53  C   UNL A   1      39.360  33.766  35.700  1.00  0.00     0.029 A 
ATOM     54  C   UNL A   1      40.499  32.854  35.775  1.00  0.00     0.049 A 
ATOM     55  H   UNL A   1      41.207  31.595  34.272  1.00  0.00     0.167 HD
ATOM     56  C   UNL A   1      42.510  28.892  31.083  1.00  0.00     0.031 A 
ATOM     57  C   UNL A   1      41.302  32.681  36.845  1.00  0.00     0.031 A 
ATOM     58  C   UNL A   1      43.449  28.686  32.154  1.00  0.00     0.049 A 
ATOM     59  C   UNL A   1      42.437  31.688  36.765  1.00  0.00     0.074 A 
ATOM     60  C   UNL A   1      44.560  27.861  32.176  1.00  0.00     0.029 A 
ATOM     61  N   UNL A   1      43.389  29.310  33.390  1.00  0.00    -0.354 N 
ATOM     62  N   UNL A   1      42.809  30.938  35.755  1.00  0.00    -0.248 NA
ATOM     63  C   UNL A   1      43.265  31.526  37.969  1.00  0.00     0.031 C 
ATOM     64  C   UNL A   1      45.146  27.951  33.442  1.00  0.00     0.029 A 
ATOM     65  C   UNL A   1      44.435  28.879  34.187  1.00  0.00     0.049 A 
ATOM     66  H   UNL A   1      42.703  29.962  33.661  1.00  0.00     0.167 HD
ATOM     67  C   UNL A   1      43.935  30.244  36.192  1.00  0.00     0.074 A 
ATOM     68  C   UNL A   1      44.191  30.675  37.550  1.00  0.00     0.031 C 
ATOM     69  C   UNL A   1      44.688  29.331  35.530  1.00  0.00     0.031 A 
BRANCH  56  70
ATOM     70  C   UNL A   1      42.727  28.146  29.795  1.00  0.00    -0.014 A 
ATOM     71  C   UNL A   1      41.889  27.077  29.433  1.00  0.00     0.010 A 
ATOM     72  C   UNL A   1      43.737  28.559  28.906  1.00  0.00     0.010 A 
ATOM     73  C   UNL A   1      42.066  26.423  28.211  1.00  0.00     0.020 A 
ATOM     74  C   UNL A   1      43.901  27.922  27.672  1.00  0.00     0.020 A 
ATOM     75  C   UNL A   1      43.070  26.853  27.336  1.00  0.00     0.054 A 
BRANCH  75  76
ATOM     76  S   UNL A   1      43.238  26.021  25.734  1.00  0.00     0.124 S 
ATOM     77  O   UNL A   1      41.955  26.320  25.102  1.00  0.00    -0.237 OA
ATOM     78  O   UNL A   1      44.397  26.688  25.147  1.00  0.00    -0.237 OA
ATOM     79  O   UNL A   1      43.444  24.619  26.089  1.00  0.00    -0.744 OA
ENDBRANCH  75  76
ENDBRANCH  56  70
BRANCH  57  80
ATOM     80  C   UNL A   1      41.047  33.426  38.111  1.00  0.00    -0.014 A 
ATOM     81  C   UNL A   1      40.132  32.942  39.063  1.00  0.00     0.010 A 
ATOM     82  C   UNL A   1      41.680  34.663  38.343  1.00  0.00     0.010 A 
ATOM     83  C   UNL A   1      39.818  33.700  40.195  1.00  0.00     0.020 A 
ATOM     84  C   UNL A   1      41.393  35.408  39.489  1.00  0.00     0.020 A 
ATOM     85  C   UNL A   1      40.445  34.932  40.397  1.00  0.00     0.054 A 
BRANCH  85  86
ATOM     86  S   UNL A   1      40.019  35.904  41.869  1.00  0.00     0.124 S 
ATOM     87  O   UNL A   1      38.683  36.390  41.533  1.00  0.00    -0.237 OA
ATOM     88  O   UNL A   1      40.079  34.907  42.936  1.00  0.00    -0.237 OA
ATOM     89  O   UNL A   1      41.062  36.925  41.920  1.00  0.00    -0.744 OA
ENDBRANCH  85  86
ENDBRANCH  57  80
BRANCH  69  90
ATOM     90  C   UNL A   1      45.897  28.776  36.238  1.00  0.00    -0.014 A 
ATOM     91  C   UNL A   1      47.183  29.296  36.011  1.00  0.00     0.010 A 
ATOM     92  C   UNL A   1      45.729  27.757  37.195  1.00  0.00     0.010 A 
ATOM     93  C   UNL A   1      48.284  28.783  36.704  1.00  0.00     0.020 A 
ATOM     94  C   UNL A   1      46.823  27.262  37.909  1.00  0.00     0.020 A 
ATOM     95  C   UNL A   1      48.097  27.769  37.649  1.00  0.00     0.054 A 
BRANCH  95  96
ATOM     96  S   UNL A   1      49.535  27.151  38.566  1.00  0.00     0.124 S 
ATOM     97  O   UNL A   1      50.599  27.257  37.572  1.00  0.00    -0.237 OA
ATOM     98  O   UNL A   1      49.626  28.085  39.687  1.00  0.00    -0.237 OA
ATOM     99  O   UNL A   1      49.155  25.788  38.929  1.00  0.00    -0.744 OA
ENDBRANCH  95  96
ENDBRANCH  69  90
ENDBRANCH  43  44
ENDBRANCH  36  38
ENDBRANCH  35  36
ENDBRANCH  34  35
ENDBRANCH  33  34
ENDBRANCH  32  33
ENDBRANCH  31  32
ENDBRANCH   1  31
TORSDOF 23
ENDMDL
MODEL 3
REMARK VINA RESULT:      -9.0      5.617      7.385
REMARK SMILES CS(=O)(=O)c1ccc(-c2cc(Cl)cnc2-c2ccc(C(=O)OCCOCCOCCOC(=O)c3ccc(-c4c5nc(c(-c6ccc(S(=O)(=O)[O-])cc6)c6ccc([nH]6)c(-c6ccc(S(=O)(=O)[O-])cc6)c6nc(c(-c7ccc(S(=O)(=O)[O-])cc7)c7ccc4[nH]7)C=C6)C=C5)cc3)nc2)cc1
REMARK SMILES IDX 26 1 25 2 24 3 23 4 22 5 20 6 21 7 19 8 16 9 17 10 95 11
REMARK SMILES IDX 18 12 94 13 15 14 9 15 10 16 11 17 14 18 12 19 13 20 8 21
REMARK SMILES IDX 5 22 6 23 97 24 7 25 96 26 2 27 1 28 3 29 4 30 27 31 28 32
REMARK SMILES IDX 29 33 30 34 31 35 32 36 33 37 34 38 35 39 93 40 36 41 92 42
REMARK SMILES IDX 37 43 38 44 39 45 86 46 40 47 91 48 85 49 87 50 41 51 90 52
REMARK SMILES IDX 84 53 83 54 42 56 72 57 53 58 71 59 54 60 57 61 70 62 88 63
REMARK SMILES IDX 55 64 56 65 69 67 89 68 58 69 43 70 44 71 52 72 45 73 51 74
REMARK SMILES IDX 46 75 47 76 48 77 49 78 50 79 73 80 74 81 82 82 75 83 81 84
REMARK SMILES IDX 76 85 77 86 78 87 79 88 80 89 59 90 60 91 68 92 61 93 67 94
REMARK SMILES IDX 62 95 63 96 64 97 65 98 66 99
REMARK H PARENT 87 55 57 66
REMARK Flexibility Score: inf
ROOT
ATOM      1  C   UNL A   1      33.284  28.071  25.754  1.00  0.00     0.188 C 
ENDROOT
BRANCH   1   2
ATOM      2  O   UNL A   1      31.877  28.169  25.863  1.00  0.00    -0.376 OA
BRANCH   2   3
ATOM      3  C   UNL A   1      31.049  27.927  24.735  1.00  0.00     0.202 C 
BRANCH   3   4
ATOM      4  C   UNL A   1      31.542  28.116  23.296  1.00  0.00     0.261 C 
BRANCH   4   5
ATOM      5  O   UNL A   1      31.670  26.895  22.560  1.00  0.00    -0.459 OA
BRANCH   5   6
ATOM      6  C   UNL A   1      32.952  26.517  22.308  1.00  0.00     0.356 C 
ATOM      7  O   UNL A   1      33.811  27.188  21.758  1.00  0.00    -0.244 OA
BRANCH   6   8
ATOM      8  C   UNL A   1      33.212  25.198  22.941  1.00  0.00     0.148 A 
ATOM      9  C   UNL A   1      33.582  22.629  23.817  1.00  0.00     0.019 A 
ATOM     10  C   UNL A   1      32.679  23.469  24.487  1.00  0.00     0.014 A 
ATOM     11  C   UNL A   1      34.367  23.200  22.820  1.00  0.00     0.122 A 
ATOM     12  C   UNL A   1      32.478  24.773  24.040  1.00  0.00     0.037 A 
ATOM     13  N   UNL A   1      34.195  24.459  22.362  1.00  0.00    -0.249 NA
BRANCH   9  14
ATOM     14  C   UNL A   1      33.489  21.170  23.934  1.00  0.00     0.080 A 
ATOM     15  C   UNL A   1      34.473  20.445  24.655  1.00  0.00     0.010 A 
ATOM     16  C   UNL A   1      34.350  19.053  24.694  1.00  0.00     0.033 A 
ATOM     17  C   UNL A   1      33.269  18.443  24.067  1.00  0.00     0.060 A 
ATOM     18  N   UNL A   1      32.423  20.590  23.329  1.00  0.00    -0.254 NA
ATOM     19  Cl  UNL A   1      33.104  16.734  24.094  1.00  0.00    -0.083 Cl
ATOM     20  C   UNL A   1      32.337  19.239  23.417  1.00  0.00     0.132 A 
BRANCH  15  21
ATOM     21  C   UNL A   1      35.599  21.135  25.318  1.00  0.00    -0.016 A 
ATOM     22  C   UNL A   1      37.711  22.751  26.214  1.00  0.00     0.067 A 
ATOM     23  C   UNL A   1      36.408  23.042  26.615  1.00  0.00     0.021 A 
ATOM     24  C   UNL A   1      37.976  21.645  25.402  1.00  0.00     0.021 A 
ATOM     25  C   UNL A   1      35.365  22.217  26.190  1.00  0.00     0.010 A 
ATOM     26  C   UNL A   1      36.924  20.838  24.962  1.00  0.00     0.010 A 
BRANCH  22  27
ATOM     27  S   UNL A   1      39.040  23.840  26.662  1.00  0.00     0.175 S 
ATOM     28  C   UNL A   1      40.410  22.734  26.868  1.00  0.00     0.163 C 
ATOM     29  O   UNL A   1      38.735  24.420  27.953  1.00  0.00    -0.224 OA
ATOM     30  O   UNL A   1      39.311  24.684  25.513  1.00  0.00    -0.224 OA
ENDBRANCH  22  27
ENDBRANCH  15  21
ENDBRANCH   9  14
ENDBRANCH   6   8
ENDBRANCH   5   6
ENDBRANCH   4   5
ENDBRANCH   3   4
ENDBRANCH   2   3
ENDBRANCH   1   2
BRANCH   1  31
ATOM     31  C   UNL A   1      34.183  28.630  26.877  1.00  0.00     0.188 C 
BRANCH  31  32
ATOM     32  O   UNL A   1      34.623  29.970  26.832  1.00  0.00    -0.376 OA
BRANCH  32  33
ATOM     33  C   UNL A   1      33.718  31.029  27.089  1.00  0.00     0.202 C 
BRANCH  33  34
ATOM     34  C   UNL A   1      33.966  32.202  28.054  1.00  0.00     0.261 C 
BRANCH  34  35
ATOM     35  O   UNL A   1      34.545  31.905  29.325  1.00  0.00    -0.460 OA
BRANCH  35  36
ATOM     36  C   UNL A   1      34.801  32.986  30.105  1.00  0.00     0.338 C 
ATOM     37  O   UNL A   1      34.007  33.608  30.787  1.00  0.00    -0.246 OA
BRANCH  36  38
ATOM     38  C   UNL A   1      36.256  33.213  30.145  1.00  0.00     0.060 A 
ATOM     39  C   UNL A   1      37.082  32.428  29.330  1.00  0.00     0.016 A 
ATOM     40  C   UNL A   1      36.801  34.159  31.013  1.00  0.00     0.016 A 
ATOM     41  C   UNL A   1      38.467  32.575  29.395  1.00  0.00     0.010 A 
ATOM     42  C   UNL A   1      38.191  34.288  31.093  1.00  0.00     0.010 A 
ATOM     43  C   UNL A   1      39.030  33.480  30.305  1.00  0.00    -0.014 A 
BRANCH  43  44
ATOM     44  C   UNL A   1      40.490  33.464  30.556  1.00  0.00     0.031 A 
ATOM     45  C   UNL A   1      41.048  32.419  31.487  1.00  0.00     0.074 A 
ATOM     46  C   UNL A   1      41.311  34.350  29.963  1.00  0.00     0.049 A 
ATOM     47  N   UNL A   1      42.272  32.259  31.914  1.00  0.00    -0.248 NA
ATOM     48  C   UNL A   1      40.095  31.420  32.001  1.00  0.00     0.031 C 
ATOM     49  C   UNL A   1      40.902  35.375  29.003  1.00  0.00     0.029 A 
ATOM     50  N   UNL A   1      42.666  34.532  30.091  1.00  0.00    -0.354 N 
ATOM     51  C   UNL A   1      42.240  31.144  32.743  1.00  0.00     0.074 A 
ATOM     52  C   UNL A   1      40.869  30.684  32.785  1.00  0.00     0.031 C 
ATOM     53  C   UNL A   1      41.982  36.093  28.645  1.00  0.00     0.029 A 
ATOM     54  C   UNL A   1      43.149  35.601  29.374  1.00  0.00     0.049 A 
ATOM     55  H   UNL A   1      43.237  33.951  30.644  1.00  0.00     0.167 HD
ATOM     56  C   UNL A   1      43.261  30.547  33.400  1.00  0.00     0.031 A 
ATOM     57  C   UNL A   1      44.386  36.137  29.336  1.00  0.00     0.031 A 
ATOM     58  C   UNL A   1      44.622  31.016  33.375  1.00  0.00     0.049 A 
ATOM     59  C   UNL A   1      45.488  35.512  30.158  1.00  0.00     0.074 A 
ATOM     60  C   UNL A   1      45.724  30.492  34.026  1.00  0.00     0.029 A 
ATOM     61  N   UNL A   1      45.065  32.118  32.661  1.00  0.00    -0.354 N 
ATOM     62  N   UNL A   1      45.442  34.453  30.933  1.00  0.00    -0.248 NA
ATOM     63  C   UNL A   1      46.810  36.151  30.094  1.00  0.00     0.031 C 
ATOM     64  C   UNL A   1      46.826  31.303  33.743  1.00  0.00     0.029 A 
ATOM     65  C   UNL A   1      46.422  32.298  32.865  1.00  0.00     0.049 A 
ATOM     66  H   UNL A   1      44.499  32.688  32.092  1.00  0.00     0.167 HD
ATOM     67  C   UNL A   1      46.737  34.282  31.417  1.00  0.00     0.074 A 
ATOM     68  C   UNL A   1      47.544  35.334  30.837  1.00  0.00     0.031 C 
ATOM     69  C   UNL A   1      47.215  33.339  32.266  1.00  0.00     0.031 A 
BRANCH  56  70
ATOM     70  C   UNL A   1      42.948  29.323  34.216  1.00  0.00    -0.014 A 
ATOM     71  C   UNL A   1      42.491  29.440  35.540  1.00  0.00     0.010 A 
ATOM     72  C   UNL A   1      43.047  28.046  33.633  1.00  0.00     0.010 A 
ATOM     73  C   UNL A   1      42.153  28.300  36.274  1.00  0.00     0.020 A 
ATOM     74  C   UNL A   1      42.686  26.905  34.356  1.00  0.00     0.020 A 
ATOM     75  C   UNL A   1      42.249  27.039  35.676  1.00  0.00     0.054 A 
BRANCH  75  76
ATOM     76  S   UNL A   1      41.750  25.584  36.635  1.00  0.00     0.124 S 
ATOM     77  O   UNL A   1      42.798  24.624  36.296  1.00  0.00    -0.237 OA
ATOM     78  O   UNL A   1      41.776  26.081  38.008  1.00  0.00    -0.237 OA
ATOM     79  O   UNL A   1      40.422  25.264  36.117  1.00  0.00    -0.744 OA
ENDBRANCH  75  76
ENDBRANCH  56  70
BRANCH  57  80
ATOM     80  C   UNL A   1      44.657  37.360  28.527  1.00  0.00    -0.014 A 
ATOM     81  C   UNL A   1      44.372  38.639  29.036  1.00  0.00     0.010 A 
ATOM     82  C   UNL A   1      45.150  37.243  27.214  1.00  0.00     0.010 A 
ATOM     83  C   UNL A   1      44.526  39.773  28.232  1.00  0.00     0.020 A 
ATOM     84  C   UNL A   1      45.336  38.377  26.418  1.00  0.00     0.020 A 
ATOM     85  C   UNL A   1      45.001  39.633  26.925  1.00  0.00     0.054 A 
BRANCH  85  86
ATOM     86  S   UNL A   1      45.188  41.116  25.896  1.00  0.00     0.124 S 
ATOM     87  O   UNL A   1      43.804  41.557  25.748  1.00  0.00    -0.237 OA
ATOM     88  O   UNL A   1      46.039  41.970  26.721  1.00  0.00    -0.237 OA
ATOM     89  O   UNL A   1      45.817  40.611  24.678  1.00  0.00    -0.744 OA
ENDBRANCH  85  86
ENDBRANCH  57  80
BRANCH  69  90
ATOM     90  C   UNL A   1      48.689  33.361  32.578  1.00  0.00    -0.014 A 
ATOM     91  C   UNL A   1      49.620  32.680  31.774  1.00  0.00     0.010 A 
ATOM     92  C   UNL A   1      49.154  34.132  33.660  1.00  0.00     0.010 A 
ATOM     93  C   UNL A   1      50.986  32.742  32.068  1.00  0.00     0.020 A 
ATOM     94  C   UNL A   1      50.520  34.219  33.939  1.00  0.00     0.020 A 
ATOM     95  C   UNL A   1      51.427  33.511  33.149  1.00  0.00     0.054 A 
BRANCH  95  96
ATOM     96  S   UNL A   1      53.208  33.611  33.483  1.00  0.00     0.124 S 
ATOM     97  O   UNL A   1      53.604  32.206  33.445  1.00  0.00    -0.237 OA
ATOM     98  O   UNL A   1      53.696  34.432  32.378  1.00  0.00    -0.237 OA
ATOM     99  O   UNL A   1      53.279  34.243  34.799  1.00  0.00    -0.744 OA
ENDBRANCH  95  96
ENDBRANCH  69  90
ENDBRANCH  43  44
ENDBRANCH  36  38
ENDBRANCH  35  36
ENDBRANCH  34  35
ENDBRANCH  33  34
ENDBRANCH  32  33
ENDBRANCH  31  32
ENDBRANCH   1  31
TORSDOF 23
ENDMDL
