MODEL 1
REMARK VINA RESULT:      -9.3      0.000      0.000
REMARK SMILES COC(=O)[C@@H]1CCN(S(=O)(=O)N2CCC(C(=O)OCCOCCOCCOC(=O)c3ccc(-c4c5nc(c(-c6ccc(S(=O)(=O)[O-])cc6)c6ccc([nH]6)c(-c6ccc(S(=O)(=O)[O-])cc6)c6nc(c(-c7ccc(S(=O)(=O)[O-])cc7)c7ccc4[nH]7)C=C6)C=C5)cc3)CC2)C1
REMARK SMILES IDX 22 1 21 2 20 3 19 4 18 5 16 6 17 7 15 8 12 9 13 10 91 11
REMARK SMILES IDX 14 12 90 13 9 14 10 15 11 16 8 17 5 18 6 19 92 20 7 21 3 22
REMARK SMILES IDX 4 23 2 24 1 25 23 26 24 27 25 28 26 29 27 30 28 31 29 32
REMARK SMILES IDX 30 33 31 34 89 35 32 36 88 37 33 38 34 39 35 40 82 41 36 42
REMARK SMILES IDX 87 43 81 44 83 45 37 46 86 47 80 48 79 49 38 51 68 52 49 53
REMARK SMILES IDX 67 54 50 55 53 56 66 57 84 58 51 59 52 60 65 62 85 63 54 64
REMARK SMILES IDX 39 65 40 66 48 67 41 68 47 69 42 70 43 71 44 72 45 73 46 74
REMARK SMILES IDX 69 75 70 76 78 77 71 78 77 79 72 80 73 81 74 82 75 83 76 84
REMARK SMILES IDX 55 85 56 86 64 87 57 88 63 89 58 90 59 91 60 92 61 93 62 94
REMARK H PARENT 83 50 53 61
REMARK Flexibility Score: inf
ROOT
ATOM      1  C   UNL A   1      32.635  28.525  25.217  1.00  0.00     0.188 C 
ENDROOT
BRANCH   1   2
ATOM      2  O   UNL A   1      33.028  28.807  23.879  1.00  0.00    -0.376 OA
BRANCH   2   3
ATOM      3  C   UNL A   1      31.991  29.066  22.935  1.00  0.00     0.202 C 
BRANCH   3   4
ATOM      4  C   UNL A   1      30.549  29.033  23.462  1.00  0.00     0.261 C 
BRANCH   4   5
ATOM      5  O   UNL A   1      29.662  28.144  22.752  1.00  0.00    -0.463 OA
BRANCH   5   6
ATOM      6  C   UNL A   1      29.178  27.126  23.499  1.00  0.00     0.309 C 
ATOM      7  O   UNL A   1      27.986  26.857  23.623  1.00  0.00    -0.252 OA
BRANCH   6   8
ATOM      8  C   UNL A   1      30.224  26.282  24.191  1.00  0.00     0.102 C 
ATOM      9  N   UNL A   1      31.460  23.910  25.271  1.00  0.00    -0.189 NA
ATOM     10  C   UNL A   1      31.356  25.104  26.145  1.00  0.00     0.104 C 
ATOM     11  C   UNL A   1      31.490  24.220  23.836  1.00  0.00     0.104 C 
ATOM     12  C   UNL A   1      30.178  26.011  25.700  1.00  0.00     0.032 C 
ATOM     13  C   UNL A   1      30.238  24.953  23.443  1.00  0.00     0.032 C 
BRANCH   9  14
ATOM     14  S   UNL A   1      32.377  22.595  25.789  1.00  0.00     0.281 S 
ATOM     15  O   UNL A   1      31.862  21.403  25.158  1.00  0.00    -0.195 OA
ATOM     16  O   UNL A   1      32.485  22.666  27.232  1.00  0.00    -0.195 OA
BRANCH  14  17
ATOM     17  N   UNL A   1      33.932  22.864  25.156  1.00  0.00    -0.188 NA
ATOM     18  C   UNL A   1      35.965  21.988  26.198  1.00  0.00     0.116 C 
ATOM     19  C   UNL A   1      35.359  20.961  25.263  1.00  0.00     0.033 C 
ATOM     20  C   UNL A   1      34.966  23.147  26.227  1.00  0.00     0.118 C 
ATOM     21  C   UNL A   1      34.564  21.823  24.309  1.00  0.00     0.104 C 
BRANCH  18  22
ATOM     22  C   UNL A   1      37.310  22.424  25.669  1.00  0.00     0.310 C 
ATOM     23  O   UNL A   1      38.099  21.694  25.083  1.00  0.00    -0.252 OA
BRANCH  22  24
ATOM     24  O   UNL A   1      37.544  23.729  25.974  1.00  0.00    -0.469 OA
ATOM     25  C   UNL A   1      38.801  23.935  26.621  1.00  0.00     0.282 C 
ENDBRANCH  22  24
ENDBRANCH  18  22
ENDBRANCH  14  17
ENDBRANCH   9  14
ENDBRANCH   6   8
ENDBRANCH   5   6
ENDBRANCH   4   5
ENDBRANCH   3   4
ENDBRANCH   2   3
ENDBRANCH   1   2
BRANCH   1  26
ATOM     26  C   UNL A   1      32.456  29.736  26.127  1.00  0.00     0.188 C 
BRANCH  26  27
ATOM     27  O   UNL A   1      33.568  30.608  26.225  1.00  0.00    -0.376 OA
BRANCH  27  28
ATOM     28  C   UNL A   1      34.126  30.821  27.522  1.00  0.00     0.202 C 
BRANCH  28  29
ATOM     29  C   UNL A   1      34.665  29.619  28.335  1.00  0.00     0.261 C 
BRANCH  29  30
ATOM     30  O   UNL A   1      36.074  29.313  28.242  1.00  0.00    -0.460 OA
BRANCH  30  31
ATOM     31  C   UNL A   1      36.899  29.728  29.234  1.00  0.00     0.338 C 
ATOM     32  O   UNL A   1      36.553  30.135  30.328  1.00  0.00    -0.246 OA
BRANCH  31  33
ATOM     33  C   UNL A   1      38.298  29.321  28.883  1.00  0.00     0.060 A 
ATOM     34  C   UNL A   1      39.087  28.725  29.882  1.00  0.00     0.016 A 
ATOM     35  C   UNL A   1      38.806  29.426  27.586  1.00  0.00     0.016 A 
ATOM     36  C   UNL A   1      40.379  28.263  29.597  1.00  0.00     0.010 A 
ATOM     37  C   UNL A   1      40.109  28.987  27.307  1.00  0.00     0.010 A 
ATOM     38  C   UNL A   1      40.917  28.429  28.316  1.00  0.00    -0.014 A 
BRANCH  38  39
ATOM     39  C   UNL A   1      42.374  28.237  28.069  1.00  0.00     0.031 A 
ATOM     40  C   UNL A   1      43.290  29.405  28.333  1.00  0.00     0.074 A 
ATOM     41  C   UNL A   1      42.893  27.080  27.613  1.00  0.00     0.049 A 
ATOM     42  N   UNL A   1      44.564  29.542  28.071  1.00  0.00    -0.248 NA
ATOM     43  C   UNL A   1      42.677  30.580  28.975  1.00  0.00     0.031 C 
ATOM     44  C   UNL A   1      42.150  25.844  27.381  1.00  0.00     0.029 A 
ATOM     45  N   UNL A   1      44.184  26.768  27.247  1.00  0.00    -0.354 N 
ATOM     46  C   UNL A   1      44.899  30.824  28.494  1.00  0.00     0.074 A 
ATOM     47  C   UNL A   1      43.692  31.430  29.011  1.00  0.00     0.031 C 
ATOM     48  C   UNL A   1      42.990  24.914  26.891  1.00  0.00     0.029 A 
ATOM     49  C   UNL A   1      44.323  25.499  26.730  1.00  0.00     0.049 A 
ATOM     50  H   UNL A   1      44.937  27.393  27.345  1.00  0.00     0.167 HD
ATOM     51  C   UNL A   1      46.102  31.446  28.456  1.00  0.00     0.031 A 
ATOM     52  C   UNL A   1      45.387  24.893  26.160  1.00  0.00     0.031 A 
ATOM     53  C   UNL A   1      47.302  30.855  27.930  1.00  0.00     0.049 A 
ATOM     54  C   UNL A   1      46.695  25.641  26.033  1.00  0.00     0.074 A 
ATOM     55  C   UNL A   1      48.569  31.408  27.854  1.00  0.00     0.029 A 
ATOM     56  N   UNL A   1      47.387  29.584  27.384  1.00  0.00    -0.354 N 
ATOM     57  N   UNL A   1      46.998  26.850  26.440  1.00  0.00    -0.248 NA
ATOM     58  C   UNL A   1      47.805  24.940  25.367  1.00  0.00     0.031 C 
ATOM     59  C   UNL A   1      49.404  30.497  27.202  1.00  0.00     0.029 A 
ATOM     60  C   UNL A   1      48.677  29.346  26.943  1.00  0.00     0.049 A 
ATOM     61  H   UNL A   1      46.641  28.945  27.320  1.00  0.00     0.167 HD
ATOM     62  C   UNL A   1      48.341  27.037  26.116  1.00  0.00     0.074 A 
ATOM     63  C   UNL A   1      48.793  25.817  25.483  1.00  0.00     0.031 C 
ATOM     64  C   UNL A   1      49.127  28.122  26.328  1.00  0.00     0.031 A 
BRANCH  51  65
ATOM     65  C   UNL A   1      46.168  32.865  28.958  1.00  0.00    -0.014 A 
ATOM     66  C   UNL A   1      45.920  33.956  28.106  1.00  0.00     0.010 A 
ATOM     67  C   UNL A   1      46.442  33.106  30.318  1.00  0.00     0.010 A 
ATOM     68  C   UNL A   1      45.984  35.263  28.597  1.00  0.00     0.020 A 
ATOM     69  C   UNL A   1      46.475  34.410  30.818  1.00  0.00     0.020 A 
ATOM     70  C   UNL A   1      46.261  35.481  29.950  1.00  0.00     0.054 A 
BRANCH  70  71
ATOM     71  S   UNL A   1      46.313  37.188  30.562  1.00  0.00     0.124 S 
ATOM     72  O   UNL A   1      45.687  37.056  31.875  1.00  0.00    -0.237 OA
ATOM     73  O   UNL A   1      47.745  37.478  30.575  1.00  0.00    -0.237 OA
ATOM     74  O   UNL A   1      45.537  37.935  29.576  1.00  0.00    -0.744 OA
ENDBRANCH  70  71
ENDBRANCH  51  65
BRANCH  52  75
ATOM     75  C   UNL A   1      45.265  23.505  25.623  1.00  0.00    -0.014 A 
ATOM     76  C   UNL A   1      45.098  23.279  24.245  1.00  0.00     0.010 A 
ATOM     77  C   UNL A   1      45.287  22.399  26.493  1.00  0.00     0.010 A 
ATOM     78  C   UNL A   1      44.940  21.980  23.750  1.00  0.00     0.020 A 
ATOM     79  C   UNL A   1      45.162  21.096  26.000  1.00  0.00     0.020 A 
ATOM     80  C   UNL A   1      44.978  20.895  24.632  1.00  0.00     0.054 A 
BRANCH  80  81
ATOM     81  S   UNL A   1      44.819  19.217  23.960  1.00  0.00     0.124 S 
ATOM     82  O   UNL A   1      43.816  18.629  24.841  1.00  0.00    -0.237 OA
ATOM     83  O   UNL A   1      44.387  19.468  22.587  1.00  0.00    -0.237 OA
ATOM     84  O   UNL A   1      46.167  18.667  24.090  1.00  0.00    -0.744 OA
ENDBRANCH  80  81
ENDBRANCH  52  75
BRANCH  64  85
ATOM     85  C   UNL A   1      50.581  28.037  25.934  1.00  0.00    -0.014 A 
ATOM     86  C   UNL A   1      51.558  27.543  26.815  1.00  0.00     0.010 A 
ATOM     87  C   UNL A   1      50.957  28.371  24.618  1.00  0.00     0.010 A 
ATOM     88  C   UNL A   1      52.884  27.398  26.393  1.00  0.00     0.020 A 
ATOM     89  C   UNL A   1      52.273  28.200  24.183  1.00  0.00     0.020 A 
ATOM     90  C   UNL A   1      53.232  27.721  25.077  1.00  0.00     0.054 A 
BRANCH  90  91
ATOM     91  S   UNL A   1      54.943  27.456  24.535  1.00  0.00     0.124 S 
ATOM     92  O   UNL A   1      55.399  28.820  24.283  1.00  0.00    -0.237 OA
ATOM     93  O   UNL A   1      55.545  26.796  25.689  1.00  0.00    -0.237 OA
ATOM     94  O   UNL A   1      54.805  26.617  23.346  1.00  0.00    -0.744 OA
ENDBRANCH  90  91
ENDBRANCH  64  85
ENDBRANCH  38  39
ENDBRANCH  31  33
ENDBRANCH  30  31
ENDBRANCH  29  30
ENDBRANCH  28  29
ENDBRANCH  27  28
ENDBRANCH  26  27
ENDBRANCH   1  26
TORSDOF 24
ENDMDL
MODEL 2
REMARK VINA RESULT:      -8.5      4.808      8.685
REMARK SMILES COC(=O)[C@@H]1CCN(S(=O)(=O)N2CCC(C(=O)OCCOCCOCCOC(=O)c3ccc(-c4c5nc(c(-c6ccc(S(=O)(=O)[O-])cc6)c6ccc([nH]6)c(-c6ccc(S(=O)(=O)[O-])cc6)c6nc(c(-c7ccc(S(=O)(=O)[O-])cc7)c7ccc4[nH]7)C=C6)C=C5)cc3)CC2)C1
REMARK SMILES IDX 22 1 21 2 20 3 19 4 18 5 16 6 17 7 15 8 12 9 13 10 91 11
REMARK SMILES IDX 14 12 90 13 9 14 10 15 11 16 8 17 5 18 6 19 92 20 7 21 3 22
REMARK SMILES IDX 4 23 2 24 1 25 23 26 24 27 25 28 26 29 27 30 28 31 29 32
REMARK SMILES IDX 30 33 31 34 89 35 32 36 88 37 33 38 34 39 35 40 82 41 36 42
REMARK SMILES IDX 87 43 81 44 83 45 37 46 86 47 80 48 79 49 38 51 68 52 49 53
REMARK SMILES IDX 67 54 50 55 53 56 66 57 84 58 51 59 52 60 65 62 85 63 54 64
REMARK SMILES IDX 39 65 40 66 48 67 41 68 47 69 42 70 43 71 44 72 45 73 46 74
REMARK SMILES IDX 69 75 70 76 78 77 71 78 77 79 72 80 73 81 74 82 75 83 76 84
REMARK SMILES IDX 55 85 56 86 64 87 57 88 63 89 58 90 59 91 60 92 61 93 62 94
REMARK H PARENT 83 50 53 61
REMARK Flexibility Score: inf
ROOT
ATOM      1  C   UNL A   1      33.294  37.172  31.718  1.00  0.00     0.188 C 
ENDROOT
BRANCH   1   2
ATOM      2  O   UNL A   1      34.399  36.752  32.509  1.00  0.00    -0.376 OA
BRANCH   2   3
ATOM      3  C   UNL A   1      34.634  35.349  32.611  1.00  0.00     0.202 C 
BRANCH   3   4
ATOM      4  C   UNL A   1      35.145  34.829  33.962  1.00  0.00     0.261 C 
BRANCH   4   5
ATOM      5  O   UNL A   1      36.580  34.708  34.064  1.00  0.00    -0.463 OA
BRANCH   5   6
ATOM      6  C   UNL A   1      37.019  33.448  34.283  1.00  0.00     0.309 C 
ATOM      7  O   UNL A   1      36.560  32.445  33.743  1.00  0.00    -0.252 OA
BRANCH   6   8
ATOM      8  C   UNL A   1      38.169  33.328  35.257  1.00  0.00     0.102 C 
ATOM      9  N   UNL A   1      40.523  32.205  36.490  1.00  0.00    -0.189 NA
ATOM     10  C   UNL A   1      39.376  32.557  37.363  1.00  0.00     0.104 C 
ATOM     11  C   UNL A   1      40.590  32.985  35.248  1.00  0.00     0.104 C 
ATOM     12  C   UNL A   1      38.047  32.533  36.563  1.00  0.00     0.032 C 
ATOM     13  C   UNL A   1      39.337  32.780  34.444  1.00  0.00     0.032 C 
BRANCH   9  14
ATOM     14  S   UNL A   1      41.986  31.766  37.200  1.00  0.00     0.281 S 
ATOM     15  O   UNL A   1      41.812  31.752  38.633  1.00  0.00    -0.195 OA
ATOM     16  O   UNL A   1      43.032  32.570  36.602  1.00  0.00    -0.195 OA
BRANCH  14  17
ATOM     17  N   UNL A   1      42.248  30.159  36.711  1.00  0.00    -0.188 NA
ATOM     18  C   UNL A   1      41.909  29.393  34.412  1.00  0.00     0.116 C 
ATOM     19  C   UNL A   1      43.304  29.958  34.586  1.00  0.00     0.033 C 
ATOM     20  C   UNL A   1      41.198  29.656  35.741  1.00  0.00     0.118 C 
ATOM     21  C   UNL A   1      43.536  29.792  36.071  1.00  0.00     0.104 C 
BRANCH  18  22
ATOM     22  C   UNL A   1      41.994  27.916  34.108  1.00  0.00     0.310 C 
ATOM     23  O   UNL A   1      42.525  27.438  33.114  1.00  0.00    -0.252 OA
BRANCH  22  24
ATOM     24  O   UNL A   1      41.357  27.193  35.069  1.00  0.00    -0.469 OA
ATOM     25  C   UNL A   1      42.190  26.194  35.659  1.00  0.00     0.282 C 
ENDBRANCH  22  24
ENDBRANCH  18  22
ENDBRANCH  14  17
ENDBRANCH   9  14
ENDBRANCH   6   8
ENDBRANCH   5   6
ENDBRANCH   4   5
ENDBRANCH   3   4
ENDBRANCH   2   3
ENDBRANCH   1   2
BRANCH   1  26
ATOM     26  C   UNL A   1      32.550  36.067  30.975  1.00  0.00     0.188 C 
BRANCH  26  27
ATOM     27  O   UNL A   1      32.628  36.110  29.561  1.00  0.00    -0.376 OA
BRANCH  27  28
ATOM     28  C   UNL A   1      33.567  35.239  28.927  1.00  0.00     0.202 C 
BRANCH  28  29
ATOM     29  C   UNL A   1      33.065  33.985  28.171  1.00  0.00     0.261 C 
BRANCH  29  30
ATOM     30  O   UNL A   1      34.047  33.140  27.531  1.00  0.00    -0.460 OA
BRANCH  30  31
ATOM     31  C   UNL A   1      34.012  31.806  27.766  1.00  0.00     0.338 C 
ATOM     32  O   UNL A   1      33.141  31.038  27.398  1.00  0.00    -0.246 OA
BRANCH  31  33
ATOM     33  C   UNL A   1      35.355  31.382  28.279  1.00  0.00     0.060 A 
ATOM     34  C   UNL A   1      36.394  32.328  28.280  1.00  0.00     0.016 A 
ATOM     35  C   UNL A   1      35.580  30.123  28.840  1.00  0.00     0.016 A 
ATOM     36  C   UNL A   1      37.653  32.012  28.809  1.00  0.00     0.010 A 
ATOM     37  C   UNL A   1      36.848  29.797  29.345  1.00  0.00     0.010 A 
ATOM     38  C   UNL A   1      37.903  30.729  29.308  1.00  0.00    -0.014 A 
BRANCH  38  39
ATOM     39  C   UNL A   1      39.295  30.274  29.583  1.00  0.00     0.031 A 
ATOM     40  C   UNL A   1      40.264  31.283  30.146  1.00  0.00     0.074 A 
ATOM     41  C   UNL A   1      39.717  29.018  29.339  1.00  0.00     0.049 A 
ATOM     42  N   UNL A   1      41.553  31.183  30.342  1.00  0.00    -0.248 NA
ATOM     43  C   UNL A   1      39.696  32.586  30.532  1.00  0.00     0.031 C 
ATOM     44  C   UNL A   1      38.884  27.915  28.866  1.00  0.00     0.029 A 
ATOM     45  N   UNL A   1      40.974  28.466  29.444  1.00  0.00    -0.354 N 
ATOM     46  C   UNL A   1      41.954  32.413  30.852  1.00  0.00     0.074 A 
ATOM     47  C   UNL A   1      40.776  33.250  30.916  1.00  0.00     0.031 C 
ATOM     48  C   UNL A   1      39.655  26.825  28.701  1.00  0.00     0.029 A 
ATOM     49  C   UNL A   1      41.046  27.161  29.011  1.00  0.00     0.049 A 
ATOM     50  H   UNL A   1      41.749  28.958  29.797  1.00  0.00     0.167 HD
ATOM     51  C   UNL A   1      43.190  32.816  31.232  1.00  0.00     0.031 A 
ATOM     52  C   UNL A   1      42.109  26.345  28.848  1.00  0.00     0.031 A 
ATOM     53  C   UNL A   1      44.367  31.994  31.157  1.00  0.00     0.049 A 
ATOM     54  C   UNL A   1      43.496  26.847  29.181  1.00  0.00     0.074 A 
ATOM     55  C   UNL A   1      45.663  32.316  31.524  1.00  0.00     0.029 A 
ATOM     56  N   UNL A   1      44.398  30.694  30.678  1.00  0.00    -0.354 N 
ATOM     57  N   UNL A   1      43.859  28.011  29.665  1.00  0.00    -0.248 NA
ATOM     58  C   UNL A   1      44.618  25.924  28.943  1.00  0.00     0.031 C 
ATOM     59  C   UNL A   1      46.487  31.234  31.205  1.00  0.00     0.029 A 
ATOM     60  C   UNL A   1      45.694  30.210  30.713  1.00  0.00     0.049 A 
ATOM     61  H   UNL A   1      43.614  30.190  30.361  1.00  0.00     0.167 HD
ATOM     62  C   UNL A   1      45.242  27.943  29.826  1.00  0.00     0.074 A 
ATOM     63  C   UNL A   1      45.651  26.624  29.393  1.00  0.00     0.031 C 
ATOM     64  C   UNL A   1      46.093  28.889  30.296  1.00  0.00     0.031 A 
BRANCH  51  65
ATOM     65  C   UNL A   1      43.340  34.232  31.723  1.00  0.00    -0.014 A 
ATOM     66  C   UNL A   1      43.103  34.571  33.068  1.00  0.00     0.010 A 
ATOM     67  C   UNL A   1      43.766  35.233  30.830  1.00  0.00     0.010 A 
ATOM     68  C   UNL A   1      43.252  35.892  33.499  1.00  0.00     0.020 A 
ATOM     69  C   UNL A   1      43.948  36.548  31.266  1.00  0.00     0.020 A 
ATOM     70  C   UNL A   1      43.674  36.871  32.595  1.00  0.00     0.054 A 
BRANCH  70  71
ATOM     71  S   UNL A   1      43.882  38.571  33.192  1.00  0.00     0.124 S 
ATOM     72  O   UNL A   1      43.712  39.344  31.963  1.00  0.00    -0.237 OA
ATOM     73  O   UNL A   1      42.804  38.701  34.169  1.00  0.00    -0.237 OA
ATOM     74  O   UNL A   1      45.231  38.581  33.751  1.00  0.00    -0.744 OA
ENDBRANCH  70  71
ENDBRANCH  51  65
BRANCH  52  75
ATOM     75  C   UNL A   1      41.925  24.966  28.305  1.00  0.00    -0.014 A 
ATOM     76  C   UNL A   1      41.449  24.765  26.997  1.00  0.00     0.010 A 
ATOM     77  C   UNL A   1      42.199  23.842  29.107  1.00  0.00     0.010 A 
ATOM     78  C   UNL A   1      41.236  23.472  26.508  1.00  0.00     0.020 A 
ATOM     79  C   UNL A   1      42.019  22.547  28.610  1.00  0.00     0.020 A 
ATOM     80  C   UNL A   1      41.527  22.370  27.317  1.00  0.00     0.054 A 
BRANCH  80  81
ATOM     81  S   UNL A   1      41.289  20.702  26.641  1.00  0.00     0.124 S 
ATOM     82  O   UNL A   1      40.146  20.892  25.754  1.00  0.00    -0.237 OA
ATOM     83  O   UNL A   1      42.567  20.445  25.983  1.00  0.00    -0.237 OA
ATOM     84  O   UNL A   1      41.032  19.886  27.827  1.00  0.00    -0.744 OA
ENDBRANCH  80  81
ENDBRANCH  52  75
BRANCH  64  85
ATOM     85  C   UNL A   1      47.553  28.531  30.432  1.00  0.00    -0.014 A 
ATOM     86  C   UNL A   1      48.511  28.973  29.504  1.00  0.00     0.010 A 
ATOM     87  C   UNL A   1      47.983  27.817  31.567  1.00  0.00     0.010 A 
ATOM     88  C   UNL A   1      49.869  28.695  29.700  1.00  0.00     0.020 A 
ATOM     89  C   UNL A   1      49.339  27.563  31.783  1.00  0.00     0.020 A 
ATOM     90  C   UNL A   1      50.275  27.998  30.843  1.00  0.00     0.054 A 
BRANCH  90  91
ATOM     91  S   UNL A   1      52.047  27.714  31.111  1.00  0.00     0.124 S 
ATOM     92  O   UNL A   1      52.584  29.072  31.062  1.00  0.00    -0.237 OA
ATOM     93  O   UNL A   1      52.074  27.075  32.423  1.00  0.00    -0.237 OA
ATOM     94  O   UNL A   1      52.434  26.853  29.996  1.00  0.00    -0.744 OA
ENDBRANCH  90  91
ENDBRANCH  64  85
ENDBRANCH  38  39
ENDBRANCH  31  33
ENDBRANCH  30  31
ENDBRANCH  29  30
ENDBRANCH  28  29
ENDBRANCH  27  28
ENDBRANCH  26  27
ENDBRANCH   1  26
TORSDOF 24
ENDMDL
MODEL 3
REMARK VINA RESULT:      -8.2      6.037     10.755
REMARK SMILES COC(=O)[C@@H]1CCN(S(=O)(=O)N2CCC(C(=O)OCCOCCOCCOC(=O)c3ccc(-c4c5nc(c(-c6ccc(S(=O)(=O)[O-])cc6)c6ccc([nH]6)c(-c6ccc(S(=O)(=O)[O-])cc6)c6nc(c(-c7ccc(S(=O)(=O)[O-])cc7)c7ccc4[nH]7)C=C6)C=C5)cc3)CC2)C1
REMARK SMILES IDX 22 1 21 2 20 3 19 4 18 5 16 6 17 7 15 8 12 9 13 10 91 11
REMARK SMILES IDX 14 12 90 13 9 14 10 15 11 16 8 17 5 18 6 19 92 20 7 21 3 22
REMARK SMILES IDX 4 23 2 24 1 25 23 26 24 27 25 28 26 29 27 30 28 31 29 32
REMARK SMILES IDX 30 33 31 34 89 35 32 36 88 37 33 38 34 39 35 40 82 41 36 42
REMARK SMILES IDX 87 43 81 44 83 45 37 46 86 47 80 48 79 49 38 51 68 52 49 53
REMARK SMILES IDX 67 54 50 55 53 56 66 57 84 58 51 59 52 60 65 62 85 63 54 64
REMARK SMILES IDX 39 65 40 66 48 67 41 68 47 69 42 70 43 71 44 72 45 73 46 74
REMARK SMILES IDX 69 75 70 76 78 77 71 78 77 79 72 80 73 81 74 82 75 83 76 84
REMARK SMILES IDX 55 85 56 86 64 87 57 88 63 89 58 90 59 91 60 92 61 93 62 94
REMARK H PARENT 83 50 53 61
REMARK Flexibility Score: inf
ROOT
ATOM      1  C   UNL A   1      32.643  28.632  24.568  1.00  0.00     0.188 C 
ENDROOT
BRANCH   1   2
ATOM      2  O   UNL A   1      31.941  28.091  23.454  1.00  0.00    -0.376 OA
BRANCH   2   3
ATOM      3  C   UNL A   1      30.538  28.338  23.384  1.00  0.00     0.202 C 
BRANCH   3   4
ATOM      4  C   UNL A   1      29.626  27.112  23.236  1.00  0.00     0.261 C 
BRANCH   4   5
ATOM      5  O   UNL A   1      29.040  26.638  24.467  1.00  0.00    -0.463 OA
BRANCH   5   6
ATOM      6  C   UNL A   1      29.902  25.982  25.277  1.00  0.00     0.309 C 
ATOM      7  O   UNL A   1      30.353  26.433  26.328  1.00  0.00    -0.252 OA
BRANCH   6   8
ATOM      8  C   UNL A   1      30.288  24.595  24.818  1.00  0.00     0.102 C 
ATOM      9  N   UNL A   1      31.903  22.220  24.547  1.00  0.00    -0.189 NA
ATOM     10  C   UNL A   1      31.373  22.850  23.312  1.00  0.00     0.104 C 
ATOM     11  C   UNL A   1      31.096  22.481  25.745  1.00  0.00     0.104 C 
ATOM     12  C   UNL A   1      31.101  24.361  23.539  1.00  0.00     0.032 C 
ATOM     13  C   UNL A   1      31.016  23.961  25.998  1.00  0.00     0.032 C 
BRANCH   9  14
ATOM     14  S   UNL A   1      32.650  20.714  24.440  1.00  0.00     0.281 S 
ATOM     15  O   UNL A   1      32.489  20.219  23.094  1.00  0.00    -0.195 OA
ATOM     16  O   UNL A   1      32.212  19.916  25.566  1.00  0.00    -0.195 OA
BRANCH  14  17
ATOM     17  N   UNL A   1      34.307  21.027  24.662  1.00  0.00    -0.188 NA
ATOM     18  C   UNL A   1      35.202  23.278  25.013  1.00  0.00     0.116 C 
ATOM     19  C   UNL A   1      34.762  22.667  26.328  1.00  0.00     0.033 C 
ATOM     20  C   UNL A   1      34.775  22.275  23.939  1.00  0.00     0.118 C 
ATOM     21  C   UNL A   1      34.840  21.186  26.038  1.00  0.00     0.104 C 
BRANCH  18  22
ATOM     22  C   UNL A   1      36.698  23.482  25.023  1.00  0.00     0.310 C 
ATOM     23  O   UNL A   1      37.424  23.358  24.046  1.00  0.00    -0.252 OA
BRANCH  22  24
ATOM     24  O   UNL A   1      37.132  23.775  26.279  1.00  0.00    -0.469 OA
ATOM     25  C   UNL A   1      38.551  23.683  26.414  1.00  0.00     0.282 C 
ENDBRANCH  22  24
ENDBRANCH  18  22
ENDBRANCH  14  17
ENDBRANCH   9  14
ENDBRANCH   6   8
ENDBRANCH   5   6
ENDBRANCH   4   5
ENDBRANCH   3   4
ENDBRANCH   2   3
ENDBRANCH   1   2
BRANCH   1  26
ATOM     26  C   UNL A   1      33.613  27.685  25.266  1.00  0.00     0.188 C 
BRANCH  26  27
ATOM     27  O   UNL A   1      33.846  27.939  26.641  1.00  0.00    -0.376 OA
BRANCH  27  28
ATOM     28  C   UNL A   1      34.543  29.139  26.980  1.00  0.00     0.202 C 
BRANCH  28  29
ATOM     29  C   UNL A   1      33.829  30.507  26.849  1.00  0.00     0.261 C 
BRANCH  29  30
ATOM     30  O   UNL A   1      33.487  31.213  28.063  1.00  0.00    -0.460 OA
BRANCH  30  31
ATOM     31  C   UNL A   1      33.809  32.525  28.168  1.00  0.00     0.338 C 
ATOM     32  O   UNL A   1      33.204  33.452  27.662  1.00  0.00    -0.246 OA
BRANCH  31  33
ATOM     33  C   UNL A   1      34.839  32.671  29.246  1.00  0.00     0.060 A 
ATOM     34  C   UNL A   1      35.036  33.944  29.809  1.00  0.00     0.016 A 
ATOM     35  C   UNL A   1      35.535  31.579  29.773  1.00  0.00     0.016 A 
ATOM     36  C   UNL A   1      35.938  34.131  30.866  1.00  0.00     0.010 A 
ATOM     37  C   UNL A   1      36.456  31.771  30.813  1.00  0.00     0.010 A 
ATOM     38  C   UNL A   1      36.686  33.052  31.349  1.00  0.00    -0.014 A 
BRANCH  38  39
ATOM     39  C   UNL A   1      37.858  33.276  32.242  1.00  0.00     0.031 A 
ATOM     40  C   UNL A   1      39.204  33.483  31.595  1.00  0.00     0.074 A 
ATOM     41  C   UNL A   1      37.763  33.286  33.587  1.00  0.00     0.049 A 
ATOM     42  N   UNL A   1      40.390  33.559  32.141  1.00  0.00    -0.248 NA
ATOM     43  C   UNL A   1      39.207  33.615  30.128  1.00  0.00     0.031 C 
ATOM     44  C   UNL A   1      36.526  33.172  34.355  1.00  0.00     0.029 A 
ATOM     45  N   UNL A   1      38.746  33.382  34.547  1.00  0.00    -0.354 N 
ATOM     46  C   UNL A   1      41.281  33.724  31.085  1.00  0.00     0.074 A 
ATOM     47  C   UNL A   1      40.501  33.718  29.867  1.00  0.00     0.031 C 
ATOM     48  C   UNL A   1      36.825  33.184  35.667  1.00  0.00     0.029 A 
ATOM     49  C   UNL A   1      38.277  33.258  35.835  1.00  0.00     0.049 A 
ATOM     50  H   UNL A   1      39.695  33.526  34.332  1.00  0.00     0.167 HD
ATOM     51  C   UNL A   1      42.627  33.867  31.122  1.00  0.00     0.031 A 
ATOM     52  C   UNL A   1      38.941  33.176  37.009  1.00  0.00     0.031 A 
ATOM     53  C   UNL A   1      43.409  33.860  32.328  1.00  0.00     0.049 A 
ATOM     54  C   UNL A   1      40.451  33.234  37.021  1.00  0.00     0.074 A 
ATOM     55  C   UNL A   1      44.780  34.003  32.463  1.00  0.00     0.029 A 
ATOM     56  N   UNL A   1      42.896  33.695  33.605  1.00  0.00    -0.354 N 
ATOM     57  N   UNL A   1      41.280  33.394  36.016  1.00  0.00    -0.248 NA
ATOM     58  C   UNL A   1      41.117  33.099  38.326  1.00  0.00     0.031 C 
ATOM     59  C   UNL A   1      45.102  33.857  33.815  1.00  0.00     0.029 A 
ATOM     60  C   UNL A   1      43.926  33.703  34.531  1.00  0.00     0.049 A 
ATOM     61  H   UNL A   1      41.942  33.588  33.821  1.00  0.00     0.167 HD
ATOM     62  C   UNL A   1      42.557  33.419  36.574  1.00  0.00     0.074 A 
ATOM     63  C   UNL A   1      42.393  33.262  38.003  1.00  0.00     0.031 C 
ATOM     64  C   UNL A   1      43.755  33.563  35.955  1.00  0.00     0.031 A 
BRANCH  51  65
ATOM     65  C   UNL A   1      43.349  33.997  29.806  1.00  0.00    -0.014 A 
ATOM     66  C   UNL A   1      43.759  32.864  29.080  1.00  0.00     0.010 A 
ATOM     67  C   UNL A   1      43.584  35.277  29.268  1.00  0.00     0.010 A 
ATOM     68  C   UNL A   1      44.424  33.011  27.860  1.00  0.00     0.020 A 
ATOM     69  C   UNL A   1      44.220  35.426  28.033  1.00  0.00     0.020 A 
ATOM     70  C   UNL A   1      44.650  34.291  27.344  1.00  0.00     0.054 A 
BRANCH  70  71
ATOM     71  S   UNL A   1      45.494  34.448  25.747  1.00  0.00     0.124 S 
ATOM     72  O   UNL A   1      44.375  34.396  24.809  1.00  0.00    -0.237 OA
ATOM     73  O   UNL A   1      46.157  35.745  25.863  1.00  0.00    -0.237 OA
ATOM     74  O   UNL A   1      46.389  33.294  25.711  1.00  0.00    -0.744 OA
ENDBRANCH  70  71
ENDBRANCH  51  65
BRANCH  52  75
ATOM     75  C   UNL A   1      38.191  32.990  38.287  1.00  0.00    -0.014 A 
ATOM     76  C   UNL A   1      38.209  33.983  39.283  1.00  0.00     0.010 A 
ATOM     77  C   UNL A   1      37.474  31.803  38.527  1.00  0.00     0.010 A 
ATOM     78  C   UNL A   1      37.541  33.786  40.496  1.00  0.00     0.020 A 
ATOM     79  C   UNL A   1      36.778  31.615  39.725  1.00  0.00     0.020 A 
ATOM     80  C   UNL A   1      36.825  32.605  40.708  1.00  0.00     0.054 A 
BRANCH  80  81
ATOM     81  S   UNL A   1      35.927  32.394  42.271  1.00  0.00     0.124 S 
ATOM     82  O   UNL A   1      36.411  33.525  43.056  1.00  0.00    -0.237 OA
ATOM     83  O   UNL A   1      34.532  32.470  41.843  1.00  0.00    -0.237 OA
ATOM     84  O   UNL A   1      36.356  31.077  42.738  1.00  0.00    -0.744 OA
ENDBRANCH  80  81
ENDBRANCH  52  75
BRANCH  64  85
ATOM     85  C   UNL A   1      44.997  33.622  36.811  1.00  0.00    -0.014 A 
ATOM     86  C   UNL A   1      45.723  32.465  37.140  1.00  0.00     0.010 A 
ATOM     87  C   UNL A   1      45.498  34.877  37.210  1.00  0.00     0.010 A 
ATOM     88  C   UNL A   1      46.916  32.559  37.865  1.00  0.00     0.020 A 
ATOM     89  C   UNL A   1      46.703  34.978  37.908  1.00  0.00     0.020 A 
ATOM     90  C   UNL A   1      47.403  33.817  38.238  1.00  0.00     0.054 A 
BRANCH  90  91
ATOM     91  S   UNL A   1      48.989  33.916  39.114  1.00  0.00     0.124 S 
ATOM     92  O   UNL A   1      49.322  32.506  39.303  1.00  0.00    -0.237 OA
ATOM     93  O   UNL A   1      49.832  34.638  38.166  1.00  0.00    -0.237 OA
ATOM     94  O   UNL A   1      48.667  34.648  40.337  1.00  0.00    -0.744 OA
ENDBRANCH  90  91
ENDBRANCH  64  85
ENDBRANCH  38  39
ENDBRANCH  31  33
ENDBRANCH  30  31
ENDBRANCH  29  30
ENDBRANCH  28  29
ENDBRANCH  27  28
ENDBRANCH  26  27
ENDBRANCH   1  26
TORSDOF 24
ENDMDL
