MODEL 1
REMARK VINA RESULT:     -10.1      0.000      0.000
REMARK SMILES COc1ccc(C(=O)N[C@H](C(=O)OCCOCCOCCOC(=O)c2ccc(-c3c4nc(c(-c5ccc(S(=O)(=O)[O-])cc5)c5ccc([nH]5)c(-c5ccc(S(=O)(=O)[O-])cc5)c5nc(c(-c6ccc(S(=O)(=O)[O-])cc6)c6ccc3[nH]6)C=C5)C=C4)cc2)C2=C(C)N=N[C@H]2C)c(F)c1F
REMARK SMILES IDX 17 1 16 2 15 3 14 4 13 5 11 6 12 7 10 8 9 9 7 10 8 11 6 13
REMARK SMILES IDX 3 14 4 15 94 16 5 17 92 18 95 19 93 20 2 21 1 22 85 23 86 24
REMARK SMILES IDX 90 25 87 26 88 27 89 28 91 29 18 30 19 31 20 32 21 33 22 34
REMARK SMILES IDX 23 35 24 36 25 37 26 38 84 39 27 40 83 41 28 42 29 43 30 44
REMARK SMILES IDX 77 45 31 46 82 47 76 48 78 49 32 50 81 51 75 52 74 53 33 55
REMARK SMILES IDX 63 56 44 57 62 58 45 59 48 60 61 61 79 62 46 63 47 64 60 66
REMARK SMILES IDX 80 67 49 68 34 69 35 70 43 71 36 72 42 73 37 74 38 75 39 76
REMARK SMILES IDX 40 77 41 78 64 79 65 80 73 81 66 82 72 83 67 84 68 85 69 86
REMARK SMILES IDX 70 87 71 88 50 89 51 90 59 91 52 92 58 93 53 94 54 95 55 96
REMARK SMILES IDX 56 97 57 98
REMARK H PARENT 9 12 78 54 48 65
REMARK Flexibility Score: inf
ROOT
ATOM      1  C   UNL A   1      40.681  22.190  26.759  1.00  0.00     0.188 C 
ENDROOT
BRANCH   1   2
ATOM      2  O   UNL A   1      39.421  21.578  26.519  1.00  0.00    -0.376 OA
BRANCH   2   3
ATOM      3  C   UNL A   1      38.483  22.210  25.656  1.00  0.00     0.202 C 
BRANCH   3   4
ATOM      4  C   UNL A   1      37.564  21.350  24.774  1.00  0.00     0.261 C 
BRANCH   4   5
ATOM      5  O   UNL A   1      36.183  21.764  24.730  1.00  0.00    -0.461 OA
BRANCH   5   6
ATOM      6  C   UNL A   1      35.847  22.657  23.762  1.00  0.00     0.333 C 
ATOM      7  O   UNL A   1      36.588  22.958  22.829  1.00  0.00    -0.249 OA
BRANCH   6   8
ATOM      8  C   UNL A   1      34.417  23.281  23.909  1.00  0.00     0.223 C 
BRANCH   8   9
ATOM      9  N   UNL A   1      34.026  23.769  22.591  1.00  0.00    -0.335 N 
ATOM     10  C   UNL A   1      33.274  24.816  22.146  1.00  0.00     0.255 C 
ATOM     11  O   UNL A   1      33.121  24.866  20.923  1.00  0.00    -0.269 OA
ATOM     12  H   UNL A   1      34.386  23.218  21.857  1.00  0.00     0.165 HD
BRANCH  10  13
ATOM     13  C   UNL A   1      32.625  25.862  22.990  1.00  0.00     0.078 A 
ATOM     14  C   UNL A   1      31.688  27.956  24.633  1.00  0.00     0.157 A 
ATOM     15  C   UNL A   1      32.970  28.021  24.107  1.00  0.00     0.050 A 
ATOM     16  C   UNL A   1      30.871  26.882  24.325  1.00  0.00     0.201 A 
ATOM     17  C   UNL A   1      33.435  26.978  23.298  1.00  0.00     0.021 A 
ATOM     18  C   UNL A   1      31.317  25.877  23.475  1.00  0.00     0.175 A 
ATOM     19  F   UNL A   1      29.618  26.825  24.802  1.00  0.00    -0.200 F 
ATOM     20  F   UNL A   1      30.378  25.009  23.091  1.00  0.00    -0.203 F 
BRANCH  14  21
ATOM     21  O   UNL A   1      31.232  28.930  25.473  1.00  0.00    -0.494 OA
ATOM     22  C   UNL A   1      32.181  29.992  25.550  1.00  0.00     0.278 C 
ENDBRANCH  14  21
ENDBRANCH  10  13
ENDBRANCH   8   9
BRANCH   8  23
ATOM     23  C   UNL A   1      33.260  22.492  24.475  1.00  0.00     0.012 C 
ATOM     24  C   UNL A   1      32.466  22.797  25.508  1.00  0.00     0.064 C 
ATOM     25  C   UNL A   1      32.766  21.135  24.022  1.00  0.00     0.156 C 
ATOM     26  C   UNL A   1      32.458  24.021  26.352  1.00  0.00     0.069 C 
ATOM     27  N   UNL A   1      31.561  21.811  25.806  1.00  0.00    -0.160 NA
ATOM     28  N   UNL A   1      31.713  20.830  25.035  1.00  0.00    -0.181 NA
ATOM     29  C   UNL A   1      32.075  21.017  22.662  1.00  0.00     0.040 C 
ENDBRANCH   8  23
ENDBRANCH   6   8
ENDBRANCH   5   6
ENDBRANCH   4   5
ENDBRANCH   3   4
ENDBRANCH   2   3
ENDBRANCH   1   2
BRANCH   1  30
ATOM     30  C   UNL A   1      41.947  21.539  26.175  1.00  0.00     0.188 C 
BRANCH  30  31
ATOM     31  O   UNL A   1      41.758  20.231  25.694  1.00  0.00    -0.376 OA
BRANCH  31  32
ATOM     32  C   UNL A   1      42.624  19.222  26.179  1.00  0.00     0.202 C 
BRANCH  32  33
ATOM     33  C   UNL A   1      43.677  18.566  25.261  1.00  0.00     0.261 C 
BRANCH  33  34
ATOM     34  O   UNL A   1      44.164  19.329  24.143  1.00  0.00    -0.460 OA
BRANCH  34  35
ATOM     35  C   UNL A   1      45.409  19.851  24.230  1.00  0.00     0.338 C 
ATOM     36  O   UNL A   1      46.438  19.353  23.797  1.00  0.00    -0.246 OA
BRANCH  35  37
ATOM     37  C   UNL A   1      45.290  21.245  24.723  1.00  0.00     0.060 A 
ATOM     38  C   UNL A   1      44.845  22.248  23.847  1.00  0.00     0.016 A 
ATOM     39  C   UNL A   1      45.591  21.559  26.050  1.00  0.00     0.016 A 
ATOM     40  C   UNL A   1      44.729  23.571  24.288  1.00  0.00     0.010 A 
ATOM     41  C   UNL A   1      45.503  22.887  26.480  1.00  0.00     0.010 A 
ATOM     42  C   UNL A   1      45.103  23.907  25.595  1.00  0.00    -0.014 A 
BRANCH  42  43
ATOM     43  C   UNL A   1      45.286  25.330  25.985  1.00  0.00     0.031 A 
ATOM     44  C   UNL A   1      46.672  25.916  25.901  1.00  0.00     0.074 A 
ATOM     45  C   UNL A   1      44.263  26.091  26.415  1.00  0.00     0.049 A 
ATOM     46  N   UNL A   1      47.103  27.092  26.276  1.00  0.00    -0.248 NA
ATOM     47  C   UNL A   1      47.712  25.050  25.318  1.00  0.00     0.031 C 
ATOM     48  C   UNL A   1      42.865  25.673  26.491  1.00  0.00     0.029 A 
ATOM     49  N   UNL A   1      44.252  27.383  26.886  1.00  0.00    -0.354 N 
ATOM     50  C   UNL A   1      48.464  27.103  25.990  1.00  0.00     0.074 A 
ATOM     51  C   UNL A   1      48.792  25.808  25.435  1.00  0.00     0.031 C 
ATOM     52  C   UNL A   1      42.134  26.684  26.994  1.00  0.00     0.029 A 
ATOM     53  C   UNL A   1      43.017  27.806  27.315  1.00  0.00     0.049 A 
ATOM     54  H   UNL A   1      45.056  27.953  26.913  1.00  0.00     0.167 HD
ATOM     55  C   UNL A   1      49.362  28.101  26.171  1.00  0.00     0.031 A 
ATOM     56  C   UNL A   1      42.644  28.953  27.920  1.00  0.00     0.031 A 
ATOM     57  C   UNL A   1      49.041  29.382  26.739  1.00  0.00     0.049 A 
ATOM     58  C   UNL A   1      43.679  30.018  28.195  1.00  0.00     0.074 A 
ATOM     59  C   UNL A   1      49.880  30.461  26.955  1.00  0.00     0.029 A 
ATOM     60  N   UNL A   1      47.784  29.757  27.191  1.00  0.00    -0.354 N 
ATOM     61  N   UNL A   1      44.959  30.022  27.904  1.00  0.00    -0.248 NA
ATOM     62  C   UNL A   1      43.217  31.237  28.874  1.00  0.00     0.031 C 
ATOM     63  C   UNL A   1      49.147  31.463  27.597  1.00  0.00     0.029 A 
ATOM     64  C   UNL A   1      47.832  31.038  27.712  1.00  0.00     0.049 A 
ATOM     65  H   UNL A   1      46.978  29.193  27.148  1.00  0.00     0.167 HD
ATOM     66  C   UNL A   1      45.444  31.256  28.332  1.00  0.00     0.074 A 
ATOM     67  C   UNL A   1      44.319  31.975  28.890  1.00  0.00     0.031 C 
ATOM     68  C   UNL A   1      46.706  31.750  28.262  1.00  0.00     0.031 A 
BRANCH  55  69
ATOM     69  C   UNL A   1      50.794  27.826  25.787  1.00  0.00    -0.014 A 
ATOM     70  C   UNL A   1      51.225  27.918  24.452  1.00  0.00     0.010 A 
ATOM     71  C   UNL A   1      51.730  27.507  26.787  1.00  0.00     0.010 A 
ATOM     72  C   UNL A   1      52.558  27.657  24.119  1.00  0.00     0.020 A 
ATOM     73  C   UNL A   1      53.070  27.278  26.464  1.00  0.00     0.020 A 
ATOM     74  C   UNL A   1      53.472  27.339  25.129  1.00  0.00     0.054 A 
BRANCH  74  75
ATOM     75  S   UNL A   1      55.199  27.032  24.670  1.00  0.00     0.124 S 
ATOM     76  O   UNL A   1      55.499  25.814  25.419  1.00  0.00    -0.237 OA
ATOM     77  O   UNL A   1      55.121  26.873  23.220  1.00  0.00    -0.237 OA
ATOM     78  O   UNL A   1      55.898  28.231  25.127  1.00  0.00    -0.744 OA
ENDBRANCH  74  75
ENDBRANCH  55  69
BRANCH  56  79
ATOM     79  C   UNL A   1      41.226  29.155  28.338  1.00  0.00    -0.014 A 
ATOM     80  C   UNL A   1      40.860  29.093  29.694  1.00  0.00     0.010 A 
ATOM     81  C   UNL A   1      40.227  29.394  27.375  1.00  0.00     0.010 A 
ATOM     82  C   UNL A   1      39.524  29.246  30.078  1.00  0.00     0.020 A 
ATOM     83  C   UNL A   1      38.896  29.579  27.757  1.00  0.00     0.020 A 
ATOM     84  C   UNL A   1      38.549  29.492  29.106  1.00  0.00     0.054 A 
BRANCH  84  85
ATOM     85  S   UNL A   1      36.830  29.735  29.633  1.00  0.00     0.124 S 
ATOM     86  O   UNL A   1      36.085  29.221  28.488  1.00  0.00    -0.237 OA
ATOM     87  O   UNL A   1      36.757  28.930  30.850  1.00  0.00    -0.237 OA
ATOM     88  O   UNL A   1      36.735  31.179  29.842  1.00  0.00    -0.744 OA
ENDBRANCH  84  85
ENDBRANCH  56  79
BRANCH  68  89
ATOM     89  C   UNL A   1      46.940  33.156  28.754  1.00  0.00    -0.014 A 
ATOM     90  C   UNL A   1      46.665  34.276  27.950  1.00  0.00     0.010 A 
ATOM     91  C   UNL A   1      47.382  33.359  30.076  1.00  0.00     0.010 A 
ATOM     92  C   UNL A   1      46.858  35.569  28.446  1.00  0.00     0.020 A 
ATOM     93  C   UNL A   1      47.545  34.649  30.586  1.00  0.00     0.020 A 
ATOM     94  C   UNL A   1      47.295  35.748  29.763  1.00  0.00     0.054 A 
BRANCH  94  95
ATOM     95  S   UNL A   1      47.493  37.436  30.397  1.00  0.00     0.124 S 
ATOM     96  O   UNL A   1      48.888  37.441  30.823  1.00  0.00    -0.237 OA
ATOM     97  O   UNL A   1      47.190  38.254  29.225  1.00  0.00    -0.237 OA
ATOM     98  O   UNL A   1      46.512  37.519  31.477  1.00  0.00    -0.744 OA
ENDBRANCH  94  95
ENDBRANCH  68  89
ENDBRANCH  42  43
ENDBRANCH  35  37
ENDBRANCH  34  35
ENDBRANCH  33  34
ENDBRANCH  32  33
ENDBRANCH  31  32
ENDBRANCH  30  31
ENDBRANCH   1  30
TORSDOF 24
ENDMDL
MODEL 2
REMARK VINA RESULT:      -9.6      2.421      9.358
REMARK SMILES COc1ccc(C(=O)N[C@H](C(=O)OCCOCCOCCOC(=O)c2ccc(-c3c4nc(c(-c5ccc(S(=O)(=O)[O-])cc5)c5ccc([nH]5)c(-c5ccc(S(=O)(=O)[O-])cc5)c5nc(c(-c6ccc(S(=O)(=O)[O-])cc6)c6ccc3[nH]6)C=C5)C=C4)cc2)C2=C(C)N=N[C@H]2C)c(F)c1F
REMARK SMILES IDX 17 1 16 2 15 3 14 4 13 5 11 6 12 7 10 8 9 9 7 10 8 11 6 13
REMARK SMILES IDX 3 14 4 15 94 16 5 17 92 18 95 19 93 20 2 21 1 22 85 23 86 24
REMARK SMILES IDX 90 25 87 26 88 27 89 28 91 29 18 30 19 31 20 32 21 33 22 34
REMARK SMILES IDX 23 35 24 36 25 37 26 38 84 39 27 40 83 41 28 42 29 43 30 44
REMARK SMILES IDX 77 45 31 46 82 47 76 48 78 49 32 50 81 51 75 52 74 53 33 55
REMARK SMILES IDX 63 56 44 57 62 58 45 59 48 60 61 61 79 62 46 63 47 64 60 66
REMARK SMILES IDX 80 67 49 68 34 69 35 70 43 71 36 72 42 73 37 74 38 75 39 76
REMARK SMILES IDX 40 77 41 78 64 79 65 80 73 81 66 82 72 83 67 84 68 85 69 86
REMARK SMILES IDX 70 87 71 88 50 89 51 90 59 91 52 92 58 93 53 94 54 95 55 96
REMARK SMILES IDX 56 97 57 98
REMARK H PARENT 9 12 78 54 48 65
REMARK Flexibility Score: inf
ROOT
ATOM      1  C   UNL A   1      33.372  31.721  27.332  1.00  0.00     0.188 C 
ENDROOT
BRANCH   1   2
ATOM      2  O   UNL A   1      32.746  30.446  27.312  1.00  0.00    -0.376 OA
BRANCH   2   3
ATOM      3  C   UNL A   1      33.445  29.325  26.782  1.00  0.00     0.202 C 
BRANCH   3   4
ATOM      4  C   UNL A   1      33.656  29.212  25.263  1.00  0.00     0.261 C 
BRANCH   4   5
ATOM      5  O   UNL A   1      32.474  29.407  24.458  1.00  0.00    -0.461 OA
BRANCH   5   6
ATOM      6  C   UNL A   1      32.236  28.479  23.494  1.00  0.00     0.333 C 
ATOM      7  O   UNL A   1      32.998  28.264  22.556  1.00  0.00    -0.249 OA
BRANCH   6   8
ATOM      8  C   UNL A   1      30.901  27.675  23.670  1.00  0.00     0.223 C 
BRANCH   8   9
ATOM      9  N   UNL A   1      30.870  27.196  25.048  1.00  0.00    -0.335 N 
ATOM     10  C   UNL A   1      31.431  26.140  25.703  1.00  0.00     0.255 C 
ATOM     11  O   UNL A   1      31.115  26.036  26.891  1.00  0.00    -0.269 OA
ATOM     12  H   UNL A   1      30.319  27.762  25.637  1.00  0.00     0.165 HD
BRANCH  10  13
ATOM     13  C   UNL A   1      32.352  25.122  25.117  1.00  0.00     0.078 A 
ATOM     14  C   UNL A   1      34.324  23.409  24.051  1.00  0.00     0.157 A 
ATOM     15  C   UNL A   1      34.709  24.522  24.784  1.00  0.00     0.050 A 
ATOM     16  C   UNL A   1      32.978  23.133  23.873  1.00  0.00     0.201 A 
ATOM     17  C   UNL A   1      33.729  25.374  25.306  1.00  0.00     0.021 A 
ATOM     18  C   UNL A   1      32.010  23.950  24.442  1.00  0.00     0.175 A 
ATOM     19  F   UNL A   1      32.595  22.041  23.194  1.00  0.00    -0.200 F 
ATOM     20  F   UNL A   1      30.765  23.473  24.378  1.00  0.00    -0.203 F 
BRANCH  14  21
ATOM     21  O   UNL A   1      35.259  22.595  23.480  1.00  0.00    -0.494 OA
ATOM     22  C   UNL A   1      36.558  23.168  23.623  1.00  0.00     0.278 C 
ENDBRANCH  14  21
ENDBRANCH  10  13
ENDBRANCH   8   9
BRANCH   8  23
ATOM     23  C   UNL A   1      29.557  28.289  23.359  1.00  0.00     0.012 C 
ATOM     24  C   UNL A   1      28.343  27.733  23.452  1.00  0.00     0.064 C 
ATOM     25  C   UNL A   1      29.284  29.676  22.819  1.00  0.00     0.156 C 
ATOM     26  C   UNL A   1      27.969  26.380  23.939  1.00  0.00     0.069 C 
ATOM     27  N   UNL A   1      27.337  28.553  23.009  1.00  0.00    -0.160 NA
ATOM     28  N   UNL A   1      27.809  29.642  22.596  1.00  0.00    -0.181 NA
ATOM     29  C   UNL A   1      29.536  30.883  23.724  1.00  0.00     0.040 C 
ENDBRANCH   8  23
ENDBRANCH   6   8
ENDBRANCH   5   6
ENDBRANCH   4   5
ENDBRANCH   3   4
ENDBRANCH   2   3
ENDBRANCH   1   2
BRANCH   1  30
ATOM     30  C   UNL A   1      34.879  31.807  27.632  1.00  0.00     0.188 C 
BRANCH  30  31
ATOM     31  O   UNL A   1      35.263  32.954  28.350  1.00  0.00    -0.376 OA
BRANCH  31  32
ATOM     32  C   UNL A   1      36.289  32.812  29.314  1.00  0.00     0.202 C 
BRANCH  32  33
ATOM     33  C   UNL A   1      36.183  31.766  30.444  1.00  0.00     0.261 C 
BRANCH  33  34
ATOM     34  O   UNL A   1      37.167  30.717  30.484  1.00  0.00    -0.460 OA
BRANCH  34  35
ATOM     35  C   UNL A   1      37.022  29.683  29.622  1.00  0.00     0.338 C 
ATOM     36  O   UNL A   1      35.981  29.306  29.107  1.00  0.00    -0.246 OA
BRANCH  35  37
ATOM     37  C   UNL A   1      38.376  29.231  29.216  1.00  0.00     0.060 A 
ATOM     38  C   UNL A   1      39.221  28.647  30.173  1.00  0.00     0.016 A 
ATOM     39  C   UNL A   1      38.802  29.360  27.893  1.00  0.00     0.016 A 
ATOM     40  C   UNL A   1      40.504  28.218  29.816  1.00  0.00     0.010 A 
ATOM     41  C   UNL A   1      40.096  28.957  27.544  1.00  0.00     0.010 A 
ATOM     42  C   UNL A   1      40.967  28.414  28.508  1.00  0.00    -0.014 A 
BRANCH  42  43
ATOM     43  C   UNL A   1      42.411  28.258  28.187  1.00  0.00     0.031 A 
ATOM     44  C   UNL A   1      43.320  29.437  28.420  1.00  0.00     0.074 A 
ATOM     45  C   UNL A   1      42.913  27.112  27.692  1.00  0.00     0.049 A 
ATOM     46  N   UNL A   1      44.586  29.582  28.129  1.00  0.00    -0.248 NA
ATOM     47  C   UNL A   1      42.711  30.613  29.065  1.00  0.00     0.031 C 
ATOM     48  C   UNL A   1      42.163  25.878  27.473  1.00  0.00     0.029 A 
ATOM     49  N   UNL A   1      44.187  26.810  27.269  1.00  0.00    -0.354 N 
ATOM     50  C   UNL A   1      44.922  30.868  28.539  1.00  0.00     0.074 A 
ATOM     51  C   UNL A   1      43.721  31.470  29.075  1.00  0.00     0.031 C 
ATOM     52  C   UNL A   1      42.984  24.956  26.941  1.00  0.00     0.029 A 
ATOM     53  C   UNL A   1      44.309  25.545  26.744  1.00  0.00     0.049 A 
ATOM     54  H   UNL A   1      44.940  27.441  27.337  1.00  0.00     0.167 HD
ATOM     55  C   UNL A   1      46.122  31.492  28.478  1.00  0.00     0.031 A 
ATOM     56  C   UNL A   1      45.359  24.942  26.148  1.00  0.00     0.031 A 
ATOM     57  C   UNL A   1      47.312  30.901  27.928  1.00  0.00     0.049 A 
ATOM     58  C   UNL A   1      46.664  25.689  26.008  1.00  0.00     0.074 A 
ATOM     59  C   UNL A   1      48.578  31.452  27.829  1.00  0.00     0.029 A 
ATOM     60  N   UNL A   1      47.385  29.631  27.376  1.00  0.00    -0.354 N 
ATOM     61  N   UNL A   1      46.972  26.898  26.415  1.00  0.00    -0.248 NA
ATOM     62  C   UNL A   1      47.765  24.987  25.332  1.00  0.00     0.031 C 
ATOM     63  C   UNL A   1      49.399  30.541  27.158  1.00  0.00     0.029 A 
ATOM     64  C   UNL A   1      48.665  29.391  26.908  1.00  0.00     0.049 A 
ATOM     65  H   UNL A   1      46.635  28.994  27.325  1.00  0.00     0.167 HD
ATOM     66  C   UNL A   1      48.311  27.084  26.078  1.00  0.00     0.074 A 
ATOM     67  C   UNL A   1      48.756  25.861  25.444  1.00  0.00     0.031 C 
ATOM     68  C   UNL A   1      49.102  28.168  26.282  1.00  0.00     0.031 A 
BRANCH  55  69
ATOM     69  C   UNL A   1      46.195  32.911  28.982  1.00  0.00    -0.014 A 
ATOM     70  C   UNL A   1      46.157  33.203  30.357  1.00  0.00     0.010 A 
ATOM     71  C   UNL A   1      46.340  33.966  28.063  1.00  0.00     0.010 A 
ATOM     72  C   UNL A   1      46.224  34.527  30.801  1.00  0.00     0.020 A 
ATOM     73  C   UNL A   1      46.440  35.289  28.504  1.00  0.00     0.020 A 
ATOM     74  C   UNL A   1      46.365  35.561  29.871  1.00  0.00     0.054 A 
BRANCH  74  75
ATOM     75  S   UNL A   1      46.477  37.266  30.479  1.00  0.00     0.124 S 
ATOM     76  O   UNL A   1      46.418  37.075  31.925  1.00  0.00    -0.237 OA
ATOM     77  O   UNL A   1      47.768  37.707  29.956  1.00  0.00    -0.237 OA
ATOM     78  O   UNL A   1      45.311  37.922  29.890  1.00  0.00    -0.744 OA
ENDBRANCH  74  75
ENDBRANCH  55  69
BRANCH  56  79
ATOM     79  C   UNL A   1      45.222  23.558  25.608  1.00  0.00    -0.014 A 
ATOM     80  C   UNL A   1      45.571  22.443  26.390  1.00  0.00     0.010 A 
ATOM     81  C   UNL A   1      44.757  23.348  24.296  1.00  0.00     0.010 A 
ATOM     82  C   UNL A   1      45.476  21.149  25.867  1.00  0.00     0.020 A 
ATOM     83  C   UNL A   1      44.630  22.056  23.780  1.00  0.00     0.020 A 
ATOM     84  C   UNL A   1      45.003  20.964  24.564  1.00  0.00     0.054 A 
BRANCH  84  85
ATOM     85  S   UNL A   1      44.843  19.273  23.924  1.00  0.00     0.124 S 
ATOM     86  O   UNL A   1      46.210  18.774  24.037  1.00  0.00    -0.237 OA
ATOM     87  O   UNL A   1      43.875  18.679  24.842  1.00  0.00    -0.237 OA
ATOM     88  O   UNL A   1      44.359  19.467  22.558  1.00  0.00    -0.744 OA
ENDBRANCH  84  85
ENDBRANCH  56  79
BRANCH  68  89
ATOM     89  C   UNL A   1      50.548  28.074  25.864  1.00  0.00    -0.014 A 
ATOM     90  C   UNL A   1      51.574  27.849  26.798  1.00  0.00     0.010 A 
ATOM     91  C   UNL A   1      50.876  28.147  24.496  1.00  0.00     0.010 A 
ATOM     92  C   UNL A   1      52.902  27.731  26.377  1.00  0.00     0.020 A 
ATOM     93  C   UNL A   1      52.197  27.996  24.068  1.00  0.00     0.020 A 
ATOM     94  C   UNL A   1      53.205  27.802  25.013  1.00  0.00     0.054 A 
BRANCH  94  95
ATOM     95  S   UNL A   1      54.930  27.599  24.489  1.00  0.00     0.124 S 
ATOM     96  O   UNL A   1      54.964  26.198  24.083  1.00  0.00    -0.237 OA
ATOM     97  O   UNL A   1      55.050  28.571  23.405  1.00  0.00    -0.237 OA
ATOM     98  O   UNL A   1      55.698  27.917  25.691  1.00  0.00    -0.744 OA
ENDBRANCH  94  95
ENDBRANCH  68  89
ENDBRANCH  42  43
ENDBRANCH  35  37
ENDBRANCH  34  35
ENDBRANCH  33  34
ENDBRANCH  32  33
ENDBRANCH  31  32
ENDBRANCH  30  31
ENDBRANCH   1  30
TORSDOF 24
ENDMDL
MODEL 3
REMARK VINA RESULT:      -9.5      6.913     12.609
REMARK SMILES COc1ccc(C(=O)N[C@H](C(=O)OCCOCCOCCOC(=O)c2ccc(-c3c4nc(c(-c5ccc(S(=O)(=O)[O-])cc5)c5ccc([nH]5)c(-c5ccc(S(=O)(=O)[O-])cc5)c5nc(c(-c6ccc(S(=O)(=O)[O-])cc6)c6ccc3[nH]6)C=C5)C=C4)cc2)C2=C(C)N=N[C@H]2C)c(F)c1F
REMARK SMILES IDX 17 1 16 2 15 3 14 4 13 5 11 6 12 7 10 8 9 9 7 10 8 11 6 13
REMARK SMILES IDX 3 14 4 15 94 16 5 17 92 18 95 19 93 20 2 21 1 22 85 23 86 24
REMARK SMILES IDX 90 25 87 26 88 27 89 28 91 29 18 30 19 31 20 32 21 33 22 34
REMARK SMILES IDX 23 35 24 36 25 37 26 38 84 39 27 40 83 41 28 42 29 43 30 44
REMARK SMILES IDX 77 45 31 46 82 47 76 48 78 49 32 50 81 51 75 52 74 53 33 55
REMARK SMILES IDX 63 56 44 57 62 58 45 59 48 60 61 61 79 62 46 63 47 64 60 66
REMARK SMILES IDX 80 67 49 68 34 69 35 70 43 71 36 72 42 73 37 74 38 75 39 76
REMARK SMILES IDX 40 77 41 78 64 79 65 80 73 81 66 82 72 83 67 84 68 85 69 86
REMARK SMILES IDX 70 87 71 88 50 89 51 90 59 91 52 92 58 93 53 94 54 95 55 96
REMARK SMILES IDX 56 97 57 98
REMARK H PARENT 9 12 78 54 48 65
REMARK Flexibility Score: inf
ROOT
ATOM      1  C   UNL A   1      36.067  31.591  28.273  1.00  0.00     0.188 C 
ENDROOT
BRANCH   1   2
ATOM      2  O   UNL A   1      35.120  30.774  27.600  1.00  0.00    -0.376 OA
BRANCH   2   3
ATOM      3  C   UNL A   1      35.452  29.429  27.276  1.00  0.00     0.202 C 
BRANCH   3   4
ATOM      4  C   UNL A   1      34.339  28.451  26.867  1.00  0.00     0.261 C 
BRANCH   4   5
ATOM      5  O   UNL A   1      32.992  28.909  27.110  1.00  0.00    -0.461 OA
BRANCH   5   6
ATOM      6  C   UNL A   1      32.120  28.811  26.073  1.00  0.00     0.333 C 
ATOM      7  O   UNL A   1      31.352  29.712  25.745  1.00  0.00    -0.249 OA
BRANCH   6   8
ATOM      8  C   UNL A   1      32.169  27.450  25.296  1.00  0.00     0.223 C 
BRANCH   8   9
ATOM      9  N   UNL A   1      31.503  26.458  26.133  1.00  0.00    -0.335 N 
ATOM     10  C   UNL A   1      31.656  25.116  26.326  1.00  0.00     0.255 C 
ATOM     11  O   UNL A   1      30.840  24.604  27.096  1.00  0.00    -0.269 OA
ATOM     12  H   UNL A   1      30.779  26.842  26.680  1.00  0.00     0.165 HD
BRANCH  10  13
ATOM     13  C   UNL A   1      32.685  24.241  25.690  1.00  0.00     0.078 A 
ATOM     14  C   UNL A   1      34.843  22.794  24.593  1.00  0.00     0.157 A 
ATOM     15  C   UNL A   1      35.090  23.766  25.551  1.00  0.00     0.050 A 
ATOM     16  C   UNL A   1      33.542  22.522  24.205  1.00  0.00     0.201 A 
ATOM     17  C   UNL A   1      34.017  24.488  26.088  1.00  0.00     0.021 A 
ATOM     18  C   UNL A   1      32.477  23.201  24.783  1.00  0.00     0.175 A 
ATOM     19  F   UNL A   1      33.291  21.561  23.303  1.00  0.00    -0.200 F 
ATOM     20  F   UNL A   1      31.272  22.714  24.483  1.00  0.00    -0.203 F 
BRANCH  14  21
ATOM     21  O   UNL A   1      35.875  22.118  24.009  1.00  0.00    -0.494 OA
ATOM     22  C   UNL A   1      36.326  21.075  24.871  1.00  0.00     0.278 C 
ENDBRANCH  14  21
ENDBRANCH  10  13
ENDBRANCH   8   9
BRANCH   8  23
ATOM     23  C   UNL A   1      31.628  27.316  23.893  1.00  0.00     0.012 C 
ATOM     24  C   UNL A   1      32.240  26.840  22.803  1.00  0.00     0.064 C 
ATOM     25  C   UNL A   1      30.265  27.743  23.390  1.00  0.00     0.156 C 
ATOM     26  C   UNL A   1      33.601  26.255  22.675  1.00  0.00     0.069 C 
ATOM     27  N   UNL A   1      31.479  26.939  21.667  1.00  0.00    -0.160 NA
ATOM     28  N   UNL A   1      30.376  27.483  21.925  1.00  0.00    -0.181 NA
ATOM     29  C   UNL A   1      29.031  26.968  23.854  1.00  0.00     0.040 C 
ENDBRANCH   8  23
ENDBRANCH   6   8
ENDBRANCH   5   6
ENDBRANCH   4   5
ENDBRANCH   3   4
ENDBRANCH   2   3
ENDBRANCH   1   2
BRANCH   1  30
ATOM     30  C   UNL A   1      35.919  33.121  28.197  1.00  0.00     0.188 C 
BRANCH  30  31
ATOM     31  O   UNL A   1      34.950  33.653  29.067  1.00  0.00    -0.376 OA
BRANCH  31  32
ATOM     32  C   UNL A   1      33.801  34.243  28.488  1.00  0.00     0.202 C 
BRANCH  32  33
ATOM     33  C   UNL A   1      32.930  35.239  29.282  1.00  0.00     0.261 C 
BRANCH  33  34
ATOM     34  O   UNL A   1      33.508  35.862  30.442  1.00  0.00    -0.460 OA
BRANCH  34  35
ATOM     35  C   UNL A   1      33.111  35.422  31.659  1.00  0.00     0.338 C 
ATOM     36  O   UNL A   1      31.964  35.378  32.077  1.00  0.00    -0.246 OA
BRANCH  35  37
ATOM     37  C   UNL A   1      34.273  34.774  32.315  1.00  0.00     0.060 A 
ATOM     38  C   UNL A   1      35.561  35.290  32.098  1.00  0.00     0.016 A 
ATOM     39  C   UNL A   1      34.093  33.677  33.160  1.00  0.00     0.016 A 
ATOM     40  C   UNL A   1      36.673  34.693  32.701  1.00  0.00     0.010 A 
ATOM     41  C   UNL A   1      35.210  33.063  33.738  1.00  0.00     0.010 A 
ATOM     42  C   UNL A   1      36.509  33.545  33.488  1.00  0.00    -0.014 A 
BRANCH  42  43
ATOM     43  C   UNL A   1      37.685  32.722  33.875  1.00  0.00     0.031 A 
ATOM     44  C   UNL A   1      38.403  33.068  35.153  1.00  0.00     0.074 A 
ATOM     45  C   UNL A   1      38.121  31.698  33.118  1.00  0.00     0.049 A 
ATOM     46  N   UNL A   1      39.503  32.568  35.651  1.00  0.00    -0.248 NA
ATOM     47  C   UNL A   1      37.797  34.130  35.975  1.00  0.00     0.031 C 
ATOM     48  C   UNL A   1      37.489  31.216  31.892  1.00  0.00     0.029 A 
ATOM     49  N   UNL A   1      39.219  30.885  33.270  1.00  0.00    -0.354 N 
ATOM     50  C   UNL A   1      39.730  33.263  36.835  1.00  0.00     0.074 A 
ATOM     51  C   UNL A   1      38.669  34.236  36.967  1.00  0.00     0.031 C 
ATOM     52  C   UNL A   1      38.218  30.202  31.394  1.00  0.00     0.029 A 
ATOM     53  C   UNL A   1      39.391  29.988  32.243  1.00  0.00     0.049 A 
ATOM     54  H   UNL A   1      39.826  30.940  34.045  1.00  0.00     0.167 HD
ATOM     55  C   UNL A   1      40.731  33.104  37.734  1.00  0.00     0.031 A 
ATOM     56  C   UNL A   1      40.390  29.115  31.999  1.00  0.00     0.031 A 
ATOM     57  C   UNL A   1      41.797  32.149  37.595  1.00  0.00     0.049 A 
ATOM     58  C   UNL A   1      41.545  29.018  32.969  1.00  0.00     0.074 A 
ATOM     59  C   UNL A   1      42.853  31.908  38.457  1.00  0.00     0.029 A 
ATOM     60  N   UNL A   1      41.952  31.284  36.522  1.00  0.00    -0.354 N 
ATOM     61  N   UNL A   1      41.737  29.668  34.093  1.00  0.00    -0.248 NA
ATOM     62  C   UNL A   1      42.613  28.062  32.640  1.00  0.00     0.031 C 
ATOM     63  C   UNL A   1      43.681  30.944  37.875  1.00  0.00     0.029 A 
ATOM     64  C   UNL A   1      43.100  30.529  36.686  1.00  0.00     0.049 A 
ATOM     65  H   UNL A   1      41.335  31.217  35.757  1.00  0.00     0.167 HD
ATOM     66  C   UNL A   1      42.928  29.173  34.620  1.00  0.00     0.074 A 
ATOM     67  C   UNL A   1      43.405  28.163  33.699  1.00  0.00     0.031 C 
ATOM     68  C   UNL A   1      43.565  29.520  35.767  1.00  0.00     0.031 A 
BRANCH  55  69
ATOM     69  C   UNL A   1      40.742  34.020  38.932  1.00  0.00    -0.014 A 
ATOM     70  C   UNL A   1      40.125  33.652  40.140  1.00  0.00     0.010 A 
ATOM     71  C   UNL A   1      41.413  35.254  38.854  1.00  0.00     0.010 A 
ATOM     72  C   UNL A   1      40.147  34.518  41.238  1.00  0.00     0.020 A 
ATOM     73  C   UNL A   1      41.465  36.109  39.958  1.00  0.00     0.020 A 
ATOM     74  C   UNL A   1      40.817  35.742  41.139  1.00  0.00     0.054 A 
BRANCH  74  75
ATOM     75  S   UNL A   1      40.850  36.833  42.587  1.00  0.00     0.124 S 
ATOM     76  O   UNL A   1      40.724  35.879  43.686  1.00  0.00    -0.237 OA
ATOM     77  O   UNL A   1      42.153  37.482  42.467  1.00  0.00    -0.237 OA
ATOM     78  O   UNL A   1      39.698  37.709  42.389  1.00  0.00    -0.744 OA
ENDBRANCH  74  75
ENDBRANCH  55  69
BRANCH  56  79
ATOM     79  C   UNL A   1      40.368  28.272  30.769  1.00  0.00    -0.014 A 
ATOM     80  C   UNL A   1      41.264  28.517  29.713  1.00  0.00     0.010 A 
ATOM     81  C   UNL A   1      39.434  27.227  30.638  1.00  0.00     0.010 A 
ATOM     82  C   UNL A   1      41.215  27.748  28.545  1.00  0.00     0.020 A 
ATOM     83  C   UNL A   1      39.402  26.436  29.486  1.00  0.00     0.020 A 
ATOM     84  C   UNL A   1      40.285  26.709  28.441  1.00  0.00     0.054 A 
BRANCH  84  85
ATOM     85  S   UNL A   1      40.272  25.695  26.935  1.00  0.00     0.124 S 
ATOM     86  O   UNL A   1      38.874  25.283  26.858  1.00  0.00    -0.237 OA
ATOM     87  O   UNL A   1      40.710  26.643  25.914  1.00  0.00    -0.237 OA
ATOM     88  O   UNL A   1      41.223  24.626  27.234  1.00  0.00    -0.744 OA
ENDBRANCH  84  85
ENDBRANCH  56  79
BRANCH  68  89
ATOM     89  C   UNL A   1      44.825  28.773  36.128  1.00  0.00    -0.014 A 
ATOM     90  C   UNL A   1      46.090  29.203  35.692  1.00  0.00     0.010 A 
ATOM     91  C   UNL A   1      44.741  27.652  36.977  1.00  0.00     0.010 A 
ATOM     92  C   UNL A   1      47.244  28.511  36.073  1.00  0.00     0.020 A 
ATOM     93  C   UNL A   1      45.894  26.977  37.386  1.00  0.00     0.020 A 
ATOM     94  C   UNL A   1      47.139  27.403  36.920  1.00  0.00     0.054 A 
BRANCH  94  95
ATOM     95  S   UNL A   1      48.654  26.550  37.436  1.00  0.00     0.124 S 
ATOM     96  O   UNL A   1      49.261  27.523  38.338  1.00  0.00    -0.237 OA
ATOM     97  O   UNL A   1      48.138  25.340  38.072  1.00  0.00    -0.237 OA
ATOM     98  O   UNL A   1      49.373  26.329  36.183  1.00  0.00    -0.744 OA
ENDBRANCH  94  95
ENDBRANCH  68  89
ENDBRANCH  42  43
ENDBRANCH  35  37
ENDBRANCH  34  35
ENDBRANCH  33  34
ENDBRANCH  32  33
ENDBRANCH  31  32
ENDBRANCH  30  31
ENDBRANCH   1  30
TORSDOF 24
ENDMDL
