MODEL 1
REMARK VINA RESULT:      -9.5      0.000      0.000
REMARK SMILES O=C(OCCOCCOCCOC(=O)c1cc(SCC(=O)N2CCOCC2)ccn1)c1ccc(-c2c3nc(c(-c4ccc(S(=O)(=O)[O-])cc4)c4ccc([nH]4)c(-c4ccc(S(=O)(=O)[O-])cc4)c4nc(c(-c5ccc(S(=O)(=O)[O-])cc5)c5ccc2[nH]5)C=C4)C=C3)cc1
REMARK SMILES IDX 7 1 6 2 5 3 4 4 3 5 2 6 1 7 31 8 32 9 90 10 33 11 89 12
REMARK SMILES IDX 34 13 35 14 36 15 83 16 37 17 88 18 82 19 84 20 38 21 87 22
REMARK SMILES IDX 81 23 80 24 39 26 69 27 50 28 68 29 51 30 54 31 67 32 85 33
REMARK SMILES IDX 52 34 53 35 66 37 86 38 55 39 40 40 41 41 49 42 42 43 48 44
REMARK SMILES IDX 43 45 44 46 45 47 46 48 47 49 70 50 71 51 79 52 72 53 78 54
REMARK SMILES IDX 73 55 74 56 75 57 76 58 77 59 56 60 57 61 65 62 58 63 64 64
REMARK SMILES IDX 59 65 60 66 61 67 62 68 63 69 8 70 9 71 10 72 11 73 12 74
REMARK SMILES IDX 13 75 14 76 15 77 16 78 30 79 17 80 29 81 28 82 18 83 19 84
REMARK SMILES IDX 20 85 21 86 22 87 23 88 27 89 24 90 26 91 25 92
REMARK H PARENT 84 25 54 36
REMARK Flexibility Score: inf
ROOT
ATOM      1  C   UNL A   1      36.520  21.899  24.460  1.00  0.00     0.188 C 
ENDROOT
BRANCH   1   2
ATOM      2  O   UNL A   1      37.897  21.672  24.794  1.00  0.00    -0.376 OA
BRANCH   2   3
ATOM      3  C   UNL A   1      38.286  22.204  26.062  1.00  0.00     0.202 C 
BRANCH   3   4
ATOM      4  C   UNL A   1      38.469  23.726  26.108  1.00  0.00     0.261 C 
BRANCH   4   5
ATOM      5  O   UNL A   1      39.835  24.108  26.321  1.00  0.00    -0.460 OA
BRANCH   5   6
ATOM      6  C   UNL A   1      40.333  25.368  26.399  1.00  0.00     0.338 C 
ATOM      7  O   UNL A   1      40.781  25.889  25.377  1.00  0.00    -0.246 OA
BRANCH   6   8
ATOM      8  C   UNL A   1      40.314  26.183  27.652  1.00  0.00     0.060 A 
ATOM      9  C   UNL A   1      39.482  25.952  28.752  1.00  0.00     0.016 A 
ATOM     10  C   UNL A   1      41.265  27.211  27.748  1.00  0.00     0.016 A 
ATOM     11  C   UNL A   1      39.512  26.788  29.871  1.00  0.00     0.010 A 
ATOM     12  C   UNL A   1      41.338  28.018  28.888  1.00  0.00     0.010 A 
ATOM     13  C   UNL A   1      40.433  27.833  29.940  1.00  0.00    -0.014 A 
BRANCH  13  14
ATOM     14  C   UNL A   1      40.404  28.770  31.087  1.00  0.00     0.031 A 
ATOM     15  C   UNL A   1      39.306  29.786  31.156  1.00  0.00     0.074 A 
ATOM     16  C   UNL A   1      41.357  28.708  32.035  1.00  0.00     0.049 A 
ATOM     17  N   UNL A   1      39.087  30.692  32.068  1.00  0.00    -0.248 NA
ATOM     18  C   UNL A   1      38.336  29.797  30.046  1.00  0.00     0.031 C 
ATOM     19  C   UNL A   1      42.455  27.745  32.032  1.00  0.00     0.029 A 
ATOM     20  N   UNL A   1      41.566  29.443  33.178  1.00  0.00    -0.354 N 
ATOM     21  C   UNL A   1      38.007  31.432  31.606  1.00  0.00     0.074 A 
ATOM     22  C   UNL A   1      37.587  30.845  30.353  1.00  0.00     0.031 C 
ATOM     23  C   UNL A   1      43.198  27.932  33.133  1.00  0.00     0.029 A 
ATOM     24  C   UNL A   1      42.646  29.017  33.925  1.00  0.00     0.049 A 
ATOM     25  H   UNL A   1      40.997  30.202  33.440  1.00  0.00     0.167 HD
ATOM     26  C   UNL A   1      37.451  32.531  32.165  1.00  0.00     0.031 A 
ATOM     27  C   UNL A   1      43.110  29.427  35.127  1.00  0.00     0.031 A 
ATOM     28  C   UNL A   1      37.888  33.087  33.415  1.00  0.00     0.049 A 
ATOM     29  C   UNL A   1      42.374  30.562  35.783  1.00  0.00     0.074 A 
ATOM     30  C   UNL A   1      37.415  34.208  34.072  1.00  0.00     0.029 A 
ATOM     31  N   UNL A   1      38.907  32.559  34.196  1.00  0.00    -0.354 N 
ATOM     32  N   UNL A   1      41.286  31.173  35.379  1.00  0.00    -0.248 NA
ATOM     33  C   UNL A   1      42.915  31.058  37.054  1.00  0.00     0.031 C 
ATOM     34  C   UNL A   1      38.185  34.387  35.227  1.00  0.00     0.029 A 
ATOM     35  C   UNL A   1      39.105  33.353  35.310  1.00  0.00     0.049 A 
ATOM     36  H   UNL A   1      39.414  31.742  33.987  1.00  0.00     0.167 HD
ATOM     37  C   UNL A   1      41.023  32.139  36.338  1.00  0.00     0.074 A 
ATOM     38  C   UNL A   1      42.010  31.967  37.386  1.00  0.00     0.031 C 
ATOM     39  C   UNL A   1      40.090  33.122  36.333  1.00  0.00     0.031 A 
BRANCH  26  40
ATOM     40  C   UNL A   1      36.401  33.253  31.370  1.00  0.00    -0.014 A 
ATOM     41  C   UNL A   1      35.071  33.356  31.811  1.00  0.00     0.010 A 
ATOM     42  C   UNL A   1      36.768  33.841  30.145  1.00  0.00     0.010 A 
ATOM     43  C   UNL A   1      34.118  34.009  31.021  1.00  0.00     0.020 A 
ATOM     44  C   UNL A   1      35.824  34.512  29.364  1.00  0.00     0.020 A 
ATOM     45  C   UNL A   1      34.500  34.578  29.801  1.00  0.00     0.054 A 
BRANCH  45  46
ATOM     46  S   UNL A   1      33.249  35.430  28.801  1.00  0.00     0.124 S 
ATOM     47  O   UNL A   1      32.629  34.318  28.085  1.00  0.00    -0.237 OA
ATOM     48  O   UNL A   1      32.411  36.070  29.812  1.00  0.00    -0.237 OA
ATOM     49  O   UNL A   1      34.031  36.346  27.974  1.00  0.00    -0.744 OA
ENDBRANCH  45  46
ENDBRANCH  26  40
BRANCH  27  50
ATOM     50  C   UNL A   1      44.217  28.705  35.841  1.00  0.00    -0.014 A 
ATOM     51  C   UNL A   1      43.911  27.596  36.657  1.00  0.00     0.010 A 
ATOM     52  C   UNL A   1      45.570  29.057  35.693  1.00  0.00     0.010 A 
ATOM     53  C   UNL A   1      44.913  26.824  37.250  1.00  0.00     0.020 A 
ATOM     54  C   UNL A   1      46.586  28.278  36.273  1.00  0.00     0.020 A 
ATOM     55  C   UNL A   1      46.248  27.158  37.036  1.00  0.00     0.054 A 
BRANCH  55  56
ATOM     56  S   UNL A   1      47.522  26.047  37.694  1.00  0.00     0.124 S 
ATOM     57  O   UNL A   1      47.682  26.545  39.057  1.00  0.00    -0.237 OA
ATOM     58  O   UNL A   1      46.883  24.738  37.570  1.00  0.00    -0.237 OA
ATOM     59  O   UNL A   1      48.662  26.266  36.807  1.00  0.00    -0.744 OA
ENDBRANCH  55  56
ENDBRANCH  27  50
BRANCH  39  60
ATOM     60  C   UNL A   1      40.145  34.097  37.472  1.00  0.00    -0.014 A 
ATOM     61  C   UNL A   1      40.919  35.266  37.357  1.00  0.00     0.010 A 
ATOM     62  C   UNL A   1      39.378  33.881  38.628  1.00  0.00     0.010 A 
ATOM     63  C   UNL A   1      40.949  36.193  38.394  1.00  0.00     0.020 A 
ATOM     64  C   UNL A   1      39.383  34.823  39.657  1.00  0.00     0.020 A 
ATOM     65  C   UNL A   1      40.177  35.968  39.538  1.00  0.00     0.054 A 
BRANCH  65  66
ATOM     66  S   UNL A   1      40.180  37.225  40.842  1.00  0.00     0.124 S 
ATOM     67  O   UNL A   1      40.270  38.460  40.069  1.00  0.00    -0.237 OA
ATOM     68  O   UNL A   1      38.903  36.995  41.513  1.00  0.00    -0.237 OA
ATOM     69  O   UNL A   1      41.362  36.896  41.635  1.00  0.00    -0.744 OA
ENDBRANCH  65  66
ENDBRANCH  39  60
ENDBRANCH  13  14
ENDBRANCH   6   8
ENDBRANCH   5   6
ENDBRANCH   4   5
ENDBRANCH   3   4
ENDBRANCH   2   3
ENDBRANCH   1   2
BRANCH   1  70
ATOM     70  C   UNL A   1      35.583  21.095  25.365  1.00  0.00     0.188 C 
BRANCH  70  71
ATOM     71  O   UNL A   1      34.819  20.073  24.718  1.00  0.00    -0.376 OA
BRANCH  71  72
ATOM     72  C   UNL A   1      33.477  19.892  25.155  1.00  0.00     0.202 C 
BRANCH  72  73
ATOM     73  C   UNL A   1      32.353  20.354  24.222  1.00  0.00     0.261 C 
BRANCH  73  74
ATOM     74  O   UNL A   1      31.779  21.617  24.561  1.00  0.00    -0.459 OA
BRANCH  74  75
ATOM     75  C   UNL A   1      32.095  22.621  23.709  1.00  0.00     0.357 C 
ATOM     76  O   UNL A   1      32.872  22.578  22.756  1.00  0.00    -0.244 OA
BRANCH  75  77
ATOM     77  C   UNL A   1      31.455  23.859  24.171  1.00  0.00     0.149 A 
ATOM     78  C   UNL A   1      31.454  24.925  23.288  1.00  0.00     0.051 A 
ATOM     79  N   UNL A   1      30.879  23.858  25.403  1.00  0.00    -0.249 NA
ATOM     80  C   UNL A   1      30.853  26.098  23.696  1.00  0.00     0.012 A 
ATOM     81  C   UNL A   1      30.227  24.986  25.736  1.00  0.00     0.113 A 
ATOM     82  C   UNL A   1      30.170  26.102  24.919  1.00  0.00     0.035 A 
BRANCH  80  83
ATOM     83  S   UNL A   1      30.880  27.613  22.778  1.00  0.00    -0.116 SA
BRANCH  83  84
ATOM     84  C   UNL A   1      32.474  28.420  23.090  1.00  0.00     0.175 C 
BRANCH  84  85
ATOM     85  C   UNL A   1      33.196  28.087  24.394  1.00  0.00     0.233 C 
ATOM     86  O   UNL A   1      34.028  27.172  24.426  1.00  0.00    -0.274 OA
ATOM     87  N   UNL A   1      33.055  28.940  25.476  1.00  0.00    -0.337 N 
ATOM     88  C   UNL A   1      31.778  29.486  25.931  1.00  0.00     0.148 C 
ATOM     89  C   UNL A   1      34.117  29.009  26.478  1.00  0.00     0.148 C 
ATOM     90  C   UNL A   1      31.940  30.846  26.626  1.00  0.00     0.181 C 
ATOM     91  C   UNL A   1      34.219  30.430  27.042  1.00  0.00     0.181 C 
ATOM     92  O   UNL A   1      32.970  30.823  27.624  1.00  0.00    -0.378 OA
ENDBRANCH  84  85
ENDBRANCH  83  84
ENDBRANCH  80  83
ENDBRANCH  75  77
ENDBRANCH  74  75
ENDBRANCH  73  74
ENDBRANCH  72  73
ENDBRANCH  71  72
ENDBRANCH  70  71
ENDBRANCH   1  70
TORSDOF 23
ENDMDL
MODEL 2
REMARK VINA RESULT:      -9.0      1.590      1.987
REMARK SMILES O=C(OCCOCCOCCOC(=O)c1cc(SCC(=O)N2CCOCC2)ccn1)c1ccc(-c2c3nc(c(-c4ccc(S(=O)(=O)[O-])cc4)c4ccc([nH]4)c(-c4ccc(S(=O)(=O)[O-])cc4)c4nc(c(-c5ccc(S(=O)(=O)[O-])cc5)c5ccc2[nH]5)C=C4)C=C3)cc1
REMARK SMILES IDX 7 1 6 2 5 3 4 4 3 5 2 6 1 7 31 8 32 9 90 10 33 11 89 12
REMARK SMILES IDX 34 13 35 14 36 15 83 16 37 17 88 18 82 19 84 20 38 21 87 22
REMARK SMILES IDX 81 23 80 24 39 26 69 27 50 28 68 29 51 30 54 31 67 32 85 33
REMARK SMILES IDX 52 34 53 35 66 37 86 38 55 39 40 40 41 41 49 42 42 43 48 44
REMARK SMILES IDX 43 45 44 46 45 47 46 48 47 49 70 50 71 51 79 52 72 53 78 54
REMARK SMILES IDX 73 55 74 56 75 57 76 58 77 59 56 60 57 61 65 62 58 63 64 64
REMARK SMILES IDX 59 65 60 66 61 67 62 68 63 69 8 70 9 71 10 72 11 73 12 74
REMARK SMILES IDX 13 75 14 76 15 77 16 78 30 79 17 80 29 81 28 82 18 83 19 84
REMARK SMILES IDX 20 85 21 86 22 87 23 88 27 89 24 90 26 91 25 92
REMARK H PARENT 84 25 54 36
REMARK Flexibility Score: inf
ROOT
ATOM      1  C   UNL A   1      36.243  21.965  24.686  1.00  0.00     0.188 C 
ENDROOT
BRANCH   1   2
ATOM      2  O   UNL A   1      37.596  21.995  25.165  1.00  0.00    -0.376 OA
BRANCH   2   3
ATOM      3  C   UNL A   1      37.805  22.881  26.267  1.00  0.00     0.202 C 
BRANCH   3   4
ATOM      4  C   UNL A   1      38.393  24.251  25.905  1.00  0.00     0.261 C 
BRANCH   4   5
ATOM      5  O   UNL A   1      39.777  24.366  26.264  1.00  0.00    -0.460 OA
BRANCH   5   6
ATOM      6  C   UNL A   1      40.481  25.508  26.466  1.00  0.00     0.338 C 
ATOM      7  O   UNL A   1      41.178  25.941  25.549  1.00  0.00    -0.246 OA
BRANCH   6   8
ATOM      8  C   UNL A   1      40.411  26.304  27.730  1.00  0.00     0.060 A 
ATOM      9  C   UNL A   1      39.510  26.078  28.776  1.00  0.00     0.016 A 
ATOM     10  C   UNL A   1      41.381  27.304  27.899  1.00  0.00     0.016 A 
ATOM     11  C   UNL A   1      39.497  26.895  29.909  1.00  0.00     0.010 A 
ATOM     12  C   UNL A   1      41.408  28.092  29.054  1.00  0.00     0.010 A 
ATOM     13  C   UNL A   1      40.440  27.915  30.048  1.00  0.00    -0.014 A 
BRANCH  13  14
ATOM     14  C   UNL A   1      40.369  28.834  31.207  1.00  0.00     0.031 A 
ATOM     15  C   UNL A   1      39.260  29.839  31.259  1.00  0.00     0.074 A 
ATOM     16  C   UNL A   1      41.294  28.767  32.183  1.00  0.00     0.049 A 
ATOM     17  N   UNL A   1      39.006  30.730  32.178  1.00  0.00    -0.248 NA
ATOM     18  C   UNL A   1      38.323  29.858  30.122  1.00  0.00     0.031 C 
ATOM     19  C   UNL A   1      42.400  27.814  32.198  1.00  0.00     0.029 A 
ATOM     20  N   UNL A   1      41.463  29.486  33.342  1.00  0.00    -0.354 N 
ATOM     21  C   UNL A   1      37.933  31.467  31.695  1.00  0.00     0.074 A 
ATOM     22  C   UNL A   1      37.555  30.895  30.422  1.00  0.00     0.031 C 
ATOM     23  C   UNL A   1      43.109  27.990  33.323  1.00  0.00     0.029 A 
ATOM     24  C   UNL A   1      42.524  29.059  34.114  1.00  0.00     0.049 A 
ATOM     25  H   UNL A   1      40.879  30.236  33.598  1.00  0.00     0.167 HD
ATOM     26  C   UNL A   1      37.351  32.552  32.253  1.00  0.00     0.031 A 
ATOM     27  C   UNL A   1      42.948  29.455  35.335  1.00  0.00     0.031 A 
ATOM     28  C   UNL A   1      37.745  33.093  33.524  1.00  0.00     0.049 A 
ATOM     29  C   UNL A   1      42.183  30.573  35.985  1.00  0.00     0.074 A 
ATOM     30  C   UNL A   1      37.243  34.200  34.183  1.00  0.00     0.029 A 
ATOM     31  N   UNL A   1      38.746  32.564  34.327  1.00  0.00    -0.354 N 
ATOM     32  N   UNL A   1      41.102  31.181  35.558  1.00  0.00    -0.248 NA
ATOM     33  C   UNL A   1      42.682  31.055  37.279  1.00  0.00     0.031 C 
ATOM     34  C   UNL A   1      37.977  34.369  35.362  1.00  0.00     0.029 A 
ATOM     35  C   UNL A   1      38.904  33.342  35.457  1.00  0.00     0.049 A 
ATOM     36  H   UNL A   1      39.267  31.754  34.121  1.00  0.00     0.167 HD
ATOM     37  C   UNL A   1      40.802  32.130  36.523  1.00  0.00     0.074 A 
ATOM     38  C   UNL A   1      41.759  31.951  37.597  1.00  0.00     0.031 C 
ATOM     39  C   UNL A   1      39.861  33.105  36.505  1.00  0.00     0.031 A 
BRANCH  26  40
ATOM     40  C   UNL A   1      36.317  33.277  31.438  1.00  0.00    -0.014 A 
ATOM     41  C   UNL A   1      34.945  33.198  31.732  1.00  0.00     0.010 A 
ATOM     42  C   UNL A   1      36.744  34.057  30.347  1.00  0.00     0.010 A 
ATOM     43  C   UNL A   1      34.015  33.863  30.924  1.00  0.00     0.020 A 
ATOM     44  C   UNL A   1      35.820  34.738  29.552  1.00  0.00     0.020 A 
ATOM     45  C   UNL A   1      34.459  34.623  29.837  1.00  0.00     0.054 A 
BRANCH  45  46
ATOM     46  S   UNL A   1      33.235  35.486  28.813  1.00  0.00     0.124 S 
ATOM     47  O   UNL A   1      32.529  34.371  28.186  1.00  0.00    -0.237 OA
ATOM     48  O   UNL A   1      32.465  36.240  29.800  1.00  0.00    -0.237 OA
ATOM     49  O   UNL A   1      34.048  36.297  27.910  1.00  0.00    -0.744 OA
ENDBRANCH  45  46
ENDBRANCH  26  40
BRANCH  27  50
ATOM     50  C   UNL A   1      44.041  28.732  36.070  1.00  0.00    -0.014 A 
ATOM     51  C   UNL A   1      45.373  29.180  35.950  1.00  0.00     0.010 A 
ATOM     52  C   UNL A   1      43.790  27.645  36.925  1.00  0.00     0.010 A 
ATOM     53  C   UNL A   1      46.407  28.615  36.700  1.00  0.00     0.020 A 
ATOM     54  C   UNL A   1      44.820  27.080  37.696  1.00  0.00     0.020 A 
ATOM     55  C   UNL A   1      46.120  27.580  37.587  1.00  0.00     0.054 A 
BRANCH  55  56
ATOM     56  S   UNL A   1      47.455  26.973  38.654  1.00  0.00     0.124 S 
ATOM     57  O   UNL A   1      47.288  25.527  38.555  1.00  0.00    -0.237 OA
ATOM     58  O   UNL A   1      48.643  27.518  37.998  1.00  0.00    -0.237 OA
ATOM     59  O   UNL A   1      47.145  27.554  39.957  1.00  0.00    -0.744 OA
ENDBRANCH  55  56
ENDBRANCH  27  50
BRANCH  39  60
ATOM     60  C   UNL A   1      39.873  34.063  37.659  1.00  0.00    -0.014 A 
ATOM     61  C   UNL A   1      40.662  35.226  37.596  1.00  0.00     0.010 A 
ATOM     62  C   UNL A   1      39.054  33.839  38.777  1.00  0.00     0.010 A 
ATOM     63  C   UNL A   1      40.654  36.139  38.647  1.00  0.00     0.020 A 
ATOM     64  C   UNL A   1      39.021  34.766  39.819  1.00  0.00     0.020 A 
ATOM     65  C   UNL A   1      39.829  35.905  39.751  1.00  0.00     0.054 A 
BRANCH  65  66
ATOM     66  S   UNL A   1      39.785  37.144  41.072  1.00  0.00     0.124 S 
ATOM     67  O   UNL A   1      39.332  36.352  42.212  1.00  0.00    -0.237 OA
ATOM     68  O   UNL A   1      41.172  37.597  41.133  1.00  0.00    -0.237 OA
ATOM     69  O   UNL A   1      38.832  38.136  40.581  1.00  0.00    -0.744 OA
ENDBRANCH  65  66
ENDBRANCH  39  60
ENDBRANCH  13  14
ENDBRANCH   6   8
ENDBRANCH   5   6
ENDBRANCH   4   5
ENDBRANCH   3   4
ENDBRANCH   2   3
ENDBRANCH   1   2
BRANCH   1  70
ATOM     70  C   UNL A   1      35.364  21.054  25.547  1.00  0.00     0.188 C 
BRANCH  70  71
ATOM     71  O   UNL A   1      34.774  19.939  24.871  1.00  0.00    -0.376 OA
BRANCH  71  72
ATOM     72  C   UNL A   1      33.361  19.802  24.956  1.00  0.00     0.202 C 
BRANCH  72  73
ATOM     73  C   UNL A   1      32.530  20.198  23.732  1.00  0.00     0.261 C 
BRANCH  73  74
ATOM     74  O   UNL A   1      31.851  21.449  23.850  1.00  0.00    -0.459 OA
BRANCH  74  75
ATOM     75  C   UNL A   1      32.564  22.514  23.413  1.00  0.00     0.357 C 
ATOM     76  O   UNL A   1      33.482  22.516  22.595  1.00  0.00    -0.244 OA
BRANCH  75  77
ATOM     77  C   UNL A   1      32.162  23.703  24.175  1.00  0.00     0.149 A 
ATOM     78  C   UNL A   1      31.189  24.506  23.607  1.00  0.00     0.051 A 
ATOM     79  N   UNL A   1      32.737  23.906  25.391  1.00  0.00    -0.249 NA
ATOM     80  C   UNL A   1      30.788  25.626  24.306  1.00  0.00     0.012 A 
ATOM     81  C   UNL A   1      32.264  24.956  26.085  1.00  0.00     0.113 A 
ATOM     82  C   UNL A   1      31.292  25.814  25.599  1.00  0.00     0.035 A 
BRANCH  80  83
ATOM     83  S   UNL A   1      29.673  26.854  23.683  1.00  0.00    -0.116 SA
BRANCH  83  84
ATOM     84  C   UNL A   1      30.646  28.332  23.285  1.00  0.00     0.175 C 
BRANCH  84  85
ATOM     85  C   UNL A   1      30.355  29.608  24.072  1.00  0.00     0.233 C 
ATOM     86  O   UNL A   1      31.096  29.942  25.006  1.00  0.00    -0.274 OA
ATOM     87  N   UNL A   1      29.382  30.477  23.608  1.00  0.00    -0.337 N 
ATOM     88  C   UNL A   1      28.059  30.060  23.148  1.00  0.00     0.148 C 
ATOM     89  C   UNL A   1      29.470  31.896  23.942  1.00  0.00     0.148 C 
ATOM     90  C   UNL A   1      27.475  31.019  22.102  1.00  0.00     0.181 C 
ATOM     91  C   UNL A   1      28.919  32.745  22.791  1.00  0.00     0.181 C 
ATOM     92  O   UNL A   1      27.558  32.389  22.520  1.00  0.00    -0.378 OA
ENDBRANCH  84  85
ENDBRANCH  83  84
ENDBRANCH  80  83
ENDBRANCH  75  77
ENDBRANCH  74  75
ENDBRANCH  73  74
ENDBRANCH  72  73
ENDBRANCH  71  72
ENDBRANCH  70  71
ENDBRANCH   1  70
TORSDOF 23
ENDMDL
MODEL 3
REMARK VINA RESULT:      -9.0      6.376      8.429
REMARK SMILES O=C(OCCOCCOCCOC(=O)c1cc(SCC(=O)N2CCOCC2)ccn1)c1ccc(-c2c3nc(c(-c4ccc(S(=O)(=O)[O-])cc4)c4ccc([nH]4)c(-c4ccc(S(=O)(=O)[O-])cc4)c4nc(c(-c5ccc(S(=O)(=O)[O-])cc5)c5ccc2[nH]5)C=C4)C=C3)cc1
REMARK SMILES IDX 7 1 6 2 5 3 4 4 3 5 2 6 1 7 31 8 32 9 90 10 33 11 89 12
REMARK SMILES IDX 34 13 35 14 36 15 83 16 37 17 88 18 82 19 84 20 38 21 87 22
REMARK SMILES IDX 81 23 80 24 39 26 69 27 50 28 68 29 51 30 54 31 67 32 85 33
REMARK SMILES IDX 52 34 53 35 66 37 86 38 55 39 40 40 41 41 49 42 42 43 48 44
REMARK SMILES IDX 43 45 44 46 45 47 46 48 47 49 70 50 71 51 79 52 72 53 78 54
REMARK SMILES IDX 73 55 74 56 75 57 76 58 77 59 56 60 57 61 65 62 58 63 64 64
REMARK SMILES IDX 59 65 60 66 61 67 62 68 63 69 8 70 9 71 10 72 11 73 12 74
REMARK SMILES IDX 13 75 14 76 15 77 16 78 30 79 17 80 29 81 28 82 18 83 19 84
REMARK SMILES IDX 20 85 21 86 22 87 23 88 27 89 24 90 26 91 25 92
REMARK H PARENT 84 25 54 36
REMARK Flexibility Score: inf
ROOT
ATOM      1  C   UNL A   1      37.112  22.324  24.548  1.00  0.00     0.188 C 
ENDROOT
BRANCH   1   2
ATOM      2  O   UNL A   1      37.918  21.460  25.363  1.00  0.00    -0.376 OA
BRANCH   2   3
ATOM      3  C   UNL A   1      37.848  20.080  24.998  1.00  0.00     0.202 C 
BRANCH   3   4
ATOM      4  C   UNL A   1      38.930  19.182  25.610  1.00  0.00     0.261 C 
BRANCH   4   5
ATOM      5  O   UNL A   1      40.184  19.862  25.766  1.00  0.00    -0.460 OA
BRANCH   5   6
ATOM      6  C   UNL A   1      40.799  20.192  26.929  1.00  0.00     0.338 C 
ATOM      7  O   UNL A   1      40.769  19.389  27.861  1.00  0.00    -0.246 OA
BRANCH   6   8
ATOM      8  C   UNL A   1      41.564  21.462  27.122  1.00  0.00     0.060 A 
ATOM      9  C   UNL A   1      42.287  21.802  28.270  1.00  0.00     0.016 A 
ATOM     10  C   UNL A   1      41.615  22.338  26.026  1.00  0.00     0.016 A 
ATOM     11  C   UNL A   1      42.948  23.029  28.372  1.00  0.00     0.010 A 
ATOM     12  C   UNL A   1      42.319  23.544  26.102  1.00  0.00     0.010 A 
ATOM     13  C   UNL A   1      42.957  23.912  27.292  1.00  0.00    -0.014 A 
BRANCH  13  14
ATOM     14  C   UNL A   1      43.583  25.247  27.433  1.00  0.00     0.031 A 
ATOM     15  C   UNL A   1      42.795  26.343  28.083  1.00  0.00     0.074 A 
ATOM     16  C   UNL A   1      44.829  25.463  26.974  1.00  0.00     0.049 A 
ATOM     17  N   UNL A   1      43.149  27.578  28.314  1.00  0.00    -0.248 NA
ATOM     18  C   UNL A   1      41.425  26.015  28.515  1.00  0.00     0.031 C 
ATOM     19  C   UNL A   1      45.653  24.443  26.332  1.00  0.00     0.029 A 
ATOM     20  N   UNL A   1      45.628  26.581  26.973  1.00  0.00    -0.354 N 
ATOM     21  C   UNL A   1      42.023  28.195  28.842  1.00  0.00     0.074 A 
ATOM     22  C   UNL A   1      40.986  27.191  28.938  1.00  0.00     0.031 C 
ATOM     23  C   UNL A   1      46.846  24.977  26.030  1.00  0.00     0.029 A 
ATOM     24  C   UNL A   1      46.886  26.367  26.448  1.00  0.00     0.049 A 
ATOM     25  H   UNL A   1      45.331  27.454  27.317  1.00  0.00     0.167 HD
ATOM     26  C   UNL A   1      41.865  29.496  29.173  1.00  0.00     0.031 A 
ATOM     27  C   UNL A   1      47.959  27.184  26.353  1.00  0.00     0.031 A 
ATOM     28  C   UNL A   1      42.918  30.469  29.072  1.00  0.00     0.049 A 
ATOM     29  C   UNL A   1      47.785  28.587  26.864  1.00  0.00     0.074 A 
ATOM     30  C   UNL A   1      42.873  31.820  29.359  1.00  0.00     0.029 A 
ATOM     31  N   UNL A   1      44.208  30.188  28.645  1.00  0.00    -0.354 N 
ATOM     32  N   UNL A   1      46.745  29.117  27.462  1.00  0.00    -0.248 NA
ATOM     33  C   UNL A   1      48.923  29.500  26.700  1.00  0.00     0.031 C 
ATOM     34  C   UNL A   1      44.124  32.367  29.056  1.00  0.00     0.029 A 
ATOM     35  C   UNL A   1      44.960  31.348  28.623  1.00  0.00     0.049 A 
ATOM     36  H   UNL A   1      44.539  29.296  28.393  1.00  0.00     0.167 HD
ATOM     37  C   UNL A   1      47.096  30.431  27.730  1.00  0.00     0.074 A 
ATOM     38  C   UNL A   1      48.477  30.586  27.312  1.00  0.00     0.031 C 
ATOM     39  C   UNL A   1      46.337  31.441  28.218  1.00  0.00     0.031 A 
BRANCH  26  40
ATOM     40  C   UNL A   1      40.486  29.948  29.559  1.00  0.00    -0.014 A 
ATOM     41  C   UNL A   1      39.454  30.086  28.615  1.00  0.00     0.010 A 
ATOM     42  C   UNL A   1      40.226  30.242  30.910  1.00  0.00     0.010 A 
ATOM     43  C   UNL A   1      38.193  30.543  29.015  1.00  0.00     0.020 A 
ATOM     44  C   UNL A   1      38.963  30.679  31.316  1.00  0.00     0.020 A 
ATOM     45  C   UNL A   1      37.958  30.841  30.361  1.00  0.00     0.054 A 
BRANCH  45  46
ATOM     46  S   UNL A   1      36.312  31.420  30.857  1.00  0.00     0.124 S 
ATOM     47  O   UNL A   1      36.598  32.775  31.323  1.00  0.00    -0.237 OA
ATOM     48  O   UNL A   1      35.553  31.333  29.612  1.00  0.00    -0.237 OA
ATOM     49  O   UNL A   1      35.910  30.475  31.895  1.00  0.00    -0.744 OA
ENDBRANCH  45  46
ENDBRANCH  26  40
BRANCH  27  50
ATOM     50  C   UNL A   1      49.299  26.689  25.887  1.00  0.00    -0.014 A 
ATOM     51  C   UNL A   1      49.739  26.998  24.583  1.00  0.00     0.010 A 
ATOM     52  C   UNL A   1      50.170  25.963  26.718  1.00  0.00     0.010 A 
ATOM     53  C   UNL A   1      51.020  26.658  24.143  1.00  0.00     0.020 A 
ATOM     54  C   UNL A   1      51.466  25.631  26.291  1.00  0.00     0.020 A 
ATOM     55  C   UNL A   1      51.886  25.994  25.009  1.00  0.00     0.054 A 
BRANCH  55  56
ATOM     56  S   UNL A   1      53.589  25.705  24.458  1.00  0.00     0.124 S 
ATOM     57  O   UNL A   1      54.332  26.688  25.241  1.00  0.00    -0.237 OA
ATOM     58  O   UNL A   1      53.800  24.308  24.833  1.00  0.00    -0.237 OA
ATOM     59  O   UNL A   1      53.534  25.959  23.020  1.00  0.00    -0.744 OA
ENDBRANCH  55  56
ENDBRANCH  27  50
BRANCH  39  60
ATOM     60  C   UNL A   1      46.983  32.793  28.272  1.00  0.00    -0.014 A 
ATOM     61  C   UNL A   1      46.904  33.652  27.160  1.00  0.00     0.010 A 
ATOM     62  C   UNL A   1      47.612  33.234  29.448  1.00  0.00     0.010 A 
ATOM     63  C   UNL A   1      47.470  34.923  27.212  1.00  0.00     0.020 A 
ATOM     64  C   UNL A   1      48.154  34.518  29.513  1.00  0.00     0.020 A 
ATOM     65  C   UNL A   1      48.089  35.350  28.391  1.00  0.00     0.054 A 
BRANCH  65  66
ATOM     66  S   UNL A   1      48.755  37.033  28.454  1.00  0.00     0.124 S 
ATOM     67  O   UNL A   1      49.396  37.054  29.765  1.00  0.00    -0.237 OA
ATOM     68  O   UNL A   1      49.663  37.062  27.310  1.00  0.00    -0.237 OA
ATOM     69  O   UNL A   1      47.570  37.877  28.323  1.00  0.00    -0.744 OA
ENDBRANCH  65  66
ENDBRANCH  39  60
ENDBRANCH  13  14
ENDBRANCH   6   8
ENDBRANCH   5   6
ENDBRANCH   4   5
ENDBRANCH   3   4
ENDBRANCH   2   3
ENDBRANCH   1   2
BRANCH   1  70
ATOM     70  C   UNL A   1      36.363  23.355  25.395  1.00  0.00     0.188 C 
BRANCH  70  71
ATOM     71  O   UNL A   1      35.067  22.958  25.856  1.00  0.00    -0.376 OA
BRANCH  71  72
ATOM     72  C   UNL A   1      35.018  22.070  26.967  1.00  0.00     0.202 C 
BRANCH  72  73
ATOM     73  C   UNL A   1      33.650  21.787  27.595  1.00  0.00     0.261 C 
BRANCH  73  74
ATOM     74  O   UNL A   1      32.731  22.878  27.540  1.00  0.00    -0.459 OA
BRANCH  74  75
ATOM     75  C   UNL A   1      31.790  22.766  26.573  1.00  0.00     0.357 C 
ATOM     76  O   UNL A   1      31.444  21.747  25.979  1.00  0.00    -0.244 OA
BRANCH  75  77
ATOM     77  C   UNL A   1      31.304  24.107  26.222  1.00  0.00     0.149 A 
ATOM     78  C   UNL A   1      32.237  24.993  25.712  1.00  0.00     0.051 A 
ATOM     79  N   UNL A   1      29.979  24.367  26.382  1.00  0.00    -0.249 NA
ATOM     80  C   UNL A   1      31.805  26.257  25.368  1.00  0.00     0.012 A 
ATOM     81  C   UNL A   1      29.573  25.577  25.958  1.00  0.00     0.113 A 
ATOM     82  C   UNL A   1      30.432  26.527  25.433  1.00  0.00     0.035 A 
BRANCH  80  83
ATOM     83  S   UNL A   1      32.867  27.574  24.845  1.00  0.00    -0.116 SA
BRANCH  83  84
ATOM     84  C   UNL A   1      31.913  28.645  23.735  1.00  0.00     0.175 C 
BRANCH  84  85
ATOM     85  C   UNL A   1      30.999  29.692  24.369  1.00  0.00     0.233 C 
ATOM     86  O   UNL A   1      31.382  30.332  25.357  1.00  0.00    -0.274 OA
ATOM     87  N   UNL A   1      29.833  30.051  23.715  1.00  0.00    -0.337 N 
ATOM     88  C   UNL A   1      28.892  29.098  23.129  1.00  0.00     0.148 C 
ATOM     89  C   UNL A   1      29.265  31.379  23.936  1.00  0.00     0.148 C 
ATOM     90  C   UNL A   1      28.124  29.691  21.941  1.00  0.00     0.181 C 
ATOM     91  C   UNL A   1      28.588  31.884  22.658  1.00  0.00     0.181 C 
ATOM     92  O   UNL A   1      27.560  30.975  22.248  1.00  0.00    -0.378 OA
ENDBRANCH  84  85
ENDBRANCH  83  84
ENDBRANCH  80  83
ENDBRANCH  75  77
ENDBRANCH  74  75
ENDBRANCH  73  74
ENDBRANCH  72  73
ENDBRANCH  71  72
ENDBRANCH  70  71
ENDBRANCH   1  70
TORSDOF 23
ENDMDL
