MODEL 1
REMARK VINA RESULT:      -9.0      0.000      0.000
REMARK SMILES O=C(OCCOCCOCCOC(=O)[C@]1(CCCCO)CCc2ccccc2C1)c1ccc(-c2c3nc(c(-c4ccc(S(=O)(=O)[O-])cc4)c4ccc([nH]4)c(-c4ccc(S(=O)(=O)[O-])cc4)c4nc(c(-c5ccc(S(=O)(=O)[O-])cc5)c5ccc2[nH]5)C=C4)C=C3)cc1
REMARK SMILES IDX 8 1 7 2 6 3 5 4 4 5 3 6 2 7 1 8 30 9 31 10 89 11 32 12 88 13
REMARK SMILES IDX 33 14 34 15 35 16 82 17 36 18 87 19 81 20 83 21 37 22 86 23
REMARK SMILES IDX 80 24 79 25 38 27 68 28 49 29 67 30 50 31 53 32 66 33 84 34
REMARK SMILES IDX 51 35 52 36 65 38 85 39 54 40 39 41 40 42 48 43 41 44 47 45
REMARK SMILES IDX 42 46 43 47 44 48 45 49 46 50 69 51 70 52 78 53 71 54 77 55
REMARK SMILES IDX 72 56 73 57 74 58 75 59 76 60 55 61 56 62 64 63 57 64 63 65
REMARK SMILES IDX 58 66 59 67 60 68 61 69 62 70 9 71 10 72 11 73 12 74 13 75
REMARK SMILES IDX 14 76 15 77 21 78 29 79 22 80 28 81 23 82 27 83 24 84 26 85
REMARK SMILES IDX 25 86 16 87 17 88 18 89 19 90 20 91
REMARK H PARENT 83 26 53 37 20 92
REMARK Flexibility Score: inf
ROOT
ATOM      1  C   UNL A   1      32.833  22.348  22.988  1.00  0.00     0.188 C 
ENDROOT
BRANCH   1   2
ATOM      2  C   UNL A   1      33.717  21.832  24.121  1.00  0.00     0.188 C 
BRANCH   2   3
ATOM      3  O   UNL A   1      35.108  22.030  23.865  1.00  0.00    -0.376 OA
BRANCH   3   4
ATOM      4  C   UNL A   1      35.954  21.664  24.961  1.00  0.00     0.202 C 
BRANCH   4   5
ATOM      5  C   UNL A   1      37.455  21.961  24.770  1.00  0.00     0.261 C 
BRANCH   5   6
ATOM      6  O   UNL A   1      37.920  23.097  25.522  1.00  0.00    -0.460 OA
BRANCH   6   7
ATOM      7  C   UNL A   1      39.036  23.195  26.291  1.00  0.00     0.338 C 
ATOM      8  O   UNL A   1      39.722  22.187  26.461  1.00  0.00    -0.246 OA
BRANCH   7   9
ATOM      9  C   UNL A   1      39.471  24.460  26.961  1.00  0.00     0.060 A 
ATOM     10  C   UNL A   1      40.271  25.432  26.367  1.00  0.00     0.016 A 
ATOM     11  C   UNL A   1      38.998  24.716  28.258  1.00  0.00     0.016 A 
ATOM     12  C   UNL A   1      40.691  26.561  27.049  1.00  0.00     0.010 A 
ATOM     13  C   UNL A   1      39.359  25.892  28.932  1.00  0.00     0.010 A 
ATOM     14  C   UNL A   1      40.232  26.813  28.332  1.00  0.00    -0.014 A 
BRANCH  14  15
ATOM     15  C   UNL A   1      40.812  27.969  29.050  1.00  0.00     0.031 A 
ATOM     16  C   UNL A   1      39.973  29.203  29.165  1.00  0.00     0.074 A 
ATOM     17  C   UNL A   1      41.974  27.857  29.727  1.00  0.00     0.049 A 
ATOM     18  N   UNL A   1      40.244  30.323  29.774  1.00  0.00    -0.248 NA
ATOM     19  C   UNL A   1      38.630  29.154  28.557  1.00  0.00     0.031 C 
ATOM     20  C   UNL A   1      42.775  26.639  29.826  1.00  0.00     0.029 A 
ATOM     21  N   UNL A   1      42.686  28.758  30.474  1.00  0.00    -0.354 N 
ATOM     22  C   UNL A   1      39.097  31.093  29.651  1.00  0.00     0.074 A 
ATOM     23  C   UNL A   1      38.156  30.354  28.846  1.00  0.00     0.031 C 
ATOM     24  C   UNL A   1      43.896  26.875  30.519  1.00  0.00     0.029 A 
ATOM     25  C   UNL A   1      43.896  28.268  30.919  1.00  0.00     0.049 A 
ATOM     26  H   UNL A   1      42.365  29.667  30.675  1.00  0.00     0.167 HD
ATOM     27  C   UNL A   1      38.838  32.295  30.209  1.00  0.00     0.031 A 
ATOM     28  C   UNL A   1      44.905  28.881  31.564  1.00  0.00     0.031 A 
ATOM     29  C   UNL A   1      39.797  33.017  30.992  1.00  0.00     0.049 A 
ATOM     30  C   UNL A   1      44.674  30.297  31.992  1.00  0.00     0.074 A 
ATOM     31  C   UNL A   1      39.685  34.276  31.549  1.00  0.00     0.029 A 
ATOM     32  N   UNL A   1      41.056  32.534  31.329  1.00  0.00    -0.354 N 
ATOM     33  N   UNL A   1      43.601  31.034  31.826  1.00  0.00    -0.248 NA
ATOM     34  C   UNL A   1      45.761  30.954  32.724  1.00  0.00     0.031 C 
ATOM     35  C   UNL A   1      40.898  34.577  32.177  1.00  0.00     0.029 A 
ATOM     36  C   UNL A   1      41.742  33.481  32.066  1.00  0.00     0.049 A 
ATOM     37  H   UNL A   1      41.407  31.650  31.080  1.00  0.00     0.167 HD
ATOM     38  C   UNL A   1      43.864  32.230  32.470  1.00  0.00     0.074 A 
ATOM     39  C   UNL A   1      45.196  32.111  33.035  1.00  0.00     0.031 C 
ATOM     40  C   UNL A   1      43.073  33.324  32.596  1.00  0.00     0.031 A 
BRANCH  27  41
ATOM     41  C   UNL A   1      37.481  32.881  29.948  1.00  0.00    -0.014 A 
ATOM     42  C   UNL A   1      37.214  33.587  28.759  1.00  0.00     0.010 A 
ATOM     43  C   UNL A   1      36.472  32.760  30.917  1.00  0.00     0.010 A 
ATOM     44  C   UNL A   1      35.971  34.191  28.560  1.00  0.00     0.020 A 
ATOM     45  C   UNL A   1      35.219  33.342  30.711  1.00  0.00     0.020 A 
ATOM     46  C   UNL A   1      34.981  34.065  29.540  1.00  0.00     0.054 A 
BRANCH  46  47
ATOM     47  S   UNL A   1      33.369  34.842  29.248  1.00  0.00     0.124 S 
ATOM     48  O   UNL A   1      32.772  33.940  28.265  1.00  0.00    -0.237 OA
ATOM     49  O   UNL A   1      32.758  34.819  30.574  1.00  0.00    -0.237 OA
ATOM     50  O   UNL A   1      33.712  36.171  28.745  1.00  0.00    -0.744 OA
ENDBRANCH  46  47
ENDBRANCH  27  41
BRANCH  28  51
ATOM     51  C   UNL A   1      46.204  28.189  31.789  1.00  0.00    -0.014 A 
ATOM     52  C   UNL A   1      47.214  28.160  30.814  1.00  0.00     0.010 A 
ATOM     53  C   UNL A   1      46.420  27.514  33.007  1.00  0.00     0.010 A 
ATOM     54  C   UNL A   1      48.395  27.438  31.035  1.00  0.00     0.020 A 
ATOM     55  C   UNL A   1      47.608  26.816  33.244  1.00  0.00     0.020 A 
ATOM     56  C   UNL A   1      48.581  26.765  32.246  1.00  0.00     0.054 A 
BRANCH  56  57
ATOM     57  S   UNL A   1      50.113  25.828  32.511  1.00  0.00     0.124 S 
ATOM     58  O   UNL A   1      49.915  25.296  33.855  1.00  0.00    -0.237 OA
ATOM     59  O   UNL A   1      50.075  24.848  31.429  1.00  0.00    -0.237 OA
ATOM     60  O   UNL A   1      51.158  26.842  32.386  1.00  0.00    -0.744 OA
ENDBRANCH  56  57
ENDBRANCH  28  51
BRANCH  40  61
ATOM     61  C   UNL A   1      43.632  34.454  33.406  1.00  0.00    -0.014 A 
ATOM     62  C   UNL A   1      44.391  35.470  32.804  1.00  0.00     0.010 A 
ATOM     63  C   UNL A   1      43.371  34.502  34.787  1.00  0.00     0.010 A 
ATOM     64  C   UNL A   1      44.920  36.499  33.582  1.00  0.00     0.020 A 
ATOM     65  C   UNL A   1      43.869  35.548  35.561  1.00  0.00     0.020 A 
ATOM     66  C   UNL A   1      44.656  36.529  34.956  1.00  0.00     0.054 A 
BRANCH  66  67
ATOM     67  S   UNL A   1      45.330  37.892  35.939  1.00  0.00     0.124 S 
ATOM     68  O   UNL A   1      46.689  37.430  36.203  1.00  0.00    -0.237 OA
ATOM     69  O   UNL A   1      45.216  39.029  35.029  1.00  0.00    -0.237 OA
ATOM     70  O   UNL A   1      44.450  37.943  37.104  1.00  0.00    -0.744 OA
ENDBRANCH  66  67
ENDBRANCH  40  61
ENDBRANCH  14  15
ENDBRANCH   7   9
ENDBRANCH   6   7
ENDBRANCH   5   6
ENDBRANCH   4   5
ENDBRANCH   3   4
ENDBRANCH   2   3
ENDBRANCH   1   2
BRANCH   1  71
ATOM     71  O   UNL A   1      31.429  22.403  23.219  1.00  0.00    -0.376 OA
BRANCH  71  72
ATOM     72  C   UNL A   1      30.941  23.483  24.007  1.00  0.00     0.202 C 
BRANCH  72  73
ATOM     73  C   UNL A   1      30.719  23.257  25.512  1.00  0.00     0.261 C 
BRANCH  73  74
ATOM     74  O   UNL A   1      31.233  24.276  26.387  1.00  0.00    -0.463 OA
BRANCH  74  75
ATOM     75  C   UNL A   1      30.620  25.486  26.257  1.00  0.00     0.312 C 
ATOM     76  O   UNL A   1      29.409  25.619  26.300  1.00  0.00    -0.252 OA
BRANCH  75  77
ATOM     77  C   UNL A   1      31.564  26.657  25.926  1.00  0.00     0.072 C 
ATOM     78  C   UNL A   1      32.959  26.027  26.172  1.00  0.00     0.024 C 
ATOM     79  C   UNL A   1      31.423  27.895  26.855  1.00  0.00     0.054 C 
ATOM     80  C   UNL A   1      34.129  26.965  25.940  1.00  0.00     0.037 C 
ATOM     81  C   UNL A   1      32.654  28.793  26.898  1.00  0.00    -0.044 A 
ATOM     82  C   UNL A   1      33.933  28.308  26.580  1.00  0.00    -0.045 A 
ATOM     83  C   UNL A   1      32.543  30.103  27.385  1.00  0.00     0.004 A 
ATOM     84  C   UNL A   1      35.067  29.104  26.816  1.00  0.00     0.004 A 
ATOM     85  C   UNL A   1      33.679  30.878  27.644  1.00  0.00     0.000 A 
ATOM     86  C   UNL A   1      34.944  30.370  27.378  1.00  0.00     0.000 A 
BRANCH  77  87
ATOM     87  C   UNL A   1      31.322  27.200  24.483  1.00  0.00     0.019 C 
BRANCH  87  88
ATOM     88  C   UNL A   1      30.734  28.598  24.256  1.00  0.00     0.004 C 
BRANCH  88  89
ATOM     89  C   UNL A   1      29.719  28.789  23.115  1.00  0.00     0.028 C 
BRANCH  89  90
ATOM     90  C   UNL A   1      30.187  29.576  21.896  1.00  0.00     0.156 C 
BRANCH  90  91
ATOM     91  O   UNL A   1      29.925  30.964  22.044  1.00  0.00    -0.396 OA
ATOM     92  H   UNL A   1      30.389  31.457  21.350  1.00  0.00     0.210 HD
ENDBRANCH  90  91
ENDBRANCH  89  90
ENDBRANCH  88  89
ENDBRANCH  87  88
ENDBRANCH  77  87
ENDBRANCH  75  77
ENDBRANCH  74  75
ENDBRANCH  73  74
ENDBRANCH  72  73
ENDBRANCH  71  72
ENDBRANCH   1  71
TORSDOF 25
ENDMDL
MODEL 2
REMARK VINA RESULT:      -8.4      1.204      2.718
REMARK SMILES O=C(OCCOCCOCCOC(=O)[C@]1(CCCCO)CCc2ccccc2C1)c1ccc(-c2c3nc(c(-c4ccc(S(=O)(=O)[O-])cc4)c4ccc([nH]4)c(-c4ccc(S(=O)(=O)[O-])cc4)c4nc(c(-c5ccc(S(=O)(=O)[O-])cc5)c5ccc2[nH]5)C=C4)C=C3)cc1
REMARK SMILES IDX 8 1 7 2 6 3 5 4 4 5 3 6 2 7 1 8 30 9 31 10 89 11 32 12 88 13
REMARK SMILES IDX 33 14 34 15 35 16 82 17 36 18 87 19 81 20 83 21 37 22 86 23
REMARK SMILES IDX 80 24 79 25 38 27 68 28 49 29 67 30 50 31 53 32 66 33 84 34
REMARK SMILES IDX 51 35 52 36 65 38 85 39 54 40 39 41 40 42 48 43 41 44 47 45
REMARK SMILES IDX 42 46 43 47 44 48 45 49 46 50 69 51 70 52 78 53 71 54 77 55
REMARK SMILES IDX 72 56 73 57 74 58 75 59 76 60 55 61 56 62 64 63 57 64 63 65
REMARK SMILES IDX 58 66 59 67 60 68 61 69 62 70 9 71 10 72 11 73 12 74 13 75
REMARK SMILES IDX 14 76 15 77 21 78 29 79 22 80 28 81 23 82 27 83 24 84 26 85
REMARK SMILES IDX 25 86 16 87 17 88 18 89 19 90 20 91
REMARK H PARENT 83 26 53 37 20 92
REMARK Flexibility Score: inf
ROOT
ATOM      1  C   UNL A   1      33.365  21.022  24.132  1.00  0.00     0.188 C 
ENDROOT
BRANCH   1   2
ATOM      2  C   UNL A   1      34.500  20.468  24.988  1.00  0.00     0.188 C 
BRANCH   2   3
ATOM      3  O   UNL A   1      35.738  21.144  24.761  1.00  0.00    -0.376 OA
BRANCH   3   4
ATOM      4  C   UNL A   1      36.883  20.425  25.232  1.00  0.00     0.202 C 
BRANCH   4   5
ATOM      5  C   UNL A   1      38.241  21.124  25.019  1.00  0.00     0.261 C 
BRANCH   5   6
ATOM      6  O   UNL A   1      38.541  22.121  26.012  1.00  0.00    -0.460 OA
BRANCH   6   7
ATOM      7  C   UNL A   1      38.265  23.451  25.977  1.00  0.00     0.338 C 
ATOM      8  O   UNL A   1      37.354  23.842  25.249  1.00  0.00    -0.246 OA
BRANCH   7   9
ATOM      9  C   UNL A   1      39.021  24.475  26.764  1.00  0.00     0.060 A 
ATOM     10  C   UNL A   1      38.833  24.724  28.120  1.00  0.00     0.016 A 
ATOM     11  C   UNL A   1      40.030  25.199  26.108  1.00  0.00     0.016 A 
ATOM     12  C   UNL A   1      39.522  25.720  28.791  1.00  0.00     0.010 A 
ATOM     13  C   UNL A   1      40.784  26.160  26.796  1.00  0.00     0.010 A 
ATOM     14  C   UNL A   1      40.512  26.441  28.144  1.00  0.00    -0.014 A 
BRANCH  14  15
ATOM     15  C   UNL A   1      41.123  27.571  28.878  1.00  0.00     0.031 A 
ATOM     16  C   UNL A   1      40.310  28.819  29.027  1.00  0.00     0.074 A 
ATOM     17  C   UNL A   1      42.290  27.422  29.540  1.00  0.00     0.049 A 
ATOM     18  N   UNL A   1      40.610  29.921  29.655  1.00  0.00    -0.248 NA
ATOM     19  C   UNL A   1      38.960  28.809  28.433  1.00  0.00     0.031 C 
ATOM     20  C   UNL A   1      43.067  26.187  29.606  1.00  0.00     0.029 A 
ATOM     21  N   UNL A   1      43.028  28.294  30.297  1.00  0.00    -0.354 N 
ATOM     22  C   UNL A   1      39.478  30.716  29.561  1.00  0.00     0.074 A 
ATOM     23  C   UNL A   1      38.514  30.012  28.751  1.00  0.00     0.031 C 
ATOM     24  C   UNL A   1      44.199  26.386  30.291  1.00  0.00     0.029 A 
ATOM     25  C   UNL A   1      44.232  27.771  30.719  1.00  0.00     0.049 A 
ATOM     26  H   UNL A   1      42.727  29.205  30.519  1.00  0.00     0.167 HD
ATOM     27  C   UNL A   1      39.249  31.912  30.145  1.00  0.00     0.031 A 
ATOM     28  C   UNL A   1      45.260  28.351  31.364  1.00  0.00     0.031 A 
ATOM     29  C   UNL A   1      40.230  32.599  30.932  1.00  0.00     0.049 A 
ATOM     30  C   UNL A   1      45.062  29.763  31.823  1.00  0.00     0.074 A 
ATOM     31  C   UNL A   1      40.149  33.848  31.514  1.00  0.00     0.029 A 
ATOM     32  N   UNL A   1      41.483  32.084  31.245  1.00  0.00    -0.354 N 
ATOM     33  N   UNL A   1      44.002  30.523  31.684  1.00  0.00    -0.248 NA
ATOM     34  C   UNL A   1      46.169  30.383  32.556  1.00  0.00     0.031 C 
ATOM     35  C   UNL A   1      41.375  34.112  32.135  1.00  0.00     0.029 A 
ATOM     36  C   UNL A   1      42.196  33.002  31.993  1.00  0.00     0.049 A 
ATOM     37  H   UNL A   1      41.813  31.198  30.974  1.00  0.00     0.167 HD
ATOM     38  C   UNL A   1      44.296  31.701  32.349  1.00  0.00     0.074 A 
ATOM     39  C   UNL A   1      45.631  31.545  32.896  1.00  0.00     0.031 C 
ATOM     40  C   UNL A   1      43.529  32.808  32.504  1.00  0.00     0.031 A 
BRANCH  27  41
ATOM     41  C   UNL A   1      37.901  32.529  29.910  1.00  0.00    -0.014 A 
ATOM     42  C   UNL A   1      37.668  33.356  28.793  1.00  0.00     0.010 A 
ATOM     43  C   UNL A   1      36.867  32.316  30.835  1.00  0.00     0.010 A 
ATOM     44  C   UNL A   1      36.432  33.985  28.627  1.00  0.00     0.020 A 
ATOM     45  C   UNL A   1      35.621  32.923  30.658  1.00  0.00     0.020 A 
ATOM     46  C   UNL A   1      35.417  33.764  29.562  1.00  0.00     0.054 A 
BRANCH  46  47
ATOM     47  S   UNL A   1      33.815  34.577  29.310  1.00  0.00     0.124 S 
ATOM     48  O   UNL A   1      33.166  33.676  28.360  1.00  0.00    -0.237 OA
ATOM     49  O   UNL A   1      33.247  34.587  30.654  1.00  0.00    -0.237 OA
ATOM     50  O   UNL A   1      34.175  35.889  28.777  1.00  0.00    -0.744 OA
ENDBRANCH  46  47
ENDBRANCH  27  41
BRANCH  28  51
ATOM     51  C   UNL A   1      46.547  27.628  31.562  1.00  0.00    -0.014 A 
ATOM     52  C   UNL A   1      46.812  26.879  32.720  1.00  0.00     0.010 A 
ATOM     53  C   UNL A   1      47.546  27.721  30.573  1.00  0.00     0.010 A 
ATOM     54  C   UNL A   1      48.062  26.272  32.902  1.00  0.00     0.020 A 
ATOM     55  C   UNL A   1      48.784  27.094  30.737  1.00  0.00     0.020 A 
ATOM     56  C   UNL A   1      49.042  26.390  31.912  1.00  0.00     0.054 A 
BRANCH  56  57
ATOM     57  S   UNL A   1      50.658  25.604  32.170  1.00  0.00     0.124 S 
ATOM     58  O   UNL A   1      50.796  25.664  33.622  1.00  0.00    -0.237 OA
ATOM     59  O   UNL A   1      50.455  24.272  31.608  1.00  0.00    -0.237 OA
ATOM     60  O   UNL A   1      51.576  26.456  31.419  1.00  0.00    -0.744 OA
ENDBRANCH  56  57
ENDBRANCH  28  51
BRANCH  40  61
ATOM     61  C   UNL A   1      44.119  33.910  33.331  1.00  0.00    -0.014 A 
ATOM     62  C   UNL A   1      44.156  33.825  34.732  1.00  0.00     0.010 A 
ATOM     63  C   UNL A   1      44.663  35.035  32.685  1.00  0.00     0.010 A 
ATOM     64  C   UNL A   1      44.689  34.872  35.480  1.00  0.00     0.020 A 
ATOM     65  C   UNL A   1      45.230  36.067  33.429  1.00  0.00     0.020 A 
ATOM     66  C   UNL A   1      45.221  35.987  34.823  1.00  0.00     0.054 A 
BRANCH  66  67
ATOM     67  S   UNL A   1      45.936  37.321  35.817  1.00  0.00     0.124 S 
ATOM     68  O   UNL A   1      44.743  38.011  36.297  1.00  0.00    -0.237 OA
ATOM     69  O   UNL A   1      46.695  36.594  36.830  1.00  0.00    -0.237 OA
ATOM     70  O   UNL A   1      46.746  38.069  34.857  1.00  0.00    -0.744 OA
ENDBRANCH  66  67
ENDBRANCH  40  61
ENDBRANCH  14  15
ENDBRANCH   7   9
ENDBRANCH   6   7
ENDBRANCH   5   6
ENDBRANCH   4   5
ENDBRANCH   3   4
ENDBRANCH   2   3
ENDBRANCH   1   2
BRANCH   1  71
ATOM     71  O   UNL A   1      33.534  22.320  23.571  1.00  0.00    -0.376 OA
BRANCH  71  72
ATOM     72  C   UNL A   1      32.508  22.793  22.706  1.00  0.00     0.202 C 
BRANCH  72  73
ATOM     73  C   UNL A   1      32.397  24.307  22.452  1.00  0.00     0.261 C 
BRANCH  73  74
ATOM     74  O   UNL A   1      32.759  25.160  23.552  1.00  0.00    -0.463 OA
BRANCH  74  75
ATOM     75  C   UNL A   1      31.836  25.205  24.553  1.00  0.00     0.312 C 
ATOM     76  O   UNL A   1      31.689  24.299  25.354  1.00  0.00    -0.252 OA
BRANCH  75  77
ATOM     77  C   UNL A   1      30.906  26.433  24.521  1.00  0.00     0.072 C 
ATOM     78  C   UNL A   1      29.542  25.795  24.150  1.00  0.00     0.024 C 
ATOM     79  C   UNL A   1      31.254  27.490  23.436  1.00  0.00     0.054 C 
ATOM     80  C   UNL A   1      28.395  26.779  24.022  1.00  0.00     0.037 C 
ATOM     81  C   UNL A   1      30.090  28.390  23.038  1.00  0.00    -0.044 A 
ATOM     82  C   UNL A   1      28.755  27.990  23.211  1.00  0.00    -0.045 A 
ATOM     83  C   UNL A   1      30.340  29.595  22.366  1.00  0.00     0.004 A 
ATOM     84  C   UNL A   1      27.713  28.754  22.658  1.00  0.00     0.004 A 
ATOM     85  C   UNL A   1      29.300  30.335  21.794  1.00  0.00     0.000 A 
ATOM     86  C   UNL A   1      27.985  29.902  21.923  1.00  0.00     0.000 A 
BRANCH  77  87
ATOM     87  C   UNL A   1      30.934  27.210  25.873  1.00  0.00     0.019 C 
BRANCH  87  88
ATOM     88  C   UNL A   1      32.192  27.963  26.322  1.00  0.00     0.004 C 
BRANCH  88  89
ATOM     89  C   UNL A   1      32.019  29.312  27.045  1.00  0.00     0.028 C 
BRANCH  89  90
ATOM     90  C   UNL A   1      33.289  30.019  27.502  1.00  0.00     0.156 C 
BRANCH  90  91
ATOM     91  O   UNL A   1      34.072  30.445  26.395  1.00  0.00    -0.396 OA
ATOM     92  H   UNL A   1      34.287  29.680  25.838  1.00  0.00     0.210 HD
ENDBRANCH  90  91
ENDBRANCH  89  90
ENDBRANCH  88  89
ENDBRANCH  87  88
ENDBRANCH  77  87
ENDBRANCH  75  77
ENDBRANCH  74  75
ENDBRANCH  73  74
ENDBRANCH  72  73
ENDBRANCH  71  72
ENDBRANCH   1  71
TORSDOF 25
ENDMDL
MODEL 3
REMARK VINA RESULT:      -8.3      4.101      5.593
REMARK SMILES O=C(OCCOCCOCCOC(=O)[C@]1(CCCCO)CCc2ccccc2C1)c1ccc(-c2c3nc(c(-c4ccc(S(=O)(=O)[O-])cc4)c4ccc([nH]4)c(-c4ccc(S(=O)(=O)[O-])cc4)c4nc(c(-c5ccc(S(=O)(=O)[O-])cc5)c5ccc2[nH]5)C=C4)C=C3)cc1
REMARK SMILES IDX 8 1 7 2 6 3 5 4 4 5 3 6 2 7 1 8 30 9 31 10 89 11 32 12 88 13
REMARK SMILES IDX 33 14 34 15 35 16 82 17 36 18 87 19 81 20 83 21 37 22 86 23
REMARK SMILES IDX 80 24 79 25 38 27 68 28 49 29 67 30 50 31 53 32 66 33 84 34
REMARK SMILES IDX 51 35 52 36 65 38 85 39 54 40 39 41 40 42 48 43 41 44 47 45
REMARK SMILES IDX 42 46 43 47 44 48 45 49 46 50 69 51 70 52 78 53 71 54 77 55
REMARK SMILES IDX 72 56 73 57 74 58 75 59 76 60 55 61 56 62 64 63 57 64 63 65
REMARK SMILES IDX 58 66 59 67 60 68 61 69 62 70 9 71 10 72 11 73 12 74 13 75
REMARK SMILES IDX 14 76 15 77 21 78 29 79 22 80 28 81 23 82 27 83 24 84 26 85
REMARK SMILES IDX 25 86 16 87 17 88 18 89 19 90 20 91
REMARK H PARENT 83 26 53 37 20 92
REMARK Flexibility Score: inf
ROOT
ATOM      1  C   UNL A   1      35.522  22.485  24.013  1.00  0.00     0.188 C 
ENDROOT
BRANCH   1   2
ATOM      2  C   UNL A   1      37.019  22.233  24.173  1.00  0.00     0.188 C 
BRANCH   2   3
ATOM      3  O   UNL A   1      37.317  21.407  25.300  1.00  0.00    -0.376 OA
BRANCH   3   4
ATOM      4  C   UNL A   1      38.716  21.322  25.598  1.00  0.00     0.202 C 
BRANCH   4   5
ATOM      5  C   UNL A   1      39.289  19.895  25.699  1.00  0.00     0.261 C 
BRANCH   5   6
ATOM      6  O   UNL A   1      40.727  19.845  25.680  1.00  0.00    -0.460 OA
BRANCH   6   7
ATOM      7  C   UNL A   1      41.592  20.182  26.671  1.00  0.00     0.338 C 
ATOM      8  O   UNL A   1      41.970  19.302  27.444  1.00  0.00    -0.246 OA
BRANCH   7   9
ATOM      9  C   UNL A   1      42.103  21.572  26.889  1.00  0.00     0.060 A 
ATOM     10  C   UNL A   1      42.124  22.565  25.914  1.00  0.00     0.016 A 
ATOM     11  C   UNL A   1      42.540  21.920  28.177  1.00  0.00     0.016 A 
ATOM     12  C   UNL A   1      42.656  23.821  26.151  1.00  0.00     0.010 A 
ATOM     13  C   UNL A   1      43.014  23.212  28.447  1.00  0.00     0.010 A 
ATOM     14  C   UNL A   1      43.095  24.165  27.420  1.00  0.00    -0.014 A 
BRANCH  14  15
ATOM     15  C   UNL A   1      43.764  25.475  27.578  1.00  0.00     0.031 A 
ATOM     16  C   UNL A   1      42.957  26.599  28.149  1.00  0.00     0.074 A 
ATOM     17  C   UNL A   1      45.094  25.606  27.386  1.00  0.00     0.049 A 
ATOM     18  N   UNL A   1      43.328  27.820  28.417  1.00  0.00    -0.248 NA
ATOM     19  C   UNL A   1      41.560  26.297  28.513  1.00  0.00     0.031 C 
ATOM     20  C   UNL A   1      45.998  24.524  27.006  1.00  0.00     0.029 A 
ATOM     21  N   UNL A   1      45.930  26.686  27.494  1.00  0.00    -0.354 N 
ATOM     22  C   UNL A   1      42.225  28.415  29.010  1.00  0.00     0.074 A 
ATOM     23  C   UNL A   1      41.147  27.458  28.993  1.00  0.00     0.031 C 
ATOM     24  C   UNL A   1      47.241  24.994  26.840  1.00  0.00     0.029 A 
ATOM     25  C   UNL A   1      47.225  26.419  27.104  1.00  0.00     0.049 A 
ATOM     26  H   UNL A   1      45.635  27.567  27.820  1.00  0.00     0.167 HD
ATOM     27  C   UNL A   1      42.140  29.643  29.565  1.00  0.00     0.031 A 
ATOM     28  C   UNL A   1      48.281  27.239  26.957  1.00  0.00     0.031 A 
ATOM     29  C   UNL A   1      43.222  30.583  29.554  1.00  0.00     0.049 A 
ATOM     30  C   UNL A   1      48.100  28.662  27.386  1.00  0.00     0.074 A 
ATOM     31  C   UNL A   1      43.239  31.885  30.015  1.00  0.00     0.029 A 
ATOM     32  N   UNL A   1      44.488  30.314  29.048  1.00  0.00    -0.354 N 
ATOM     33  N   UNL A   1      47.034  29.228  27.901  1.00  0.00    -0.248 NA
ATOM     34  C   UNL A   1      49.262  29.546  27.258  1.00  0.00     0.031 C 
ATOM     35  C   UNL A   1      44.502  32.421  29.739  1.00  0.00     0.029 A 
ATOM     36  C   UNL A   1      45.290  31.434  29.163  1.00  0.00     0.049 A 
ATOM     37  H   UNL A   1      44.772  29.453  28.665  1.00  0.00     0.167 HD
ATOM     38  C   UNL A   1      47.406  30.527  28.199  1.00  0.00     0.074 A 
ATOM     39  C   UNL A   1      48.799  30.657  27.812  1.00  0.00     0.031 C 
ATOM     40  C   UNL A   1      46.668  31.521  28.752  1.00  0.00     0.031 A 
BRANCH  27  41
ATOM     41  C   UNL A   1      40.825  30.012  30.188  1.00  0.00    -0.014 A 
ATOM     42  C   UNL A   1      39.737  30.421  29.392  1.00  0.00     0.010 A 
ATOM     43  C   UNL A   1      40.685  29.989  31.584  1.00  0.00     0.010 A 
ATOM     44  C   UNL A   1      38.543  30.834  29.987  1.00  0.00     0.020 A 
ATOM     45  C   UNL A   1      39.483  30.377  32.182  1.00  0.00     0.020 A 
ATOM     46  C   UNL A   1      38.425  30.809  31.380  1.00  0.00     0.054 A 
BRANCH  46  47
ATOM     47  S   UNL A   1      36.856  31.330  32.126  1.00  0.00     0.124 S 
ATOM     48  O   UNL A   1      35.948  30.273  31.688  1.00  0.00    -0.237 OA
ATOM     49  O   UNL A   1      37.168  31.340  33.551  1.00  0.00    -0.237 OA
ATOM     50  O   UNL A   1      36.613  32.644  31.534  1.00  0.00    -0.744 OA
ENDBRANCH  46  47
ENDBRANCH  27  41
BRANCH  28  51
ATOM     51  C   UNL A   1      49.550  26.753  26.347  1.00  0.00    -0.014 A 
ATOM     52  C   UNL A   1      50.535  26.091  27.099  1.00  0.00     0.010 A 
ATOM     53  C   UNL A   1      49.789  26.988  24.978  1.00  0.00     0.010 A 
ATOM     54  C   UNL A   1      51.746  25.712  26.505  1.00  0.00     0.020 A 
ATOM     55  C   UNL A   1      50.984  26.588  24.375  1.00  0.00     0.020 A 
ATOM     56  C   UNL A   1      51.966  25.969  25.149  1.00  0.00     0.054 A 
BRANCH  56  57
ATOM     57  S   UNL A   1      53.545  25.479  24.400  1.00  0.00     0.124 S 
ATOM     58  O   UNL A   1      54.494  26.335  25.105  1.00  0.00    -0.237 OA
ATOM     59  O   UNL A   1      53.617  24.055  24.720  1.00  0.00    -0.237 OA
ATOM     60  O   UNL A   1      53.360  25.783  22.983  1.00  0.00    -0.744 OA
ENDBRANCH  56  57
ENDBRANCH  28  51
BRANCH  40  61
ATOM     61  C   UNL A   1      47.382  32.815  28.997  1.00  0.00    -0.014 A 
ATOM     62  C   UNL A   1      48.091  33.038  30.188  1.00  0.00     0.010 A 
ATOM     63  C   UNL A   1      47.355  33.811  28.004  1.00  0.00     0.010 A 
ATOM     64  C   UNL A   1      48.728  34.258  30.403  1.00  0.00     0.020 A 
ATOM     65  C   UNL A   1      48.022  35.019  28.201  1.00  0.00     0.020 A 
ATOM     66  C   UNL A   1      48.687  35.241  29.407  1.00  0.00     0.054 A 
BRANCH  66  67
ATOM     67  S   UNL A   1      49.549  36.807  29.698  1.00  0.00     0.124 S 
ATOM     68  O   UNL A   1      48.572  37.781  29.222  1.00  0.00    -0.237 OA
ATOM     69  O   UNL A   1      49.768  36.788  31.142  1.00  0.00    -0.237 OA
ATOM     70  O   UNL A   1      50.760  36.689  28.888  1.00  0.00    -0.744 OA
ENDBRANCH  66  67
ENDBRANCH  40  61
ENDBRANCH  14  15
ENDBRANCH   7   9
ENDBRANCH   6   7
ENDBRANCH   5   6
ENDBRANCH   4   5
ENDBRANCH   3   4
ENDBRANCH   2   3
ENDBRANCH   1   2
BRANCH   1  71
ATOM     71  O   UNL A   1      35.110  23.389  22.991  1.00  0.00    -0.376 OA
BRANCH  71  72
ATOM     72  C   UNL A   1      33.772  23.274  22.522  1.00  0.00     0.202 C 
BRANCH  72  73
ATOM     73  C   UNL A   1      33.145  24.468  21.781  1.00  0.00     0.261 C 
BRANCH  73  74
ATOM     74  O   UNL A   1      31.949  25.016  22.364  1.00  0.00    -0.463 OA
BRANCH  74  75
ATOM     75  C   UNL A   1      31.590  24.442  23.547  1.00  0.00     0.312 C 
ATOM     76  O   UNL A   1      30.908  23.434  23.610  1.00  0.00    -0.252 OA
BRANCH  75  77
ATOM     77  C   UNL A   1      32.006  25.233  24.802  1.00  0.00     0.072 C 
ATOM     78  C   UNL A   1      30.643  25.764  25.316  1.00  0.00     0.024 C 
ATOM     79  C   UNL A   1      32.928  26.455  24.531  1.00  0.00     0.054 C 
ATOM     80  C   UNL A   1      30.725  26.618  26.566  1.00  0.00     0.037 C 
ATOM     81  C   UNL A   1      32.901  27.517  25.623  1.00  0.00    -0.044 A 
ATOM     82  C   UNL A   1      31.807  27.656  26.492  1.00  0.00    -0.045 A 
ATOM     83  C   UNL A   1      33.929  28.468  25.694  1.00  0.00     0.004 A 
ATOM     84  C   UNL A   1      31.727  28.762  27.355  1.00  0.00     0.004 A 
ATOM     85  C   UNL A   1      33.829  29.582  26.535  1.00  0.00     0.000 A 
ATOM     86  C   UNL A   1      32.716  29.739  27.352  1.00  0.00     0.000 A 
BRANCH  77  87
ATOM     87  C   UNL A   1      32.797  24.339  25.807  1.00  0.00     0.019 C 
BRANCH  87  88
ATOM     88  C   UNL A   1      32.082  23.639  26.969  1.00  0.00     0.004 C 
BRANCH  88  89
ATOM     89  C   UNL A   1      32.784  22.453  27.654  1.00  0.00     0.028 C 
BRANCH  89  90
ATOM     90  C   UNL A   1      33.690  21.589  26.784  1.00  0.00     0.156 C 
BRANCH  90  91
ATOM     91  O   UNL A   1      34.996  21.492  27.334  1.00  0.00    -0.396 OA
ATOM     92  H   UNL A   1      35.033  20.746  27.952  1.00  0.00     0.210 HD
ENDBRANCH  90  91
ENDBRANCH  89  90
ENDBRANCH  88  89
ENDBRANCH  87  88
ENDBRANCH  77  87
ENDBRANCH  75  77
ENDBRANCH  74  75
ENDBRANCH  73  74
ENDBRANCH  72  73
ENDBRANCH  71  72
ENDBRANCH   1  71
TORSDOF 25
ENDMDL
