MODEL 1
REMARK VINA RESULT:     -11.5      0.000      0.000
REMARK SMILES O=C1C[C@H](c2cn[nH]c2C(=O)OCCOCCOCCOC(=O)c2ccc(-c3c4nc(c(-c5ccc(S(=O)(=O)[O-])cc5)c5ccc([nH]5)c(-c5ccc(S(=O)(=O)[O-])cc5)c5nc(c(-c6ccc(S(=O)(=O)[O-])cc6)c6ccc3[nH]6)C=C5)C=C4)cc2)c2c(-c3cccs3)n[nH]c2N1
REMARK SMILES IDX 17 1 16 2 15 3 14 4 13 5 12 6 10 7 11 8 9 9 5 10 6 11 7 12
REMARK SMILES IDX 8 13 4 15 1 16 2 17 3 18 94 19 93 20 84 22 92 23 85 24 91 25
REMARK SMILES IDX 86 27 87 28 90 29 88 30 89 31 18 32 19 33 20 34 21 35 22 36
REMARK SMILES IDX 23 37 24 38 25 39 83 40 26 41 82 42 27 43 28 44 29 45 76 46
REMARK SMILES IDX 30 47 81 48 75 49 77 50 31 51 80 52 74 53 73 54 32 56 62 57
REMARK SMILES IDX 43 58 61 59 44 60 47 61 60 62 78 63 45 64 46 65 59 67 79 68
REMARK SMILES IDX 48 69 33 70 34 71 42 72 35 73 41 74 36 75 37 76 38 77 39 78
REMARK SMILES IDX 40 79 63 80 64 81 72 82 65 83 71 84 66 85 67 86 68 87 69 88
REMARK SMILES IDX 70 89 49 90 50 91 58 92 51 93 57 94 52 95 53 96 54 97 55 98
REMARK SMILES IDX 56 99
REMARK H PARENT 8 14 94 21 92 26 77 55 47 66
REMARK Flexibility Score: inf
ROOT
ATOM      1  C   UNL A   1      35.449  21.638  25.869  1.00  0.00     0.188 C 
ENDROOT
BRANCH   1   2
ATOM      2  C   UNL A   1      34.241  20.680  25.975  1.00  0.00     0.188 C 
BRANCH   2   3
ATOM      3  O   UNL A   1      33.616  20.215  24.781  1.00  0.00    -0.376 OA
BRANCH   3   4
ATOM      4  C   UNL A   1      32.209  20.387  24.628  1.00  0.00     0.202 C 
BRANCH   4   5
ATOM      5  C   UNL A   1      31.622  21.797  24.802  1.00  0.00     0.261 C 
BRANCH   5   6
ATOM      6  O   UNL A   1      31.129  22.070  26.131  1.00  0.00    -0.459 OA
BRANCH   6   7
ATOM      7  C   UNL A   1      31.606  23.192  26.727  1.00  0.00     0.356 C 
ATOM      8  O   UNL A   1      32.423  23.199  27.637  1.00  0.00    -0.244 OA
BRANCH   7   9
ATOM      9  C   UNL A   1      31.200  24.401  26.043  1.00  0.00     0.147 A 
ATOM     10  C   UNL A   1      31.720  25.335  25.138  1.00  0.00     0.013 A 
ATOM     11  C   UNL A   1      30.626  26.236  24.945  1.00  0.00     0.140 A 
ATOM     12  N   UNL A   1      29.547  25.927  25.652  1.00  0.00    -0.183 NA
ATOM     13  N   UNL A   1      29.911  24.814  26.288  1.00  0.00    -0.271 N 
ATOM     14  H   UNL A   1      29.303  24.325  26.888  1.00  0.00     0.190 HD
BRANCH  10  15
ATOM     15  C   UNL A   1      33.008  25.487  24.332  1.00  0.00     0.069 C 
ATOM     16  O   UNL A   1      33.319  23.354  21.247  1.00  0.00    -0.275 OA
ATOM     17  C   UNL A   1      33.312  24.354  21.965  1.00  0.00     0.226 C 
ATOM     18  C   UNL A   1      33.343  24.231  23.483  1.00  0.00     0.114 C 
ATOM     19  N   UNL A   1      33.390  25.595  21.394  1.00  0.00    -0.311 N 
ATOM     20  C   UNL A   1      33.297  26.707  22.176  1.00  0.00     0.132 A 
ATOM     21  H   UNL A   1      33.511  25.685  20.421  1.00  0.00     0.171 HD
ATOM     22  C   UNL A   1      33.157  26.727  23.536  1.00  0.00     0.031 A 
ATOM     23  N   UNL A   1      33.247  27.997  21.752  1.00  0.00    -0.262 N 
ATOM     24  C   UNL A   1      33.165  28.103  23.867  1.00  0.00     0.108 A 
ATOM     25  N   UNL A   1      33.153  28.879  22.769  1.00  0.00    -0.173 NA
ATOM     26  H   UNL A   1      33.276  28.260  20.804  1.00  0.00     0.192 HD
BRANCH  24  27
ATOM     27  C   UNL A   1      33.078  28.669  25.249  1.00  0.00     0.055 A 
ATOM     28  C   UNL A   1      33.972  28.369  26.254  1.00  0.00     0.022 A 
ATOM     29  S   UNL A   1      31.912  29.811  25.752  1.00  0.00    -0.142 S 
ATOM     30  C   UNL A   1      33.759  29.176  27.411  1.00  0.00     0.012 A 
ATOM     31  C   UNL A   1      32.644  29.975  27.284  1.00  0.00     0.065 A 
ENDBRANCH  24  27
ENDBRANCH  10  15
ENDBRANCH   7   9
ENDBRANCH   6   7
ENDBRANCH   5   6
ENDBRANCH   4   5
ENDBRANCH   3   4
ENDBRANCH   2   3
ENDBRANCH   1   2
BRANCH   1  32
ATOM     32  O   UNL A   1      36.002  21.706  24.566  1.00  0.00    -0.376 OA
BRANCH  32  33
ATOM     33  C   UNL A   1      37.405  21.802  24.413  1.00  0.00     0.202 C 
BRANCH  33  34
ATOM     34  C   UNL A   1      38.323  21.586  25.608  1.00  0.00     0.261 C 
BRANCH  34  35
ATOM     35  O   UNL A   1      38.779  22.772  26.219  1.00  0.00    -0.460 OA
BRANCH  35  36
ATOM     36  C   UNL A   1      39.861  22.623  27.008  1.00  0.00     0.338 C 
ATOM     37  O   UNL A   1      40.218  21.610  27.579  1.00  0.00    -0.246 OA
BRANCH  36  38
ATOM     38  C   UNL A   1      40.509  23.933  27.120  1.00  0.00     0.060 A 
ATOM     39  C   UNL A   1      41.500  24.072  28.089  1.00  0.00     0.016 A 
ATOM     40  C   UNL A   1      39.947  25.036  26.456  1.00  0.00     0.016 A 
ATOM     41  C   UNL A   1      41.770  25.338  28.554  1.00  0.00     0.010 A 
ATOM     42  C   UNL A   1      40.202  26.297  26.932  1.00  0.00     0.010 A 
ATOM     43  C   UNL A   1      41.039  26.414  28.036  1.00  0.00    -0.014 A 
BRANCH  43  44
ATOM     44  C   UNL A   1      41.117  27.665  28.747  1.00  0.00     0.031 A 
ATOM     45  C   UNL A   1      42.197  28.564  28.320  1.00  0.00     0.074 A 
ATOM     46  C   UNL A   1      40.234  27.995  29.705  1.00  0.00     0.049 A 
ATOM     47  N   UNL A   1      43.270  28.864  28.968  1.00  0.00    -0.248 NA
ATOM     48  C   UNL A   1      42.126  29.103  26.956  1.00  0.00     0.031 C 
ATOM     49  C   UNL A   1      38.952  27.358  30.014  1.00  0.00     0.029 A 
ATOM     50  N   UNL A   1      40.270  29.065  30.539  1.00  0.00    -0.354 N 
ATOM     51  C   UNL A   1      43.934  29.785  28.174  1.00  0.00     0.074 A 
ATOM     52  C   UNL A   1      43.273  29.777  26.891  1.00  0.00     0.031 C 
ATOM     53  C   UNL A   1      38.237  28.184  30.812  1.00  0.00     0.029 A 
ATOM     54  C   UNL A   1      39.066  29.325  31.170  1.00  0.00     0.049 A 
ATOM     55  H   UNL A   1      41.079  29.606  30.684  1.00  0.00     0.167 HD
ATOM     56  C   UNL A   1      44.841  30.657  28.688  1.00  0.00     0.031 A 
ATOM     57  C   UNL A   1      38.758  30.448  31.858  1.00  0.00     0.031 A 
ATOM     58  C   UNL A   1      45.261  30.300  30.016  1.00  0.00     0.049 A 
ATOM     59  C   UNL A   1      40.032  31.100  32.253  1.00  0.00     0.074 A 
ATOM     60  C   UNL A   1      45.899  29.210  30.573  1.00  0.00     0.029 A 
ATOM     61  N   UNL A   1      44.689  30.985  31.063  1.00  0.00    -0.354 N 
ATOM     62  N   UNL A   1      40.867  30.593  33.118  1.00  0.00    -0.248 NA
ATOM     63  C   UNL A   1      40.588  32.137  31.397  1.00  0.00     0.031 C 
ATOM     64  C   UNL A   1      45.325  29.057  31.866  1.00  0.00     0.029 A 
ATOM     65  C   UNL A   1      44.383  30.074  32.043  1.00  0.00     0.049 A 
ATOM     66  H   UNL A   1      44.529  31.957  31.102  1.00  0.00     0.167 HD
ATOM     67  C   UNL A   1      42.128  30.938  32.651  1.00  0.00     0.074 A 
ATOM     68  C   UNL A   1      41.889  31.988  31.666  1.00  0.00     0.031 C 
ATOM     69  C   UNL A   1      43.219  30.154  32.904  1.00  0.00     0.031 A 
BRANCH  56  70
ATOM     70  C   UNL A   1      45.059  32.023  28.107  1.00  0.00    -0.014 A 
ATOM     71  C   UNL A   1      46.370  32.478  27.882  1.00  0.00     0.010 A 
ATOM     72  C   UNL A   1      44.016  32.968  28.010  1.00  0.00     0.010 A 
ATOM     73  C   UNL A   1      46.624  33.828  27.605  1.00  0.00     0.020 A 
ATOM     74  C   UNL A   1      44.253  34.302  27.687  1.00  0.00     0.020 A 
ATOM     75  C   UNL A   1      45.562  34.731  27.520  1.00  0.00     0.054 A 
BRANCH  75  76
ATOM     76  S   UNL A   1      45.904  36.488  27.263  1.00  0.00     0.124 S 
ATOM     77  O   UNL A   1      46.749  36.797  28.412  1.00  0.00    -0.237 OA
ATOM     78  O   UNL A   1      46.572  36.489  25.964  1.00  0.00    -0.237 OA
ATOM     79  O   UNL A   1      44.578  37.100  27.275  1.00  0.00    -0.744 OA
ENDBRANCH  75  76
ENDBRANCH  56  70
BRANCH  57  80
ATOM     80  C   UNL A   1      37.447  31.135  31.900  1.00  0.00    -0.014 A 
ATOM     81  C   UNL A   1      36.891  31.550  33.122  1.00  0.00     0.010 A 
ATOM     82  C   UNL A   1      36.864  31.625  30.710  1.00  0.00     0.010 A 
ATOM     83  C   UNL A   1      35.833  32.473  33.154  1.00  0.00     0.020 A 
ATOM     84  C   UNL A   1      35.802  32.532  30.735  1.00  0.00     0.020 A 
ATOM     85  C   UNL A   1      35.309  32.973  31.959  1.00  0.00     0.054 A 
BRANCH  85  86
ATOM     86  S   UNL A   1      34.075  34.303  32.012  1.00  0.00     0.124 S 
ATOM     87  O   UNL A   1      34.859  35.436  32.496  1.00  0.00    -0.237 OA
ATOM     88  O   UNL A   1      33.638  34.384  30.621  1.00  0.00    -0.237 OA
ATOM     89  O   UNL A   1      33.068  33.801  32.945  1.00  0.00    -0.744 OA
ENDBRANCH  85  86
ENDBRANCH  57  80
BRANCH  69  90
ATOM     90  C   UNL A   1      43.104  29.100  33.985  1.00  0.00    -0.014 A 
ATOM     91  C   UNL A   1      43.566  29.287  35.303  1.00  0.00     0.010 A 
ATOM     92  C   UNL A   1      42.377  27.932  33.693  1.00  0.00     0.010 A 
ATOM     93  C   UNL A   1      43.336  28.318  36.289  1.00  0.00     0.020 A 
ATOM     94  C   UNL A   1      42.126  26.971  34.677  1.00  0.00     0.020 A 
ATOM     95  C   UNL A   1      42.617  27.163  35.969  1.00  0.00     0.054 A 
BRANCH  95  96
ATOM     96  S   UNL A   1      42.278  25.938  37.265  1.00  0.00     0.124 S 
ATOM     97  O   UNL A   1      43.192  26.341  38.330  1.00  0.00    -0.237 OA
ATOM     98  O   UNL A   1      40.857  26.142  37.542  1.00  0.00    -0.237 OA
ATOM     99  O   UNL A   1      42.596  24.660  36.628  1.00  0.00    -0.744 OA
ENDBRANCH  95  96
ENDBRANCH  69  90
ENDBRANCH  43  44
ENDBRANCH  36  38
ENDBRANCH  35  36
ENDBRANCH  34  35
ENDBRANCH  33  34
ENDBRANCH  32  33
ENDBRANCH   1  32
TORSDOF 22
ENDMDL
MODEL 2
REMARK VINA RESULT:     -11.1      1.083      2.395
REMARK SMILES O=C1C[C@H](c2cn[nH]c2C(=O)OCCOCCOCCOC(=O)c2ccc(-c3c4nc(c(-c5ccc(S(=O)(=O)[O-])cc5)c5ccc([nH]5)c(-c5ccc(S(=O)(=O)[O-])cc5)c5nc(c(-c6ccc(S(=O)(=O)[O-])cc6)c6ccc3[nH]6)C=C5)C=C4)cc2)c2c(-c3cccs3)n[nH]c2N1
REMARK SMILES IDX 17 1 16 2 15 3 14 4 13 5 12 6 10 7 11 8 9 9 5 10 6 11 7 12
REMARK SMILES IDX 8 13 4 15 1 16 2 17 3 18 94 19 93 20 84 22 92 23 85 24 91 25
REMARK SMILES IDX 86 27 87 28 90 29 88 30 89 31 18 32 19 33 20 34 21 35 22 36
REMARK SMILES IDX 23 37 24 38 25 39 83 40 26 41 82 42 27 43 28 44 29 45 76 46
REMARK SMILES IDX 30 47 81 48 75 49 77 50 31 51 80 52 74 53 73 54 32 56 62 57
REMARK SMILES IDX 43 58 61 59 44 60 47 61 60 62 78 63 45 64 46 65 59 67 79 68
REMARK SMILES IDX 48 69 33 70 34 71 42 72 35 73 41 74 36 75 37 76 38 77 39 78
REMARK SMILES IDX 40 79 63 80 64 81 72 82 65 83 71 84 66 85 67 86 68 87 69 88
REMARK SMILES IDX 70 89 49 90 50 91 58 92 51 93 57 94 52 95 53 96 54 97 55 98
REMARK SMILES IDX 56 99
REMARK H PARENT 8 14 94 21 92 26 77 55 47 66
REMARK Flexibility Score: inf
ROOT
ATOM      1  C   UNL A   1      34.926  21.587  26.195  1.00  0.00     0.188 C 
ENDROOT
BRANCH   1   2
ATOM      2  C   UNL A   1      33.659  22.392  25.823  1.00  0.00     0.188 C 
BRANCH   2   3
ATOM      3  O   UNL A   1      33.501  22.859  24.486  1.00  0.00    -0.376 OA
BRANCH   3   4
ATOM      4  C   UNL A   1      32.188  22.936  23.934  1.00  0.00     0.202 C 
BRANCH   4   5
ATOM      5  C   UNL A   1      31.990  23.713  22.622  1.00  0.00     0.261 C 
BRANCH   5   6
ATOM      6  O   UNL A   1      31.871  25.141  22.796  1.00  0.00    -0.459 OA
BRANCH   6   7
ATOM      7  C   UNL A   1      32.733  25.905  22.079  1.00  0.00     0.356 C 
ATOM      8  O   UNL A   1      33.281  25.546  21.045  1.00  0.00    -0.244 OA
BRANCH   7   9
ATOM      9  C   UNL A   1      32.792  27.271  22.551  1.00  0.00     0.147 A 
ATOM     10  C   UNL A   1      32.085  28.133  23.399  1.00  0.00     0.013 A 
ATOM     11  C   UNL A   1      32.847  29.342  23.333  1.00  0.00     0.140 A 
ATOM     12  N   UNL A   1      33.900  29.268  22.530  1.00  0.00    -0.183 NA
ATOM     13  N   UNL A   1      33.854  28.012  22.088  1.00  0.00    -0.271 N 
ATOM     14  H   UNL A   1      34.530  27.642  21.474  1.00  0.00     0.190 HD
BRANCH  10  15
ATOM     15  C   UNL A   1      30.894  28.013  24.346  1.00  0.00     0.069 C 
ATOM     16  O   UNL A   1      28.058  25.815  23.208  1.00  0.00    -0.275 OA
ATOM     17  C   UNL A   1      28.947  26.278  23.924  1.00  0.00     0.226 C 
ATOM     18  C   UNL A   1      29.576  27.630  23.618  1.00  0.00     0.114 C 
ATOM     19  N   UNL A   1      29.298  25.622  25.072  1.00  0.00    -0.311 N 
ATOM     20  C   UNL A   1      30.337  26.083  25.823  1.00  0.00     0.132 A 
ATOM     21  H   UNL A   1      28.802  24.819  25.354  1.00  0.00     0.171 HD
ATOM     22  C   UNL A   1      31.088  27.195  25.565  1.00  0.00     0.031 A 
ATOM     23  N   UNL A   1      30.873  25.487  26.921  1.00  0.00    -0.262 N 
ATOM     24  C   UNL A   1      31.987  27.270  26.656  1.00  0.00     0.108 A 
ATOM     25  N   UNL A   1      31.898  26.187  27.449  1.00  0.00    -0.173 NA
ATOM     26  H   UNL A   1      30.546  24.635  27.292  1.00  0.00     0.192 HD
BRANCH  24  27
ATOM     27  C   UNL A   1      33.009  28.340  26.874  1.00  0.00     0.055 A 
ATOM     28  C   UNL A   1      34.368  28.130  26.769  1.00  0.00     0.022 A 
ATOM     29  S   UNL A   1      32.640  29.973  27.209  1.00  0.00    -0.142 S 
ATOM     30  C   UNL A   1      35.100  29.351  26.852  1.00  0.00     0.012 A 
ATOM     31  C   UNL A   1      34.283  30.425  27.132  1.00  0.00     0.065 A 
ENDBRANCH  24  27
ENDBRANCH  10  15
ENDBRANCH   7   9
ENDBRANCH   6   7
ENDBRANCH   5   6
ENDBRANCH   4   5
ENDBRANCH   3   4
ENDBRANCH   2   3
ENDBRANCH   1   2
BRANCH   1  32
ATOM     32  O   UNL A   1      36.127  22.196  25.756  1.00  0.00    -0.376 OA
BRANCH  32  33
ATOM     33  C   UNL A   1      37.149  21.389  25.200  1.00  0.00     0.202 C 
BRANCH  33  34
ATOM     34  C   UNL A   1      38.560  21.440  25.768  1.00  0.00     0.261 C 
BRANCH  34  35
ATOM     35  O   UNL A   1      38.867  22.624  26.470  1.00  0.00    -0.460 OA
BRANCH  35  36
ATOM     36  C   UNL A   1      40.008  22.579  27.185  1.00  0.00     0.338 C 
ATOM     37  O   UNL A   1      40.473  21.615  27.765  1.00  0.00    -0.246 OA
BRANCH  36  38
ATOM     38  C   UNL A   1      40.572  23.932  27.203  1.00  0.00     0.060 A 
ATOM     39  C   UNL A   1      41.656  24.158  28.048  1.00  0.00     0.016 A 
ATOM     40  C   UNL A   1      39.861  24.979  26.594  1.00  0.00     0.016 A 
ATOM     41  C   UNL A   1      41.888  25.450  28.462  1.00  0.00     0.010 A 
ATOM     42  C   UNL A   1      40.080  26.264  27.021  1.00  0.00     0.010 A 
ATOM     43  C   UNL A   1      41.028  26.462  28.018  1.00  0.00    -0.014 A 
BRANCH  43  44
ATOM     44  C   UNL A   1      41.099  27.730  28.699  1.00  0.00     0.031 A 
ATOM     45  C   UNL A   1      42.195  28.612  28.272  1.00  0.00     0.074 A 
ATOM     46  C   UNL A   1      40.199  28.090  29.629  1.00  0.00     0.049 A 
ATOM     47  N   UNL A   1      43.255  28.922  28.935  1.00  0.00    -0.248 NA
ATOM     48  C   UNL A   1      42.155  29.115  26.894  1.00  0.00     0.031 C 
ATOM     49  C   UNL A   1      38.906  27.469  29.927  1.00  0.00     0.029 A 
ATOM     50  N   UNL A   1      40.224  29.181  30.437  1.00  0.00    -0.354 N 
ATOM     51  C   UNL A   1      43.942  29.818  28.132  1.00  0.00     0.074 A 
ATOM     52  C   UNL A   1      43.309  29.781  26.836  1.00  0.00     0.031 C 
ATOM     53  C   UNL A   1      38.180  28.319  30.688  1.00  0.00     0.029 A 
ATOM     54  C   UNL A   1      39.009  29.464  31.034  1.00  0.00     0.049 A 
ATOM     55  H   UNL A   1      41.034  29.720  30.585  1.00  0.00     0.167 HD
ATOM     56  C   UNL A   1      44.843  30.696  28.643  1.00  0.00     0.031 A 
ATOM     57  C   UNL A   1      38.694  30.607  31.687  1.00  0.00     0.031 A 
ATOM     58  C   UNL A   1      45.233  30.371  29.988  1.00  0.00     0.049 A 
ATOM     59  C   UNL A   1      39.964  31.260  32.092  1.00  0.00     0.074 A 
ATOM     60  C   UNL A   1      45.852  29.292  30.586  1.00  0.00     0.029 A 
ATOM     61  N   UNL A   1      44.644  31.087  31.005  1.00  0.00    -0.354 N 
ATOM     62  N   UNL A   1      40.777  30.771  32.987  1.00  0.00    -0.248 NA
ATOM     63  C   UNL A   1      40.545  32.272  31.222  1.00  0.00     0.031 C 
ATOM     64  C   UNL A   1      45.249  29.175  31.871  1.00  0.00     0.029 A 
ATOM     65  C   UNL A   1      44.311  30.203  32.001  1.00  0.00     0.049 A 
ATOM     66  H   UNL A   1      44.489  32.060  31.015  1.00  0.00     0.167 HD
ATOM     67  C   UNL A   1      42.050  31.096  32.538  1.00  0.00     0.074 A 
ATOM     68  C   UNL A   1      41.838  32.121  31.523  1.00  0.00     0.031 C 
ATOM     69  C   UNL A   1      43.129  30.311  32.835  1.00  0.00     0.031 A 
BRANCH  56  70
ATOM     70  C   UNL A   1      45.083  32.046  28.033  1.00  0.00    -0.014 A 
ATOM     71  C   UNL A   1      46.400  32.468  27.781  1.00  0.00     0.010 A 
ATOM     72  C   UNL A   1      44.059  33.012  27.930  1.00  0.00     0.010 A 
ATOM     73  C   UNL A   1      46.679  33.806  27.474  1.00  0.00     0.020 A 
ATOM     74  C   UNL A   1      44.320  34.334  27.577  1.00  0.00     0.020 A 
ATOM     75  C   UNL A   1      45.636  34.730  27.385  1.00  0.00     0.054 A 
BRANCH  75  76
ATOM     76  S   UNL A   1      46.012  36.474  27.089  1.00  0.00     0.124 S 
ATOM     77  O   UNL A   1      46.867  36.791  28.228  1.00  0.00    -0.237 OA
ATOM     78  O   UNL A   1      46.675  36.434  25.788  1.00  0.00    -0.237 OA
ATOM     79  O   UNL A   1      44.698  37.112  27.093  1.00  0.00    -0.744 OA
ENDBRANCH  75  76
ENDBRANCH  56  70
BRANCH  57  80
ATOM     80  C   UNL A   1      37.386  31.303  31.684  1.00  0.00    -0.014 A 
ATOM     81  C   UNL A   1      36.692  31.534  32.883  1.00  0.00     0.010 A 
ATOM     82  C   UNL A   1      36.947  31.980  30.525  1.00  0.00     0.010 A 
ATOM     83  C   UNL A   1      35.638  32.460  32.935  1.00  0.00     0.020 A 
ATOM     84  C   UNL A   1      35.889  32.892  30.567  1.00  0.00     0.020 A 
ATOM     85  C   UNL A   1      35.257  33.148  31.780  1.00  0.00     0.054 A 
BRANCH  85  86
ATOM     86  S   UNL A   1      34.025  34.476  31.896  1.00  0.00     0.124 S 
ATOM     87  O   UNL A   1      33.477  34.510  30.542  1.00  0.00    -0.237 OA
ATOM     88  O   UNL A   1      33.123  33.980  32.932  1.00  0.00    -0.237 OA
ATOM     89  O   UNL A   1      34.814  35.646  32.275  1.00  0.00    -0.744 OA
ENDBRANCH  85  86
ENDBRANCH  57  80
BRANCH  69  90
ATOM     90  C   UNL A   1      42.985  29.287  33.940  1.00  0.00    -0.014 A 
ATOM     91  C   UNL A   1      43.092  29.601  35.309  1.00  0.00     0.010 A 
ATOM     92  C   UNL A   1      42.588  27.985  33.584  1.00  0.00     0.010 A 
ATOM     93  C   UNL A   1      42.842  28.632  36.291  1.00  0.00     0.020 A 
ATOM     94  C   UNL A   1      42.317  27.019  34.558  1.00  0.00     0.020 A 
ATOM     95  C   UNL A   1      42.456  27.345  35.908  1.00  0.00     0.054 A 
BRANCH  95  96
ATOM     96  S   UNL A   1      42.083  26.111  37.187  1.00  0.00     0.124 S 
ATOM     97  O   UNL A   1      43.119  26.364  38.184  1.00  0.00    -0.237 OA
ATOM     98  O   UNL A   1      40.722  26.461  37.590  1.00  0.00    -0.237 OA
ATOM     99  O   UNL A   1      42.201  24.834  36.483  1.00  0.00    -0.744 OA
ENDBRANCH  95  96
ENDBRANCH  69  90
ENDBRANCH  43  44
ENDBRANCH  36  38
ENDBRANCH  35  36
ENDBRANCH  34  35
ENDBRANCH  33  34
ENDBRANCH  32  33
ENDBRANCH   1  32
TORSDOF 22
ENDMDL
MODEL 3
REMARK VINA RESULT:     -10.3      1.339      2.040
REMARK SMILES O=C1C[C@H](c2cn[nH]c2C(=O)OCCOCCOCCOC(=O)c2ccc(-c3c4nc(c(-c5ccc(S(=O)(=O)[O-])cc5)c5ccc([nH]5)c(-c5ccc(S(=O)(=O)[O-])cc5)c5nc(c(-c6ccc(S(=O)(=O)[O-])cc6)c6ccc3[nH]6)C=C5)C=C4)cc2)c2c(-c3cccs3)n[nH]c2N1
REMARK SMILES IDX 17 1 16 2 15 3 14 4 13 5 12 6 10 7 11 8 9 9 5 10 6 11 7 12
REMARK SMILES IDX 8 13 4 15 1 16 2 17 3 18 94 19 93 20 84 22 92 23 85 24 91 25
REMARK SMILES IDX 86 27 87 28 90 29 88 30 89 31 18 32 19 33 20 34 21 35 22 36
REMARK SMILES IDX 23 37 24 38 25 39 83 40 26 41 82 42 27 43 28 44 29 45 76 46
REMARK SMILES IDX 30 47 81 48 75 49 77 50 31 51 80 52 74 53 73 54 32 56 62 57
REMARK SMILES IDX 43 58 61 59 44 60 47 61 60 62 78 63 45 64 46 65 59 67 79 68
REMARK SMILES IDX 48 69 33 70 34 71 42 72 35 73 41 74 36 75 37 76 38 77 39 78
REMARK SMILES IDX 40 79 63 80 64 81 72 82 65 83 71 84 66 85 67 86 68 87 69 88
REMARK SMILES IDX 70 89 49 90 50 91 58 92 51 93 57 94 52 95 53 96 54 97 55 98
REMARK SMILES IDX 56 99
REMARK H PARENT 8 14 94 21 92 26 77 55 47 66
REMARK Flexibility Score: inf
ROOT
ATOM      1  C   UNL A   1      34.780  21.572  27.105  1.00  0.00     0.188 C 
ENDROOT
BRANCH   1   2
ATOM      2  C   UNL A   1      33.450  22.238  27.525  1.00  0.00     0.188 C 
BRANCH   2   3
ATOM      3  O   UNL A   1      32.430  22.428  26.547  1.00  0.00    -0.376 OA
BRANCH   3   4
ATOM      4  C   UNL A   1      31.350  23.312  26.842  1.00  0.00     0.202 C 
BRANCH   4   5
ATOM      5  C   UNL A   1      31.239  24.621  26.045  1.00  0.00     0.261 C 
BRANCH   5   6
ATOM      6  O   UNL A   1      32.155  25.651  26.473  1.00  0.00    -0.459 OA
BRANCH   6   7
ATOM      7  C   UNL A   1      33.279  25.800  25.727  1.00  0.00     0.356 C 
ATOM      8  O   UNL A   1      33.793  24.908  25.066  1.00  0.00    -0.244 OA
BRANCH   7   9
ATOM      9  C   UNL A   1      33.704  27.178  25.629  1.00  0.00     0.147 A 
ATOM     10  C   UNL A   1      33.673  28.238  24.714  1.00  0.00     0.013 A 
ATOM     11  C   UNL A   1      34.304  29.301  25.433  1.00  0.00     0.140 A 
ATOM     12  N   UNL A   1      34.705  28.960  26.651  1.00  0.00    -0.183 NA
ATOM     13  N   UNL A   1      34.319  27.688  26.749  1.00  0.00    -0.271 N 
ATOM     14  H   UNL A   1      34.463  27.153  27.564  1.00  0.00     0.190 HD
BRANCH  10  15
ATOM     15  C   UNL A   1      33.067  28.482  23.334  1.00  0.00     0.069 C 
ATOM     16  O   UNL A   1      33.450  25.708  20.818  1.00  0.00    -0.275 OA
ATOM     17  C   UNL A   1      32.914  26.567  21.521  1.00  0.00     0.226 C 
ATOM     18  C   UNL A   1      33.742  27.638  22.218  1.00  0.00     0.114 C 
ATOM     19  N   UNL A   1      31.550  26.628  21.588  1.00  0.00    -0.311 N 
ATOM     20  C   UNL A   1      30.953  27.518  22.428  1.00  0.00     0.132 A 
ATOM     21  H   UNL A   1      31.000  26.029  21.032  1.00  0.00     0.171 HD
ATOM     22  C   UNL A   1      31.591  28.422  23.230  1.00  0.00     0.031 A 
ATOM     23  N   UNL A   1      29.623  27.626  22.688  1.00  0.00    -0.262 N 
ATOM     24  C   UNL A   1      30.541  29.140  23.852  1.00  0.00     0.108 A 
ATOM     25  N   UNL A   1      29.339  28.606  23.570  1.00  0.00    -0.173 NA
ATOM     26  H   UNL A   1      28.939  27.049  22.275  1.00  0.00     0.192 HD
BRANCH  24  27
ATOM     27  C   UNL A   1      30.707  30.279  24.807  1.00  0.00     0.055 A 
ATOM     28  C   UNL A   1      31.463  30.206  25.957  1.00  0.00     0.022 A 
ATOM     29  S   UNL A   1      30.049  31.837  24.574  1.00  0.00    -0.142 S 
ATOM     30  C   UNL A   1      31.592  31.479  26.587  1.00  0.00     0.012 A 
ATOM     31  C   UNL A   1      30.838  32.446  25.958  1.00  0.00     0.065 A 
ENDBRANCH  24  27
ENDBRANCH  10  15
ENDBRANCH   7   9
ENDBRANCH   6   7
ENDBRANCH   5   6
ENDBRANCH   4   5
ENDBRANCH   3   4
ENDBRANCH   2   3
ENDBRANCH   1   2
BRANCH   1  32
ATOM     32  O   UNL A   1      35.635  22.435  26.375  1.00  0.00    -0.376 OA
BRANCH  32  33
ATOM     33  C   UNL A   1      36.471  21.893  25.370  1.00  0.00     0.202 C 
BRANCH  33  34
ATOM     34  C   UNL A   1      37.982  21.886  25.552  1.00  0.00     0.261 C 
BRANCH  34  35
ATOM     35  O   UNL A   1      38.488  22.971  26.296  1.00  0.00    -0.460 OA
BRANCH  35  36
ATOM     36  C   UNL A   1      39.659  22.734  26.920  1.00  0.00     0.338 C 
ATOM     37  O   UNL A   1      40.056  21.669  27.355  1.00  0.00    -0.246 OA
BRANCH  36  38
ATOM     38  C   UNL A   1      40.359  24.016  27.048  1.00  0.00     0.060 A 
ATOM     39  C   UNL A   1      41.306  24.124  28.063  1.00  0.00     0.016 A 
ATOM     40  C   UNL A   1      39.879  25.132  26.344  1.00  0.00     0.016 A 
ATOM     41  C   UNL A   1      41.608  25.384  28.527  1.00  0.00     0.010 A 
ATOM     42  C   UNL A   1      40.165  26.387  26.818  1.00  0.00     0.010 A 
ATOM     43  C   UNL A   1      40.951  26.483  27.961  1.00  0.00    -0.014 A 
BRANCH  43  44
ATOM     44  C   UNL A   1      41.049  27.740  28.660  1.00  0.00     0.031 A 
ATOM     45  C   UNL A   1      42.161  28.605  28.244  1.00  0.00     0.074 A 
ATOM     46  C   UNL A   1      40.158  28.103  29.598  1.00  0.00     0.049 A 
ATOM     47  N   UNL A   1      43.228  28.884  28.909  1.00  0.00    -0.248 NA
ATOM     48  C   UNL A   1      42.128  29.131  26.874  1.00  0.00     0.031 C 
ATOM     49  C   UNL A   1      38.854  27.503  29.891  1.00  0.00     0.029 A 
ATOM     50  N   UNL A   1      40.207  29.180  30.423  1.00  0.00    -0.354 N 
ATOM     51  C   UNL A   1      43.931  29.779  28.118  1.00  0.00     0.074 A 
ATOM     52  C   UNL A   1      43.294  29.775  26.823  1.00  0.00     0.031 C 
ATOM     53  C   UNL A   1      38.147  28.355  30.666  1.00  0.00     0.029 A 
ATOM     54  C   UNL A   1      38.999  29.478  31.028  1.00  0.00     0.049 A 
ATOM     55  H   UNL A   1      41.028  29.701  30.577  1.00  0.00     0.167 HD
ATOM     56  C   UNL A   1      44.851  30.632  28.640  1.00  0.00     0.031 A 
ATOM     57  C   UNL A   1      38.708  30.616  31.699  1.00  0.00     0.031 A 
ATOM     58  C   UNL A   1      45.237  30.278  29.979  1.00  0.00     0.049 A 
ATOM     59  C   UNL A   1      39.992  31.238  32.111  1.00  0.00     0.074 A 
ATOM     60  C   UNL A   1      45.836  29.178  30.558  1.00  0.00     0.029 A 
ATOM     61  N   UNL A   1      44.665  30.989  31.008  1.00  0.00    -0.354 N 
ATOM     62  N   UNL A   1      40.797  30.719  32.996  1.00  0.00    -0.248 NA
ATOM     63  C   UNL A   1      40.591  32.251  31.254  1.00  0.00     0.031 C 
ATOM     64  C   UNL A   1      45.235  29.053  31.843  1.00  0.00     0.029 A 
ATOM     65  C   UNL A   1      44.317  30.097  31.992  1.00  0.00     0.049 A 
ATOM     66  H   UNL A   1      44.530  31.965  31.034  1.00  0.00     0.167 HD
ATOM     67  C   UNL A   1      42.075  31.026  32.549  1.00  0.00     0.074 A 
ATOM     68  C   UNL A   1      41.882  32.071  31.550  1.00  0.00     0.031 C 
ATOM     69  C   UNL A   1      43.140  30.216  32.831  1.00  0.00     0.031 A 
BRANCH  56  70
ATOM     70  C   UNL A   1      45.116  31.985  28.050  1.00  0.00    -0.014 A 
ATOM     71  C   UNL A   1      46.385  32.571  28.202  1.00  0.00     0.010 A 
ATOM     72  C   UNL A   1      44.075  32.805  27.564  1.00  0.00     0.010 A 
ATOM     73  C   UNL A   1      46.590  33.926  27.912  1.00  0.00     0.020 A 
ATOM     74  C   UNL A   1      44.280  34.141  27.227  1.00  0.00     0.020 A 
ATOM     75  C   UNL A   1      45.531  34.702  27.435  1.00  0.00     0.054 A 
BRANCH  75  76
ATOM     76  S   UNL A   1      45.777  36.473  27.160  1.00  0.00     0.124 S 
ATOM     77  O   UNL A   1      46.504  36.478  25.895  1.00  0.00    -0.237 OA
ATOM     78  O   UNL A   1      44.406  36.974  27.108  1.00  0.00    -0.237 OA
ATOM     79  O   UNL A   1      46.545  36.896  28.329  1.00  0.00    -0.744 OA
ENDBRANCH  75  76
ENDBRANCH  56  70
BRANCH  57  80
ATOM     80  C   UNL A   1      37.415  31.338  31.710  1.00  0.00    -0.014 A 
ATOM     81  C   UNL A   1      36.697  31.508  32.905  1.00  0.00     0.010 A 
ATOM     82  C   UNL A   1      37.016  32.095  30.587  1.00  0.00     0.010 A 
ATOM     83  C   UNL A   1      35.659  32.451  32.992  1.00  0.00     0.020 A 
ATOM     84  C   UNL A   1      35.975  33.024  30.662  1.00  0.00     0.020 A 
ATOM     85  C   UNL A   1      35.319  33.217  31.874  1.00  0.00     0.054 A 
BRANCH  85  86
ATOM     86  S   UNL A   1      34.110  34.560  32.045  1.00  0.00     0.124 S 
ATOM     87  O   UNL A   1      33.615  34.708  30.679  1.00  0.00    -0.237 OA
ATOM     88  O   UNL A   1      33.160  34.009  33.007  1.00  0.00    -0.237 OA
ATOM     89  O   UNL A   1      34.908  35.681  32.540  1.00  0.00    -0.744 OA
ENDBRANCH  85  86
ENDBRANCH  57  80
BRANCH  69  90
ATOM     90  C   UNL A   1      42.978  29.177  33.920  1.00  0.00    -0.014 A 
ATOM     91  C   UNL A   1      42.999  29.485  35.294  1.00  0.00     0.010 A 
ATOM     92  C   UNL A   1      42.653  27.864  33.535  1.00  0.00     0.010 A 
ATOM     93  C   UNL A   1      42.736  28.498  36.256  1.00  0.00     0.020 A 
ATOM     94  C   UNL A   1      42.370  26.880  34.488  1.00  0.00     0.020 A 
ATOM     95  C   UNL A   1      42.423  27.200  35.845  1.00  0.00     0.054 A 
BRANCH  95  96
ATOM     96  S   UNL A   1      42.032  25.942  37.095  1.00  0.00     0.124 S 
ATOM     97  O   UNL A   1      42.503  24.712  36.465  1.00  0.00    -0.237 OA
ATOM     98  O   UNL A   1      42.798  26.389  38.257  1.00  0.00    -0.237 OA
ATOM     99  O   UNL A   1      40.580  26.042  37.246  1.00  0.00    -0.744 OA
ENDBRANCH  95  96
ENDBRANCH  69  90
ENDBRANCH  43  44
ENDBRANCH  36  38
ENDBRANCH  35  36
ENDBRANCH  34  35
ENDBRANCH  33  34
ENDBRANCH  32  33
ENDBRANCH   1  32
TORSDOF 22
ENDMDL
