MODEL 1
REMARK VINA RESULT:     -12.7      0.000      0.000
REMARK SMILES Cc1ccccc1-c1c(Cl)ccc2c1C=C(C(=O)OCCOCCOCCOC(=O)c1ccc(-c3c4nc(c(-c5ccc(S(=O)(=O)[O-])cc5)c5ccc([nH]5)c(-c5ccc(S(=O)(=O)[O-])cc5)c5nc(c(-c6ccc(S(=O)(=O)[O-])cc6)c6ccc3[nH]6)C=C5)C=C4)cc1)[C@@H](C(F)(F)F)O2
REMARK SMILES IDX 24 1 23 2 22 3 21 4 20 5 19 6 17 7 18 8 16 9 8 10 9 11 14 12
REMARK SMILES IDX 10 13 11 14 13 15 15 16 12 17 96 18 91 19 7 20 1 21 2 22
REMARK SMILES IDX 3 23 4 24 6 25 5 26 92 27 93 28 94 29 95 30 25 31 26 32
REMARK SMILES IDX 27 33 28 34 29 35 30 36 31 37 32 38 90 39 33 40 89 41 34 42
REMARK SMILES IDX 35 43 36 44 83 45 37 46 88 47 82 48 84 49 38 50 87 51 81 52
REMARK SMILES IDX 80 53 39 55 69 56 50 57 68 58 51 59 54 60 67 61 85 62 52 63
REMARK SMILES IDX 53 64 66 66 86 67 55 68 40 69 41 70 49 71 42 72 48 73 43 74
REMARK SMILES IDX 44 75 45 76 46 77 47 78 70 79 71 80 79 81 72 82 78 83 73 84
REMARK SMILES IDX 74 85 75 86 76 87 77 88 56 89 57 90 65 91 58 92 64 93 59 94
REMARK SMILES IDX 60 95 61 96 62 97 63 98
REMARK H PARENT 84 54 54 65
REMARK Flexibility Score: inf
ROOT
ATOM      1  C   UNL A   1      40.658  20.968  26.661  1.00  0.00     0.188 C 
ENDROOT
BRANCH   1   2
ATOM      2  C   UNL A   1      39.367  21.504  26.095  1.00  0.00     0.188 C 
BRANCH   2   3
ATOM      3  O   UNL A   1      38.884  22.823  26.343  1.00  0.00    -0.376 OA
BRANCH   3   4
ATOM      4  C   UNL A   1      37.781  23.557  25.791  1.00  0.00     0.202 C 
BRANCH   4   5
ATOM      5  C   UNL A   1      36.410  23.241  24.770  1.00  0.00     0.261 C 
BRANCH   5   6
ATOM      6  O   UNL A   1      34.912  24.094  24.295  1.00  0.00    -0.460 OA
BRANCH   6   7
ATOM      7  C   UNL A   1      33.489  24.036  24.170  1.00  0.00     0.338 C 
ATOM      8  O   UNL A   1      32.855  23.932  23.122  1.00  0.00    -0.246 OA
BRANCH   7   9
ATOM      9  C   UNL A   1      32.619  24.149  25.405  1.00  0.00     0.087 C 
ATOM     10  C   UNL A   1      31.239  27.596  24.854  1.00  0.00     0.012 A 
ATOM     11  C   UNL A   1      30.248  28.178  24.023  1.00  0.00     0.049 A 
ATOM     12  C   UNL A   1      31.307  26.178  24.941  1.00  0.00     0.027 A 
ATOM     13  Cl  UNL A   1      30.149  29.890  23.764  1.00  0.00    -0.084 Cl
ATOM     14  C   UNL A   1      29.317  27.390  23.342  1.00  0.00     0.025 A 
ATOM     15  C   UNL A   1      30.358  25.407  24.244  1.00  0.00     0.128 A 
ATOM     16  C   UNL A   1      32.418  25.466  25.678  1.00  0.00     0.028 C 
ATOM     17  C   UNL A   1      29.370  26.006  23.457  1.00  0.00     0.049 A 
ATOM     18  O   UNL A   1      30.376  24.036  24.235  1.00  0.00    -0.475 OA
ATOM     19  C   UNL A   1      31.266  23.406  25.196  1.00  0.00     0.316 C 
BRANCH  10  20
ATOM     20  C   UNL A   1      32.192  28.444  25.598  1.00  0.00    -0.013 A 
ATOM     21  C   UNL A   1      33.963  28.295  23.764  1.00  0.00     0.045 C 
ATOM     22  C   UNL A   1      33.485  28.732  25.117  1.00  0.00    -0.043 A 
ATOM     23  C   UNL A   1      34.372  29.477  25.911  1.00  0.00     0.004 A 
ATOM     24  C   UNL A   1      33.973  29.983  27.145  1.00  0.00     0.000 A 
ATOM     25  C   UNL A   1      31.804  28.982  26.839  1.00  0.00     0.009 A 
ATOM     26  C   UNL A   1      32.680  29.753  27.601  1.00  0.00     0.001 A 
ENDBRANCH  10  20
BRANCH  19  27
ATOM     27  C   UNL A   1      30.485  23.184  26.508  1.00  0.00     0.430 C 
ATOM     28  F   UNL A   1      29.653  24.218  26.783  1.00  0.00    -0.167 F 
ATOM     29  F   UNL A   1      29.722  22.066  26.442  1.00  0.00    -0.167 F 
ATOM     30  F   UNL A   1      31.292  23.040  27.588  1.00  0.00    -0.167 F 
ENDBRANCH  19  27
ENDBRANCH   7   9
ENDBRANCH   6   7
ENDBRANCH   5   6
ENDBRANCH   4   5
ENDBRANCH   3   4
ENDBRANCH   2   3
ENDBRANCH   1   2
BRANCH   1  31
ATOM     31  O   UNL A   1      41.512  20.577  25.608  1.00  0.00    -0.376 OA
BRANCH  31  32
ATOM     32  C   UNL A   1      42.777  20.132  26.052  1.00  0.00     0.202 C 
BRANCH  32  33
ATOM     33  C   UNL A   1      43.923  21.067  25.643  1.00  0.00     0.261 C 
BRANCH  33  34
ATOM     34  O   UNL A   1      43.798  22.373  26.244  1.00  0.00    -0.460 OA
BRANCH  34  35
ATOM     35  C   UNL A   1      43.666  23.456  25.387  1.00  0.00     0.338 C 
ATOM     36  O   UNL A   1      44.097  23.455  24.272  1.00  0.00    -0.246 OA
BRANCH  35  37
ATOM     37  C   UNL A   1      42.654  24.413  25.942  1.00  0.00     0.060 A 
ATOM     38  C   UNL A   1      42.228  25.654  25.486  1.00  0.00     0.016 A 
ATOM     39  C   UNL A   1      42.020  23.998  27.049  1.00  0.00     0.016 A 
ATOM     40  C   UNL A   1      41.465  26.602  26.319  1.00  0.00     0.010 A 
ATOM     41  C   UNL A   1      41.284  24.931  27.789  1.00  0.00     0.010 A 
ATOM     42  C   UNL A   1      41.094  26.356  27.654  1.00  0.00    -0.014 A 
BRANCH  42  43
ATOM     43  C   UNL A   1      40.684  27.643  28.830  1.00  0.00     0.031 A 
ATOM     44  C   UNL A   1      39.290  28.730  29.075  1.00  0.00     0.074 A 
ATOM     45  C   UNL A   1      41.506  27.765  29.924  1.00  0.00     0.049 A 
ATOM     46  N   UNL A   1      39.038  29.424  30.173  1.00  0.00    -0.248 NA
ATOM     47  C   UNL A   1      38.096  29.090  28.189  1.00  0.00     0.031 C 
ATOM     48  C   UNL A   1      41.369  28.588  31.141  1.00  0.00     0.029 A 
ATOM     49  N   UNL A   1      42.737  27.146  30.149  1.00  0.00    -0.354 N 
ATOM     50  C   UNL A   1      37.904  30.198  29.965  1.00  0.00     0.074 A 
ATOM     51  C   UNL A   1      37.138  29.514  29.001  1.00  0.00     0.031 C 
ATOM     52  C   UNL A   1      42.536  28.659  31.794  1.00  0.00     0.029 A 
ATOM     53  C   UNL A   1      43.502  27.950  30.999  1.00  0.00     0.049 A 
ATOM     54  H   UNL A   1      43.021  26.283  29.770  1.00  0.00     0.167 HD
ATOM     55  C   UNL A   1      37.801  31.551  30.125  1.00  0.00     0.031 A 
ATOM     56  C   UNL A   1      44.674  28.458  30.546  1.00  0.00     0.031 A 
ATOM     57  C   UNL A   1      39.013  32.105  30.661  1.00  0.00     0.049 A 
ATOM     58  C   UNL A   1      44.514  29.940  30.319  1.00  0.00     0.074 A 
ATOM     59  C   UNL A   1      39.446  32.237  31.964  1.00  0.00     0.029 A 
ATOM     60  N   UNL A   1      40.135  32.245  29.836  1.00  0.00    -0.354 N 
ATOM     61  N   UNL A   1      43.378  30.538  30.056  1.00  0.00    -0.248 NA
ATOM     62  C   UNL A   1      45.615  30.870  30.527  1.00  0.00     0.031 C 
ATOM     63  C   UNL A   1      40.853  32.397  31.929  1.00  0.00     0.029 A 
ATOM     64  C   UNL A   1      41.269  32.440  30.605  1.00  0.00     0.049 A 
ATOM     65  H   UNL A   1      40.119  32.209  28.852  1.00  0.00     0.167 HD
ATOM     66  C   UNL A   1      43.565  31.893  30.118  1.00  0.00     0.074 A 
ATOM     67  C   UNL A   1      44.985  32.047  30.397  1.00  0.00     0.031 C 
ATOM     68  C   UNL A   1      42.563  32.821  30.045  1.00  0.00     0.031 A 
BRANCH  55  69
ATOM     69  C   UNL A   1      36.505  32.289  29.782  1.00  0.00    -0.014 A 
ATOM     70  C   UNL A   1      36.410  33.009  28.582  1.00  0.00     0.010 A 
ATOM     71  C   UNL A   1      35.425  32.454  30.687  1.00  0.00     0.010 A 
ATOM     72  C   UNL A   1      35.383  33.956  28.370  1.00  0.00     0.020 A 
ATOM     73  C   UNL A   1      34.420  33.423  30.511  1.00  0.00     0.020 A 
ATOM     74  C   UNL A   1      34.425  34.197  29.360  1.00  0.00     0.054 A 
BRANCH  74  75
ATOM     75  S   UNL A   1      33.279  35.600  29.190  1.00  0.00     0.124 S 
ATOM     76  O   UNL A   1      32.868  35.845  30.570  1.00  0.00    -0.237 OA
ATOM     77  O   UNL A   1      34.121  36.631  28.592  1.00  0.00    -0.237 OA
ATOM     78  O   UNL A   1      32.220  35.082  28.324  1.00  0.00    -0.744 OA
ENDBRANCH  74  75
ENDBRANCH  55  69
BRANCH  56  79
ATOM     79  C   UNL A   1      45.466  27.442  29.789  1.00  0.00    -0.014 A 
ATOM     80  C   UNL A   1      45.763  27.781  28.441  1.00  0.00     0.010 A 
ATOM     81  C   UNL A   1      46.223  26.428  30.396  1.00  0.00     0.010 A 
ATOM     82  C   UNL A   1      46.868  27.247  27.776  1.00  0.00     0.020 A 
ATOM     83  C   UNL A   1      47.320  25.855  29.710  1.00  0.00     0.020 A 
ATOM     84  C   UNL A   1      47.658  26.304  28.424  1.00  0.00     0.054 A 
BRANCH  84  85
ATOM     85  S   UNL A   1      49.228  25.851  27.613  1.00  0.00     0.124 S 
ATOM     86  O   UNL A   1      50.217  26.173  28.633  1.00  0.00    -0.237 OA
ATOM     87  O   UNL A   1      49.036  24.421  27.363  1.00  0.00    -0.237 OA
ATOM     88  O   UNL A   1      49.243  26.694  26.421  1.00  0.00    -0.744 OA
ENDBRANCH  84  85
ENDBRANCH  56  79
BRANCH  68  89
ATOM     89  C   UNL A   1      42.795  34.282  29.722  1.00  0.00    -0.014 A 
ATOM     90  C   UNL A   1      42.171  34.951  28.659  1.00  0.00     0.010 A 
ATOM     91  C   UNL A   1      43.603  35.068  30.577  1.00  0.00     0.010 A 
ATOM     92  C   UNL A   1      42.435  36.294  28.379  1.00  0.00     0.020 A 
ATOM     93  C   UNL A   1      43.837  36.426  30.339  1.00  0.00     0.020 A 
ATOM     94  C   UNL A   1      43.281  37.021  29.213  1.00  0.00     0.054 A 
BRANCH  94  95
ATOM     95  S   UNL A   1      43.601  38.757  28.832  1.00  0.00     0.124 S 
ATOM     96  O   UNL A   1      45.061  38.786  28.776  1.00  0.00    -0.237 OA
ATOM     97  O   UNL A   1      42.927  38.937  27.548  1.00  0.00    -0.237 OA
ATOM     98  O   UNL A   1      43.003  39.478  29.952  1.00  0.00    -0.744 OA
ENDBRANCH  94  95
ENDBRANCH  68  89
ENDBRANCH  42  43
ENDBRANCH  35  37
ENDBRANCH  34  35
ENDBRANCH  33  34
ENDBRANCH  32  33
ENDBRANCH  31  32
ENDBRANCH   1  31
TORSDOF 22
ENDMDL
MODEL 2
REMARK VINA RESULT:     -12.3      4.164      9.720
REMARK SMILES Cc1ccccc1-c1c(Cl)ccc2c1C=C(C(=O)OCCOCCOCCOC(=O)c1ccc(-c3c4nc(c(-c5ccc(S(=O)(=O)[O-])cc5)c5ccc([nH]5)c(-c5ccc(S(=O)(=O)[O-])cc5)c5nc(c(-c6ccc(S(=O)(=O)[O-])cc6)c6ccc3[nH]6)C=C5)C=C4)cc1)[C@@H](C(F)(F)F)O2
REMARK SMILES IDX 24 1 23 2 22 3 21 4 20 5 19 6 17 7 18 8 16 9 8 10 9 11 14 12
REMARK SMILES IDX 10 13 11 14 13 15 15 16 12 17 96 18 91 19 7 20 1 21 2 22
REMARK SMILES IDX 3 23 4 24 6 25 5 26 92 27 93 28 94 29 95 30 25 31 26 32
REMARK SMILES IDX 27 33 28 34 29 35 30 36 31 37 32 38 90 39 33 40 89 41 34 42
REMARK SMILES IDX 35 43 36 44 83 45 37 46 88 47 82 48 84 49 38 50 87 51 81 52
REMARK SMILES IDX 80 53 39 55 69 56 50 57 68 58 51 59 54 60 67 61 85 62 52 63
REMARK SMILES IDX 53 64 66 66 86 67 55 68 40 69 41 70 49 71 42 72 48 73 43 74
REMARK SMILES IDX 44 75 45 76 46 77 47 78 70 79 71 80 79 81 72 82 78 83 73 84
REMARK SMILES IDX 74 85 75 86 76 87 77 88 56 89 57 90 65 91 58 92 64 93 59 94
REMARK SMILES IDX 60 95 61 96 62 97 63 98
REMARK H PARENT 84 54 54 65
REMARK Flexibility Score: inf
ROOT
ATOM      1  C   UNL A   1      36.157  33.062  30.373  1.00  0.00     0.188 C 
ENDROOT
BRANCH   1   2
ATOM      2  C   UNL A   1      35.033  34.039  30.135  1.00  0.00     0.188 C 
BRANCH   2   3
ATOM      3  O   UNL A   1      34.297  34.112  28.915  1.00  0.00    -0.376 OA
BRANCH   3   4
ATOM      4  C   UNL A   1      33.739  33.093  28.071  1.00  0.00     0.202 C 
BRANCH   4   5
ATOM      5  C   UNL A   1      33.897  31.375  27.855  1.00  0.00     0.261 C 
BRANCH   5   6
ATOM      6  O   UNL A   1      33.597  30.191  26.551  1.00  0.00    -0.460 OA
BRANCH   6   7
ATOM      7  C   UNL A   1      33.793  28.857  26.074  1.00  0.00     0.338 C 
ATOM      8  O   UNL A   1      34.292  27.927  26.703  1.00  0.00    -0.246 OA
BRANCH   7   9
ATOM      9  C   UNL A   1      33.406  28.500  24.654  1.00  0.00     0.087 C 
ATOM     10  C   UNL A   1      32.893  24.806  25.083  1.00  0.00     0.012 A 
ATOM     11  C   UNL A   1      31.887  23.973  25.636  1.00  0.00     0.049 A 
ATOM     12  C   UNL A   1      32.605  26.186  24.893  1.00  0.00     0.027 A 
ATOM     13  Cl  UNL A   1      32.173  22.303  26.007  1.00  0.00    -0.084 Cl
ATOM     14  C   UNL A   1      30.619  24.471  25.941  1.00  0.00     0.025 A 
ATOM     15  C   UNL A   1      31.319  26.663  25.210  1.00  0.00     0.128 A 
ATOM     16  C   UNL A   1      33.656  27.178  24.453  1.00  0.00     0.028 C 
ATOM     17  C   UNL A   1      30.334  25.814  25.723  1.00  0.00     0.049 A 
ATOM     18  O   UNL A   1      30.968  27.984  25.100  1.00  0.00    -0.475 OA
ATOM     19  C   UNL A   1      31.908  28.834  24.390  1.00  0.00     0.316 C 
BRANCH  10  20
ATOM     20  C   UNL A   1      34.218  24.257  24.731  1.00  0.00    -0.013 A 
ATOM     21  C   UNL A   1      33.465  23.589  22.383  1.00  0.00     0.045 C 
ATOM     22  C   UNL A   1      34.477  23.642  23.490  1.00  0.00    -0.043 A 
ATOM     23  C   UNL A   1      35.736  23.067  23.248  1.00  0.00     0.004 A 
ATOM     24  C   UNL A   1      36.750  23.145  24.198  1.00  0.00     0.000 A 
ATOM     25  C   UNL A   1      35.264  24.341  25.668  1.00  0.00     0.009 A 
ATOM     26  C   UNL A   1      36.521  23.801  25.402  1.00  0.00     0.001 A 
ENDBRANCH  10  20
BRANCH  19  27
ATOM     27  C   UNL A   1      31.537  28.823  22.892  1.00  0.00     0.430 C 
ATOM     28  F   UNL A   1      31.094  27.607  22.490  1.00  0.00    -0.167 F 
ATOM     29  F   UNL A   1      30.552  29.714  22.624  1.00  0.00    -0.167 F 
ATOM     30  F   UNL A   1      32.579  29.141  22.085  1.00  0.00    -0.167 F 
ENDBRANCH  19  27
ENDBRANCH   7   9
ENDBRANCH   6   7
ENDBRANCH   5   6
ENDBRANCH   4   5
ENDBRANCH   3   4
ENDBRANCH   2   3
ENDBRANCH   1   2
BRANCH   1  31
ATOM     31  O   UNL A   1      36.050  32.525  31.674  1.00  0.00    -0.376 OA
BRANCH  31  32
ATOM     32  C   UNL A   1      36.695  31.275  31.815  1.00  0.00     0.202 C 
BRANCH  32  33
ATOM     33  C   UNL A   1      36.285  30.260  30.742  1.00  0.00     0.261 C 
BRANCH  33  34
ATOM     34  O   UNL A   1      37.385  29.416  30.343  1.00  0.00    -0.460 OA
BRANCH  34  35
ATOM     35  C   UNL A   1      37.533  29.163  28.986  1.00  0.00     0.338 C 
ATOM     36  O   UNL A   1      36.776  29.586  28.164  1.00  0.00    -0.246 OA
BRANCH  35  37
ATOM     37  C   UNL A   1      38.902  28.608  28.727  1.00  0.00     0.060 A 
ATOM     38  C   UNL A   1      39.686  27.735  29.469  1.00  0.00     0.016 A 
ATOM     39  C   UNL A   1      39.461  28.984  27.567  1.00  0.00     0.016 A 
ATOM     40  C   UNL A   1      41.129  27.546  29.231  1.00  0.00     0.010 A 
ATOM     41  C   UNL A   1      40.830  28.755  27.378  1.00  0.00     0.010 A 
ATOM     42  C   UNL A   1      41.860  28.225  28.240  1.00  0.00    -0.014 A 
BRANCH  42  43
ATOM     43  C   UNL A   1      43.637  28.444  28.283  1.00  0.00     0.031 A 
ATOM     44  C   UNL A   1      44.737  29.848  28.226  1.00  0.00     0.074 A 
ATOM     45  C   UNL A   1      44.388  27.338  28.601  1.00  0.00     0.049 A 
ATOM     46  N   UNL A   1      46.017  29.837  28.558  1.00  0.00    -0.248 NA
ATOM     47  C   UNL A   1      44.515  31.316  27.856  1.00  0.00     0.031 C 
ATOM     48  C   UNL A   1      45.831  27.205  28.880  1.00  0.00     0.029 A 
ATOM     49  N   UNL A   1      43.965  26.011  28.706  1.00  0.00    -0.354 N 
ATOM     50  C   UNL A   1      46.553  31.098  28.324  1.00  0.00     0.074 A 
ATOM     51  C   UNL A   1      45.482  32.004  28.447  1.00  0.00     0.031 C 
ATOM     52  C   UNL A   1      46.205  25.920  28.822  1.00  0.00     0.029 A 
ATOM     53  C   UNL A   1      45.044  25.167  28.430  1.00  0.00     0.049 A 
ATOM     54  H   UNL A   1      43.055  25.718  28.938  1.00  0.00     0.167 HD
ATOM     55  C   UNL A   1      47.645  31.388  27.555  1.00  0.00     0.031 A 
ATOM     56  C   UNL A   1      44.970  24.332  27.365  1.00  0.00     0.031 A 
ATOM     57  C   UNL A   1      48.281  30.190  27.081  1.00  0.00     0.049 A 
ATOM     58  C   UNL A   1      45.895  24.829  26.284  1.00  0.00     0.074 A 
ATOM     59  C   UNL A   1      49.224  29.375  27.669  1.00  0.00     0.029 A 
ATOM     60  N   UNL A   1      47.691  29.460  26.043  1.00  0.00    -0.354 N 
ATOM     61  N   UNL A   1      46.267  26.077  26.132  1.00  0.00    -0.248 NA
ATOM     62  C   UNL A   1      46.587  23.914  25.386  1.00  0.00     0.031 C 
ATOM     63  C   UNL A   1      49.162  28.117  27.020  1.00  0.00     0.029 A 
ATOM     64  C   UNL A   1      48.238  28.189  25.987  1.00  0.00     0.049 A 
ATOM     65  H   UNL A   1      46.991  29.800  25.440  1.00  0.00     0.167 HD
ATOM     66  C   UNL A   1      47.261  26.134  25.193  1.00  0.00     0.074 A 
ATOM     67  C   UNL A   1      47.410  24.757  24.744  1.00  0.00     0.031 C 
ATOM     68  C   UNL A   1      47.986  27.254  24.893  1.00  0.00     0.031 A 
BRANCH  55  69
ATOM     69  C   UNL A   1      48.079  32.836  27.319  1.00  0.00    -0.014 A 
ATOM     70  C   UNL A   1      47.661  33.508  26.160  1.00  0.00     0.010 A 
ATOM     71  C   UNL A   1      49.042  33.513  28.110  1.00  0.00     0.010 A 
ATOM     72  C   UNL A   1      48.282  34.704  25.738  1.00  0.00     0.020 A 
ATOM     73  C   UNL A   1      49.701  34.680  27.682  1.00  0.00     0.020 A 
ATOM     74  C   UNL A   1      49.337  35.254  26.473  1.00  0.00     0.054 A 
BRANCH  74  75
ATOM     75  S   UNL A   1      50.303  36.632  25.780  1.00  0.00     0.124 S 
ATOM     76  O   UNL A   1      50.078  37.699  26.753  1.00  0.00    -0.237 OA
ATOM     77  O   UNL A   1      51.657  36.088  25.745  1.00  0.00    -0.237 OA
ATOM     78  O   UNL A   1      49.691  36.864  24.472  1.00  0.00    -0.744 OA
ENDBRANCH  74  75
ENDBRANCH  55  69
BRANCH  56  79
ATOM     79  C   UNL A   1      43.635  23.668  27.268  1.00  0.00    -0.014 A 
ATOM     80  C   UNL A   1      43.230  23.301  25.956  1.00  0.00     0.010 A 
ATOM     81  C   UNL A   1      42.977  23.068  28.354  1.00  0.00     0.010 A 
ATOM     82  C   UNL A   1      42.322  22.266  25.731  1.00  0.00     0.020 A 
ATOM     83  C   UNL A   1      42.027  22.045  28.128  1.00  0.00     0.020 A 
ATOM     84  C   UNL A   1      41.743  21.624  26.819  1.00  0.00     0.054 A 
BRANCH  84  85
ATOM     85  S   UNL A   1      40.783  20.113  26.467  1.00  0.00     0.124 S 
ATOM     86  O   UNL A   1      41.601  19.443  25.464  1.00  0.00    -0.237 OA
ATOM     87  O   UNL A   1      40.750  19.464  27.778  1.00  0.00    -0.237 OA
ATOM     88  O   UNL A   1      39.502  20.634  26.000  1.00  0.00    -0.744 OA
ENDBRANCH  84  85
ENDBRANCH  56  79
BRANCH  68  89
ATOM     89  C   UNL A   1      48.787  27.418  23.619  1.00  0.00    -0.014 A 
ATOM     90  C   UNL A   1      48.247  27.905  22.419  1.00  0.00     0.010 A 
ATOM     91  C   UNL A   1      50.180  27.169  23.631  1.00  0.00     0.010 A 
ATOM     92  C   UNL A   1      49.016  28.015  21.258  1.00  0.00     0.020 A 
ATOM     93  C   UNL A   1      50.973  27.322  22.490  1.00  0.00     0.020 A 
ATOM     94  C   UNL A   1      50.374  27.707  21.296  1.00  0.00     0.054 A 
BRANCH  94  95
ATOM     95  S   UNL A   1      51.346  27.862  19.782  1.00  0.00     0.124 S 
ATOM     96  O   UNL A   1      51.402  29.312  19.610  1.00  0.00    -0.237 OA
ATOM     97  O   UNL A   1      52.614  27.231  20.145  1.00  0.00    -0.237 OA
ATOM     98  O   UNL A   1      50.559  27.143  18.785  1.00  0.00    -0.744 OA
ENDBRANCH  94  95
ENDBRANCH  68  89
ENDBRANCH  42  43
ENDBRANCH  35  37
ENDBRANCH  34  35
ENDBRANCH  33  34
ENDBRANCH  32  33
ENDBRANCH  31  32
ENDBRANCH   1  31
TORSDOF 22
ENDMDL
MODEL 3
REMARK VINA RESULT:     -12.2      4.357     11.097
REMARK SMILES Cc1ccccc1-c1c(Cl)ccc2c1C=C(C(=O)OCCOCCOCCOC(=O)c1ccc(-c3c4nc(c(-c5ccc(S(=O)(=O)[O-])cc5)c5ccc([nH]5)c(-c5ccc(S(=O)(=O)[O-])cc5)c5nc(c(-c6ccc(S(=O)(=O)[O-])cc6)c6ccc3[nH]6)C=C5)C=C4)cc1)[C@@H](C(F)(F)F)O2
REMARK SMILES IDX 24 1 23 2 22 3 21 4 20 5 19 6 17 7 18 8 16 9 8 10 9 11 14 12
REMARK SMILES IDX 10 13 11 14 13 15 15 16 12 17 96 18 91 19 7 20 1 21 2 22
REMARK SMILES IDX 3 23 4 24 6 25 5 26 92 27 93 28 94 29 95 30 25 31 26 32
REMARK SMILES IDX 27 33 28 34 29 35 30 36 31 37 32 38 90 39 33 40 89 41 34 42
REMARK SMILES IDX 35 43 36 44 83 45 37 46 88 47 82 48 84 49 38 50 87 51 81 52
REMARK SMILES IDX 80 53 39 55 69 56 50 57 68 58 51 59 54 60 67 61 85 62 52 63
REMARK SMILES IDX 53 64 66 66 86 67 55 68 40 69 41 70 49 71 42 72 48 73 43 74
REMARK SMILES IDX 44 75 45 76 46 77 47 78 70 79 71 80 79 81 72 82 78 83 73 84
REMARK SMILES IDX 74 85 75 86 76 87 77 88 56 89 57 90 65 91 58 92 64 93 59 94
REMARK SMILES IDX 60 95 61 96 62 97 63 98
REMARK H PARENT 84 54 54 65
REMARK Flexibility Score: inf
ROOT
ATOM      1  C   UNL A   1      33.844  35.043  29.168  1.00  0.00     0.188 C 
ENDROOT
BRANCH   1   2
ATOM      2  C   UNL A   1      33.993  34.092  28.007  1.00  0.00     0.188 C 
BRANCH   2   3
ATOM      3  O   UNL A   1      34.748  32.884  28.069  1.00  0.00    -0.376 OA
BRANCH   3   4
ATOM      4  C   UNL A   1      34.348  31.504  28.062  1.00  0.00     0.202 C 
BRANCH   4   5
ATOM      5  C   UNL A   1      34.013  30.270  26.885  1.00  0.00     0.261 C 
BRANCH   5   6
ATOM      6  O   UNL A   1      33.427  28.581  26.896  1.00  0.00    -0.460 OA
BRANCH   6   7
ATOM      7  C   UNL A   1      32.326  27.693  26.687  1.00  0.00     0.338 C 
ATOM      8  O   UNL A   1      31.601  27.216  27.557  1.00  0.00    -0.246 OA
BRANCH   7   9
ATOM      9  C   UNL A   1      31.992  27.225  25.285  1.00  0.00     0.087 C 
ATOM     10  C   UNL A   1      32.937  23.608  25.619  1.00  0.00     0.012 A 
ATOM     11  C   UNL A   1      32.363  22.454  26.212  1.00  0.00     0.049 A 
ATOM     12  C   UNL A   1      32.139  24.778  25.498  1.00  0.00     0.027 A 
ATOM     13  Cl  UNL A   1      33.283  21.012  26.503  1.00  0.00    -0.084 Cl
ATOM     14  C   UNL A   1      31.029  22.435  26.621  1.00  0.00     0.025 A 
ATOM     15  C   UNL A   1      30.796  24.733  25.920  1.00  0.00     0.128 A 
ATOM     16  C   UNL A   1      32.704  26.096  25.021  1.00  0.00     0.028 C 
ATOM     17  C   UNL A   1      30.245  23.573  26.470  1.00  0.00     0.049 A 
ATOM     18  O   UNL A   1      29.968  25.826  25.882  1.00  0.00    -0.475 OA
ATOM     19  C   UNL A   1      30.463  26.972  25.138  1.00  0.00     0.316 C 
BRANCH  10  20
ATOM     20  C   UNL A   1      34.339  23.600  25.156  1.00  0.00    -0.013 A 
ATOM     21  C   UNL A   1      33.683  23.051  22.750  1.00  0.00     0.045 C 
ATOM     22  C   UNL A   1      34.697  23.290  23.829  1.00  0.00    -0.043 A 
ATOM     23  C   UNL A   1      36.055  23.221  23.473  1.00  0.00     0.004 A 
ATOM     24  C   UNL A   1      37.051  23.508  24.401  1.00  0.00     0.000 A 
ATOM     25  C   UNL A   1      35.363  23.905  26.073  1.00  0.00     0.009 A 
ATOM     26  C   UNL A   1      36.705  23.871  25.698  1.00  0.00     0.001 A 
ENDBRANCH  10  20
BRANCH  19  27
ATOM     27  C   UNL A   1      30.008  26.831  23.670  1.00  0.00     0.430 C 
ATOM     28  F   UNL A   1      29.818  28.037  23.081  1.00  0.00    -0.167 F 
ATOM     29  F   UNL A   1      30.933  26.170  22.931  1.00  0.00    -0.167 F 
ATOM     30  F   UNL A   1      28.845  26.147  23.537  1.00  0.00    -0.167 F 
ENDBRANCH  19  27
ENDBRANCH   7   9
ENDBRANCH   6   7
ENDBRANCH   5   6
ENDBRANCH   4   5
ENDBRANCH   3   4
ENDBRANCH   2   3
ENDBRANCH   1   2
BRANCH   1  31
ATOM     31  O   UNL A   1      33.428  34.331  30.313  1.00  0.00    -0.376 OA
BRANCH  31  32
ATOM     32  C   UNL A   1      34.346  34.414  31.385  1.00  0.00     0.202 C 
BRANCH  32  33
ATOM     33  C   UNL A   1      35.604  33.564  31.168  1.00  0.00     0.261 C 
BRANCH  33  34
ATOM     34  O   UNL A   1      35.446  32.222  31.674  1.00  0.00    -0.460 OA
BRANCH  34  35
ATOM     35  C   UNL A   1      36.273  31.836  32.720  1.00  0.00     0.338 C 
ATOM     36  O   UNL A   1      36.029  32.087  33.863  1.00  0.00    -0.246 OA
BRANCH  35  37
ATOM     37  C   UNL A   1      37.260  30.819  32.230  1.00  0.00     0.060 A 
ATOM     38  C   UNL A   1      37.552  29.541  32.686  1.00  0.00     0.016 A 
ATOM     39  C   UNL A   1      37.963  31.180  31.146  1.00  0.00     0.016 A 
ATOM     40  C   UNL A   1      38.767  28.802  32.294  1.00  0.00     0.010 A 
ATOM     41  C   UNL A   1      39.092  30.428  30.799  1.00  0.00     0.010 A 
ATOM     42  C   UNL A   1      39.754  29.310  31.429  1.00  0.00    -0.014 A 
BRANCH  42  43
ATOM     43  C   UNL A   1      41.440  28.711  31.377  1.00  0.00     0.031 A 
ATOM     44  C   UNL A   1      42.352  27.600  30.318  1.00  0.00     0.074 A 
ATOM     45  C   UNL A   1      42.342  29.331  32.206  1.00  0.00     0.049 A 
ATOM     46  N   UNL A   1      43.669  27.498  30.262  1.00  0.00    -0.248 NA
ATOM     47  C   UNL A   1      41.907  26.592  29.257  1.00  0.00     0.031 C 
ATOM     48  C   UNL A   1      43.810  29.204  32.296  1.00  0.00     0.029 A 
ATOM     49  N   UNL A   1      42.083  30.241  33.233  1.00  0.00    -0.354 N 
ATOM     50  C   UNL A   1      44.004  26.487  29.370  1.00  0.00     0.074 A 
ATOM     51  C   UNL A   1      42.942  26.416  28.447  1.00  0.00     0.031 C 
ATOM     52  C   UNL A   1      44.258  29.730  33.443  1.00  0.00     0.029 A 
ATOM     53  C   UNL A   1      43.102  30.155  34.186  1.00  0.00     0.049 A 
ATOM     54  H   UNL A   1      41.308  30.847  33.279  1.00  0.00     0.167 HD
ATOM     55  C   UNL A   1      44.796  25.403  29.627  1.00  0.00     0.031 A 
ATOM     56  C   UNL A   1      42.792  29.772  35.448  1.00  0.00     0.031 A 
ATOM     57  C   UNL A   1      45.365  25.475  30.944  1.00  0.00     0.049 A 
ATOM     58  C   UNL A   1      43.316  28.377  35.682  1.00  0.00     0.074 A 
ATOM     59  C   UNL A   1      46.505  26.101  31.402  1.00  0.00     0.029 A 
ATOM     60  N   UNL A   1      44.563  25.207  32.059  1.00  0.00    -0.354 N 
ATOM     61  N   UNL A   1      43.519  27.487  34.742  1.00  0.00    -0.248 NA
ATOM     62  C   UNL A   1      43.791  27.947  36.989  1.00  0.00     0.031 C 
ATOM     63  C   UNL A   1      46.363  26.269  32.801  1.00  0.00     0.029 A 
ATOM     64  C   UNL A   1      45.175  25.678  33.208  1.00  0.00     0.049 A 
ATOM     65  H   UNL A   1      43.691  24.751  32.031  1.00  0.00     0.167 HD
ATOM     66  C   UNL A   1      44.188  26.420  35.278  1.00  0.00     0.074 A 
ATOM     67  C   UNL A   1      44.316  26.749  36.690  1.00  0.00     0.031 C 
ATOM     68  C   UNL A   1      44.696  25.376  34.555  1.00  0.00     0.031 A 
BRANCH  55  69
ATOM     69  C   UNL A   1      45.017  24.320  28.569  1.00  0.00    -0.014 A 
ATOM     70  C   UNL A   1      46.198  24.317  27.812  1.00  0.00     0.010 A 
ATOM     71  C   UNL A   1      44.019  23.400  28.157  1.00  0.00     0.010 A 
ATOM     72  C   UNL A   1      46.311  23.559  26.625  1.00  0.00     0.020 A 
ATOM     73  C   UNL A   1      44.097  22.672  26.955  1.00  0.00     0.020 A 
ATOM     74  C   UNL A   1      45.238  22.783  26.174  1.00  0.00     0.054 A 
BRANCH  74  75
ATOM     75  S   UNL A   1      45.296  22.033  24.517  1.00  0.00     0.124 S 
ATOM     76  O   UNL A   1      45.088  23.183  23.640  1.00  0.00    -0.237 OA
ATOM     77  O   UNL A   1      46.631  21.444  24.479  1.00  0.00    -0.237 OA
ATOM     78  O   UNL A   1      44.193  21.073  24.531  1.00  0.00    -0.744 OA
ENDBRANCH  74  75
ENDBRANCH  55  69
BRANCH  56  79
ATOM     79  C   UNL A   1      41.548  30.435  35.942  1.00  0.00    -0.014 A 
ATOM     80  C   UNL A   1      41.747  31.650  36.653  1.00  0.00     0.010 A 
ATOM     81  C   UNL A   1      40.264  30.165  35.444  1.00  0.00     0.010 A 
ATOM     82  C   UNL A   1      40.754  32.627  36.728  1.00  0.00     0.020 A 
ATOM     83  C   UNL A   1      39.244  31.139  35.552  1.00  0.00     0.020 A 
ATOM     84  C   UNL A   1      39.513  32.378  36.154  1.00  0.00     0.054 A 
BRANCH  84  85
ATOM     85  S   UNL A   1      38.358  33.786  36.047  1.00  0.00     0.124 S 
ATOM     86  O   UNL A   1      38.943  34.748  36.973  1.00  0.00    -0.237 OA
ATOM     87  O   UNL A   1      38.453  34.148  34.632  1.00  0.00    -0.237 OA
ATOM     88  O   UNL A   1      37.084  33.204  36.456  1.00  0.00    -0.744 OA
ENDBRANCH  84  85
ENDBRANCH  56  79
BRANCH  68  89
ATOM     89  C   UNL A   1      45.073  24.041  35.161  1.00  0.00    -0.014 A 
ATOM     90  C   UNL A   1      45.159  23.812  36.543  1.00  0.00     0.010 A 
ATOM     91  C   UNL A   1      45.261  22.918  34.321  1.00  0.00     0.010 A 
ATOM     92  C   UNL A   1      45.538  22.571  37.060  1.00  0.00     0.020 A 
ATOM     93  C   UNL A   1      45.592  21.658  34.828  1.00  0.00     0.020 A 
ATOM     94  C   UNL A   1      45.769  21.503  36.197  1.00  0.00     0.054 A 
BRANCH  94  95
ATOM     95  S   UNL A   1      46.253  19.908  36.892  1.00  0.00     0.124 S 
ATOM     96  O   UNL A   1      47.679  19.864  36.575  1.00  0.00    -0.237 OA
ATOM     97  O   UNL A   1      45.938  20.064  38.311  1.00  0.00    -0.237 OA
ATOM     98  O   UNL A   1      45.422  18.946  36.175  1.00  0.00    -0.744 OA
ENDBRANCH  94  95
ENDBRANCH  68  89
ENDBRANCH  42  43
ENDBRANCH  35  37
ENDBRANCH  34  35
ENDBRANCH  33  34
ENDBRANCH  32  33
ENDBRANCH  31  32
ENDBRANCH   1  31
TORSDOF 22
ENDMDL
