MODEL 1
REMARK VINA RESULT:     -10.1      0.000      0.000
REMARK SMILES N#Cc1ccc2c(c1)C=C(C(=O)OCCOCCOCCOC(=O)c1ccc(-c3c4nc(c(-c5ccc(S(=O)(=O)[O-])cc5)c5ccc([nH]5)c(-c5ccc(S(=O)(=O)[O-])cc5)c5nc(c(-c6ccc(S(=O)(=O)[O-])cc6)c6ccc3[nH]6)C=C5)C=C4)cc1)[C@@H](C(F)(F)F)O2
REMARK SMILES IDX 18 1 17 2 16 3 15 4 14 5 13 6 11 7 12 8 10 9 3 10 4 11 8 12
REMARK SMILES IDX 5 13 7 14 6 15 9 16 90 17 85 18 2 19 1 20 86 21 87 22 88 23
REMARK SMILES IDX 89 24 19 25 20 26 21 27 22 28 23 29 24 30 25 31 26 32 84 33
REMARK SMILES IDX 27 34 83 35 28 36 29 37 30 38 77 39 31 40 82 41 76 42 78 43
REMARK SMILES IDX 32 44 81 45 75 46 74 47 33 49 63 50 44 51 62 52 45 53 48 54
REMARK SMILES IDX 61 55 79 56 46 57 47 58 60 60 80 61 49 62 34 63 35 64 43 65
REMARK SMILES IDX 36 66 42 67 37 68 38 69 39 70 40 71 41 72 64 73 65 74 73 75
REMARK SMILES IDX 66 76 72 77 67 78 68 79 69 80 70 81 71 82 50 83 51 84 59 85
REMARK SMILES IDX 52 86 58 87 53 88 54 89 55 90 56 91 57 92
REMARK H PARENT 78 48 48 59
REMARK Flexibility Score: inf
ROOT
ATOM      1  C   UNL A   1      34.121  21.573  24.815  1.00  0.00     0.188 C 
ENDROOT
BRANCH   1   2
ATOM      2  C   UNL A   1      33.298  22.066  23.607  1.00  0.00     0.188 C 
BRANCH   2   3
ATOM      3  O   UNL A   1      33.925  23.021  22.787  1.00  0.00    -0.376 OA
BRANCH   3   4
ATOM      4  C   UNL A   1      34.536  24.169  23.349  1.00  0.00     0.202 C 
BRANCH   4   5
ATOM      5  C   UNL A   1      33.873  25.165  24.326  1.00  0.00     0.261 C 
BRANCH   5   6
ATOM      6  O   UNL A   1      33.707  26.520  23.899  1.00  0.00    -0.460 OA
BRANCH   6   7
ATOM      7  C   UNL A   1      33.051  27.335  24.761  1.00  0.00     0.338 C 
ATOM      8  O   UNL A   1      33.520  27.884  25.741  1.00  0.00    -0.246 OA
BRANCH   7   9
ATOM      9  C   UNL A   1      31.691  27.598  24.242  1.00  0.00     0.087 C 
ATOM     10  C   UNL A   1      28.499  30.669  22.357  1.00  0.00     0.053 A 
ATOM     11  C   UNL A   1      27.483  29.738  22.591  1.00  0.00     0.023 A 
ATOM     12  C   UNL A   1      29.828  30.335  22.644  1.00  0.00     0.031 A 
ATOM     13  C   UNL A   1      27.795  28.471  23.087  1.00  0.00     0.048 A 
ATOM     14  C   UNL A   1      30.135  29.082  23.192  1.00  0.00     0.019 A 
ATOM     15  C   UNL A   1      29.118  28.144  23.387  1.00  0.00     0.128 A 
ATOM     16  C   UNL A   1      31.485  28.776  23.637  1.00  0.00     0.027 C 
ATOM     17  O   UNL A   1      29.324  26.887  23.876  1.00  0.00    -0.475 OA
ATOM     18  C   UNL A   1      30.634  26.539  24.399  1.00  0.00     0.316 C 
BRANCH  10  19
ATOM     19  C   UNL A   1      28.166  31.970  21.859  1.00  0.00     0.099 C 
ATOM     20  N   UNL A   1      27.876  33.011  21.430  1.00  0.00    -0.192 NA
ENDBRANCH  10  19
BRANCH  18  21
ATOM     21  C   UNL A   1      30.469  26.102  25.860  1.00  0.00     0.430 C 
ATOM     22  F   UNL A   1      29.210  25.664  26.103  1.00  0.00    -0.167 F 
ATOM     23  F   UNL A   1      31.300  25.080  26.177  1.00  0.00    -0.167 F 
ATOM     24  F   UNL A   1      30.721  27.112  26.722  1.00  0.00    -0.167 F 
ENDBRANCH  18  21
ENDBRANCH   7   9
ENDBRANCH   6   7
ENDBRANCH   5   6
ENDBRANCH   4   5
ENDBRANCH   3   4
ENDBRANCH   2   3
ENDBRANCH   1   2
BRANCH   1  25
ATOM     25  O   UNL A   1      35.107  20.582  24.618  1.00  0.00    -0.376 OA
BRANCH  25  26
ATOM     26  C   UNL A   1      36.424  20.807  25.102  1.00  0.00     0.202 C 
BRANCH  26  27
ATOM     27  C   UNL A   1      37.268  22.071  24.815  1.00  0.00     0.261 C 
BRANCH  27  28
ATOM     28  O   UNL A   1      37.826  22.785  25.927  1.00  0.00    -0.460 OA
BRANCH  28  29
ATOM     29  C   UNL A   1      39.062  22.396  26.337  1.00  0.00     0.338 C 
ATOM     30  O   UNL A   1      39.564  21.294  26.207  1.00  0.00    -0.246 OA
BRANCH  29  31
ATOM     31  C   UNL A   1      39.804  23.602  26.770  1.00  0.00     0.060 A 
ATOM     32  C   UNL A   1      39.774  24.760  25.995  1.00  0.00     0.016 A 
ATOM     33  C   UNL A   1      40.568  23.560  27.948  1.00  0.00     0.016 A 
ATOM     34  C   UNL A   1      40.505  25.879  26.405  1.00  0.00     0.010 A 
ATOM     35  C   UNL A   1      41.317  24.674  28.343  1.00  0.00     0.010 A 
ATOM     36  C   UNL A   1      41.275  25.852  27.584  1.00  0.00    -0.014 A 
BRANCH  36  37
ATOM     37  C   UNL A   1      41.887  27.107  28.094  1.00  0.00     0.031 A 
ATOM     38  C   UNL A   1      43.365  27.364  28.032  1.00  0.00     0.074 A 
ATOM     39  C   UNL A   1      41.065  28.042  28.614  1.00  0.00     0.049 A 
ATOM     40  N   UNL A   1      44.016  28.457  28.341  1.00  0.00    -0.248 NA
ATOM     41  C   UNL A   1      44.224  26.263  27.572  1.00  0.00     0.031 C 
ATOM     42  C   UNL A   1      39.615  27.889  28.745  1.00  0.00     0.029 A 
ATOM     43  N   UNL A   1      41.313  29.301  29.102  1.00  0.00    -0.354 N 
ATOM     44  C   UNL A   1      45.357  28.190  28.092  1.00  0.00     0.074 A 
ATOM     45  C   UNL A   1      45.432  26.811  27.657  1.00  0.00     0.031 C 
ATOM     46  C   UNL A   1      39.097  29.027  29.228  1.00  0.00     0.029 A 
ATOM     47  C   UNL A   1      40.178  29.976  29.488  1.00  0.00     0.049 A 
ATOM     48  H   UNL A   1      42.217  29.684  29.168  1.00  0.00     0.167 HD
ATOM     49  C   UNL A   1      46.416  29.031  28.196  1.00  0.00     0.031 A 
ATOM     50  C   UNL A   1      40.012  31.218  29.988  1.00  0.00     0.031 A 
ATOM     51  C   UNL A   1      46.320  30.403  28.639  1.00  0.00     0.049 A 
ATOM     52  C   UNL A   1      41.211  32.113  30.136  1.00  0.00     0.074 A 
ATOM     53  C   UNL A   1      47.335  31.342  28.731  1.00  0.00     0.029 A 
ATOM     54  N   UNL A   1      45.160  31.034  29.068  1.00  0.00    -0.354 N 
ATOM     55  N   UNL A   1      42.458  31.875  29.805  1.00  0.00    -0.248 NA
ATOM     56  C   UNL A   1      40.984  33.450  30.701  1.00  0.00     0.031 C 
ATOM     57  C   UNL A   1      46.812  32.502  29.301  1.00  0.00     0.029 A 
ATOM     58  C   UNL A   1      45.446  32.333  29.466  1.00  0.00     0.049 A 
ATOM     59  H   UNL A   1      44.266  30.622  29.087  1.00  0.00     0.167 HD
ATOM     60  C   UNL A   1      43.159  33.039  30.101  1.00  0.00     0.074 A 
ATOM     61  C   UNL A   1      42.194  33.990  30.611  1.00  0.00     0.031 C 
ATOM     62  C   UNL A   1      44.485  33.289  29.966  1.00  0.00     0.031 A 
BRANCH  49  63
ATOM     63  C   UNL A   1      47.788  28.532  27.800  1.00  0.00    -0.014 A 
ATOM     64  C   UNL A   1      48.176  28.539  26.446  1.00  0.00     0.010 A 
ATOM     65  C   UNL A   1      48.614  27.885  28.737  1.00  0.00     0.010 A 
ATOM     66  C   UNL A   1      49.328  27.865  26.029  1.00  0.00     0.020 A 
ATOM     67  C   UNL A   1      49.787  27.241  28.330  1.00  0.00     0.020 A 
ATOM     68  C   UNL A   1      50.119  27.207  26.974  1.00  0.00     0.054 A 
BRANCH  68  69
ATOM     69  S   UNL A   1      51.568  26.273  26.404  1.00  0.00     0.124 S 
ATOM     70  O   UNL A   1      51.389  24.987  27.071  1.00  0.00    -0.237 OA
ATOM     71  O   UNL A   1      51.388  26.265  24.955  1.00  0.00    -0.237 OA
ATOM     72  O   UNL A   1      52.698  27.069  26.879  1.00  0.00    -0.744 OA
ENDBRANCH  68  69
ENDBRANCH  49  63
BRANCH  50  73
ATOM     73  C   UNL A   1      38.636  31.687  30.328  1.00  0.00    -0.014 A 
ATOM     74  C   UNL A   1      37.895  32.450  29.405  1.00  0.00     0.010 A 
ATOM     75  C   UNL A   1      38.094  31.451  31.603  1.00  0.00     0.010 A 
ATOM     76  C   UNL A   1      36.678  33.027  29.772  1.00  0.00     0.020 A 
ATOM     77  C   UNL A   1      36.854  31.991  31.961  1.00  0.00     0.020 A 
ATOM     78  C   UNL A   1      36.171  32.805  31.055  1.00  0.00     0.054 A 
BRANCH  78  79
ATOM     79  S   UNL A   1      34.625  33.627  31.529  1.00  0.00     0.124 S 
ATOM     80  O   UNL A   1      34.026  32.640  32.426  1.00  0.00    -0.237 OA
ATOM     81  O   UNL A   1      35.100  34.851  32.167  1.00  0.00    -0.237 OA
ATOM     82  O   UNL A   1      33.932  33.816  30.258  1.00  0.00    -0.744 OA
ENDBRANCH  78  79
ENDBRANCH  50  73
BRANCH  62  83
ATOM     83  C   UNL A   1      45.010  34.649  30.366  1.00  0.00    -0.014 A 
ATOM     84  C   UNL A   1      45.335  34.903  31.714  1.00  0.00     0.010 A 
ATOM     85  C   UNL A   1      45.034  35.716  29.450  1.00  0.00     0.010 A 
ATOM     86  C   UNL A   1      45.612  36.203  32.148  1.00  0.00     0.020 A 
ATOM     87  C   UNL A   1      45.352  37.011  29.872  1.00  0.00     0.020 A 
ATOM     88  C   UNL A   1      45.605  37.251  31.225  1.00  0.00     0.054 A 
BRANCH  88  89
ATOM     89  S   UNL A   1      45.892  38.940  31.823  1.00  0.00     0.124 S 
ATOM     90  O   UNL A   1      46.280  39.638  30.602  1.00  0.00    -0.237 OA
ATOM     91  O   UNL A   1      44.590  39.309  32.374  1.00  0.00    -0.237 OA
ATOM     92  O   UNL A   1      46.955  38.779  32.813  1.00  0.00    -0.744 OA
ENDBRANCH  88  89
ENDBRANCH  62  83
ENDBRANCH  36  37
ENDBRANCH  29  31
ENDBRANCH  28  29
ENDBRANCH  27  28
ENDBRANCH  26  27
ENDBRANCH  25  26
ENDBRANCH   1  25
TORSDOF 22
ENDMDL
MODEL 2
REMARK VINA RESULT:      -9.9      6.060     10.951
REMARK SMILES N#Cc1ccc2c(c1)C=C(C(=O)OCCOCCOCCOC(=O)c1ccc(-c3c4nc(c(-c5ccc(S(=O)(=O)[O-])cc5)c5ccc([nH]5)c(-c5ccc(S(=O)(=O)[O-])cc5)c5nc(c(-c6ccc(S(=O)(=O)[O-])cc6)c6ccc3[nH]6)C=C5)C=C4)cc1)[C@@H](C(F)(F)F)O2
REMARK SMILES IDX 18 1 17 2 16 3 15 4 14 5 13 6 11 7 12 8 10 9 3 10 4 11 8 12
REMARK SMILES IDX 5 13 7 14 6 15 9 16 90 17 85 18 2 19 1 20 86 21 87 22 88 23
REMARK SMILES IDX 89 24 19 25 20 26 21 27 22 28 23 29 24 30 25 31 26 32 84 33
REMARK SMILES IDX 27 34 83 35 28 36 29 37 30 38 77 39 31 40 82 41 76 42 78 43
REMARK SMILES IDX 32 44 81 45 75 46 74 47 33 49 63 50 44 51 62 52 45 53 48 54
REMARK SMILES IDX 61 55 79 56 46 57 47 58 60 60 80 61 49 62 34 63 35 64 43 65
REMARK SMILES IDX 36 66 42 67 37 68 38 69 39 70 40 71 41 72 64 73 65 74 73 75
REMARK SMILES IDX 66 76 72 77 67 78 68 79 69 80 70 81 71 82 50 83 51 84 59 85
REMARK SMILES IDX 52 86 58 87 53 88 54 89 55 90 56 91 57 92
REMARK H PARENT 78 48 48 59
REMARK Flexibility Score: inf
ROOT
ATOM      1  C   UNL A   1      41.240  22.156  26.090  1.00  0.00     0.188 C 
ENDROOT
BRANCH   1   2
ATOM      2  C   UNL A   1      40.526  20.797  26.240  1.00  0.00     0.188 C 
BRANCH   2   3
ATOM      3  O   UNL A   1      39.187  20.758  25.810  1.00  0.00    -0.376 OA
BRANCH   3   4
ATOM      4  C   UNL A   1      38.452  21.954  25.621  1.00  0.00     0.202 C 
BRANCH   4   5
ATOM      5  C   UNL A   1      36.984  22.194  26.036  1.00  0.00     0.261 C 
BRANCH   5   6
ATOM      6  O   UNL A   1      36.213  23.133  25.283  1.00  0.00    -0.460 OA
BRANCH   6   7
ATOM      7  C   UNL A   1      34.909  23.248  25.637  1.00  0.00     0.338 C 
ATOM      8  O   UNL A   1      34.412  24.142  26.297  1.00  0.00    -0.246 OA
BRANCH   7   9
ATOM      9  C   UNL A   1      34.126  22.192  24.960  1.00  0.00     0.087 C 
ATOM     10  C   UNL A   1      33.130  17.522  24.346  1.00  0.00     0.053 A 
ATOM     11  C   UNL A   1      32.389  17.843  23.205  1.00  0.00     0.023 A 
ATOM     12  C   UNL A   1      33.691  18.545  25.120  1.00  0.00     0.031 A 
ATOM     13  C   UNL A   1      32.190  19.178  22.851  1.00  0.00     0.048 A 
ATOM     14  C   UNL A   1      33.537  19.884  24.735  1.00  0.00     0.019 A 
ATOM     15  C   UNL A   1      32.762  20.196  23.615  1.00  0.00     0.128 A 
ATOM     16  C   UNL A   1      34.238  20.945  25.439  1.00  0.00     0.027 C 
ATOM     17  O   UNL A   1      32.522  21.469  23.186  1.00  0.00    -0.475 OA
ATOM     18  C   UNL A   1      33.242  22.570  23.802  1.00  0.00     0.316 C 
BRANCH  10  19
ATOM     19  C   UNL A   1      33.337  16.148  24.693  1.00  0.00     0.099 C 
ATOM     20  N   UNL A   1      33.470  15.029  24.976  1.00  0.00    -0.192 NA
ENDBRANCH  10  19
BRANCH  18  21
ATOM     21  C   UNL A   1      34.016  23.314  22.706  1.00  0.00     0.430 C 
ATOM     22  F   UNL A   1      35.258  22.796  22.544  1.00  0.00    -0.167 F 
ATOM     23  F   UNL A   1      33.401  23.222  21.503  1.00  0.00    -0.167 F 
ATOM     24  F   UNL A   1      34.159  24.628  22.990  1.00  0.00    -0.167 F 
ENDBRANCH  18  21
ENDBRANCH   7   9
ENDBRANCH   6   7
ENDBRANCH   5   6
ENDBRANCH   4   5
ENDBRANCH   3   4
ENDBRANCH   2   3
ENDBRANCH   1   2
BRANCH   1  25
ATOM     25  O   UNL A   1      42.346  22.448  26.918  1.00  0.00    -0.376 OA
BRANCH  25  26
ATOM     26  C   UNL A   1      42.276  23.553  27.808  1.00  0.00     0.202 C 
BRANCH  26  27
ATOM     27  C   UNL A   1      42.465  25.032  27.397  1.00  0.00     0.261 C 
BRANCH  27  28
ATOM     28  O   UNL A   1      41.513  25.618  26.499  1.00  0.00    -0.460 OA
BRANCH  28  29
ATOM     29  C   UNL A   1      40.228  25.681  26.936  1.00  0.00     0.338 C 
ATOM     30  O   UNL A   1      39.306  24.956  26.608  1.00  0.00    -0.246 OA
BRANCH  29  31
ATOM     31  C   UNL A   1      40.172  26.639  28.064  1.00  0.00     0.060 A 
ATOM     32  C   UNL A   1      39.361  26.376  29.166  1.00  0.00     0.016 A 
ATOM     33  C   UNL A   1      40.911  27.831  27.998  1.00  0.00     0.016 A 
ATOM     34  C   UNL A   1      39.298  27.307  30.209  1.00  0.00     0.010 A 
ATOM     35  C   UNL A   1      40.828  28.771  29.032  1.00  0.00     0.010 A 
ATOM     36  C   UNL A   1      40.035  28.506  30.157  1.00  0.00    -0.014 A 
BRANCH  36  37
ATOM     37  C   UNL A   1      40.097  29.385  31.355  1.00  0.00     0.031 A 
ATOM     38  C   UNL A   1      39.061  30.434  31.637  1.00  0.00     0.074 A 
ATOM     39  C   UNL A   1      41.121  29.206  32.214  1.00  0.00     0.049 A 
ATOM     40  N   UNL A   1      38.936  31.193  32.697  1.00  0.00    -0.248 NA
ATOM     41  C   UNL A   1      38.038  30.669  30.607  1.00  0.00     0.031 C 
ATOM     42  C   UNL A   1      42.199  28.232  32.027  1.00  0.00     0.029 A 
ATOM     43  N   UNL A   1      41.418  29.806  33.413  1.00  0.00    -0.354 N 
ATOM     44  C   UNL A   1      37.811  31.979  32.478  1.00  0.00     0.074 A 
ATOM     45  C   UNL A   1      37.319  31.642  31.158  1.00  0.00     0.031 C 
ATOM     46  C   UNL A   1      43.007  28.263  33.096  1.00  0.00     0.029 A 
ATOM     47  C   UNL A   1      42.538  29.291  34.024  1.00  0.00     0.049 A 
ATOM     48  H   UNL A   1      40.880  30.535  33.798  1.00  0.00     0.167 HD
ATOM     49  C   UNL A   1      37.236  32.876  33.316  1.00  0.00     0.031 A 
ATOM     50  C   UNL A   1      43.126  29.596  35.200  1.00  0.00     0.031 A 
ATOM     51  C   UNL A   1      37.746  33.203  34.627  1.00  0.00     0.049 A 
ATOM     52  C   UNL A   1      42.491  30.630  36.088  1.00  0.00     0.074 A 
ATOM     53  C   UNL A   1      37.202  34.067  35.563  1.00  0.00     0.029 A 
ATOM     54  N   UNL A   1      38.910  32.696  35.190  1.00  0.00    -0.354 N 
ATOM     55  N   UNL A   1      41.375  31.294  35.906  1.00  0.00    -0.248 NA
ATOM     56  C   UNL A   1      43.177  30.943  37.349  1.00  0.00     0.031 C 
ATOM     57  C   UNL A   1      38.078  34.156  36.644  1.00  0.00     0.029 A 
ATOM     58  C   UNL A   1      39.120  33.265  36.439  1.00  0.00     0.049 A 
ATOM     59  H   UNL A   1      39.500  32.032  34.767  1.00  0.00     0.167 HD
ATOM     60  C   UNL A   1      41.213  32.084  37.038  1.00  0.00     0.074 A 
ATOM     61  C   UNL A   1      42.330  31.797  37.912  1.00  0.00     0.031 C 
ATOM     62  C   UNL A   1      40.227  32.972  37.319  1.00  0.00     0.031 A 
BRANCH  49  63
ATOM     63  C   UNL A   1      35.962  33.568  32.883  1.00  0.00    -0.014 A 
ATOM     64  C   UNL A   1      36.017  34.862  32.330  1.00  0.00     0.010 A 
ATOM     65  C   UNL A   1      34.705  33.019  33.196  1.00  0.00     0.010 A 
ATOM     66  C   UNL A   1      34.851  35.614  32.151  1.00  0.00     0.020 A 
ATOM     67  C   UNL A   1      33.533  33.752  32.985  1.00  0.00     0.020 A 
ATOM     68  C   UNL A   1      33.616  35.057  32.494  1.00  0.00     0.054 A 
BRANCH  68  69
ATOM     69  S   UNL A   1      32.122  36.075  32.328  1.00  0.00     0.124 S 
ATOM     70  O   UNL A   1      32.151  36.441  30.916  1.00  0.00    -0.237 OA
ATOM     71  O   UNL A   1      31.063  35.149  32.720  1.00  0.00    -0.237 OA
ATOM     72  O   UNL A   1      32.352  37.176  33.261  1.00  0.00    -0.744 OA
ENDBRANCH  68  69
ENDBRANCH  49  63
BRANCH  50  73
ATOM     73  C   UNL A   1      44.359  28.861  35.608  1.00  0.00    -0.014 A 
ATOM     74  C   UNL A   1      44.267  27.702  36.403  1.00  0.00     0.010 A 
ATOM     75  C   UNL A   1      45.632  29.360  35.282  1.00  0.00     0.010 A 
ATOM     76  C   UNL A   1      45.416  27.101  36.922  1.00  0.00     0.020 A 
ATOM     77  C   UNL A   1      46.788  28.736  35.765  1.00  0.00     0.020 A 
ATOM     78  C   UNL A   1      46.670  27.632  36.611  1.00  0.00     0.054 A 
BRANCH  78  79
ATOM     79  S   UNL A   1      48.139  26.876  37.359  1.00  0.00     0.124 S 
ATOM     80  O   UNL A   1      48.981  26.639  36.189  1.00  0.00    -0.237 OA
ATOM     81  O   UNL A   1      48.604  27.920  38.269  1.00  0.00    -0.237 OA
ATOM     82  O   UNL A   1      47.617  25.675  38.005  1.00  0.00    -0.744 OA
ENDBRANCH  78  79
ENDBRANCH  50  73
BRANCH  62  83
ATOM     83  C   UNL A   1      40.279  33.721  38.632  1.00  0.00    -0.014 A 
ATOM     84  C   UNL A   1      39.559  33.236  39.742  1.00  0.00     0.010 A 
ATOM     85  C   UNL A   1      40.906  34.977  38.727  1.00  0.00     0.010 A 
ATOM     86  C   UNL A   1      39.412  34.016  40.893  1.00  0.00     0.020 A 
ATOM     87  C   UNL A   1      40.797  35.742  39.893  1.00  0.00     0.020 A 
ATOM     88  C   UNL A   1      40.022  35.270  40.955  1.00  0.00     0.054 A 
BRANCH  88  89
ATOM     89  S   UNL A   1      39.755  36.297  42.428  1.00  0.00     0.124 S 
ATOM     90  O   UNL A   1      39.605  37.629  41.852  1.00  0.00    -0.237 OA
ATOM     91  O   UNL A   1      38.544  35.718  43.005  1.00  0.00    -0.237 OA
ATOM     92  O   UNL A   1      40.970  36.091  43.215  1.00  0.00    -0.744 OA
ENDBRANCH  88  89
ENDBRANCH  62  83
ENDBRANCH  36  37
ENDBRANCH  29  31
ENDBRANCH  28  29
ENDBRANCH  27  28
ENDBRANCH  26  27
ENDBRANCH  25  26
ENDBRANCH   1  25
TORSDOF 22
ENDMDL
MODEL 3
REMARK VINA RESULT:      -9.8      5.665      8.095
REMARK SMILES N#Cc1ccc2c(c1)C=C(C(=O)OCCOCCOCCOC(=O)c1ccc(-c3c4nc(c(-c5ccc(S(=O)(=O)[O-])cc5)c5ccc([nH]5)c(-c5ccc(S(=O)(=O)[O-])cc5)c5nc(c(-c6ccc(S(=O)(=O)[O-])cc6)c6ccc3[nH]6)C=C5)C=C4)cc1)[C@@H](C(F)(F)F)O2
REMARK SMILES IDX 18 1 17 2 16 3 15 4 14 5 13 6 11 7 12 8 10 9 3 10 4 11 8 12
REMARK SMILES IDX 5 13 7 14 6 15 9 16 90 17 85 18 2 19 1 20 86 21 87 22 88 23
REMARK SMILES IDX 89 24 19 25 20 26 21 27 22 28 23 29 24 30 25 31 26 32 84 33
REMARK SMILES IDX 27 34 83 35 28 36 29 37 30 38 77 39 31 40 82 41 76 42 78 43
REMARK SMILES IDX 32 44 81 45 75 46 74 47 33 49 63 50 44 51 62 52 45 53 48 54
REMARK SMILES IDX 61 55 79 56 46 57 47 58 60 60 80 61 49 62 34 63 35 64 43 65
REMARK SMILES IDX 36 66 42 67 37 68 38 69 39 70 40 71 41 72 64 73 65 74 73 75
REMARK SMILES IDX 66 76 72 77 67 78 68 79 69 80 70 81 71 82 50 83 51 84 59 85
REMARK SMILES IDX 52 86 58 87 53 88 54 89 55 90 56 91 57 92
REMARK H PARENT 78 48 48 59
REMARK Flexibility Score: inf
ROOT
ATOM      1  C   UNL A   1      40.585  21.991  27.131  1.00  0.00     0.188 C 
ENDROOT
BRANCH   1   2
ATOM      2  C   UNL A   1      40.154  20.879  26.152  1.00  0.00     0.188 C 
BRANCH   2   3
ATOM      3  O   UNL A   1      38.820  20.936  25.709  1.00  0.00    -0.376 OA
BRANCH   3   4
ATOM      4  C   UNL A   1      38.155  22.179  25.571  1.00  0.00     0.202 C 
BRANCH   4   5
ATOM      5  C   UNL A   1      36.649  22.434  25.799  1.00  0.00     0.261 C 
BRANCH   5   6
ATOM      6  O   UNL A   1      35.977  23.341  24.921  1.00  0.00    -0.460 OA
BRANCH   6   7
ATOM      7  C   UNL A   1      34.636  23.444  25.090  1.00  0.00     0.338 C 
ATOM      8  O   UNL A   1      34.019  24.443  25.416  1.00  0.00    -0.246 OA
BRANCH   7   9
ATOM      9  C   UNL A   1      33.993  22.184  24.661  1.00  0.00     0.087 C 
ATOM     10  C   UNL A   1      33.998  17.372  24.514  1.00  0.00     0.053 A 
ATOM     11  C   UNL A   1      32.979  17.412  23.558  1.00  0.00     0.023 A 
ATOM     12  C   UNL A   1      34.458  18.562  25.090  1.00  0.00     0.031 A 
ATOM     13  C   UNL A   1      32.407  18.632  23.196  1.00  0.00     0.048 A 
ATOM     14  C   UNL A   1      33.920  19.792  24.687  1.00  0.00     0.019 A 
ATOM     15  C   UNL A   1      32.876  19.819  23.759  1.00  0.00     0.128 A 
ATOM     16  C   UNL A   1      34.490  21.043  25.161  1.00  0.00     0.027 C 
ATOM     17  O   UNL A   1      32.262  20.962  23.336  1.00  0.00    -0.475 OA
ATOM     18  C   UNL A   1      32.821  22.247  23.718  1.00  0.00     0.316 C 
BRANCH  10  19
ATOM     19  C   UNL A   1      34.586  16.115  24.870  1.00  0.00     0.099 C 
ATOM     20  N   UNL A   1      35.032  15.083  25.167  1.00  0.00    -0.192 NA
ENDBRANCH  10  19
BRANCH  18  21
ATOM     21  C   UNL A   1      33.153  23.029  22.440  1.00  0.00     0.430 C 
ATOM     22  F   UNL A   1      32.674  22.398  21.341  1.00  0.00    -0.167 F 
ATOM     23  F   UNL A   1      32.598  24.264  22.447  1.00  0.00    -0.167 F 
ATOM     24  F   UNL A   1      34.485  23.182  22.272  1.00  0.00    -0.167 F 
ENDBRANCH  18  21
ENDBRANCH   7   9
ENDBRANCH   6   7
ENDBRANCH   5   6
ENDBRANCH   4   5
ENDBRANCH   3   4
ENDBRANCH   2   3
ENDBRANCH   1   2
BRANCH   1  25
ATOM     25  O   UNL A   1      41.337  23.083  26.645  1.00  0.00    -0.376 OA
BRANCH  25  26
ATOM     26  C   UNL A   1      42.681  22.873  26.237  1.00  0.00     0.202 C 
BRANCH  26  27
ATOM     27  C   UNL A   1      43.538  23.897  25.454  1.00  0.00     0.261 C 
BRANCH  27  28
ATOM     28  O   UNL A   1      43.778  25.180  26.047  1.00  0.00    -0.460 OA
BRANCH  28  29
ATOM     29  C   UNL A   1      42.843  26.138  25.814  1.00  0.00     0.338 C 
ATOM     30  O   UNL A   1      42.211  26.311  24.787  1.00  0.00    -0.246 OA
BRANCH  29  31
ATOM     31  C   UNL A   1      42.541  26.810  27.099  1.00  0.00     0.060 A 
ATOM     32  C   UNL A   1      43.245  27.953  27.474  1.00  0.00     0.016 A 
ATOM     33  C   UNL A   1      41.568  26.267  27.953  1.00  0.00     0.016 A 
ATOM     34  C   UNL A   1      42.967  28.556  28.704  1.00  0.00     0.010 A 
ATOM     35  C   UNL A   1      41.308  26.860  29.194  1.00  0.00     0.010 A 
ATOM     36  C   UNL A   1      41.992  28.024  29.571  1.00  0.00    -0.014 A 
BRANCH  36  37
ATOM     37  C   UNL A   1      41.584  28.788  30.780  1.00  0.00     0.031 A 
ATOM     38  C   UNL A   1      42.348  28.717  32.071  1.00  0.00     0.074 A 
ATOM     39  C   UNL A   1      40.495  29.577  30.688  1.00  0.00     0.049 A 
ATOM     40  N   UNL A   1      42.165  29.411  33.165  1.00  0.00    -0.248 NA
ATOM     41  C   UNL A   1      43.451  27.747  32.152  1.00  0.00     0.031 C 
ATOM     42  C   UNL A   1      39.663  29.705  29.490  1.00  0.00     0.029 A 
ATOM     43  N   UNL A   1      39.913  30.432  31.590  1.00  0.00    -0.354 N 
ATOM     44  C   UNL A   1      43.141  28.986  34.059  1.00  0.00     0.074 A 
ATOM     45  C   UNL A   1      43.880  27.932  33.397  1.00  0.00     0.031 C 
ATOM     46  C   UNL A   1      38.712  30.623  29.713  1.00  0.00     0.029 A 
ATOM     47  C   UNL A   1      38.832  31.116  31.083  1.00  0.00     0.049 A 
ATOM     48  H   UNL A   1      40.238  30.546  32.513  1.00  0.00     0.167 HD
ATOM     49  C   UNL A   1      43.402  29.454  35.305  1.00  0.00     0.031 A 
ATOM     50  C   UNL A   1      38.027  32.043  31.644  1.00  0.00     0.031 A 
ATOM     51  C   UNL A   1      42.648  30.503  35.951  1.00  0.00     0.049 A 
ATOM     52  C   UNL A   1      38.313  32.510  33.044  1.00  0.00     0.074 A 
ATOM     53  C   UNL A   1      42.871  31.072  37.194  1.00  0.00     0.029 A 
ATOM     54  N   UNL A   1      41.530  31.136  35.424  1.00  0.00    -0.354 N 
ATOM     55  N   UNL A   1      39.297  32.164  33.839  1.00  0.00    -0.248 NA
ATOM     56  C   UNL A   1      37.398  33.506  33.619  1.00  0.00     0.031 C 
ATOM     57  C   UNL A   1      41.841  31.974  37.458  1.00  0.00     0.029 A 
ATOM     58  C   UNL A   1      41.031  32.055  36.336  1.00  0.00     0.049 A 
ATOM     59  H   UNL A   1      41.148  30.960  34.534  1.00  0.00     0.167 HD
ATOM     60  C   UNL A   1      39.134  32.916  34.997  1.00  0.00     0.074 A 
ATOM     61  C   UNL A   1      37.973  33.756  34.790  1.00  0.00     0.031 C 
ATOM     62  C   UNL A   1      39.879  32.903  36.130  1.00  0.00     0.031 A 
BRANCH  49  63
ATOM     63  C   UNL A   1      44.572  28.877  36.072  1.00  0.00    -0.014 A 
ATOM     64  C   UNL A   1      44.367  27.817  36.976  1.00  0.00     0.010 A 
ATOM     65  C   UNL A   1      45.831  29.504  36.038  1.00  0.00     0.010 A 
ATOM     66  C   UNL A   1      45.373  27.434  37.869  1.00  0.00     0.020 A 
ATOM     67  C   UNL A   1      46.853  29.100  36.904  1.00  0.00     0.020 A 
ATOM     68  C   UNL A   1      46.607  28.089  37.835  1.00  0.00     0.054 A 
BRANCH  68  69
ATOM     69  S   UNL A   1      47.873  27.630  39.052  1.00  0.00     0.124 S 
ATOM     70  O   UNL A   1      48.491  28.917  39.357  1.00  0.00    -0.237 OA
ATOM     71  O   UNL A   1      47.080  27.038  40.126  1.00  0.00    -0.237 OA
ATOM     72  O   UNL A   1      48.723  26.689  38.325  1.00  0.00    -0.744 OA
ENDBRANCH  68  69
ENDBRANCH  49  63
BRANCH  50  73
ATOM     73  C   UNL A   1      36.909  32.617  30.839  1.00  0.00    -0.014 A 
ATOM     74  C   UNL A   1      37.112  33.772  30.060  1.00  0.00     0.010 A 
ATOM     75  C   UNL A   1      35.617  32.067  30.912  1.00  0.00     0.010 A 
ATOM     76  C   UNL A   1      36.037  34.407  29.433  1.00  0.00     0.020 A 
ATOM     77  C   UNL A   1      34.544  32.675  30.251  1.00  0.00     0.020 A 
ATOM     78  C   UNL A   1      34.756  33.861  29.545  1.00  0.00     0.054 A 
BRANCH  78  79
ATOM     79  S   UNL A   1      33.369  34.747  28.783  1.00  0.00     0.124 S 
ATOM     80  O   UNL A   1      32.798  33.717  27.916  1.00  0.00    -0.237 OA
ATOM     81  O   UNL A   1      32.557  35.117  29.938  1.00  0.00    -0.237 OA
ATOM     82  O   UNL A   1      34.010  35.860  28.089  1.00  0.00    -0.744 OA
ENDBRANCH  78  79
ENDBRANCH  50  73
BRANCH  62  83
ATOM     83  C   UNL A   1      39.489  33.823  37.264  1.00  0.00    -0.014 A 
ATOM     84  C   UNL A   1      39.968  35.148  37.286  1.00  0.00     0.010 A 
ATOM     85  C   UNL A   1      38.784  33.338  38.381  1.00  0.00     0.010 A 
ATOM     86  C   UNL A   1      39.806  35.947  38.422  1.00  0.00     0.020 A 
ATOM     87  C   UNL A   1      38.584  34.149  39.504  1.00  0.00     0.020 A 
ATOM     88  C   UNL A   1      39.126  35.436  39.529  1.00  0.00     0.054 A 
BRANCH  88  89
ATOM     89  S   UNL A   1      38.993  36.463  41.020  1.00  0.00     0.124 S 
ATOM     90  O   UNL A   1      37.958  35.770  41.780  1.00  0.00    -0.237 OA
ATOM     91  O   UNL A   1      40.341  36.390  41.578  1.00  0.00    -0.237 OA
ATOM     92  O   UNL A   1      38.612  37.775  40.501  1.00  0.00    -0.744 OA
ENDBRANCH  88  89
ENDBRANCH  62  83
ENDBRANCH  36  37
ENDBRANCH  29  31
ENDBRANCH  28  29
ENDBRANCH  27  28
ENDBRANCH  26  27
ENDBRANCH  25  26
ENDBRANCH   1  25
TORSDOF 22
ENDMDL
