MODEL 1
REMARK VINA RESULT:     -11.1      0.000      0.000
REMARK SMILES COc1ccc(-n2ccnc2C[N@@H+]2Cc3[nH]cnc3C[C@@H]2C(=O)OCCOCCOCCOC(=O)c2ccc(-c3c4nc(c(-c5ccc(S(=O)(=O)[O-])cc5)c5ccc([nH]5)c(-c5ccc(S(=O)(=O)[O-])cc5)c5nc(c(-c6ccc(S(=O)(=O)[O-])cc6)c6ccc3[nH]6)C=C5)C=C4)cc2)cc1
REMARK SMILES IDX 28 1 27 2 26 3 25 4 24 5 22 6 23 7 21 8 13 9 14 10 15 12
REMARK SMILES IDX 20 13 16 14 19 15 17 16 18 18 12 19 11 20 7 21 8 22 9 23
REMARK SMILES IDX 10 24 6 25 3 26 4 27 97 28 5 29 96 30 2 31 1 32 29 33 30 34
REMARK SMILES IDX 31 35 32 36 33 37 34 38 35 39 36 40 37 41 95 42 38 43 94 44
REMARK SMILES IDX 39 45 40 46 41 47 88 48 42 49 93 50 87 51 89 52 43 53 92 54
REMARK SMILES IDX 86 55 85 56 44 58 74 59 55 60 73 61 56 62 59 63 72 64 90 65
REMARK SMILES IDX 57 66 58 67 71 69 91 70 60 71 45 72 46 73 54 74 47 75 53 76
REMARK SMILES IDX 48 77 49 78 50 79 51 80 52 81 75 82 76 83 84 84 77 85 83 86
REMARK SMILES IDX 78 87 79 88 80 89 81 90 82 91 61 92 62 93 70 94 63 95 69 96
REMARK SMILES IDX 64 97 65 98 66 99 67 100 68 101
REMARK H PARENT 13 11 16 17 89 57 59 68
REMARK Flexibility Score: inf
ROOT
ATOM      1  C   UNL A   1      40.477  21.882  26.394  1.00  0.00     0.188 C 
ENDROOT
BRANCH   1   2
ATOM      2  O   UNL A   1      39.103  22.011  26.068  1.00  0.00    -0.376 OA
BRANCH   2   3
ATOM      3  C   UNL A   1      38.453  23.259  26.240  1.00  0.00     0.202 C 
BRANCH   3   4
ATOM      4  C   UNL A   1      37.220  23.691  25.426  1.00  0.00     0.261 C 
BRANCH   4   5
ATOM      5  O   UNL A   1      36.341  22.678  24.959  1.00  0.00    -0.459 OA
BRANCH   5   6
ATOM      6  C   UNL A   1      35.792  22.787  23.706  1.00  0.00     0.365 C 
ATOM      7  O   UNL A   1      36.225  23.445  22.795  1.00  0.00    -0.245 OA
BRANCH   6   8
ATOM      8  C   UNL A   1      34.491  21.993  23.721  1.00  0.00     0.301 C 
ATOM      9  N   UNL A   1      33.229  22.781  23.483  1.00  0.00    -0.312 N 
ATOM     10  C   UNL A   1      32.089  21.907  23.135  1.00  0.00     0.320 C 
ATOM     11  H   UNL A   1      33.329  23.324  22.625  1.00  0.00     0.349 HD
ATOM     12  C   UNL A   1      32.358  20.482  23.542  1.00  0.00     0.093 A 
ATOM     13  C   UNL A   1      34.341  21.033  24.915  1.00  0.00     0.136 C 
ATOM     14  N   UNL A   1      32.067  19.349  22.825  1.00  0.00    -0.344 N 
ATOM     15  C   UNL A   1      33.322  20.064  24.444  1.00  0.00     0.074 A 
ATOM     16  C   UNL A   1      32.784  18.319  23.382  1.00  0.00     0.197 A 
ATOM     17  H   UNL A   1      31.457  19.286  22.055  1.00  0.00     0.167 HD
ATOM     18  N   UNL A   1      33.524  18.717  24.393  1.00  0.00    -0.241 NA
BRANCH   9  19
ATOM     19  C   UNL A   1      33.035  23.902  24.422  1.00  0.00     0.340 C 
BRANCH  19  20
ATOM     20  C   UNL A   1      31.979  23.929  25.485  1.00  0.00     0.168 A 
ATOM     21  N   UNL A   1      30.873  24.767  25.516  1.00  0.00    -0.299 N 
ATOM     22  C   UNL A   1      30.034  24.285  26.495  1.00  0.00     0.113 A 
ATOM     23  C   UNL A   1      30.663  23.190  27.026  1.00  0.00     0.132 A 
ATOM     24  N   UNL A   1      31.881  23.007  26.434  1.00  0.00    -0.236 NA
BRANCH  21  25
ATOM     25  C   UNL A   1      30.668  25.983  24.837  1.00  0.00     0.047 A 
ATOM     26  C   UNL A   1      30.552  28.324  23.342  1.00  0.00     0.119 A 
ATOM     27  C   UNL A   1      29.589  27.328  23.156  1.00  0.00     0.048 A 
ATOM     28  C   UNL A   1      31.504  28.193  24.354  1.00  0.00     0.048 A 
ATOM     29  C   UNL A   1      29.649  26.140  23.896  1.00  0.00     0.030 A 
ATOM     30  C   UNL A   1      31.557  27.028  25.112  1.00  0.00     0.030 A 
BRANCH  26  31
ATOM     31  O   UNL A   1      30.487  29.413  22.515  1.00  0.00    -0.497 OA
ATOM     32  C   UNL A   1      29.147  29.797  22.199  1.00  0.00     0.278 C 
ENDBRANCH  26  31
ENDBRANCH  21  25
ENDBRANCH  19  20
ENDBRANCH   9  19
ENDBRANCH   6   8
ENDBRANCH   5   6
ENDBRANCH   4   5
ENDBRANCH   3   4
ENDBRANCH   2   3
ENDBRANCH   1   2
BRANCH   1  33
ATOM     33  C   UNL A   1      40.885  21.179  27.701  1.00  0.00     0.188 C 
BRANCH  33  34
ATOM     34  O   UNL A   1      42.148  20.538  27.591  1.00  0.00    -0.376 OA
BRANCH  34  35
ATOM     35  C   UNL A   1      42.147  19.239  27.016  1.00  0.00     0.202 C 
BRANCH  35  36
ATOM     36  C   UNL A   1      42.974  18.989  25.755  1.00  0.00     0.261 C 
BRANCH  36  37
ATOM     37  O   UNL A   1      43.298  20.124  24.971  1.00  0.00    -0.460 OA
BRANCH  37  38
ATOM     38  C   UNL A   1      44.609  20.400  24.810  1.00  0.00     0.338 C 
ATOM     39  O   UNL A   1      45.502  19.595  24.614  1.00  0.00    -0.246 OA
BRANCH  38  40
ATOM     40  C   UNL A   1      44.795  21.842  25.040  1.00  0.00     0.060 A 
ATOM     41  C   UNL A   1      45.733  22.244  25.991  1.00  0.00     0.016 A 
ATOM     42  C   UNL A   1      43.871  22.747  24.492  1.00  0.00     0.016 A 
ATOM     43  C   UNL A   1      45.619  23.511  26.534  1.00  0.00     0.010 A 
ATOM     44  C   UNL A   1      43.745  24.000  25.044  1.00  0.00     0.010 A 
ATOM     45  C   UNL A   1      44.567  24.335  26.117  1.00  0.00    -0.014 A 
BRANCH  45  46
ATOM     46  C   UNL A   1      44.334  25.571  26.834  1.00  0.00     0.031 A 
ATOM     47  C   UNL A   1      45.397  26.580  26.674  1.00  0.00     0.074 A 
ATOM     48  C   UNL A   1      43.189  25.809  27.501  1.00  0.00     0.049 A 
ATOM     49  N   UNL A   1      46.235  26.989  27.566  1.00  0.00    -0.248 NA
ATOM     50  C   UNL A   1      45.646  27.095  25.319  1.00  0.00     0.031 C 
ATOM     51  C   UNL A   1      41.963  25.002  27.480  1.00  0.00     0.029 A 
ATOM     52  N   UNL A   1      42.841  26.885  28.260  1.00  0.00    -0.354 N 
ATOM     53  C   UNL A   1      46.983  27.977  26.939  1.00  0.00     0.074 A 
ATOM     54  C   UNL A   1      46.714  27.864  25.528  1.00  0.00     0.031 C 
ATOM     55  C   UNL A   1      40.948  25.718  28.014  1.00  0.00     0.029 A 
ATOM     56  C   UNL A   1      41.484  26.963  28.541  1.00  0.00     0.049 A 
ATOM     57  H   UNL A   1      43.494  27.548  28.581  1.00  0.00     0.167 HD
ATOM     58  C   UNL A   1      47.543  28.995  27.646  1.00  0.00     0.031 A 
ATOM     59  C   UNL A   1      40.835  27.995  29.133  1.00  0.00     0.031 A 
ATOM     60  C   UNL A   1      47.541  28.732  29.061  1.00  0.00     0.049 A 
ATOM     61  C   UNL A   1      41.834  28.782  29.890  1.00  0.00     0.074 A 
ATOM     62  C   UNL A   1      48.208  27.880  29.913  1.00  0.00     0.029 A 
ATOM     63  N   UNL A   1      46.441  29.206  29.734  1.00  0.00    -0.354 N 
ATOM     64  N   UNL A   1      42.462  28.320  30.935  1.00  0.00    -0.248 NA
ATOM     65  C   UNL A   1      42.414  29.980  29.297  1.00  0.00     0.031 C 
ATOM     66  C   UNL A   1      47.325  27.654  31.008  1.00  0.00     0.029 A 
ATOM     67  C   UNL A   1      46.156  28.388  30.798  1.00  0.00     0.049 A 
ATOM     68  H   UNL A   1      45.934  30.013  29.490  1.00  0.00     0.167 HD
ATOM     69  C   UNL A   1      43.718  28.898  30.872  1.00  0.00     0.074 A 
ATOM     70  C   UNL A   1      43.574  30.025  29.963  1.00  0.00     0.031 C 
ATOM     71  C   UNL A   1      44.816  28.231  31.329  1.00  0.00     0.031 A 
BRANCH  58  72
ATOM     72  C   UNL A   1      47.653  30.405  27.115  1.00  0.00    -0.014 A 
ATOM     73  C   UNL A   1      48.883  31.082  27.236  1.00  0.00     0.010 A 
ATOM     74  C   UNL A   1      46.526  31.182  26.777  1.00  0.00     0.010 A 
ATOM     75  C   UNL A   1      48.963  32.473  27.088  1.00  0.00     0.020 A 
ATOM     76  C   UNL A   1      46.603  32.561  26.584  1.00  0.00     0.020 A 
ATOM     77  C   UNL A   1      47.816  33.204  26.779  1.00  0.00     0.054 A 
BRANCH  77  78
ATOM     78  S   UNL A   1      47.899  35.010  26.713  1.00  0.00     0.124 S 
ATOM     79  O   UNL A   1      49.286  35.260  27.089  1.00  0.00    -0.237 OA
ATOM     80  O   UNL A   1      47.556  35.286  25.320  1.00  0.00    -0.237 OA
ATOM     81  O   UNL A   1      46.899  35.433  27.690  1.00  0.00    -0.744 OA
ENDBRANCH  77  78
ENDBRANCH  58  72
BRANCH  59  82
ATOM     82  C   UNL A   1      39.449  28.460  28.910  1.00  0.00    -0.014 A 
ATOM     83  C   UNL A   1      38.521  28.518  29.964  1.00  0.00     0.010 A 
ATOM     84  C   UNL A   1      39.119  29.109  27.702  1.00  0.00     0.010 A 
ATOM     85  C   UNL A   1      37.331  29.252  29.836  1.00  0.00     0.020 A 
ATOM     86  C   UNL A   1      37.933  29.838  27.566  1.00  0.00     0.020 A 
ATOM     87  C   UNL A   1      37.054  29.926  28.642  1.00  0.00     0.054 A 
BRANCH  87  88
ATOM     88  S   UNL A   1      35.603  31.016  28.550  1.00  0.00     0.124 S 
ATOM     89  O   UNL A   1      35.363  31.334  29.955  1.00  0.00    -0.237 OA
ATOM     90  O   UNL A   1      36.088  32.120  27.726  1.00  0.00    -0.237 OA
ATOM     91  O   UNL A   1      34.583  30.180  27.921  1.00  0.00    -0.744 OA
ENDBRANCH  87  88
ENDBRANCH  59  82
BRANCH  71  92
ATOM     92  C   UNL A   1      44.589  27.102  32.302  1.00  0.00    -0.014 A 
ATOM     93  C   UNL A   1      44.147  27.289  33.626  1.00  0.00     0.010 A 
ATOM     94  C   UNL A   1      44.732  25.791  31.816  1.00  0.00     0.010 A 
ATOM     95  C   UNL A   1      43.869  26.187  34.447  1.00  0.00     0.020 A 
ATOM     96  C   UNL A   1      44.441  24.690  32.623  1.00  0.00     0.020 A 
ATOM     97  C   UNL A   1      44.017  24.892  33.938  1.00  0.00     0.054 A 
BRANCH  97  98
ATOM     98  S   UNL A   1      43.594  23.470  34.983  1.00  0.00     0.124 S 
ATOM     99  O   UNL A   1      43.627  22.359  34.035  1.00  0.00    -0.237 OA
ATOM    100  O   UNL A   1      44.657  23.474  35.985  1.00  0.00    -0.237 OA
ATOM    101  O   UNL A   1      42.267  23.801  35.501  1.00  0.00    -0.744 OA
ENDBRANCH  97  98
ENDBRANCH  71  92
ENDBRANCH  45  46
ENDBRANCH  38  40
ENDBRANCH  37  38
ENDBRANCH  36  37
ENDBRANCH  35  36
ENDBRANCH  34  35
ENDBRANCH  33  34
ENDBRANCH   1  33
TORSDOF 24
ENDMDL
MODEL 2
REMARK VINA RESULT:     -10.9      2.426      9.525
REMARK SMILES COc1ccc(-n2ccnc2C[N@@H+]2Cc3[nH]cnc3C[C@@H]2C(=O)OCCOCCOCCOC(=O)c2ccc(-c3c4nc(c(-c5ccc(S(=O)(=O)[O-])cc5)c5ccc([nH]5)c(-c5ccc(S(=O)(=O)[O-])cc5)c5nc(c(-c6ccc(S(=O)(=O)[O-])cc6)c6ccc3[nH]6)C=C5)C=C4)cc2)cc1
REMARK SMILES IDX 28 1 27 2 26 3 25 4 24 5 22 6 23 7 21 8 13 9 14 10 15 12
REMARK SMILES IDX 20 13 16 14 19 15 17 16 18 18 12 19 11 20 7 21 8 22 9 23
REMARK SMILES IDX 10 24 6 25 3 26 4 27 97 28 5 29 96 30 2 31 1 32 29 33 30 34
REMARK SMILES IDX 31 35 32 36 33 37 34 38 35 39 36 40 37 41 95 42 38 43 94 44
REMARK SMILES IDX 39 45 40 46 41 47 88 48 42 49 93 50 87 51 89 52 43 53 92 54
REMARK SMILES IDX 86 55 85 56 44 58 74 59 55 60 73 61 56 62 59 63 72 64 90 65
REMARK SMILES IDX 57 66 58 67 71 69 91 70 60 71 45 72 46 73 54 74 47 75 53 76
REMARK SMILES IDX 48 77 49 78 50 79 51 80 52 81 75 82 76 83 84 84 77 85 83 86
REMARK SMILES IDX 78 87 79 88 80 89 81 90 82 91 61 92 62 93 70 94 63 95 69 96
REMARK SMILES IDX 64 97 65 98 66 99 67 100 68 101
REMARK H PARENT 13 11 16 17 89 57 59 68
REMARK Flexibility Score: inf
ROOT
ATOM      1  C   UNL A   1      30.951  28.556  24.352  1.00  0.00     0.188 C 
ENDROOT
BRANCH   1   2
ATOM      2  O   UNL A   1      31.033  27.170  24.063  1.00  0.00    -0.376 OA
BRANCH   2   3
ATOM      3  C   UNL A   1      29.979  26.306  24.453  1.00  0.00     0.202 C 
BRANCH   3   4
ATOM      4  C   UNL A   1      29.811  25.767  25.885  1.00  0.00     0.261 C 
BRANCH   4   5
ATOM      5  O   UNL A   1      30.968  25.293  26.558  1.00  0.00    -0.459 OA
BRANCH   5   6
ATOM      6  C   UNL A   1      31.326  23.973  26.438  1.00  0.00     0.365 C 
ATOM      7  O   UNL A   1      31.246  23.135  27.299  1.00  0.00    -0.245 OA
BRANCH   6   8
ATOM      8  C   UNL A   1      31.924  23.800  25.047  1.00  0.00     0.301 C 
ATOM      9  N   UNL A   1      31.863  22.412  24.465  1.00  0.00    -0.312 N 
ATOM     10  C   UNL A   1      32.101  22.412  23.007  1.00  0.00     0.320 C 
ATOM     11  H   UNL A   1      30.903  22.072  24.507  1.00  0.00     0.349 HD
ATOM     12  C   UNL A   1      32.772  23.689  22.570  1.00  0.00     0.093 A 
ATOM     13  C   UNL A   1      33.319  24.427  24.868  1.00  0.00     0.136 C 
ATOM     14  N   UNL A   1      32.493  24.426  21.448  1.00  0.00    -0.344 N 
ATOM     15  C   UNL A   1      33.434  24.581  23.397  1.00  0.00     0.074 A 
ATOM     16  C   UNL A   1      33.069  25.662  21.619  1.00  0.00     0.197 A 
ATOM     17  H   UNL A   1      31.977  24.126  20.665  1.00  0.00     0.167 HD
ATOM     18  N   UNL A   1      33.682  25.769  22.777  1.00  0.00    -0.241 NA
BRANCH   9  19
ATOM     19  C   UNL A   1      32.490  21.379  25.311  1.00  0.00     0.340 C 
BRANCH  19  20
ATOM     20  C   UNL A   1      32.910  20.030  24.811  1.00  0.00     0.168 A 
ATOM     21  N   UNL A   1      34.205  19.529  24.803  1.00  0.00    -0.299 N 
ATOM     22  C   UNL A   1      34.110  18.184  24.523  1.00  0.00     0.113 A 
ATOM     23  C   UNL A   1      32.775  17.925  24.359  1.00  0.00     0.132 A 
ATOM     24  N   UNL A   1      32.049  19.075  24.488  1.00  0.00    -0.236 NA
BRANCH  21  25
ATOM     25  C   UNL A   1      35.423  20.230  24.882  1.00  0.00     0.047 A 
ATOM     26  C   UNL A   1      37.744  21.687  25.350  1.00  0.00     0.119 A 
ATOM     27  C   UNL A   1      37.821  20.318  25.076  1.00  0.00     0.048 A 
ATOM     28  C   UNL A   1      36.515  22.343  25.278  1.00  0.00     0.048 A 
ATOM     29  C   UNL A   1      36.655  19.575  24.852  1.00  0.00     0.030 A 
ATOM     30  C   UNL A   1      35.353  21.619  25.033  1.00  0.00     0.030 A 
BRANCH  26  31
ATOM     31  O   UNL A   1      38.916  22.325  25.656  1.00  0.00    -0.497 OA
ATOM     32  C   UNL A   1      39.842  21.492  26.355  1.00  0.00     0.278 C 
ENDBRANCH  26  31
ENDBRANCH  21  25
ENDBRANCH  19  20
ENDBRANCH   9  19
ENDBRANCH   6   8
ENDBRANCH   5   6
ENDBRANCH   4   5
ENDBRANCH   3   4
ENDBRANCH   2   3
ENDBRANCH   1   2
BRANCH   1  33
ATOM     33  C   UNL A   1      31.761  29.137  25.524  1.00  0.00     0.188 C 
BRANCH  33  34
ATOM     34  O   UNL A   1      31.406  30.484  25.805  1.00  0.00    -0.376 OA
BRANCH  34  35
ATOM     35  C   UNL A   1      32.222  31.167  26.745  1.00  0.00     0.202 C 
BRANCH  35  36
ATOM     36  C   UNL A   1      33.642  30.662  26.996  1.00  0.00     0.261 C 
BRANCH  36  37
ATOM     37  O   UNL A   1      34.235  31.017  28.234  1.00  0.00    -0.460 OA
BRANCH  37  38
ATOM     38  C   UNL A   1      35.312  31.828  28.183  1.00  0.00     0.338 C 
ATOM     39  O   UNL A   1      35.418  32.855  27.538  1.00  0.00    -0.246 OA
BRANCH  38  40
ATOM     40  C   UNL A   1      36.392  31.188  28.951  1.00  0.00     0.060 A 
ATOM     41  C   UNL A   1      37.429  31.990  29.426  1.00  0.00     0.016 A 
ATOM     42  C   UNL A   1      36.480  29.786  28.970  1.00  0.00     0.016 A 
ATOM     43  C   UNL A   1      38.634  31.389  29.744  1.00  0.00     0.010 A 
ATOM     44  C   UNL A   1      37.682  29.189  29.268  1.00  0.00     0.010 A 
ATOM     45  C   UNL A   1      38.769  30.006  29.570  1.00  0.00    -0.014 A 
BRANCH  45  46
ATOM     46  C   UNL A   1      40.085  29.419  29.708  1.00  0.00     0.031 A 
ATOM     47  C   UNL A   1      40.582  29.351  31.094  1.00  0.00     0.074 A 
ATOM     48  C   UNL A   1      40.746  28.886  28.662  1.00  0.00     0.049 A 
ATOM     49  N   UNL A   1      41.549  30.024  31.618  1.00  0.00    -0.248 NA
ATOM     50  C   UNL A   1      39.819  28.533  32.049  1.00  0.00     0.031 C 
ATOM     51  C   UNL A   1      40.225  28.641  27.312  1.00  0.00     0.029 A 
ATOM     52  N   UNL A   1      41.997  28.351  28.616  1.00  0.00    -0.354 N 
ATOM     53  C   UNL A   1      41.658  29.556  32.921  1.00  0.00     0.074 A 
ATOM     54  C   UNL A   1      40.464  28.795  33.185  1.00  0.00     0.031 C 
ATOM     55  C   UNL A   1      41.071  27.821  26.650  1.00  0.00     0.029 A 
ATOM     56  C   UNL A   1      42.251  27.607  27.472  1.00  0.00     0.049 A 
ATOM     57  H   UNL A   1      42.662  28.480  29.331  1.00  0.00     0.167 HD
ATOM     58  C   UNL A   1      42.845  29.586  33.586  1.00  0.00     0.031 A 
ATOM     59  C   UNL A   1      43.339  26.837  27.229  1.00  0.00     0.031 A 
ATOM     60  C   UNL A   1      43.811  30.423  32.925  1.00  0.00     0.049 A 
ATOM     61  C   UNL A   1      44.430  27.305  28.113  1.00  0.00     0.074 A 
ATOM     62  C   UNL A   1      43.981  31.774  32.724  1.00  0.00     0.029 A 
ATOM     63  N   UNL A   1      44.620  29.770  32.026  1.00  0.00    -0.354 N 
ATOM     64  N   UNL A   1      44.989  28.477  27.995  1.00  0.00    -0.248 NA
ATOM     65  C   UNL A   1      44.692  26.617  29.370  1.00  0.00     0.031 C 
ATOM     66  C   UNL A   1      44.704  31.899  31.502  1.00  0.00     0.029 A 
ATOM     67  C   UNL A   1      44.967  30.620  31.007  1.00  0.00     0.049 A 
ATOM     68  H   UNL A   1      44.909  28.833  32.103  1.00  0.00     0.167 HD
ATOM     69  C   UNL A   1      45.305  28.845  29.291  1.00  0.00     0.074 A 
ATOM     70  C   UNL A   1      45.263  27.610  30.060  1.00  0.00     0.031 C 
ATOM     71  C   UNL A   1      45.278  30.155  29.669  1.00  0.00     0.031 A 
BRANCH  58  72
ATOM     72  C   UNL A   1      43.277  28.506  34.549  1.00  0.00    -0.014 A 
ATOM     73  C   UNL A   1      43.767  28.882  35.815  1.00  0.00     0.010 A 
ATOM     74  C   UNL A   1      43.497  27.171  34.149  1.00  0.00     0.010 A 
ATOM     75  C   UNL A   1      44.493  27.983  36.609  1.00  0.00     0.020 A 
ATOM     76  C   UNL A   1      44.180  26.257  34.949  1.00  0.00     0.020 A 
ATOM     77  C   UNL A   1      44.708  26.680  36.160  1.00  0.00     0.054 A 
BRANCH  77  78
ATOM     78  S   UNL A   1      45.751  25.563  37.127  1.00  0.00     0.124 S 
ATOM     79  O   UNL A   1      45.239  25.770  38.478  1.00  0.00    -0.237 OA
ATOM     80  O   UNL A   1      45.456  24.265  36.527  1.00  0.00    -0.237 OA
ATOM     81  O   UNL A   1      47.102  26.063  36.885  1.00  0.00    -0.744 OA
ENDBRANCH  77  78
ENDBRANCH  58  72
BRANCH  59  82
ATOM     82  C   UNL A   1      43.426  25.590  26.437  1.00  0.00    -0.014 A 
ATOM     83  C   UNL A   1      44.360  25.452  25.396  1.00  0.00     0.010 A 
ATOM     84  C   UNL A   1      42.766  24.430  26.892  1.00  0.00     0.010 A 
ATOM     85  C   UNL A   1      44.670  24.187  24.870  1.00  0.00     0.020 A 
ATOM     86  C   UNL A   1      43.066  23.168  26.369  1.00  0.00     0.020 A 
ATOM     87  C   UNL A   1      44.034  23.049  25.375  1.00  0.00     0.054 A 
BRANCH  87  88
ATOM     88  S   UNL A   1      44.570  21.405  24.814  1.00  0.00     0.124 S 
ATOM     89  O   UNL A   1      43.515  20.540  25.336  1.00  0.00    -0.237 OA
ATOM     90  O   UNL A   1      44.601  21.560  23.362  1.00  0.00    -0.237 OA
ATOM     91  O   UNL A   1      45.878  21.236  25.444  1.00  0.00    -0.744 OA
ENDBRANCH  87  88
ENDBRANCH  59  82
BRANCH  71  92
ATOM     92  C   UNL A   1      45.366  31.195  28.582  1.00  0.00    -0.014 A 
ATOM     93  C   UNL A   1      44.242  31.815  28.002  1.00  0.00     0.010 A 
ATOM     94  C   UNL A   1      46.647  31.636  28.210  1.00  0.00     0.010 A 
ATOM     95  C   UNL A   1      44.401  32.841  27.060  1.00  0.00     0.020 A 
ATOM     96  C   UNL A   1      46.812  32.669  27.285  1.00  0.00     0.020 A 
ATOM     97  C   UNL A   1      45.687  33.263  26.709  1.00  0.00     0.054 A 
BRANCH  97  98
ATOM     98  S   UNL A   1      45.888  34.636  25.538  1.00  0.00     0.124 S 
ATOM     99  O   UNL A   1      44.984  34.263  24.454  1.00  0.00    -0.237 OA
ATOM    100  O   UNL A   1      45.483  35.798  26.326  1.00  0.00    -0.237 OA
ATOM    101  O   UNL A   1      47.310  34.597  25.198  1.00  0.00    -0.744 OA
ENDBRANCH  97  98
ENDBRANCH  71  92
ENDBRANCH  45  46
ENDBRANCH  38  40
ENDBRANCH  37  38
ENDBRANCH  36  37
ENDBRANCH  35  36
ENDBRANCH  34  35
ENDBRANCH  33  34
ENDBRANCH   1  33
TORSDOF 24
ENDMDL
MODEL 3
REMARK VINA RESULT:     -10.7      2.237      3.220
REMARK SMILES COc1ccc(-n2ccnc2C[N@@H+]2Cc3[nH]cnc3C[C@@H]2C(=O)OCCOCCOCCOC(=O)c2ccc(-c3c4nc(c(-c5ccc(S(=O)(=O)[O-])cc5)c5ccc([nH]5)c(-c5ccc(S(=O)(=O)[O-])cc5)c5nc(c(-c6ccc(S(=O)(=O)[O-])cc6)c6ccc3[nH]6)C=C5)C=C4)cc2)cc1
REMARK SMILES IDX 28 1 27 2 26 3 25 4 24 5 22 6 23 7 21 8 13 9 14 10 15 12
REMARK SMILES IDX 20 13 16 14 19 15 17 16 18 18 12 19 11 20 7 21 8 22 9 23
REMARK SMILES IDX 10 24 6 25 3 26 4 27 97 28 5 29 96 30 2 31 1 32 29 33 30 34
REMARK SMILES IDX 31 35 32 36 33 37 34 38 35 39 36 40 37 41 95 42 38 43 94 44
REMARK SMILES IDX 39 45 40 46 41 47 88 48 42 49 93 50 87 51 89 52 43 53 92 54
REMARK SMILES IDX 86 55 85 56 44 58 74 59 55 60 73 61 56 62 59 63 72 64 90 65
REMARK SMILES IDX 57 66 58 67 71 69 91 70 60 71 45 72 46 73 54 74 47 75 53 76
REMARK SMILES IDX 48 77 49 78 50 79 51 80 52 81 75 82 76 83 84 84 77 85 83 86
REMARK SMILES IDX 78 87 79 88 80 89 81 90 82 91 61 92 62 93 70 94 63 95 69 96
REMARK SMILES IDX 64 97 65 98 66 99 67 100 68 101
REMARK H PARENT 13 11 16 17 89 57 59 68
REMARK Flexibility Score: inf
ROOT
ATOM      1  C   UNL A   1      40.443  20.902  26.891  1.00  0.00     0.188 C 
ENDROOT
BRANCH   1   2
ATOM      2  O   UNL A   1      39.712  21.903  26.203  1.00  0.00    -0.376 OA
BRANCH   2   3
ATOM      3  C   UNL A   1      38.461  21.584  25.617  1.00  0.00     0.202 C 
BRANCH   3   4
ATOM      4  C   UNL A   1      37.512  22.639  25.020  1.00  0.00     0.261 C 
BRANCH   4   5
ATOM      5  O   UNL A   1      36.241  22.206  24.558  1.00  0.00    -0.459 OA
BRANCH   5   6
ATOM      6  C   UNL A   1      35.130  22.433  25.332  1.00  0.00     0.365 C 
ATOM      7  O   UNL A   1      35.070  23.154  26.295  1.00  0.00    -0.245 OA
BRANCH   6   8
ATOM      8  C   UNL A   1      34.024  21.533  24.795  1.00  0.00     0.301 C 
ATOM      9  N   UNL A   1      33.257  22.057  23.609  1.00  0.00    -0.312 N 
ATOM     10  C   UNL A   1      32.492  20.991  22.930  1.00  0.00     0.320 C 
ATOM     11  H   UNL A   1      33.913  22.325  22.876  1.00  0.00     0.349 HD
ATOM     12  C   UNL A   1      32.315  19.797  23.831  1.00  0.00     0.093 A 
ATOM     13  C   UNL A   1      33.081  20.967  25.872  1.00  0.00     0.136 C 
ATOM     14  N   UNL A   1      32.416  18.475  23.479  1.00  0.00    -0.344 N 
ATOM     15  C   UNL A   1      32.477  19.787  25.206  1.00  0.00     0.074 A 
ATOM     16  C   UNL A   1      32.537  17.752  24.641  1.00  0.00     0.197 A 
ATOM     17  H   UNL A   1      32.404  18.111  22.564  1.00  0.00     0.167 HD
ATOM     18  N   UNL A   1      32.536  18.521  25.707  1.00  0.00    -0.241 NA
BRANCH   9  19
ATOM     19  C   UNL A   1      32.638  23.378  23.831  1.00  0.00     0.340 C 
BRANCH  19  20
ATOM     20  C   UNL A   1      32.607  24.470  22.806  1.00  0.00     0.168 A 
ATOM     21  N   UNL A   1      32.789  25.824  23.048  1.00  0.00    -0.299 N 
ATOM     22  C   UNL A   1      32.954  26.431  21.823  1.00  0.00     0.113 A 
ATOM     23  C   UNL A   1      32.852  25.433  20.891  1.00  0.00     0.132 A 
ATOM     24  N   UNL A   1      32.588  24.238  21.499  1.00  0.00    -0.236 NA
BRANCH  21  25
ATOM     25  C   UNL A   1      32.666  26.528  24.261  1.00  0.00     0.047 A 
ATOM     26  C   UNL A   1      32.579  28.168  26.504  1.00  0.00     0.119 A 
ATOM     27  C   UNL A   1      31.391  27.763  25.887  1.00  0.00     0.048 A 
ATOM     28  C   UNL A   1      33.800  27.659  26.065  1.00  0.00     0.048 A 
ATOM     29  C   UNL A   1      31.428  26.948  24.749  1.00  0.00     0.030 A 
ATOM     30  C   UNL A   1      33.847  26.829  24.949  1.00  0.00     0.030 A 
BRANCH  26  31
ATOM     31  O   UNL A   1      32.467  29.043  27.551  1.00  0.00    -0.497 OA
ATOM     32  C   UNL A   1      32.255  30.393  27.132  1.00  0.00     0.278 C 
ENDBRANCH  26  31
ENDBRANCH  21  25
ENDBRANCH  19  20
ENDBRANCH   9  19
ENDBRANCH   6   8
ENDBRANCH   5   6
ENDBRANCH   4   5
ENDBRANCH   3   4
ENDBRANCH   2   3
ENDBRANCH   1   2
BRANCH   1  33
ATOM     33  C   UNL A   1      41.015  19.706  26.108  1.00  0.00     0.188 C 
BRANCH  33  34
ATOM     34  O   UNL A   1      42.332  19.374  26.526  1.00  0.00    -0.376 OA
BRANCH  34  35
ATOM     35  C   UNL A   1      43.345  19.448  25.534  1.00  0.00     0.202 C 
BRANCH  35  36
ATOM     36  C   UNL A   1      44.168  20.730  25.413  1.00  0.00     0.261 C 
BRANCH  36  37
ATOM     37  O   UNL A   1      43.684  21.865  26.110  1.00  0.00    -0.460 OA
BRANCH  37  38
ATOM     38  C   UNL A   1      43.198  22.878  25.363  1.00  0.00     0.338 C 
ATOM     39  O   UNL A   1      43.323  23.018  24.160  1.00  0.00    -0.246 OA
BRANCH  38  40
ATOM     40  C   UNL A   1      42.592  23.860  26.278  1.00  0.00     0.060 A 
ATOM     41  C   UNL A   1      41.756  24.837  25.739  1.00  0.00     0.016 A 
ATOM     42  C   UNL A   1      43.060  23.941  27.601  1.00  0.00     0.016 A 
ATOM     43  C   UNL A   1      41.542  25.995  26.465  1.00  0.00     0.010 A 
ATOM     44  C   UNL A   1      42.863  25.099  28.316  1.00  0.00     0.010 A 
ATOM     45  C   UNL A   1      42.176  26.145  27.704  1.00  0.00    -0.014 A 
BRANCH  45  46
ATOM     46  C   UNL A   1      42.113  27.435  28.359  1.00  0.00     0.031 A 
ATOM     47  C   UNL A   1      43.310  28.275  28.170  1.00  0.00     0.074 A 
ATOM     48  C   UNL A   1      41.006  27.863  28.995  1.00  0.00     0.049 A 
ATOM     49  N   UNL A   1      44.188  28.605  29.056  1.00  0.00    -0.248 NA
ATOM     50  C   UNL A   1      43.642  28.685  26.797  1.00  0.00     0.031 C 
ATOM     51  C   UNL A   1      39.679  27.236  28.992  1.00  0.00     0.029 A 
ATOM     52  N   UNL A   1      40.807  29.012  29.698  1.00  0.00    -0.354 N 
ATOM     53  C   UNL A   1      45.075  29.447  28.396  1.00  0.00     0.074 A 
ATOM     54  C   UNL A   1      44.806  29.304  26.988  1.00  0.00     0.031 C 
ATOM     55  C   UNL A   1      38.771  28.113  29.475  1.00  0.00     0.029 A 
ATOM     56  C   UNL A   1      39.471  29.294  29.952  1.00  0.00     0.049 A 
ATOM     57  H   UNL A   1      41.544  29.592  29.999  1.00  0.00     0.167 HD
ATOM     58  C   UNL A   1      45.766  30.408  29.065  1.00  0.00     0.031 A 
ATOM     59  C   UNL A   1      38.969  30.434  30.485  1.00  0.00     0.031 A 
ATOM     60  C   UNL A   1      45.713  30.217  30.490  1.00  0.00     0.049 A 
ATOM     61  C   UNL A   1      40.062  31.108  31.221  1.00  0.00     0.074 A 
ATOM     62  C   UNL A   1      46.244  29.322  31.391  1.00  0.00     0.029 A 
ATOM     63  N   UNL A   1      44.684  30.873  31.122  1.00  0.00    -0.354 N 
ATOM     64  N   UNL A   1      40.608  30.613  32.297  1.00  0.00    -0.248 NA
ATOM     65  C   UNL A   1      40.811  32.183  30.584  1.00  0.00     0.031 C 
ATOM     66  C   UNL A   1      45.327  29.275  32.480  1.00  0.00     0.029 A 
ATOM     67  C   UNL A   1      44.276  30.155  32.218  1.00  0.00     0.049 A 
ATOM     68  H   UNL A   1      44.298  31.730  30.833  1.00  0.00     0.167 HD
ATOM     69  C   UNL A   1      41.933  31.005  32.228  1.00  0.00     0.074 A 
ATOM     70  C   UNL A   1      41.959  32.097  31.265  1.00  0.00     0.031 C 
ATOM     71  C   UNL A   1      42.922  30.214  32.733  1.00  0.00     0.031 A 
BRANCH  58  72
ATOM     72  C   UNL A   1      46.079  31.761  28.471  1.00  0.00    -0.014 A 
ATOM     73  C   UNL A   1      47.339  32.338  28.723  1.00  0.00     0.010 A 
ATOM     74  C   UNL A   1      45.086  32.606  27.931  1.00  0.00     0.010 A 
ATOM     75  C   UNL A   1      47.569  33.704  28.505  1.00  0.00     0.020 A 
ATOM     76  C   UNL A   1      45.317  33.955  27.669  1.00  0.00     0.020 A 
ATOM     77  C   UNL A   1      46.548  34.505  27.993  1.00  0.00     0.054 A 
BRANCH  77  78
ATOM     78  S   UNL A   1      46.809  36.288  27.832  1.00  0.00     0.124 S 
ATOM     79  O   UNL A   1      45.791  36.651  26.851  1.00  0.00    -0.237 OA
ATOM     80  O   UNL A   1      46.578  36.760  29.194  1.00  0.00    -0.237 OA
ATOM     81  O   UNL A   1      48.191  36.390  27.368  1.00  0.00    -0.744 OA
ENDBRANCH  77  78
ENDBRANCH  58  72
BRANCH  59  82
ATOM     82  C   UNL A   1      37.664  31.078  30.218  1.00  0.00    -0.014 A 
ATOM     83  C   UNL A   1      36.860  31.558  31.266  1.00  0.00     0.010 A 
ATOM     84  C   UNL A   1      37.337  31.466  28.903  1.00  0.00     0.010 A 
ATOM     85  C   UNL A   1      35.802  32.445  31.013  1.00  0.00     0.020 A 
ATOM     86  C   UNL A   1      36.281  32.346  28.643  1.00  0.00     0.020 A 
ATOM     87  C   UNL A   1      35.532  32.851  29.703  1.00  0.00     0.054 A 
BRANCH  87  88
ATOM     88  S   UNL A   1      34.280  34.134  29.406  1.00  0.00     0.124 S 
ATOM     89  O   UNL A   1      33.183  33.368  28.821  1.00  0.00    -0.237 OA
ATOM     90  O   UNL A   1      34.040  34.659  30.747  1.00  0.00    -0.237 OA
ATOM     91  O   UNL A   1      34.945  35.060  28.491  1.00  0.00    -0.744 OA
ENDBRANCH  87  88
ENDBRANCH  59  82
BRANCH  71  92
ATOM     92  C   UNL A   1      42.529  29.176  33.754  1.00  0.00    -0.014 A 
ATOM     93  C   UNL A   1      42.169  27.854  33.425  1.00  0.00     0.010 A 
ATOM     94  C   UNL A   1      42.630  29.531  35.110  1.00  0.00     0.010 A 
ATOM     95  C   UNL A   1      41.905  26.916  34.433  1.00  0.00     0.020 A 
ATOM     96  C   UNL A   1      42.384  28.597  36.118  1.00  0.00     0.020 A 
ATOM     97  C   UNL A   1      42.016  27.294  35.775  1.00  0.00     0.054 A 
BRANCH  97  98
ATOM     98  S   UNL A   1      41.735  26.060  37.076  1.00  0.00     0.124 S 
ATOM     99  O   UNL A   1      41.881  24.800  36.354  1.00  0.00    -0.237 OA
ATOM    100  O   UNL A   1      42.790  26.359  38.042  1.00  0.00    -0.237 OA
ATOM    101  O   UNL A   1      40.381  26.351  37.545  1.00  0.00    -0.744 OA
ENDBRANCH  97  98
ENDBRANCH  71  92
ENDBRANCH  45  46
ENDBRANCH  38  40
ENDBRANCH  37  38
ENDBRANCH  36  37
ENDBRANCH  35  36
ENDBRANCH  34  35
ENDBRANCH  33  34
ENDBRANCH   1  33
TORSDOF 24
ENDMDL
