MODEL 1
REMARK VINA RESULT:      -9.4      0.000      0.000
REMARK SMILES Cc1ccc(F)c(NC(=O)NC(=O)CCCCC(=O)OCCOCCOCCOC(=O)c2ccc(-c3c4nc(c(-c5ccc(S(=O)(=O)[O-])cc5)c5ccc([nH]5)c(-c5ccc(S(=O)(=O)[O-])cc5)c5nc(c(-c6ccc(S(=O)(=O)[O-])cc6)c6ccc3[nH]6)C=C5)C=C4)cc2)c1
REMARK SMILES IDX 24 1 23 2 22 3 21 4 20 5 18 6 19 7 17 8 16 9 15 10 14 11
REMARK SMILES IDX 12 12 8 13 9 14 10 16 11 17 13 19 7 20 1 21 2 22 3 23 92 24
REMARK SMILES IDX 4 25 5 26 6 27 25 28 26 29 27 30 28 31 29 32 30 33 31 34
REMARK SMILES IDX 32 35 33 36 91 37 34 38 90 39 35 40 36 41 37 42 84 43 38 44
REMARK SMILES IDX 89 45 83 46 85 47 39 48 88 49 82 50 81 51 40 53 70 54 51 55
REMARK SMILES IDX 69 56 52 57 55 58 68 59 86 60 53 61 54 62 67 64 87 65 56 66
REMARK SMILES IDX 41 67 42 68 50 69 43 70 49 71 44 72 45 73 46 74 47 75 48 76
REMARK SMILES IDX 71 77 72 78 80 79 73 80 79 81 74 82 75 83 76 84 77 85 78 86
REMARK SMILES IDX 57 87 58 88 66 89 59 90 65 91 60 92 61 93 62 94 63 95 64 96
REMARK H PARENT 8 15 11 18 85 52 55 63
REMARK Flexibility Score: inf
ROOT
ATOM      1  C   UNL A   1      41.855  20.044  26.112  1.00  0.00     0.188 C 
ENDROOT
BRANCH   1   2
ATOM      2  O   UNL A   1      41.616  20.273  27.486  1.00  0.00    -0.376 OA
BRANCH   2   3
ATOM      3  C   UNL A   1      40.892  21.461  27.759  1.00  0.00     0.202 C 
BRANCH   3   4
ATOM      4  C   UNL A   1      40.063  21.988  26.585  1.00  0.00     0.261 C 
BRANCH   4   5
ATOM      5  O   UNL A   1      39.927  23.426  26.414  1.00  0.00    -0.463 OA
BRANCH   5   6
ATOM      6  C   UNL A   1      38.750  24.051  26.594  1.00  0.00     0.305 C 
ATOM      7  O   UNL A   1      38.569  24.876  27.481  1.00  0.00    -0.252 OA
BRANCH   6   8
ATOM      8  C   UNL A   1      37.692  23.742  25.518  1.00  0.00     0.123 C 
BRANCH   8   9
ATOM      9  C   UNL A   1      36.317  23.008  25.624  1.00  0.00     0.012 C 
BRANCH   9  10
ATOM     10  C   UNL A   1      34.970  23.713  25.836  1.00  0.00     0.010 C 
BRANCH  10  11
ATOM     11  C   UNL A   1      33.666  22.905  25.826  1.00  0.00     0.100 C 
BRANCH  11  12
ATOM     12  C   UNL A   1      32.939  22.505  27.091  1.00  0.00     0.227 C 
ATOM     13  N   UNL A   1      30.544  23.877  25.522  1.00  0.00    -0.305 N 
ATOM     14  C   UNL A   1      30.515  22.907  26.464  1.00  0.00     0.325 C 
ATOM     15  H   UNL A   1      29.933  23.726  24.766  1.00  0.00     0.171 HD
ATOM     16  O   UNL A   1      29.541  22.154  26.514  1.00  0.00    -0.248 OA
ATOM     17  N   UNL A   1      31.584  22.642  27.267  1.00  0.00    -0.278 N 
ATOM     18  H   UNL A   1      31.319  22.521  28.207  1.00  0.00     0.174 HD
ATOM     19  O   UNL A   1      33.587  22.043  28.040  1.00  0.00    -0.275 OA
BRANCH  13  20
ATOM     20  C   UNL A   1      31.294  25.062  25.434  1.00  0.00     0.079 A 
ATOM     21  C   UNL A   1      31.543  28.168  27.630  1.00  0.00     0.044 C 
ATOM     22  C   UNL A   1      31.798  27.201  26.510  1.00  0.00    -0.049 A 
ATOM     23  C   UNL A   1      32.447  27.618  25.349  1.00  0.00     0.006 A 
ATOM     24  C   UNL A   1      31.292  25.897  26.559  1.00  0.00     0.032 A 
ATOM     25  C   UNL A   1      32.582  26.744  24.268  1.00  0.00     0.042 A 
ATOM     26  C   UNL A   1      31.992  25.481  24.308  1.00  0.00     0.146 A 
ATOM     27  F   UNL A   1      32.124  24.681  23.242  1.00  0.00    -0.205 F 
ENDBRANCH  13  20
ENDBRANCH  11  12
ENDBRANCH  10  11
ENDBRANCH   9  10
ENDBRANCH   8   9
ENDBRANCH   6   8
ENDBRANCH   5   6
ENDBRANCH   4   5
ENDBRANCH   3   4
ENDBRANCH   2   3
ENDBRANCH   1   2
BRANCH   1  28
ATOM     28  C   UNL A   1      43.318  20.317  25.711  1.00  0.00     0.188 C 
BRANCH  28  29
ATOM     29  O   UNL A   1      43.599  21.280  24.711  1.00  0.00    -0.376 OA
BRANCH  29  30
ATOM     30  C   UNL A   1      44.052  22.550  25.154  1.00  0.00     0.202 C 
BRANCH  30  31
ATOM     31  C   UNL A   1      43.085  23.751  25.071  1.00  0.00     0.261 C 
BRANCH  31  32
ATOM     32  O   UNL A   1      43.052  24.614  26.232  1.00  0.00    -0.460 OA
BRANCH  32  33
ATOM     33  C   UNL A   1      42.412  25.808  26.097  1.00  0.00     0.338 C 
ATOM     34  O   UNL A   1      41.756  26.170  25.126  1.00  0.00    -0.246 OA
BRANCH  33  35
ATOM     35  C   UNL A   1      42.382  26.544  27.392  1.00  0.00     0.060 A 
ATOM     36  C   UNL A   1      41.955  25.871  28.553  1.00  0.00     0.016 A 
ATOM     37  C   UNL A   1      42.789  27.875  27.480  1.00  0.00     0.016 A 
ATOM     38  C   UNL A   1      41.906  26.531  29.787  1.00  0.00     0.010 A 
ATOM     39  C   UNL A   1      42.704  28.544  28.710  1.00  0.00     0.010 A 
ATOM     40  C   UNL A   1      42.233  27.890  29.866  1.00  0.00    -0.014 A 
BRANCH  40  41
ATOM     41  C   UNL A   1      41.874  28.691  31.070  1.00  0.00     0.031 A 
ATOM     42  C   UNL A   1      40.667  29.593  30.984  1.00  0.00     0.074 A 
ATOM     43  C   UNL A   1      42.593  28.656  32.208  1.00  0.00     0.049 A 
ATOM     44  N   UNL A   1      40.221  30.474  31.841  1.00  0.00    -0.248 NA
ATOM     45  C   UNL A   1      39.860  29.484  29.757  1.00  0.00     0.031 C 
ATOM     46  C   UNL A   1      43.742  27.792  32.464  1.00  0.00     0.029 A 
ATOM     47  N   UNL A   1      42.462  29.391  33.365  1.00  0.00    -0.354 N 
ATOM     48  C   UNL A   1      39.096  31.040  31.250  1.00  0.00     0.074 A 
ATOM     49  C   UNL A   1      38.942  30.417  29.953  1.00  0.00     0.031 C 
ATOM     50  C   UNL A   1      44.226  28.062  33.692  1.00  0.00     0.029 A 
ATOM     51  C   UNL A   1      43.448  29.145  34.294  1.00  0.00     0.049 A 
ATOM     52  H   UNL A   1      41.731  30.034  33.514  1.00  0.00     0.167 HD
ATOM     53  C   UNL A   1      38.264  31.992  31.737  1.00  0.00     0.031 A 
ATOM     54  C   UNL A   1      43.712  29.743  35.476  1.00  0.00     0.031 A 
ATOM     55  C   UNL A   1      38.424  32.629  33.017  1.00  0.00     0.049 A 
ATOM     56  C   UNL A   1      42.827  30.868  35.959  1.00  0.00     0.074 A 
ATOM     57  C   UNL A   1      37.624  33.596  33.600  1.00  0.00     0.029 A 
ATOM     58  N   UNL A   1      39.454  32.374  33.908  1.00  0.00    -0.354 N 
ATOM     59  N   UNL A   1      41.757  31.381  35.398  1.00  0.00    -0.248 NA
ATOM     60  C   UNL A   1      43.185  31.494  37.242  1.00  0.00     0.031 C 
ATOM     61  C   UNL A   1      38.208  33.974  34.812  1.00  0.00     0.029 A 
ATOM     62  C   UNL A   1      39.330  33.189  35.022  1.00  0.00     0.049 A 
ATOM     63  H   UNL A   1      40.169  31.711  33.771  1.00  0.00     0.167 HD
ATOM     64  C   UNL A   1      41.299  32.363  36.273  1.00  0.00     0.074 A 
ATOM     65  C   UNL A   1      42.198  32.364  37.407  1.00  0.00     0.031 C 
ATOM     66  C   UNL A   1      40.227  33.186  36.150  1.00  0.00     0.031 A 
BRANCH  53  67
ATOM     67  C   UNL A   1      37.127  32.437  30.855  1.00  0.00    -0.014 A 
ATOM     68  C   UNL A   1      35.847  31.863  30.962  1.00  0.00     0.010 A 
ATOM     69  C   UNL A   1      37.336  33.473  29.924  1.00  0.00     0.010 A 
ATOM     70  C   UNL A   1      34.810  32.288  30.128  1.00  0.00     0.020 A 
ATOM     71  C   UNL A   1      36.293  33.922  29.111  1.00  0.00     0.020 A 
ATOM     72  C   UNL A   1      35.040  33.315  29.207  1.00  0.00     0.054 A 
BRANCH  72  73
ATOM     73  S   UNL A   1      33.669  33.858  28.152  1.00  0.00     0.124 S 
ATOM     74  O   UNL A   1      32.794  34.526  29.114  1.00  0.00    -0.237 OA
ATOM     75  O   UNL A   1      34.333  34.736  27.192  1.00  0.00    -0.237 OA
ATOM     76  O   UNL A   1      33.144  32.614  27.594  1.00  0.00    -0.744 OA
ENDBRANCH  72  73
ENDBRANCH  53  67
BRANCH  54  77
ATOM     77  C   UNL A   1      44.890  29.315  36.286  1.00  0.00    -0.014 A 
ATOM     78  C   UNL A   1      46.172  29.828  36.019  1.00  0.00     0.010 A 
ATOM     79  C   UNL A   1      44.739  28.370  37.319  1.00  0.00     0.010 A 
ATOM     80  C   UNL A   1      47.280  29.396  36.757  1.00  0.00     0.020 A 
ATOM     81  C   UNL A   1      45.838  27.959  38.079  1.00  0.00     0.020 A 
ATOM     82  C   UNL A   1      47.104  28.467  37.786  1.00  0.00     0.054 A 
BRANCH  82  83
ATOM     83  S   UNL A   1      48.548  27.961  38.764  1.00  0.00     0.124 S 
ATOM     84  O   UNL A   1      49.040  26.814  38.010  1.00  0.00    -0.237 OA
ATOM     85  O   UNL A   1      49.389  29.154  38.724  1.00  0.00    -0.237 OA
ATOM     86  O   UNL A   1      47.981  27.651  40.076  1.00  0.00    -0.744 OA
ENDBRANCH  82  83
ENDBRANCH  54  77
BRANCH  66  87
ATOM     87  C   UNL A   1      39.930  34.136  37.285  1.00  0.00    -0.014 A 
ATOM     88  C   UNL A   1      39.219  33.720  38.425  1.00  0.00     0.010 A 
ATOM     89  C   UNL A   1      40.428  35.452  37.235  1.00  0.00     0.010 A 
ATOM     90  C   UNL A   1      38.986  34.612  39.478  1.00  0.00     0.020 A 
ATOM     91  C   UNL A   1      40.225  36.335  38.299  1.00  0.00     0.020 A 
ATOM     92  C   UNL A   1      39.492  35.914  39.410  1.00  0.00     0.054 A 
BRANCH  92  93
ATOM     93  S   UNL A   1      39.214  37.035  40.809  1.00  0.00     0.124 S 
ATOM     94  O   UNL A   1      40.575  37.436  41.154  1.00  0.00    -0.237 OA
ATOM     95  O   UNL A   1      38.381  38.081  40.220  1.00  0.00    -0.237 OA
ATOM     96  O   UNL A   1      38.541  36.196  41.798  1.00  0.00    -0.744 OA
ENDBRANCH  92  93
ENDBRANCH  66  87
ENDBRANCH  40  41
ENDBRANCH  33  35
ENDBRANCH  32  33
ENDBRANCH  31  32
ENDBRANCH  30  31
ENDBRANCH  29  30
ENDBRANCH  28  29
ENDBRANCH   1  28
TORSDOF 25
ENDMDL
MODEL 2
REMARK VINA RESULT:      -9.3      1.916      8.323
REMARK SMILES Cc1ccc(F)c(NC(=O)NC(=O)CCCCC(=O)OCCOCCOCCOC(=O)c2ccc(-c3c4nc(c(-c5ccc(S(=O)(=O)[O-])cc5)c5ccc([nH]5)c(-c5ccc(S(=O)(=O)[O-])cc5)c5nc(c(-c6ccc(S(=O)(=O)[O-])cc6)c6ccc3[nH]6)C=C5)C=C4)cc2)c1
REMARK SMILES IDX 24 1 23 2 22 3 21 4 20 5 18 6 19 7 17 8 16 9 15 10 14 11
REMARK SMILES IDX 12 12 8 13 9 14 10 16 11 17 13 19 7 20 1 21 2 22 3 23 92 24
REMARK SMILES IDX 4 25 5 26 6 27 25 28 26 29 27 30 28 31 29 32 30 33 31 34
REMARK SMILES IDX 32 35 33 36 91 37 34 38 90 39 35 40 36 41 37 42 84 43 38 44
REMARK SMILES IDX 89 45 83 46 85 47 39 48 88 49 82 50 81 51 40 53 70 54 51 55
REMARK SMILES IDX 69 56 52 57 55 58 68 59 86 60 53 61 54 62 67 64 87 65 56 66
REMARK SMILES IDX 41 67 42 68 50 69 43 70 49 71 44 72 45 73 46 74 47 75 48 76
REMARK SMILES IDX 71 77 72 78 80 79 73 80 79 81 74 82 75 83 76 84 77 85 78 86
REMARK SMILES IDX 57 87 58 88 66 89 59 90 65 91 60 92 61 93 62 94 63 95 64 96
REMARK H PARENT 8 15 11 18 85 52 55 63
REMARK Flexibility Score: inf
ROOT
ATOM      1  C   UNL A   1      40.067  22.126  26.745  1.00  0.00     0.188 C 
ENDROOT
BRANCH   1   2
ATOM      2  O   UNL A   1      39.176  23.222  26.799  1.00  0.00    -0.376 OA
BRANCH   2   3
ATOM      3  C   UNL A   1      37.989  23.043  26.047  1.00  0.00     0.202 C 
BRANCH   3   4
ATOM      4  C   UNL A   1      37.973  21.791  25.166  1.00  0.00     0.261 C 
BRANCH   4   5
ATOM      5  O   UNL A   1      36.728  21.406  24.521  1.00  0.00    -0.463 OA
BRANCH   5   6
ATOM      6  C   UNL A   1      35.973  22.297  23.853  1.00  0.00     0.305 C 
ATOM      7  O   UNL A   1      36.399  22.943  22.904  1.00  0.00    -0.252 OA
BRANCH   6   8
ATOM      8  C   UNL A   1      34.499  22.344  24.295  1.00  0.00     0.123 C 
BRANCH   8   9
ATOM      9  C   UNL A   1      33.183  22.332  23.454  1.00  0.00     0.012 C 
BRANCH   9  10
ATOM     10  C   UNL A   1      32.620  23.547  22.704  1.00  0.00     0.010 C 
BRANCH  10  11
ATOM     11  C   UNL A   1      33.444  24.837  22.596  1.00  0.00     0.100 C 
BRANCH  11  12
ATOM     12  C   UNL A   1      33.149  25.915  21.577  1.00  0.00     0.227 C 
ATOM     13  N   UNL A   1      33.183  27.683  24.214  1.00  0.00    -0.305 N 
ATOM     14  C   UNL A   1      33.455  28.033  22.937  1.00  0.00     0.325 C 
ATOM     15  H   UNL A   1      33.801  28.061  24.880  1.00  0.00     0.171 HD
ATOM     16  O   UNL A   1      34.159  29.023  22.728  1.00  0.00    -0.248 OA
ATOM     17  N   UNL A   1      33.097  27.254  21.878  1.00  0.00    -0.278 N 
ATOM     18  H   UNL A   1      32.702  27.783  21.147  1.00  0.00     0.174 HD
ATOM     19  O   UNL A   1      32.922  25.591  20.404  1.00  0.00    -0.275 OA
BRANCH  13  20
ATOM     20  C   UNL A   1      32.171  26.872  24.758  1.00  0.00     0.079 A 
ATOM     21  C   UNL A   1      32.213  23.706  26.880  1.00  0.00     0.044 C 
ATOM     22  C   UNL A   1      31.699  24.888  26.109  1.00  0.00    -0.049 A 
ATOM     23  C   UNL A   1      30.367  24.943  25.703  1.00  0.00     0.006 A 
ATOM     24  C   UNL A   1      32.568  25.900  25.684  1.00  0.00     0.032 A 
ATOM     25  C   UNL A   1      29.924  25.991  24.892  1.00  0.00     0.042 A 
ATOM     26  C   UNL A   1      30.826  26.937  24.410  1.00  0.00     0.146 A 
ATOM     27  F   UNL A   1      30.366  27.913  23.616  1.00  0.00    -0.205 F 
ENDBRANCH  13  20
ENDBRANCH  11  12
ENDBRANCH  10  11
ENDBRANCH   9  10
ENDBRANCH   8   9
ENDBRANCH   6   8
ENDBRANCH   5   6
ENDBRANCH   4   5
ENDBRANCH   3   4
ENDBRANCH   2   3
ENDBRANCH   1   2
BRANCH   1  28
ATOM     28  C   UNL A   1      41.192  22.222  27.794  1.00  0.00     0.188 C 
BRANCH  28  29
ATOM     29  O   UNL A   1      42.518  21.880  27.429  1.00  0.00    -0.376 OA
BRANCH  29  30
ATOM     30  C   UNL A   1      42.818  21.869  26.041  1.00  0.00     0.202 C 
BRANCH  30  31
ATOM     31  C   UNL A   1      43.528  23.095  25.428  1.00  0.00     0.261 C 
BRANCH  31  32
ATOM     32  O   UNL A   1      43.084  24.385  25.909  1.00  0.00    -0.460 OA
BRANCH  32  33
ATOM     33  C   UNL A   1      44.014  25.175  26.513  1.00  0.00     0.338 C 
ATOM     34  O   UNL A   1      45.198  25.260  26.205  1.00  0.00    -0.246 OA
BRANCH  33  35
ATOM     35  C   UNL A   1      43.368  26.139  27.446  1.00  0.00     0.060 A 
ATOM     36  C   UNL A   1      43.692  27.507  27.352  1.00  0.00     0.016 A 
ATOM     37  C   UNL A   1      42.434  25.718  28.393  1.00  0.00     0.016 A 
ATOM     38  C   UNL A   1      43.111  28.443  28.217  1.00  0.00     0.010 A 
ATOM     39  C   UNL A   1      41.881  26.652  29.282  1.00  0.00     0.010 A 
ATOM     40  C   UNL A   1      42.237  28.014  29.224  1.00  0.00    -0.014 A 
BRANCH  40  41
ATOM     41  C   UNL A   1      41.872  28.918  30.351  1.00  0.00     0.031 A 
ATOM     42  C   UNL A   1      42.691  28.834  31.616  1.00  0.00     0.074 A 
ATOM     43  C   UNL A   1      40.839  29.779  30.289  1.00  0.00     0.049 A 
ATOM     44  N   UNL A   1      42.505  29.419  32.771  1.00  0.00    -0.248 NA
ATOM     45  C   UNL A   1      43.879  27.965  31.565  1.00  0.00     0.031 C 
ATOM     46  C   UNL A   1      39.999  30.018  29.118  1.00  0.00     0.029 A 
ATOM     47  N   UNL A   1      40.311  30.606  31.255  1.00  0.00    -0.354 N 
ATOM     48  C   UNL A   1      43.536  28.973  33.591  1.00  0.00     0.074 A 
ATOM     49  C   UNL A   1      44.331  28.053  32.807  1.00  0.00     0.031 C 
ATOM     50  C   UNL A   1      39.046  30.915  29.441  1.00  0.00     0.029 A 
ATOM     51  C   UNL A   1      39.182  31.283  30.851  1.00  0.00     0.049 A 
ATOM     52  H   UNL A   1      40.704  30.704  32.152  1.00  0.00     0.167 HD
ATOM     53  C   UNL A   1      43.801  29.295  34.880  1.00  0.00     0.031 A 
ATOM     54  C   UNL A   1      38.340  32.080  31.543  1.00  0.00     0.031 A 
ATOM     55  C   UNL A   1      43.003  30.194  35.671  1.00  0.00     0.049 A 
ATOM     56  C   UNL A   1      38.601  32.353  33.006  1.00  0.00     0.074 A 
ATOM     57  C   UNL A   1      43.201  30.590  36.982  1.00  0.00     0.029 A 
ATOM     58  N   UNL A   1      41.851  30.829  35.232  1.00  0.00    -0.354 N 
ATOM     59  N   UNL A   1      39.588  31.938  33.763  1.00  0.00    -0.248 NA
ATOM     60  C   UNL A   1      37.630  33.208  33.708  1.00  0.00     0.031 C 
ATOM     61  C   UNL A   1      42.133  31.410  37.357  1.00  0.00     0.029 A 
ATOM     62  C   UNL A   1      41.309  31.587  36.257  1.00  0.00     0.049 A 
ATOM     63  H   UNL A   1      41.474  30.752  34.326  1.00  0.00     0.167 HD
ATOM     64  C   UNL A   1      39.375  32.507  35.016  1.00  0.00     0.074 A 
ATOM     65  C   UNL A   1      38.173  33.307  34.914  1.00  0.00     0.031 C 
ATOM     66  C   UNL A   1      40.112  32.382  36.150  1.00  0.00     0.031 A 
BRANCH  53  67
ATOM     67  C   UNL A   1      44.985  28.630  35.532  1.00  0.00    -0.014 A 
ATOM     68  C   UNL A   1      46.287  29.146  35.389  1.00  0.00     0.010 A 
ATOM     69  C   UNL A   1      44.787  27.488  36.330  1.00  0.00     0.010 A 
ATOM     70  C   UNL A   1      47.370  28.507  35.997  1.00  0.00     0.020 A 
ATOM     71  C   UNL A   1      45.863  26.866  36.967  1.00  0.00     0.020 A 
ATOM     72  C   UNL A   1      47.151  27.371  36.782  1.00  0.00     0.054 A 
BRANCH  72  73
ATOM     73  S   UNL A   1      48.575  26.576  37.576  1.00  0.00     0.124 S 
ATOM     74  O   UNL A   1      48.345  25.166  37.267  1.00  0.00    -0.237 OA
ATOM     75  O   UNL A   1      49.709  27.192  36.889  1.00  0.00    -0.237 OA
ATOM     76  O   UNL A   1      48.434  26.935  38.985  1.00  0.00    -0.744 OA
ENDBRANCH  72  73
ENDBRANCH  53  67
BRANCH  54  77
ATOM     77  C   UNL A   1      37.140  32.663  30.874  1.00  0.00    -0.014 A 
ATOM     78  C   UNL A   1      37.186  33.948  30.304  1.00  0.00     0.010 A 
ATOM     79  C   UNL A   1      35.931  31.942  30.824  1.00  0.00     0.010 A 
ATOM     80  C   UNL A   1      36.048  34.506  29.712  1.00  0.00     0.020 A 
ATOM     81  C   UNL A   1      34.800  32.483  30.206  1.00  0.00     0.020 A 
ATOM     82  C   UNL A   1      34.863  33.767  29.662  1.00  0.00     0.054 A 
BRANCH  82  83
ATOM     83  S   UNL A   1      33.414  34.491  28.842  1.00  0.00     0.124 S 
ATOM     84  O   UNL A   1      32.592  34.897  29.977  1.00  0.00    -0.237 OA
ATOM     85  O   UNL A   1      34.002  35.578  28.064  1.00  0.00    -0.237 OA
ATOM     86  O   UNL A   1      32.881  33.384  28.048  1.00  0.00    -0.744 OA
ENDBRANCH  82  83
ENDBRANCH  54  77
BRANCH  66  87
ATOM     87  C   UNL A   1      39.673  33.157  37.369  1.00  0.00    -0.014 A 
ATOM     88  C   UNL A   1      38.977  32.539  38.423  1.00  0.00     0.010 A 
ATOM     89  C   UNL A   1      40.022  34.517  37.488  1.00  0.00     0.010 A 
ATOM     90  C   UNL A   1      38.611  33.273  39.557  1.00  0.00     0.020 A 
ATOM     91  C   UNL A   1      39.687  35.244  38.633  1.00  0.00     0.020 A 
ATOM     92  C   UNL A   1      38.971  34.621  39.656  1.00  0.00     0.054 A 
BRANCH  92  93
ATOM     93  S   UNL A   1      38.523  35.537  41.157  1.00  0.00     0.124 S 
ATOM     94  O   UNL A   1      39.582  35.142  42.082  1.00  0.00    -0.237 OA
ATOM     95  O   UNL A   1      38.566  36.927  40.708  1.00  0.00    -0.237 OA
ATOM     96  O   UNL A   1      37.190  35.036  41.485  1.00  0.00    -0.744 OA
ENDBRANCH  92  93
ENDBRANCH  66  87
ENDBRANCH  40  41
ENDBRANCH  33  35
ENDBRANCH  32  33
ENDBRANCH  31  32
ENDBRANCH  30  31
ENDBRANCH  29  30
ENDBRANCH  28  29
ENDBRANCH   1  28
TORSDOF 25
ENDMDL
MODEL 3
REMARK VINA RESULT:      -8.9      6.753      9.202
REMARK SMILES Cc1ccc(F)c(NC(=O)NC(=O)CCCCC(=O)OCCOCCOCCOC(=O)c2ccc(-c3c4nc(c(-c5ccc(S(=O)(=O)[O-])cc5)c5ccc([nH]5)c(-c5ccc(S(=O)(=O)[O-])cc5)c5nc(c(-c6ccc(S(=O)(=O)[O-])cc6)c6ccc3[nH]6)C=C5)C=C4)cc2)c1
REMARK SMILES IDX 24 1 23 2 22 3 21 4 20 5 18 6 19 7 17 8 16 9 15 10 14 11
REMARK SMILES IDX 12 12 8 13 9 14 10 16 11 17 13 19 7 20 1 21 2 22 3 23 92 24
REMARK SMILES IDX 4 25 5 26 6 27 25 28 26 29 27 30 28 31 29 32 30 33 31 34
REMARK SMILES IDX 32 35 33 36 91 37 34 38 90 39 35 40 36 41 37 42 84 43 38 44
REMARK SMILES IDX 89 45 83 46 85 47 39 48 88 49 82 50 81 51 40 53 70 54 51 55
REMARK SMILES IDX 69 56 52 57 55 58 68 59 86 60 53 61 54 62 67 64 87 65 56 66
REMARK SMILES IDX 41 67 42 68 50 69 43 70 49 71 44 72 45 73 46 74 47 75 48 76
REMARK SMILES IDX 71 77 72 78 80 79 73 80 79 81 74 82 75 83 76 84 77 85 78 86
REMARK SMILES IDX 57 87 58 88 66 89 59 90 65 91 60 92 61 93 62 94 63 95 64 96
REMARK H PARENT 8 15 11 18 85 52 55 63
REMARK Flexibility Score: inf
ROOT
ATOM      1  C   UNL A   1      40.110  21.988  26.807  1.00  0.00     0.188 C 
ENDROOT
BRANCH   1   2
ATOM      2  O   UNL A   1      39.267  23.123  26.805  1.00  0.00    -0.376 OA
BRANCH   2   3
ATOM      3  C   UNL A   1      38.111  22.985  25.997  1.00  0.00     0.202 C 
BRANCH   3   4
ATOM      4  C   UNL A   1      38.071  21.710  25.151  1.00  0.00     0.261 C 
BRANCH   4   5
ATOM      5  O   UNL A   1      36.845  21.381  24.439  1.00  0.00    -0.463 OA
BRANCH   5   6
ATOM      6  C   UNL A   1      36.105  22.326  23.833  1.00  0.00     0.305 C 
ATOM      7  O   UNL A   1      36.536  23.013  22.915  1.00  0.00    -0.252 OA
BRANCH   6   8
ATOM      8  C   UNL A   1      34.638  22.386  24.299  1.00  0.00     0.123 C 
BRANCH   8   9
ATOM      9  C   UNL A   1      33.311  22.433  23.477  1.00  0.00     0.012 C 
BRANCH   9  10
ATOM     10  C   UNL A   1      32.697  23.711  22.889  1.00  0.00     0.010 C 
BRANCH  10  11
ATOM     11  C   UNL A   1      33.558  24.967  22.706  1.00  0.00     0.100 C 
BRANCH  11  12
ATOM     12  C   UNL A   1      33.228  26.047  21.700  1.00  0.00     0.227 C 
ATOM     13  N   UNL A   1      33.159  27.775  24.363  1.00  0.00    -0.305 N 
ATOM     14  C   UNL A   1      33.429  28.155  23.094  1.00  0.00     0.325 C 
ATOM     15  H   UNL A   1      33.754  28.168  25.041  1.00  0.00     0.171 HD
ATOM     16  O   UNL A   1      34.093  29.177  22.908  1.00  0.00    -0.248 OA
ATOM     17  N   UNL A   1      33.116  27.378  22.020  1.00  0.00    -0.278 N 
ATOM     18  H   UNL A   1      32.707  27.900  21.293  1.00  0.00     0.174 HD
ATOM     19  O   UNL A   1      33.027  25.732  20.519  1.00  0.00    -0.275 OA
BRANCH  13  20
ATOM     20  C   UNL A   1      32.177  26.914  24.883  1.00  0.00     0.079 A 
ATOM     21  C   UNL A   1      32.332  23.708  26.939  1.00  0.00     0.044 C 
ATOM     22  C   UNL A   1      31.777  24.885  26.190  1.00  0.00    -0.049 A 
ATOM     23  C   UNL A   1      30.446  24.896  25.777  1.00  0.00     0.006 A 
ATOM     24  C   UNL A   1      32.607  25.939  25.792  1.00  0.00     0.032 A 
ATOM     25  C   UNL A   1      29.966  25.942  24.986  1.00  0.00     0.042 A 
ATOM     26  C   UNL A   1      30.833  26.933  24.529  1.00  0.00     0.146 A 
ATOM     27  F   UNL A   1      30.339  27.906  23.752  1.00  0.00    -0.205 F 
ENDBRANCH  13  20
ENDBRANCH  11  12
ENDBRANCH  10  11
ENDBRANCH   9  10
ENDBRANCH   8   9
ENDBRANCH   6   8
ENDBRANCH   5   6
ENDBRANCH   4   5
ENDBRANCH   3   4
ENDBRANCH   2   3
ENDBRANCH   1   2
BRANCH   1  28
ATOM     28  C   UNL A   1      41.372  22.187  27.669  1.00  0.00     0.188 C 
BRANCH  28  29
ATOM     29  O   UNL A   1      42.359  21.172  27.706  1.00  0.00    -0.376 OA
BRANCH  29  30
ATOM     30  C   UNL A   1      42.025  19.931  27.104  1.00  0.00     0.202 C 
BRANCH  30  31
ATOM     31  C   UNL A   1      42.687  19.560  25.759  1.00  0.00     0.261 C 
BRANCH  31  32
ATOM     32  O   UNL A   1      43.323  20.649  25.049  1.00  0.00    -0.460 OA
BRANCH  32  33
ATOM     33  C   UNL A   1      44.676  20.588  24.907  1.00  0.00     0.338 C 
ATOM     34  O   UNL A   1      45.304  19.688  24.360  1.00  0.00    -0.246 OA
BRANCH  33  35
ATOM     35  C   UNL A   1      45.307  21.887  25.270  1.00  0.00     0.060 A 
ATOM     36  C   UNL A   1      45.423  22.236  26.630  1.00  0.00     0.016 A 
ATOM     37  C   UNL A   1      45.806  22.751  24.294  1.00  0.00     0.016 A 
ATOM     38  C   UNL A   1      46.003  23.453  27.011  1.00  0.00     0.010 A 
ATOM     39  C   UNL A   1      46.353  23.984  24.677  1.00  0.00     0.010 A 
ATOM     40  C   UNL A   1      46.428  24.360  26.033  1.00  0.00    -0.014 A 
BRANCH  40  41
ATOM     41  C   UNL A   1      46.732  25.775  26.388  1.00  0.00     0.031 A 
ATOM     42  C   UNL A   1      45.581  26.665  26.788  1.00  0.00     0.074 A 
ATOM     43  C   UNL A   1      47.977  26.286  26.343  1.00  0.00     0.049 A 
ATOM     44  N   UNL A   1      45.563  27.952  27.023  1.00  0.00    -0.248 NA
ATOM     45  C   UNL A   1      44.272  26.007  26.937  1.00  0.00     0.031 C 
ATOM     46  C   UNL A   1      49.194  25.538  26.037  1.00  0.00     0.029 A 
ATOM     47  N   UNL A   1      48.418  27.575  26.541  1.00  0.00    -0.354 N 
ATOM     48  C   UNL A   1      44.242  28.262  27.325  1.00  0.00     0.074 A 
ATOM     49  C   UNL A   1      43.485  27.034  27.223  1.00  0.00     0.031 C 
ATOM     50  C   UNL A   1      50.241  26.386  26.046  1.00  0.00     0.029 A 
ATOM     51  C   UNL A   1      49.766  27.743  26.318  1.00  0.00     0.049 A 
ATOM     52  H   UNL A   1      47.823  28.309  26.817  1.00  0.00     0.167 HD
ATOM     53  C   UNL A   1      43.701  29.459  27.657  1.00  0.00     0.031 A 
ATOM     54  C   UNL A   1      50.522  28.861  26.304  1.00  0.00     0.031 A 
ATOM     55  C   UNL A   1      44.445  30.688  27.741  1.00  0.00     0.049 A 
ATOM     56  C   UNL A   1      49.882  30.201  26.585  1.00  0.00     0.074 A 
ATOM     57  C   UNL A   1      43.984  31.948  28.082  1.00  0.00     0.029 A 
ATOM     58  N   UNL A   1      45.799  30.817  27.474  1.00  0.00    -0.354 N 
ATOM     59  N   UNL A   1      48.635  30.477  26.885  1.00  0.00    -0.248 NA
ATOM     60  C   UNL A   1      50.758  31.383  26.527  1.00  0.00     0.031 C 
ATOM     61  C   UNL A   1      45.045  32.850  27.954  1.00  0.00     0.029 A 
ATOM     62  C   UNL A   1      46.184  32.141  27.608  1.00  0.00     0.049 A 
ATOM     63  H   UNL A   1      46.399  30.078  27.225  1.00  0.00     0.167 HD
ATOM     64  C   UNL A   1      48.586  31.855  27.084  1.00  0.00     0.074 A 
ATOM     65  C   UNL A   1      49.929  32.355  26.884  1.00  0.00     0.031 C 
ATOM     66  C   UNL A   1      47.523  32.635  27.409  1.00  0.00     0.031 A 
BRANCH  53  67
ATOM     67  C   UNL A   1      42.217  29.505  27.910  1.00  0.00    -0.014 A 
ATOM     68  C   UNL A   1      41.290  29.278  26.876  1.00  0.00     0.010 A 
ATOM     69  C   UNL A   1      41.742  29.746  29.213  1.00  0.00     0.010 A 
ATOM     70  C   UNL A   1      39.918  29.333  27.133  1.00  0.00     0.020 A 
ATOM     71  C   UNL A   1      40.371  29.769  29.480  1.00  0.00     0.020 A 
ATOM     72  C   UNL A   1      39.467  29.579  28.434  1.00  0.00     0.054 A 
BRANCH  72  73
ATOM     73  S   UNL A   1      37.680  29.624  28.740  1.00  0.00     0.124 S 
ATOM     74  O   UNL A   1      37.627  29.844  30.184  1.00  0.00    -0.237 OA
ATOM     75  O   UNL A   1      37.243  30.749  27.917  1.00  0.00    -0.237 OA
ATOM     76  O   UNL A   1      37.217  28.312  28.293  1.00  0.00    -0.744 OA
ENDBRANCH  72  73
ENDBRANCH  53  67
BRANCH  54  77
ATOM     77  C   UNL A   1      51.977  28.778  25.981  1.00  0.00    -0.014 A 
ATOM     78  C   UNL A   1      52.933  28.613  27.000  1.00  0.00     0.010 A 
ATOM     79  C   UNL A   1      52.419  28.889  24.649  1.00  0.00     0.010 A 
ATOM     80  C   UNL A   1      54.298  28.575  26.696  1.00  0.00     0.020 A 
ATOM     81  C   UNL A   1      53.780  28.819  24.337  1.00  0.00     0.020 A 
ATOM     82  C   UNL A   1      54.713  28.673  25.365  1.00  0.00     0.054 A 
BRANCH  82  83
ATOM     83  S   UNL A   1      56.486  28.567  24.990  1.00  0.00     0.124 S 
ATOM     84  O   UNL A   1      56.989  29.822  25.539  1.00  0.00    -0.237 OA
ATOM     85  O   UNL A   1      56.887  27.357  25.704  1.00  0.00    -0.237 OA
ATOM     86  O   UNL A   1      56.522  28.463  23.532  1.00  0.00    -0.744 OA
ENDBRANCH  82  83
ENDBRANCH  54  77
BRANCH  66  87
ATOM     87  C   UNL A   1      47.765  34.111  27.612  1.00  0.00    -0.014 A 
ATOM     88  C   UNL A   1      47.666  35.026  26.549  1.00  0.00     0.010 A 
ATOM     89  C   UNL A   1      48.031  34.597  28.907  1.00  0.00     0.010 A 
ATOM     90  C   UNL A   1      47.862  36.394  26.772  1.00  0.00     0.020 A 
ATOM     91  C   UNL A   1      48.195  35.966  29.138  1.00  0.00     0.020 A 
ATOM     92  C   UNL A   1      48.123  36.856  28.066  1.00  0.00     0.054 A 
BRANCH  92  93
ATOM     93  S   UNL A   1      48.328  38.638  28.334  1.00  0.00     0.124 S 
ATOM     94  O   UNL A   1      49.709  38.720  28.800  1.00  0.00    -0.237 OA
ATOM     95  O   UNL A   1      48.079  39.192  27.005  1.00  0.00    -0.237 OA
ATOM     96  O   UNL A   1      47.312  38.958  29.335  1.00  0.00    -0.744 OA
ENDBRANCH  92  93
ENDBRANCH  66  87
ENDBRANCH  40  41
ENDBRANCH  33  35
ENDBRANCH  32  33
ENDBRANCH  31  32
ENDBRANCH  30  31
ENDBRANCH  29  30
ENDBRANCH  28  29
ENDBRANCH   1  28
TORSDOF 25
ENDMDL
