MODEL 1
REMARK VINA RESULT:     -10.1      0.000      0.000
REMARK SMILES CCc1ccccc1NC(=O)c1cc(S(=O)(=O)N2CCC[C@H](C(=O)OCCOCCOCCOC(=O)c3ccc(-c4c5nc(c(-c6ccc(S(=O)(=O)[O-])cc6)c6ccc([nH]6)c(-c6ccc(S(=O)(=O)[O-])cc6)c6nc(c(-c7ccc(S(=O)(=O)[O-])cc7)c7ccc4[nH]7)C=C6)C=C5)cc3)C2)ccc1F
REMARK SMILES IDX 29 1 28 2 27 3 26 4 25 5 23 6 24 7 22 8 18 9 19 10 97 11
REMARK SMILES IDX 20 12 21 13 15 14 16 15 17 16 14 17 12 18 13 19 100 20 99 21
REMARK SMILES IDX 101 22 98 23 10 24 9 25 11 27 8 28 3 29 4 30 5 31 7 32 6 33
REMARK SMILES IDX 2 34 1 35 30 36 31 37 32 38 33 39 34 40 35 41 36 42 37 43
REMARK SMILES IDX 38 44 96 45 39 46 95 47 40 48 41 49 42 50 89 51 43 52 94 53
REMARK SMILES IDX 88 54 90 55 44 56 93 57 87 58 86 59 45 61 75 62 56 63 74 64
REMARK SMILES IDX 57 65 60 66 73 67 91 68 58 69 59 70 72 72 92 73 61 74 46 75
REMARK SMILES IDX 47 76 55 77 48 78 54 79 49 80 50 81 51 82 52 83 53 84 76 85
REMARK SMILES IDX 77 86 85 87 78 88 84 89 79 90 80 91 81 92 82 93 83 94 62 95
REMARK SMILES IDX 63 96 71 97 64 98 70 99 65 100 66 101 67 102 68 103 69 104
REMARK H PARENT 9 26 90 60 60 71
REMARK Flexibility Score: inf
ROOT
ATOM      1  C   UNL A   1      38.076  22.097  25.593  1.00  0.00     0.188 C 
ENDROOT
BRANCH   1   2
ATOM      2  O   UNL A   1      36.831  21.445  25.810  1.00  0.00    -0.376 OA
BRANCH   2   3
ATOM      3  C   UNL A   1      36.583  20.236  25.093  1.00  0.00     0.202 C 
BRANCH   3   4
ATOM      4  C   UNL A   1      35.124  19.920  24.747  1.00  0.00     0.261 C 
BRANCH   4   5
ATOM      5  O   UNL A   1      34.174  20.539  25.631  1.00  0.00    -0.463 OA
BRANCH   5   6
ATOM      6  C   UNL A   1      32.875  20.344  25.304  1.00  0.00     0.310 C 
ATOM      7  O   UNL A   1      32.336  19.247  25.195  1.00  0.00    -0.252 OA
BRANCH   6   8
ATOM      8  C   UNL A   1      32.089  21.618  25.108  1.00  0.00     0.114 C 
ATOM      9  N   UNL A   1      33.856  23.380  25.320  1.00  0.00    -0.197 NA
ATOM     10  C   UNL A   1      33.225  23.967  26.522  1.00  0.00     0.102 C 
ATOM     11  C   UNL A   1      33.008  22.586  24.390  1.00  0.00     0.117 C 
ATOM     12  C   UNL A   1      32.334  22.970  27.243  1.00  0.00     0.018 C 
ATOM     13  C   UNL A   1      31.379  22.266  26.296  1.00  0.00     0.018 C 
BRANCH   9  14
ATOM     14  S   UNL A   1      35.082  24.304  24.585  1.00  0.00     0.243 S 
ATOM     15  O   UNL A   1      35.667  23.497  23.539  1.00  0.00    -0.207 OA
ATOM     16  O   UNL A   1      35.896  24.899  25.626  1.00  0.00    -0.207 OA
BRANCH  14  17
ATOM     17  C   UNL A   1      34.267  25.658  23.761  1.00  0.00     0.083 A 
ATOM     18  C   UNL A   1      33.445  27.907  23.920  1.00  0.00     0.077 A 
ATOM     19  C   UNL A   1      34.071  26.813  24.519  1.00  0.00     0.038 A 
ATOM     20  C   UNL A   1      33.171  27.921  22.553  1.00  0.00     0.136 A 
ATOM     21  C   UNL A   1      33.350  26.768  21.804  1.00  0.00     0.041 A 
ATOM     22  F   UNL A   1      32.632  28.997  21.964  1.00  0.00    -0.206 F 
ATOM     23  C   UNL A   1      33.842  25.618  22.425  1.00  0.00     0.025 A 
BRANCH  18  24
ATOM     24  C   UNL A   1      32.919  28.957  24.793  1.00  0.00     0.258 C 
ATOM     25  N   UNL A   1      31.572  29.020  25.080  1.00  0.00    -0.322 N 
ATOM     26  H   UNL A   1      31.308  29.818  25.592  1.00  0.00     0.170 HD
ATOM     27  O   UNL A   1      33.702  29.780  25.263  1.00  0.00    -0.269 OA
BRANCH  25  28
ATOM     28  C   UNL A   1      30.495  28.148  24.773  1.00  0.00     0.044 A 
ATOM     29  C   UNL A   1      29.502  28.582  23.868  1.00  0.00    -0.025 A 
ATOM     30  C   UNL A   1      28.583  27.633  23.375  1.00  0.00     0.006 A 
ATOM     31  C   UNL A   1      28.574  26.318  23.837  1.00  0.00     0.000 A 
ATOM     32  C   UNL A   1      30.383  26.861  25.320  1.00  0.00     0.026 A 
ATOM     33  C   UNL A   1      29.450  25.942  24.840  1.00  0.00     0.002 A 
BRANCH  29  34
ATOM     34  C   UNL A   1      29.457  30.020  23.389  1.00  0.00     0.034 C 
ATOM     35  C   UNL A   1      29.509  30.230  21.880  1.00  0.00     0.009 C 
ENDBRANCH  29  34
ENDBRANCH  25  28
ENDBRANCH  18  24
ENDBRANCH  14  17
ENDBRANCH   9  14
ENDBRANCH   6   8
ENDBRANCH   5   6
ENDBRANCH   4   5
ENDBRANCH   3   4
ENDBRANCH   2   3
ENDBRANCH   1   2
BRANCH   1  36
ATOM     36  C   UNL A   1      39.320  21.388  26.132  1.00  0.00     0.188 C 
BRANCH  36  37
ATOM     37  O   UNL A   1      39.781  21.882  27.384  1.00  0.00    -0.376 OA
BRANCH  37  38
ATOM     38  C   UNL A   1      41.169  21.683  27.669  1.00  0.00     0.202 C 
BRANCH  38  39
ATOM     39  C   UNL A   1      42.151  22.484  26.791  1.00  0.00     0.261 C 
BRANCH  39  40
ATOM     40  O   UNL A   1      41.808  23.878  26.657  1.00  0.00    -0.460 OA
BRANCH  40  41
ATOM     41  C   UNL A   1      42.808  24.772  26.839  1.00  0.00     0.338 C 
ATOM     42  O   UNL A   1      43.806  24.889  26.148  1.00  0.00    -0.246 OA
BRANCH  41  43
ATOM     43  C   UNL A   1      42.365  25.770  27.846  1.00  0.00     0.060 A 
ATOM     44  C   UNL A   1      43.194  26.875  28.086  1.00  0.00     0.016 A 
ATOM     45  C   UNL A   1      41.129  25.672  28.493  1.00  0.00     0.016 A 
ATOM     46  C   UNL A   1      42.814  27.853  29.008  1.00  0.00     0.010 A 
ATOM     47  C   UNL A   1      40.753  26.647  29.422  1.00  0.00     0.010 A 
ATOM     48  C   UNL A   1      41.609  27.722  29.711  1.00  0.00    -0.014 A 
BRANCH  48  49
ATOM     49  C   UNL A   1      41.353  28.564  30.906  1.00  0.00     0.031 A 
ATOM     50  C   UNL A   1      40.237  29.574  30.827  1.00  0.00     0.074 A 
ATOM     51  C   UNL A   1      42.065  28.439  32.041  1.00  0.00     0.049 A 
ATOM     52  N   UNL A   1      39.847  30.451  31.713  1.00  0.00    -0.248 NA
ATOM     53  C   UNL A   1      39.454  29.588  29.578  1.00  0.00     0.031 C 
ATOM     54  C   UNL A   1      43.138  27.474  32.274  1.00  0.00     0.029 A 
ATOM     55  N   UNL A   1      41.987  29.145  33.218  1.00  0.00    -0.354 N 
ATOM     56  C   UNL A   1      38.775  31.118  31.134  1.00  0.00     0.074 A 
ATOM     57  C   UNL A   1      38.592  30.566  29.810  1.00  0.00     0.031 C 
ATOM     58  C   UNL A   1      43.622  27.654  33.518  1.00  0.00     0.029 A 
ATOM     59  C   UNL A   1      42.917  28.765  34.156  1.00  0.00     0.049 A 
ATOM     60  H   UNL A   1      41.325  29.857  33.374  1.00  0.00     0.167 HD
ATOM     61  C   UNL A   1      38.000  32.097  31.656  1.00  0.00     0.031 A 
ATOM     62  C   UNL A   1      43.180  29.270  35.379  1.00  0.00     0.031 A 
ATOM     63  C   UNL A   1      38.186  32.672  32.957  1.00  0.00     0.049 A 
ATOM     64  C   UNL A   1      42.368  30.434  35.898  1.00  0.00     0.074 A 
ATOM     65  C   UNL A   1      37.463  33.686  33.560  1.00  0.00     0.029 A 
ATOM     66  N   UNL A   1      39.167  32.288  33.857  1.00  0.00    -0.354 N 
ATOM     67  N   UNL A   1      41.352  31.048  35.338  1.00  0.00    -0.248 NA
ATOM     68  C   UNL A   1      42.740  30.969  37.217  1.00  0.00     0.031 C 
ATOM     69  C   UNL A   1      38.033  33.944  34.812  1.00  0.00     0.029 A 
ATOM     70  C   UNL A   1      39.078  33.055  35.005  1.00  0.00     0.049 A 
ATOM     71  H   UNL A   1      39.829  31.576  33.702  1.00  0.00     0.167 HD
ATOM     72  C   UNL A   1      40.946  32.017  36.254  1.00  0.00     0.074 A 
ATOM     73  C   UNL A   1      41.816  31.902  37.403  1.00  0.00     0.031 C 
ATOM     74  C   UNL A   1      39.939  32.919  36.150  1.00  0.00     0.031 A 
BRANCH  61  75
ATOM     75  C   UNL A   1      36.884  32.621  30.798  1.00  0.00    -0.014 A 
ATOM     76  C   UNL A   1      37.087  33.724  29.950  1.00  0.00     0.010 A 
ATOM     77  C   UNL A   1      35.631  31.982  30.812  1.00  0.00     0.010 A 
ATOM     78  C   UNL A   1      36.047  34.195  29.147  1.00  0.00     0.020 A 
ATOM     79  C   UNL A   1      34.595  32.438  29.993  1.00  0.00     0.020 A 
ATOM     80  C   UNL A   1      34.807  33.550  29.175  1.00  0.00     0.054 A 
BRANCH  80  81
ATOM     81  S   UNL A   1      33.485  34.164  28.097  1.00  0.00     0.124 S 
ATOM     82  O   UNL A   1      34.241  34.866  27.064  1.00  0.00    -0.237 OA
ATOM     83  O   UNL A   1      32.827  32.933  27.665  1.00  0.00    -0.237 OA
ATOM     84  O   UNL A   1      32.689  35.017  28.976  1.00  0.00    -0.744 OA
ENDBRANCH  80  81
ENDBRANCH  61  75
BRANCH  62  85
ATOM     85  C   UNL A   1      44.286  28.714  36.208  1.00  0.00    -0.014 A 
ATOM     86  C   UNL A   1      45.599  29.202  36.072  1.00  0.00     0.010 A 
ATOM     87  C   UNL A   1      44.042  27.646  37.089  1.00  0.00     0.010 A 
ATOM     88  C   UNL A   1      46.652  28.607  36.772  1.00  0.00     0.020 A 
ATOM     89  C   UNL A   1      45.090  27.065  37.811  1.00  0.00     0.020 A 
ATOM     90  C   UNL A   1      46.392  27.536  37.631  1.00  0.00     0.054 A 
BRANCH  90  91
ATOM     91  S   UNL A   1      47.771  26.776  38.533  1.00  0.00     0.124 S 
ATOM     92  O   UNL A   1      47.743  25.406  38.029  1.00  0.00    -0.237 OA
ATOM     93  O   UNL A   1      48.912  27.583  38.109  1.00  0.00    -0.237 OA
ATOM     94  O   UNL A   1      47.389  26.937  39.934  1.00  0.00    -0.744 OA
ENDBRANCH  90  91
ENDBRANCH  62  85
BRANCH  74  95
ATOM     95  C   UNL A   1      39.682  33.823  37.326  1.00  0.00    -0.014 A 
ATOM     96  C   UNL A   1      38.882  33.409  38.405  1.00  0.00     0.010 A 
ATOM     97  C   UNL A   1      40.311  35.080  37.382  1.00  0.00     0.010 A 
ATOM     98  C   UNL A   1      38.698  34.247  39.510  1.00  0.00     0.020 A 
ATOM     99  C   UNL A   1      40.150  35.910  38.494  1.00  0.00     0.020 A 
ATOM    100  C   UNL A   1      39.333  35.494  39.546  1.00  0.00     0.054 A 
BRANCH 100 101
ATOM    101  S   UNL A   1      39.124  36.541  41.013  1.00  0.00     0.124 S 
ATOM    102  O   UNL A   1      38.078  35.833  41.745  1.00  0.00    -0.237 OA
ATOM    103  O   UNL A   1      40.450  36.510  41.624  1.00  0.00    -0.237 OA
ATOM    104  O   UNL A   1      38.730  37.835  40.459  1.00  0.00    -0.744 OA
ENDBRANCH 100 101
ENDBRANCH  74  95
ENDBRANCH  48  49
ENDBRANCH  41  43
ENDBRANCH  40  41
ENDBRANCH  39  40
ENDBRANCH  38  39
ENDBRANCH  37  38
ENDBRANCH  36  37
ENDBRANCH   1  36
TORSDOF 25
ENDMDL
MODEL 2
REMARK VINA RESULT:      -9.8      1.490      2.281
REMARK SMILES CCc1ccccc1NC(=O)c1cc(S(=O)(=O)N2CCC[C@H](C(=O)OCCOCCOCCOC(=O)c3ccc(-c4c5nc(c(-c6ccc(S(=O)(=O)[O-])cc6)c6ccc([nH]6)c(-c6ccc(S(=O)(=O)[O-])cc6)c6nc(c(-c7ccc(S(=O)(=O)[O-])cc7)c7ccc4[nH]7)C=C6)C=C5)cc3)C2)ccc1F
REMARK SMILES IDX 29 1 28 2 27 3 26 4 25 5 23 6 24 7 22 8 18 9 19 10 97 11
REMARK SMILES IDX 20 12 21 13 15 14 16 15 17 16 14 17 12 18 13 19 100 20 99 21
REMARK SMILES IDX 101 22 98 23 10 24 9 25 11 27 8 28 3 29 4 30 5 31 7 32 6 33
REMARK SMILES IDX 2 34 1 35 30 36 31 37 32 38 33 39 34 40 35 41 36 42 37 43
REMARK SMILES IDX 38 44 96 45 39 46 95 47 40 48 41 49 42 50 89 51 43 52 94 53
REMARK SMILES IDX 88 54 90 55 44 56 93 57 87 58 86 59 45 61 75 62 56 63 74 64
REMARK SMILES IDX 57 65 60 66 73 67 91 68 58 69 59 70 72 72 92 73 61 74 46 75
REMARK SMILES IDX 47 76 55 77 48 78 54 79 49 80 50 81 51 82 52 83 53 84 76 85
REMARK SMILES IDX 77 86 85 87 78 88 84 89 79 90 80 91 81 92 82 93 83 94 62 95
REMARK SMILES IDX 63 96 71 97 64 98 70 99 65 100 66 101 67 102 68 103 69 104
REMARK H PARENT 9 26 90 60 60 71
REMARK Flexibility Score: inf
ROOT
ATOM      1  C   UNL A   1      37.021  21.962  24.985  1.00  0.00     0.188 C 
ENDROOT
BRANCH   1   2
ATOM      2  O   UNL A   1      36.950  22.435  23.645  1.00  0.00    -0.376 OA
BRANCH   2   3
ATOM      3  C   UNL A   1      35.668  22.812  23.143  1.00  0.00     0.202 C 
BRANCH   3   4
ATOM      4  C   UNL A   1      35.089  24.140  23.641  1.00  0.00     0.261 C 
BRANCH   4   5
ATOM      5  O   UNL A   1      33.738  24.378  23.211  1.00  0.00    -0.463 OA
BRANCH   5   6
ATOM      6  C   UNL A   1      33.259  23.491  22.309  1.00  0.00     0.310 C 
ATOM      7  O   UNL A   1      33.714  23.320  21.181  1.00  0.00    -0.252 OA
BRANCH   6   8
ATOM      8  C   UNL A   1      32.102  22.661  22.812  1.00  0.00     0.114 C 
ATOM      9  N   UNL A   1      31.875  23.433  25.183  1.00  0.00    -0.197 NA
ATOM     10  C   UNL A   1      32.197  22.096  25.723  1.00  0.00     0.102 C 
ATOM     11  C   UNL A   1      31.345  23.529  23.796  1.00  0.00     0.117 C 
ATOM     12  C   UNL A   1      32.983  21.255  24.733  1.00  0.00     0.018 C 
ATOM     13  C   UNL A   1      32.350  21.254  23.352  1.00  0.00     0.018 C 
BRANCH   9  14
ATOM     14  S   UNL A   1      31.240  24.561  26.290  1.00  0.00     0.243 S 
ATOM     15  O   UNL A   1      31.746  24.218  27.599  1.00  0.00    -0.207 OA
ATOM     16  O   UNL A   1      29.820  24.701  26.040  1.00  0.00    -0.207 OA
BRANCH  14  17
ATOM     17  C   UNL A   1      31.971  26.135  25.879  1.00  0.00     0.083 A 
ATOM     18  C   UNL A   1      32.071  27.962  24.328  1.00  0.00     0.077 A 
ATOM     19  C   UNL A   1      31.538  26.726  24.693  1.00  0.00     0.038 A 
ATOM     20  C   UNL A   1      32.889  28.680  25.201  1.00  0.00     0.136 A 
ATOM     21  C   UNL A   1      33.333  28.085  26.372  1.00  0.00     0.041 A 
ATOM     22  F   UNL A   1      33.346  29.897  24.880  1.00  0.00    -0.206 F 
ATOM     23  C   UNL A   1      32.921  26.787  26.680  1.00  0.00     0.025 A 
BRANCH  18  24
ATOM     24  C   UNL A   1      31.901  28.399  22.943  1.00  0.00     0.258 C 
ATOM     25  N   UNL A   1      30.642  28.494  22.388  1.00  0.00    -0.322 N 
ATOM     26  H   UNL A   1      30.642  28.698  21.425  1.00  0.00     0.170 HD
ATOM     27  O   UNL A   1      32.900  28.678  22.284  1.00  0.00    -0.269 OA
BRANCH  25  28
ATOM     28  C   UNL A   1      29.345  28.350  22.947  1.00  0.00     0.044 A 
ATOM     29  C   UNL A   1      28.505  29.481  23.021  1.00  0.00    -0.025 A 
ATOM     30  C   UNL A   1      27.144  29.286  23.337  1.00  0.00     0.006 A 
ATOM     31  C   UNL A   1      26.647  28.028  23.675  1.00  0.00     0.000 A 
ATOM     32  C   UNL A   1      28.855  27.123  23.418  1.00  0.00     0.026 A 
ATOM     33  C   UNL A   1      27.512  26.951  23.754  1.00  0.00     0.002 A 
BRANCH  29  34
ATOM     34  C   UNL A   1      29.032  30.868  22.709  1.00  0.00     0.034 C 
ATOM     35  C   UNL A   1      28.861  31.347  21.272  1.00  0.00     0.009 C 
ENDBRANCH  29  34
ENDBRANCH  25  28
ENDBRANCH  18  24
ENDBRANCH  14  17
ENDBRANCH   9  14
ENDBRANCH   6   8
ENDBRANCH   5   6
ENDBRANCH   4   5
ENDBRANCH   3   4
ENDBRANCH   2   3
ENDBRANCH   1   2
BRANCH   1  36
ATOM     36  C   UNL A   1      38.063  22.625  25.887  1.00  0.00     0.188 C 
BRANCH  36  37
ATOM     37  O   UNL A   1      39.111  21.760  26.309  1.00  0.00    -0.376 OA
BRANCH  37  38
ATOM     38  C   UNL A   1      40.441  22.174  25.986  1.00  0.00     0.202 C 
BRANCH  38  39
ATOM     39  C   UNL A   1      40.962  23.405  26.756  1.00  0.00     0.261 C 
BRANCH  39  40
ATOM     40  O   UNL A   1      40.433  24.658  26.276  1.00  0.00    -0.460 OA
BRANCH  40  41
ATOM     41  C   UNL A   1      41.306  25.686  26.166  1.00  0.00     0.338 C 
ATOM     42  O   UNL A   1      41.801  26.105  25.133  1.00  0.00    -0.246 OA
BRANCH  41  43
ATOM     43  C   UNL A   1      41.352  26.402  27.467  1.00  0.00     0.060 A 
ATOM     44  C   UNL A   1      40.380  26.085  28.427  1.00  0.00     0.016 A 
ATOM     45  C   UNL A   1      42.367  27.312  27.777  1.00  0.00     0.016 A 
ATOM     46  C   UNL A   1      40.390  26.713  29.673  1.00  0.00     0.010 A 
ATOM     47  C   UNL A   1      42.372  27.948  29.023  1.00  0.00     0.010 A 
ATOM     48  C   UNL A   1      41.363  27.680  29.962  1.00  0.00    -0.014 A 
BRANCH  48  49
ATOM     49  C   UNL A   1      41.194  28.573  31.135  1.00  0.00     0.031 A 
ATOM     50  C   UNL A   1      40.123  29.631  31.063  1.00  0.00     0.074 A 
ATOM     51  C   UNL A   1      41.945  28.454  32.245  1.00  0.00     0.049 A 
ATOM     52  N   UNL A   1      39.810  30.556  31.932  1.00  0.00    -0.248 NA
ATOM     53  C   UNL A   1      39.291  29.640  29.847  1.00  0.00     0.031 C 
ATOM     54  C   UNL A   1      42.981  27.447  32.471  1.00  0.00     0.029 A 
ATOM     55  N   UNL A   1      41.947  29.201  33.398  1.00  0.00    -0.354 N 
ATOM     56  C   UNL A   1      38.747  31.252  31.372  1.00  0.00     0.074 A 
ATOM     57  C   UNL A   1      38.485  30.665  30.077  1.00  0.00     0.031 C 
ATOM     58  C   UNL A   1      43.524  27.646  33.687  1.00  0.00     0.029 A 
ATOM     59  C   UNL A   1      42.897  28.810  34.313  1.00  0.00     0.049 A 
ATOM     60  H   UNL A   1      41.325  29.949  33.555  1.00  0.00     0.167 HD
ATOM     61  C   UNL A   1      38.039  32.283  31.888  1.00  0.00     0.031 A 
ATOM     62  C   UNL A   1      43.232  29.344  35.506  1.00  0.00     0.031 A 
ATOM     63  C   UNL A   1      38.305  32.893  33.160  1.00  0.00     0.049 A 
ATOM     64  C   UNL A   1      42.495  30.561  36.014  1.00  0.00     0.074 A 
ATOM     65  C   UNL A   1      37.654  33.960  33.754  1.00  0.00     0.029 A 
ATOM     66  N   UNL A   1      39.302  32.493  34.034  1.00  0.00    -0.354 N 
ATOM     67  N   UNL A   1      41.486  31.203  35.473  1.00  0.00    -0.248 NA
ATOM     68  C   UNL A   1      42.944  31.122  37.298  1.00  0.00     0.031 C 
ATOM     69  C   UNL A   1      38.285  34.232  34.972  1.00  0.00     0.029 A 
ATOM     70  C   UNL A   1      39.295  33.302  35.157  1.00  0.00     0.049 A 
ATOM     71  H   UNL A   1      39.924  31.746  33.879  1.00  0.00     0.167 HD
ATOM     72  C   UNL A   1      41.162  32.220  36.368  1.00  0.00     0.074 A 
ATOM     73  C   UNL A   1      42.073  32.104  37.486  1.00  0.00     0.031 C 
ATOM     74  C   UNL A   1      40.194  33.165  36.271  1.00  0.00     0.031 A 
BRANCH  61  75
ATOM     75  C   UNL A   1      36.915  32.830  31.056  1.00  0.00    -0.014 A 
ATOM     76  C   UNL A   1      35.594  32.389  31.256  1.00  0.00     0.010 A 
ATOM     77  C   UNL A   1      37.174  33.819  30.092  1.00  0.00     0.010 A 
ATOM     78  C   UNL A   1      34.554  32.912  30.487  1.00  0.00     0.020 A 
ATOM     79  C   UNL A   1      36.131  34.361  29.335  1.00  0.00     0.020 A 
ATOM     80  C   UNL A   1      34.830  33.895  29.530  1.00  0.00     0.054 A 
BRANCH  80  81
ATOM     81  S   UNL A   1      33.454  34.580  28.568  1.00  0.00     0.124 S 
ATOM     82  O   UNL A   1      32.517  34.969  29.619  1.00  0.00    -0.237 OA
ATOM     83  O   UNL A   1      34.085  35.685  27.850  1.00  0.00    -0.237 OA
ATOM     84  O   UNL A   1      33.024  33.462  27.733  1.00  0.00    -0.744 OA
ENDBRANCH  80  81
ENDBRANCH  61  75
BRANCH  62  85
ATOM     85  C   UNL A   1      44.344  28.765  36.310  1.00  0.00    -0.014 A 
ATOM     86  C   UNL A   1      45.666  29.209  36.129  1.00  0.00     0.010 A 
ATOM     87  C   UNL A   1      44.093  27.717  37.214  1.00  0.00     0.010 A 
ATOM     88  C   UNL A   1      46.721  28.590  36.806  1.00  0.00     0.020 A 
ATOM     89  C   UNL A   1      45.143  27.113  37.913  1.00  0.00     0.020 A 
ATOM     90  C   UNL A   1      46.453  27.540  37.688  1.00  0.00     0.054 A 
BRANCH  90  91
ATOM     91  S   UNL A   1      47.834  26.750  38.562  1.00  0.00     0.124 S 
ATOM     92  O   UNL A   1      47.798  27.424  39.856  1.00  0.00    -0.237 OA
ATOM     93  O   UNL A   1      47.442  25.343  38.569  1.00  0.00    -0.237 OA
ATOM     94  O   UNL A   1      48.989  27.063  37.723  1.00  0.00    -0.744 OA
ENDBRANCH  90  91
ENDBRANCH  62  85
BRANCH  74  95
ATOM     95  C   UNL A   1      40.027  34.120  37.423  1.00  0.00    -0.014 A 
ATOM     96  C   UNL A   1      40.730  35.336  37.472  1.00  0.00     0.010 A 
ATOM     97  C   UNL A   1      39.095  33.825  38.436  1.00  0.00     0.010 A 
ATOM     98  C   UNL A   1      40.521  36.230  38.528  1.00  0.00     0.020 A 
ATOM     99  C   UNL A   1      38.866  34.726  39.478  1.00  0.00     0.020 A 
ATOM    100  C   UNL A   1      39.590  35.918  39.525  1.00  0.00     0.054 A 
BRANCH 100 101
ATOM    101  S   UNL A   1      39.296  37.117  40.854  1.00  0.00     0.124 S 
ATOM    102  O   UNL A   1      38.612  36.301  41.854  1.00  0.00    -0.237 OA
ATOM    103  O   UNL A   1      40.647  37.545  41.209  1.00  0.00    -0.237 OA
ATOM    104  O   UNL A   1      38.472  38.143  40.218  1.00  0.00    -0.744 OA
ENDBRANCH 100 101
ENDBRANCH  74  95
ENDBRANCH  48  49
ENDBRANCH  41  43
ENDBRANCH  40  41
ENDBRANCH  39  40
ENDBRANCH  38  39
ENDBRANCH  37  38
ENDBRANCH  36  37
ENDBRANCH   1  36
TORSDOF 25
ENDMDL
MODEL 3
REMARK VINA RESULT:      -9.2      1.930      7.725
REMARK SMILES CCc1ccccc1NC(=O)c1cc(S(=O)(=O)N2CCC[C@H](C(=O)OCCOCCOCCOC(=O)c3ccc(-c4c5nc(c(-c6ccc(S(=O)(=O)[O-])cc6)c6ccc([nH]6)c(-c6ccc(S(=O)(=O)[O-])cc6)c6nc(c(-c7ccc(S(=O)(=O)[O-])cc7)c7ccc4[nH]7)C=C6)C=C5)cc3)C2)ccc1F
REMARK SMILES IDX 29 1 28 2 27 3 26 4 25 5 23 6 24 7 22 8 18 9 19 10 97 11
REMARK SMILES IDX 20 12 21 13 15 14 16 15 17 16 14 17 12 18 13 19 100 20 99 21
REMARK SMILES IDX 101 22 98 23 10 24 9 25 11 27 8 28 3 29 4 30 5 31 7 32 6 33
REMARK SMILES IDX 2 34 1 35 30 36 31 37 32 38 33 39 34 40 35 41 36 42 37 43
REMARK SMILES IDX 38 44 96 45 39 46 95 47 40 48 41 49 42 50 89 51 43 52 94 53
REMARK SMILES IDX 88 54 90 55 44 56 93 57 87 58 86 59 45 61 75 62 56 63 74 64
REMARK SMILES IDX 57 65 60 66 73 67 91 68 58 69 59 70 72 72 92 73 61 74 46 75
REMARK SMILES IDX 47 76 55 77 48 78 54 79 49 80 50 81 51 82 52 83 53 84 76 85
REMARK SMILES IDX 77 86 85 87 78 88 84 89 79 90 80 91 81 92 82 93 83 94 62 95
REMARK SMILES IDX 63 96 71 97 64 98 70 99 65 100 66 101 67 102 68 103 69 104
REMARK H PARENT 9 26 90 60 60 71
REMARK Flexibility Score: inf
ROOT
ATOM      1  C   UNL A   1      38.730  21.905  25.822  1.00  0.00     0.188 C 
ENDROOT
BRANCH   1   2
ATOM      2  O   UNL A   1      37.537  21.133  25.750  1.00  0.00    -0.376 OA
BRANCH   2   3
ATOM      3  C   UNL A   1      37.446  20.148  24.720  1.00  0.00     0.202 C 
BRANCH   3   4
ATOM      4  C   UNL A   1      36.412  19.034  24.913  1.00  0.00     0.261 C 
BRANCH   4   5
ATOM      5  O   UNL A   1      35.207  19.228  24.154  1.00  0.00    -0.463 OA
BRANCH   5   6
ATOM      6  C   UNL A   1      34.247  18.295  24.355  1.00  0.00     0.310 C 
ATOM      7  O   UNL A   1      34.375  17.095  24.129  1.00  0.00    -0.252 OA
BRANCH   6   8
ATOM      8  C   UNL A   1      32.965  18.842  24.934  1.00  0.00     0.114 C 
ATOM      9  N   UNL A   1      33.212  21.306  24.559  1.00  0.00    -0.197 NA
ATOM     10  C   UNL A   1      33.205  21.599  26.008  1.00  0.00     0.102 C 
ATOM     11  C   UNL A   1      32.586  20.040  24.087  1.00  0.00     0.117 C 
ATOM     12  C   UNL A   1      33.618  20.393  26.835  1.00  0.00     0.018 C 
ATOM     13  C   UNL A   1      32.868  19.136  26.430  1.00  0.00     0.018 C 
BRANCH   9  14
ATOM     14  S   UNL A   1      33.036  22.642  23.519  1.00  0.00     0.243 S 
ATOM     15  O   UNL A   1      32.092  22.271  22.490  1.00  0.00    -0.207 OA
ATOM     16  O   UNL A   1      34.354  23.147  23.191  1.00  0.00    -0.207 OA
BRANCH  14  17
ATOM     17  C   UNL A   1      32.241  23.921  24.474  1.00  0.00     0.083 A 
ATOM     18  C   UNL A   1      32.336  26.176  25.288  1.00  0.00     0.077 A 
ATOM     19  C   UNL A   1      32.917  25.138  24.560  1.00  0.00     0.038 A 
ATOM     20  C   UNL A   1      31.035  26.071  25.779  1.00  0.00     0.136 A 
ATOM     21  C   UNL A   1      30.370  24.856  25.710  1.00  0.00     0.041 A 
ATOM     22  F   UNL A   1      30.451  27.092  26.420  1.00  0.00    -0.206 F 
ATOM     23  C   UNL A   1      31.000  23.765  25.110  1.00  0.00     0.025 A 
BRANCH  18  24
ATOM     24  C   UNL A   1      33.188  27.299  25.678  1.00  0.00     0.258 C 
ATOM     25  N   UNL A   1      32.991  28.551  25.132  1.00  0.00    -0.322 N 
ATOM     26  H   UNL A   1      33.678  29.210  25.383  1.00  0.00     0.170 HD
ATOM     27  O   UNL A   1      34.082  27.105  26.499  1.00  0.00    -0.269 OA
BRANCH  25  28
ATOM     28  C   UNL A   1      31.984  29.064  24.275  1.00  0.00     0.044 A 
ATOM     29  C   UNL A   1      32.010  28.717  22.907  1.00  0.00    -0.025 A 
ATOM     30  C   UNL A   1      30.880  29.016  22.118  1.00  0.00     0.006 A 
ATOM     31  C   UNL A   1      29.798  29.728  22.633  1.00  0.00     0.000 A 
ATOM     32  C   UNL A   1      30.948  29.891  24.734  1.00  0.00     0.026 A 
ATOM     33  C   UNL A   1      29.850  30.201  23.932  1.00  0.00     0.002 A 
BRANCH  29  34
ATOM     34  C   UNL A   1      33.197  27.988  22.309  1.00  0.00     0.034 C 
ATOM     35  C   UNL A   1      34.559  28.645  22.503  1.00  0.00     0.009 C 
ENDBRANCH  29  34
ENDBRANCH  25  28
ENDBRANCH  18  24
ENDBRANCH  14  17
ENDBRANCH   9  14
ENDBRANCH   6   8
ENDBRANCH   5   6
ENDBRANCH   4   5
ENDBRANCH   3   4
ENDBRANCH   2   3
ENDBRANCH   1   2
BRANCH   1  36
ATOM     36  C   UNL A   1      40.020  21.139  26.121  1.00  0.00     0.188 C 
BRANCH  36  37
ATOM     37  O   UNL A   1      40.686  21.552  27.309  1.00  0.00    -0.376 OA
BRANCH  37  38
ATOM     38  C   UNL A   1      40.429  22.890  27.744  1.00  0.00     0.202 C 
BRANCH  38  39
ATOM     39  C   UNL A   1      41.671  23.787  27.913  1.00  0.00     0.261 C 
BRANCH  39  40
ATOM     40  O   UNL A   1      41.682  24.937  27.044  1.00  0.00    -0.460 OA
BRANCH  40  41
ATOM     41  C   UNL A   1      40.495  25.552  26.832  1.00  0.00     0.338 C 
ATOM     42  O   UNL A   1      39.649  25.228  26.016  1.00  0.00    -0.246 OA
BRANCH  41  43
ATOM     43  C   UNL A   1      40.264  26.517  27.938  1.00  0.00     0.060 A 
ATOM     44  C   UNL A   1      40.902  27.763  27.868  1.00  0.00     0.016 A 
ATOM     45  C   UNL A   1      39.384  26.242  28.990  1.00  0.00     0.016 A 
ATOM     46  C   UNL A   1      40.703  28.713  28.872  1.00  0.00     0.010 A 
ATOM     47  C   UNL A   1      39.192  27.191  29.999  1.00  0.00     0.010 A 
ATOM     48  C   UNL A   1      39.878  28.415  29.965  1.00  0.00    -0.014 A 
BRANCH  48  49
ATOM     49  C   UNL A   1      39.915  29.272  31.176  1.00  0.00     0.031 A 
ATOM     50  C   UNL A   1      41.038  29.052  32.157  1.00  0.00     0.074 A 
ATOM     51  C   UNL A   1      39.002  30.232  31.407  1.00  0.00     0.049 A 
ATOM     52  N   UNL A   1      41.265  29.636  33.304  1.00  0.00    -0.248 NA
ATOM     53  C   UNL A   1      42.042  28.038  31.788  1.00  0.00     0.031 C 
ATOM     54  C   UNL A   1      37.894  30.587  30.522  1.00  0.00     0.029 A 
ATOM     55  N   UNL A   1      38.866  31.087  32.474  1.00  0.00    -0.354 N 
ATOM     56  C   UNL A   1      42.434  29.066  33.790  1.00  0.00     0.074 A 
ATOM     57  C   UNL A   1      42.856  28.069  32.831  1.00  0.00     0.031 C 
ATOM     58  C   UNL A   1      37.186  31.583  31.088  1.00  0.00     0.029 A 
ATOM     59  C   UNL A   1      37.771  31.915  32.386  1.00  0.00     0.049 A 
ATOM     60  H   UNL A   1      39.495  31.106  33.231  1.00  0.00     0.167 HD
ATOM     61  C   UNL A   1      43.108  29.349  34.929  1.00  0.00     0.031 A 
ATOM     62  C   UNL A   1      37.289  32.821  33.263  1.00  0.00     0.031 A 
ATOM     63  C   UNL A   1      42.688  30.316  35.902  1.00  0.00     0.049 A 
ATOM     64  C   UNL A   1      38.003  33.044  34.576  1.00  0.00     0.074 A 
ATOM     65  C   UNL A   1      43.297  30.652  37.098  1.00  0.00     0.029 A 
ATOM     66  N   UNL A   1      41.552  31.101  35.794  1.00  0.00    -0.354 N 
ATOM     67  N   UNL A   1      39.113  32.500  35.017  1.00  0.00    -0.248 NA
ATOM     68  C   UNL A   1      37.397  34.008  35.507  1.00  0.00     0.031 C 
ATOM     69  C   UNL A   1      42.505  31.614  37.735  1.00  0.00     0.029 A 
ATOM     70  C   UNL A   1      41.432  31.911  36.910  1.00  0.00     0.049 A 
ATOM     71  H   UNL A   1      40.922  31.084  35.038  1.00  0.00     0.167 HD
ATOM     72  C   UNL A   1      39.352  33.082  36.260  1.00  0.00     0.074 A 
ATOM     73  C   UNL A   1      38.280  34.024  36.497  1.00  0.00     0.031 C 
ATOM     74  C   UNL A   1      40.370  32.857  37.127  1.00  0.00     0.031 A 
BRANCH  61  75
ATOM     75  C   UNL A   1      44.371  28.579  35.189  1.00  0.00    -0.014 A 
ATOM     76  C   UNL A   1      45.583  28.963  34.588  1.00  0.00     0.010 A 
ATOM     77  C   UNL A   1      44.355  27.484  36.071  1.00  0.00     0.010 A 
ATOM     78  C   UNL A   1      46.754  28.249  34.845  1.00  0.00     0.020 A 
ATOM     79  C   UNL A   1      45.530  26.781  36.349  1.00  0.00     0.020 A 
ATOM     80  C   UNL A   1      46.720  27.161  35.724  1.00  0.00     0.054 A 
BRANCH  80  81
ATOM     81  S   UNL A   1      48.263  26.273  36.066  1.00  0.00     0.124 S 
ATOM     82  O   UNL A   1      47.900  25.482  37.240  1.00  0.00    -0.237 OA
ATOM     83  O   UNL A   1      48.473  25.512  34.837  1.00  0.00    -0.237 OA
ATOM     84  O   UNL A   1      49.231  27.339  36.309  1.00  0.00    -0.744 OA
ENDBRANCH  80  81
ENDBRANCH  61  75
BRANCH  62  85
ATOM     85  C   UNL A   1      36.042  33.577  32.964  1.00  0.00    -0.014 A 
ATOM     86  C   UNL A   1      36.100  34.918  32.541  1.00  0.00     0.010 A 
ATOM     87  C   UNL A   1      34.785  32.979  33.166  1.00  0.00     0.010 A 
ATOM     88  C   UNL A   1      34.927  35.657  32.364  1.00  0.00     0.020 A 
ATOM     89  C   UNL A   1      33.609  33.708  32.965  1.00  0.00     0.020 A 
ATOM     90  C   UNL A   1      33.689  35.049  32.586  1.00  0.00     0.054 A 
BRANCH  90  91
ATOM     91  S   UNL A   1      32.175  36.023  32.349  1.00  0.00     0.124 S 
ATOM     92  O   UNL A   1      32.297  36.435  30.954  1.00  0.00    -0.237 OA
ATOM     93  O   UNL A   1      31.124  35.050  32.633  1.00  0.00    -0.237 OA
ATOM     94  O   UNL A   1      32.305  37.095  33.333  1.00  0.00    -0.744 OA
ENDBRANCH  90  91
ENDBRANCH  62  85
BRANCH  74  95
ATOM     95  C   UNL A   1      40.413  33.675  38.390  1.00  0.00    -0.014 A 
ATOM     96  C   UNL A   1      41.138  34.877  38.457  1.00  0.00     0.010 A 
ATOM     97  C   UNL A   1      39.653  33.268  39.502  1.00  0.00     0.010 A 
ATOM     98  C   UNL A   1      41.122  35.646  39.626  1.00  0.00     0.020 A 
ATOM     99  C   UNL A   1      39.615  34.046  40.662  1.00  0.00     0.020 A 
ATOM    100  C   UNL A   1      40.361  35.224  40.722  1.00  0.00     0.054 A 
BRANCH 100 101
ATOM    101  S   UNL A   1      40.312  36.264  42.207  1.00  0.00     0.124 S 
ATOM    102  O   UNL A   1      41.701  36.700  42.319  1.00  0.00    -0.237 OA
ATOM    103  O   UNL A   1      39.354  37.305  41.842  1.00  0.00    -0.237 OA
ATOM    104  O   UNL A   1      39.859  35.350  43.254  1.00  0.00    -0.744 OA
ENDBRANCH 100 101
ENDBRANCH  74  95
ENDBRANCH  48  49
ENDBRANCH  41  43
ENDBRANCH  40  41
ENDBRANCH  39  40
ENDBRANCH  38  39
ENDBRANCH  37  38
ENDBRANCH  36  37
ENDBRANCH   1  36
TORSDOF 25
ENDMDL
