MODEL 1
REMARK VINA RESULT:      -9.5      0.000      0.000
REMARK SMILES O=C(OCCOCCOCCOC(=O)[C@]1(CCc2cccnc2)CCC[NH2+]C1)c1ccc(-c2c3nc(c(-c4ccc(S(=O)(=O)[O-])cc4)c4ccc([nH]4)c(-c4ccc(S(=O)(=O)[O-])cc4)c4nc(c(-c5ccc(S(=O)(=O)[O-])cc5)c5ccc2[nH]5)C=C4)C=C3)cc1
REMARK SMILES IDX 7 1 6 2 5 3 4 4 3 5 2 6 1 7 29 8 30 9 88 10 31 11 87 12
REMARK SMILES IDX 32 13 33 14 34 15 81 16 35 17 86 18 80 19 82 20 36 21 85 22
REMARK SMILES IDX 79 23 78 24 37 26 67 27 48 28 66 29 49 30 52 31 65 32 83 33
REMARK SMILES IDX 50 34 51 35 64 37 84 38 53 39 38 40 39 41 47 42 40 43 46 44
REMARK SMILES IDX 41 45 42 46 43 47 44 48 45 49 68 50 69 51 77 52 70 53 76 54
REMARK SMILES IDX 71 55 72 56 73 57 74 58 75 59 54 60 55 61 63 62 56 63 62 64
REMARK SMILES IDX 57 65 58 66 59 67 60 68 61 69 8 70 9 71 10 72 11 73 12 74
REMARK SMILES IDX 13 75 14 76 15 77 24 78 28 79 25 80 27 81 26 82 16 85 17 86
REMARK SMILES IDX 18 87 19 88 23 89 20 90 22 91 21 92
REMARK H PARENT 82 25 52 36 27 83 27 84
REMARK Flexibility Score: inf
ROOT
ATOM      1  C   UNL A   1      31.406  28.776  25.195  1.00  0.00     0.188 C 
ENDROOT
BRANCH   1   2
ATOM      2  O   UNL A   1      32.731  28.603  25.662  1.00  0.00    -0.376 OA
BRANCH   2   3
ATOM      3  C   UNL A   1      33.050  29.134  26.938  1.00  0.00     0.202 C 
BRANCH   3   4
ATOM      4  C   UNL A   1      33.879  30.431  26.970  1.00  0.00     0.261 C 
BRANCH   4   5
ATOM      5  O   UNL A   1      33.872  31.143  28.220  1.00  0.00    -0.460 OA
BRANCH   5   6
ATOM      6  C   UNL A   1      34.869  31.269  29.137  1.00  0.00     0.338 C 
ATOM      7  O   UNL A   1      34.760  32.146  29.993  1.00  0.00    -0.246 OA
BRANCH   6   8
ATOM      8  C   UNL A   1      36.173  30.521  29.067  1.00  0.00     0.060 A 
ATOM      9  C   UNL A   1      36.715  29.749  30.092  1.00  0.00     0.016 A 
ATOM     10  C   UNL A   1      36.900  30.591  27.858  1.00  0.00     0.016 A 
ATOM     11  C   UNL A   1      37.928  29.088  29.949  1.00  0.00     0.010 A 
ATOM     12  C   UNL A   1      38.148  29.965  27.714  1.00  0.00     0.010 A 
ATOM     13  C   UNL A   1      38.681  29.248  28.788  1.00  0.00    -0.014 A 
BRANCH  13  14
ATOM     14  C   UNL A   1      40.116  28.918  28.912  1.00  0.00     0.031 A 
ATOM     15  C   UNL A   1      40.955  29.875  29.707  1.00  0.00     0.074 A 
ATOM     16  C   UNL A   1      40.574  27.705  28.560  1.00  0.00     0.049 A 
ATOM     17  N   UNL A   1      42.167  29.726  30.164  1.00  0.00    -0.248 NA
ATOM     18  C   UNL A   1      40.323  31.156  30.075  1.00  0.00     0.031 C 
ATOM     19  C   UNL A   1      39.774  26.682  27.899  1.00  0.00     0.029 A 
ATOM     20  N   UNL A   1      41.785  27.100  28.762  1.00  0.00    -0.354 N 
ATOM     21  C   UNL A   1      42.444  30.893  30.864  1.00  0.00     0.074 A 
ATOM     22  C   UNL A   1      41.279  31.741  30.776  1.00  0.00     0.031 C 
ATOM     23  C   UNL A   1      40.495  25.554  27.788  1.00  0.00     0.029 A 
ATOM     24  C   UNL A   1      41.825  25.792  28.338  1.00  0.00     0.049 A 
ATOM     25  H   UNL A   1      42.555  27.558  29.172  1.00  0.00     0.167 HD
ATOM     26  C   UNL A   1      43.581  31.230  31.511  1.00  0.00     0.031 A 
ATOM     27  C   UNL A   1      42.828  24.892  28.389  1.00  0.00     0.031 A 
ATOM     28  C   UNL A   1      44.742  30.386  31.535  1.00  0.00     0.049 A 
ATOM     29  C   UNL A   1      44.121  25.332  29.023  1.00  0.00     0.074 A 
ATOM     30  C   UNL A   1      45.989  30.647  32.070  1.00  0.00     0.029 A 
ATOM     31  N   UNL A   1      44.796  29.112  30.982  1.00  0.00    -0.354 N 
ATOM     32  N   UNL A   1      44.392  26.464  29.632  1.00  0.00    -0.248 NA
ATOM     33  C   UNL A   1      45.242  24.388  28.972  1.00  0.00     0.031 C 
ATOM     34  C   UNL A   1      46.815  29.555  31.782  1.00  0.00     0.029 A 
ATOM     35  C   UNL A   1      46.062  28.583  31.137  1.00  0.00     0.049 A 
ATOM     36  H   UNL A   1      44.042  28.655  30.544  1.00  0.00     0.167 HD
ATOM     37  C   UNL A   1      45.711  26.362  30.054  1.00  0.00     0.074 A 
ATOM     38  C   UNL A   1      46.173  25.048  29.648  1.00  0.00     0.031 C 
ATOM     39  C   UNL A   1      46.478  27.270  30.710  1.00  0.00     0.031 A 
BRANCH  26  40
ATOM     40  C   UNL A   1      43.636  32.603  32.118  1.00  0.00    -0.014 A 
ATOM     41  C   UNL A   1      44.380  33.646  31.535  1.00  0.00     0.010 A 
ATOM     42  C   UNL A   1      42.969  32.835  33.335  1.00  0.00     0.010 A 
ATOM     43  C   UNL A   1      44.489  34.882  32.182  1.00  0.00     0.020 A 
ATOM     44  C   UNL A   1      43.054  34.076  33.969  1.00  0.00     0.020 A 
ATOM     45  C   UNL A   1      43.830  35.085  33.398  1.00  0.00     0.054 A 
BRANCH  45  46
ATOM     46  S   UNL A   1      43.991  36.694  34.221  1.00  0.00     0.124 S 
ATOM     47  O   UNL A   1      43.063  37.520  33.453  1.00  0.00    -0.237 OA
ATOM     48  O   UNL A   1      43.581  36.395  35.590  1.00  0.00    -0.237 OA
ATOM     49  O   UNL A   1      45.404  37.027  34.056  1.00  0.00    -0.744 OA
ENDBRANCH  45  46
ENDBRANCH  26  40
BRANCH  27  50
ATOM     50  C   UNL A   1      42.666  23.531  27.798  1.00  0.00    -0.014 A 
ATOM     51  C   UNL A   1      43.277  23.178  26.581  1.00  0.00     0.010 A 
ATOM     52  C   UNL A   1      41.876  22.568  28.458  1.00  0.00     0.010 A 
ATOM     53  C   UNL A   1      43.087  21.903  26.030  1.00  0.00     0.020 A 
ATOM     54  C   UNL A   1      41.711  21.285  27.931  1.00  0.00     0.020 A 
ATOM     55  C   UNL A   1      42.306  20.963  26.710  1.00  0.00     0.054 A 
BRANCH  55  56
ATOM     56  S   UNL A   1      42.100  19.306  26.002  1.00  0.00     0.124 S 
ATOM     57  O   UNL A   1      42.637  18.454  27.057  1.00  0.00    -0.237 OA
ATOM     58  O   UNL A   1      40.655  19.228  25.799  1.00  0.00    -0.237 OA
ATOM     59  O   UNL A   1      42.891  19.358  24.774  1.00  0.00    -0.744 OA
ENDBRANCH  55  56
ENDBRANCH  27  50
BRANCH  39  60
ATOM     60  C   UNL A   1      47.877  26.849  31.058  1.00  0.00    -0.014 A 
ATOM     61  C   UNL A   1      48.957  27.120  30.202  1.00  0.00     0.010 A 
ATOM     62  C   UNL A   1      48.113  26.216  32.292  1.00  0.00     0.010 A 
ATOM     63  C   UNL A   1      50.248  26.724  30.556  1.00  0.00     0.020 A 
ATOM     64  C   UNL A   1      49.406  25.850  32.664  1.00  0.00     0.020 A 
ATOM     65  C   UNL A   1      50.463  26.089  31.784  1.00  0.00     0.054 A 
BRANCH  65  66
ATOM     66  S   UNL A   1      52.151  25.612  32.235  1.00  0.00     0.124 S 
ATOM     67  O   UNL A   1      52.447  26.544  33.321  1.00  0.00    -0.237 OA
ATOM     68  O   UNL A   1      51.995  24.215  32.629  1.00  0.00    -0.237 OA
ATOM     69  O   UNL A   1      52.911  25.827  31.006  1.00  0.00    -0.744 OA
ENDBRANCH  65  66
ENDBRANCH  39  60
ENDBRANCH  13  14
ENDBRANCH   6   8
ENDBRANCH   5   6
ENDBRANCH   4   5
ENDBRANCH   3   4
ENDBRANCH   2   3
ENDBRANCH   1   2
BRANCH   1  70
ATOM     70  C   UNL A   1      30.921  27.996  23.973  1.00  0.00     0.188 C 
BRANCH  70  71
ATOM     71  O   UNL A   1      30.964  26.582  23.934  1.00  0.00    -0.376 OA
BRANCH  71  72
ATOM     72  C   UNL A   1      31.349  25.958  22.721  1.00  0.00     0.202 C 
BRANCH  72  73
ATOM     73  C   UNL A   1      31.636  24.453  22.707  1.00  0.00     0.261 C 
BRANCH  73  74
ATOM     74  O   UNL A   1      32.401  23.979  23.826  1.00  0.00    -0.463 OA
BRANCH  74  75
ATOM     75  C   UNL A   1      33.625  23.458  23.542  1.00  0.00     0.317 C 
ATOM     76  O   UNL A   1      34.381  23.930  22.692  1.00  0.00    -0.251 OA
BRANCH  75  77
ATOM     77  C   UNL A   1      33.971  22.204  24.368  1.00  0.00     0.117 C 
ATOM     78  C   UNL A   1      33.780  22.545  25.868  1.00  0.00     0.030 C 
ATOM     79  C   UNL A   1      35.468  21.845  24.174  1.00  0.00     0.279 C 
ATOM     80  C   UNL A   1      34.791  23.592  26.354  1.00  0.00     0.063 C 
ATOM     81  N   UNL A   1      36.377  22.908  24.601  1.00  0.00    -0.345 N 
ATOM     82  C   UNL A   1      36.227  23.198  26.026  1.00  0.00     0.260 C 
ATOM     83  H   UNL A   1      37.338  22.616  24.420  1.00  0.00     0.346 HD
ATOM     84  H   UNL A   1      36.151  23.754  24.076  1.00  0.00     0.346 HD
BRANCH  77  85
ATOM     85  C   UNL A   1      33.135  20.942  23.970  1.00  0.00     0.029 C 
BRANCH  85  86
ATOM     86  C   UNL A   1      32.583  20.005  25.065  1.00  0.00     0.038 C 
BRANCH  86  87
ATOM     87  C   UNL A   1      32.838  18.545  24.814  1.00  0.00    -0.030 A 
ATOM     88  C   UNL A   1      33.413  18.108  23.623  1.00  0.00     0.007 A 
ATOM     89  C   UNL A   1      32.577  17.579  25.784  1.00  0.00     0.114 A 
ATOM     90  C   UNL A   1      33.809  16.782  23.485  1.00  0.00     0.020 A 
ATOM     91  N   UNL A   1      32.913  16.273  25.664  1.00  0.00    -0.264 NA
ATOM     92  C   UNL A   1      33.549  15.911  24.527  1.00  0.00     0.111 A 
ENDBRANCH  86  87
ENDBRANCH  85  86
ENDBRANCH  77  85
ENDBRANCH  75  77
ENDBRANCH  74  75
ENDBRANCH  73  74
ENDBRANCH  72  73
ENDBRANCH  71  72
ENDBRANCH  70  71
ENDBRANCH   1  70
TORSDOF 23
ENDMDL
MODEL 2
REMARK VINA RESULT:      -9.1      2.952      8.872
REMARK SMILES O=C(OCCOCCOCCOC(=O)[C@]1(CCc2cccnc2)CCC[NH2+]C1)c1ccc(-c2c3nc(c(-c4ccc(S(=O)(=O)[O-])cc4)c4ccc([nH]4)c(-c4ccc(S(=O)(=O)[O-])cc4)c4nc(c(-c5ccc(S(=O)(=O)[O-])cc5)c5ccc2[nH]5)C=C4)C=C3)cc1
REMARK SMILES IDX 7 1 6 2 5 3 4 4 3 5 2 6 1 7 29 8 30 9 88 10 31 11 87 12
REMARK SMILES IDX 32 13 33 14 34 15 81 16 35 17 86 18 80 19 82 20 36 21 85 22
REMARK SMILES IDX 79 23 78 24 37 26 67 27 48 28 66 29 49 30 52 31 65 32 83 33
REMARK SMILES IDX 50 34 51 35 64 37 84 38 53 39 38 40 39 41 47 42 40 43 46 44
REMARK SMILES IDX 41 45 42 46 43 47 44 48 45 49 68 50 69 51 77 52 70 53 76 54
REMARK SMILES IDX 71 55 72 56 73 57 74 58 75 59 54 60 55 61 63 62 56 63 62 64
REMARK SMILES IDX 57 65 58 66 59 67 60 68 61 69 8 70 9 71 10 72 11 73 12 74
REMARK SMILES IDX 13 75 14 76 15 77 24 78 28 79 25 80 27 81 26 82 16 85 17 86
REMARK SMILES IDX 18 87 19 88 23 89 20 90 22 91 21 92
REMARK H PARENT 82 25 52 36 27 83 27 84
REMARK Flexibility Score: inf
ROOT
ATOM      1  C   UNL A   1      31.993  29.630  25.664  1.00  0.00     0.188 C 
ENDROOT
BRANCH   1   2
ATOM      2  O   UNL A   1      32.090  29.531  27.073  1.00  0.00    -0.376 OA
BRANCH   2   3
ATOM      3  C   UNL A   1      33.340  29.142  27.617  1.00  0.00     0.202 C 
BRANCH   3   4
ATOM      4  C   UNL A   1      34.503  30.143  27.490  1.00  0.00     0.261 C 
BRANCH   4   5
ATOM      5  O   UNL A   1      35.822  29.569  27.503  1.00  0.00    -0.460 OA
BRANCH   5   6
ATOM      6  C   UNL A   1      36.679  29.422  28.551  1.00  0.00     0.338 C 
ATOM      7  O   UNL A   1      36.311  29.811  29.658  1.00  0.00    -0.246 OA
BRANCH   6   8
ATOM      8  C   UNL A   1      38.108  28.973  28.409  1.00  0.00     0.060 A 
ATOM      9  C   UNL A   1      38.843  28.303  29.385  1.00  0.00     0.016 A 
ATOM     10  C   UNL A   1      38.754  29.234  27.180  1.00  0.00     0.016 A 
ATOM     11  C   UNL A   1      40.162  27.923  29.176  1.00  0.00     0.010 A 
ATOM     12  C   UNL A   1      40.100  28.894  26.971  1.00  0.00     0.010 A 
ATOM     13  C   UNL A   1      40.816  28.275  27.998  1.00  0.00    -0.014 A 
BRANCH  13  14
ATOM     14  C   UNL A   1      42.292  28.257  28.062  1.00  0.00     0.031 A 
ATOM     15  C   UNL A   1      42.972  27.060  27.464  1.00  0.00     0.074 A 
ATOM     16  C   UNL A   1      42.978  29.363  28.396  1.00  0.00     0.049 A 
ATOM     17  N   UNL A   1      44.232  26.883  27.180  1.00  0.00    -0.248 NA
ATOM     18  C   UNL A   1      42.103  25.926  27.094  1.00  0.00     0.031 C 
ATOM     19  C   UNL A   1      42.369  30.601  28.864  1.00  0.00     0.029 A 
ATOM     20  N   UNL A   1      44.314  29.653  28.333  1.00  0.00    -0.354 N 
ATOM     21  C   UNL A   1      44.308  25.621  26.607  1.00  0.00     0.074 A 
ATOM     22  C   UNL A   1      42.973  25.073  26.581  1.00  0.00     0.031 C 
ATOM     23  C   UNL A   1      43.318  31.540  29.003  1.00  0.00     0.029 A 
ATOM     24  C   UNL A   1      44.612  30.953  28.671  1.00  0.00     0.049 A 
ATOM     25  H   UNL A   1      44.998  28.994  28.071  1.00  0.00     0.167 HD
ATOM     26  C   UNL A   1      45.404  24.972  26.157  1.00  0.00     0.031 A 
ATOM     27  C   UNL A   1      45.799  31.592  28.707  1.00  0.00     0.031 A 
ATOM     28  C   UNL A   1      46.727  25.523  26.246  1.00  0.00     0.049 A 
ATOM     29  C   UNL A   1      47.019  30.809  28.298  1.00  0.00     0.074 A 
ATOM     30  C   UNL A   1      47.932  24.934  25.918  1.00  0.00     0.029 A 
ATOM     31  N   UNL A   1      47.013  26.800  26.715  1.00  0.00    -0.354 N 
ATOM     32  N   UNL A   1      47.086  29.590  27.812  1.00  0.00    -0.248 NA
ATOM     33  C   UNL A   1      48.317  31.474  28.449  1.00  0.00     0.031 C 
ATOM     34  C   UNL A   1      48.952  25.833  26.249  1.00  0.00     0.029 A 
ATOM     35  C   UNL A   1      48.378  27.009  26.711  1.00  0.00     0.049 A 
ATOM     36  H   UNL A   1      46.341  27.457  27.007  1.00  0.00     0.167 HD
ATOM     37  C   UNL A   1      48.434  29.347  27.582  1.00  0.00     0.074 A 
ATOM     38  C   UNL A   1      49.141  30.556  27.961  1.00  0.00     0.031 C 
ATOM     39  C   UNL A   1      49.038  28.229  27.105  1.00  0.00     0.031 A 
BRANCH  26  40
ATOM     40  C   UNL A   1      45.206  23.569  25.657  1.00  0.00    -0.014 A 
ATOM     41  C   UNL A   1      45.246  22.458  26.520  1.00  0.00     0.010 A 
ATOM     42  C   UNL A   1      45.030  23.357  24.277  1.00  0.00     0.010 A 
ATOM     43  C   UNL A   1      45.157  21.160  26.005  1.00  0.00     0.020 A 
ATOM     44  C   UNL A   1      44.914  22.065  23.763  1.00  0.00     0.020 A 
ATOM     45  C   UNL A   1      44.998  20.973  24.628  1.00  0.00     0.054 A 
BRANCH  45  46
ATOM     46  S   UNL A   1      44.892  19.281  23.982  1.00  0.00     0.124 S 
ATOM     47  O   UNL A   1      44.506  19.513  22.592  1.00  0.00    -0.237 OA
ATOM     48  O   UNL A   1      46.247  18.777  24.183  1.00  0.00    -0.237 OA
ATOM     49  O   UNL A   1      43.868  18.657  24.815  1.00  0.00    -0.744 OA
ENDBRANCH  45  46
ENDBRANCH  26  40
BRANCH  27  50
ATOM     50  C   UNL A   1      45.893  33.006  29.175  1.00  0.00    -0.014 A 
ATOM     51  C   UNL A   1      45.907  33.330  30.544  1.00  0.00     0.010 A 
ATOM     52  C   UNL A   1      45.959  34.054  28.236  1.00  0.00     0.010 A 
ATOM     53  C   UNL A   1      45.967  34.666  30.962  1.00  0.00     0.020 A 
ATOM     54  C   UNL A   1      46.053  35.386  28.646  1.00  0.00     0.020 A 
ATOM     55  C   UNL A   1      46.042  35.687  30.009  1.00  0.00     0.054 A 
BRANCH  55  56
ATOM     56  S   UNL A   1      46.155  37.410  30.566  1.00  0.00     0.124 S 
ATOM     57  O   UNL A   1      47.597  37.634  30.572  1.00  0.00    -0.237 OA
ATOM     58  O   UNL A   1      45.406  38.124  29.534  1.00  0.00    -0.237 OA
ATOM     59  O   UNL A   1      45.518  37.386  31.881  1.00  0.00    -0.744 OA
ENDBRANCH  55  56
ENDBRANCH  27  50
BRANCH  39  60
ATOM     60  C   UNL A   1      50.530  28.284  26.938  1.00  0.00    -0.014 A 
ATOM     61  C   UNL A   1      51.116  28.749  25.749  1.00  0.00     0.010 A 
ATOM     62  C   UNL A   1      51.352  27.911  28.017  1.00  0.00     0.010 A 
ATOM     63  C   UNL A   1      52.506  28.798  25.626  1.00  0.00     0.020 A 
ATOM     64  C   UNL A   1      52.740  27.991  27.909  1.00  0.00     0.020 A 
ATOM     65  C   UNL A   1      53.308  28.415  26.706  1.00  0.00     0.054 A 
BRANCH  65  66
ATOM     66  S   UNL A   1      55.109  28.516  26.534  1.00  0.00     0.124 S 
ATOM     67  O   UNL A   1      55.550  27.354  27.300  1.00  0.00    -0.237 OA
ATOM     68  O   UNL A   1      55.297  28.426  25.089  1.00  0.00    -0.237 OA
ATOM     69  O   UNL A   1      55.440  29.812  27.121  1.00  0.00    -0.744 OA
ENDBRANCH  65  66
ENDBRANCH  39  60
ENDBRANCH  13  14
ENDBRANCH   6   8
ENDBRANCH   5   6
ENDBRANCH   4   5
ENDBRANCH   3   4
ENDBRANCH   2   3
ENDBRANCH   1   2
BRANCH   1  70
ATOM     70  C   UNL A   1      32.085  28.370  24.804  1.00  0.00     0.188 C 
BRANCH  70  71
ATOM     71  O   UNL A   1      31.090  27.366  24.854  1.00  0.00    -0.376 OA
BRANCH  71  72
ATOM     72  C   UNL A   1      31.241  26.231  24.018  1.00  0.00     0.202 C 
BRANCH  72  73
ATOM     73  C   UNL A   1      30.329  25.017  24.223  1.00  0.00     0.261 C 
BRANCH  73  74
ATOM     74  O   UNL A   1      30.990  23.852  24.740  1.00  0.00    -0.463 OA
BRANCH  74  75
ATOM     75  C   UNL A   1      32.079  23.421  24.048  1.00  0.00     0.317 C 
ATOM     76  O   UNL A   1      32.157  23.452  22.820  1.00  0.00    -0.251 OA
BRANCH  75  77
ATOM     77  C   UNL A   1      33.202  22.865  24.946  1.00  0.00     0.117 C 
ATOM     78  C   UNL A   1      33.190  23.655  26.280  1.00  0.00     0.030 C 
ATOM     79  C   UNL A   1      34.580  23.124  24.282  1.00  0.00     0.279 C 
ATOM     80  C   UNL A   1      33.576  25.127  26.082  1.00  0.00     0.063 C 
ATOM     81  N   UNL A   1      34.861  24.543  24.066  1.00  0.00    -0.345 N 
ATOM     82  C   UNL A   1      34.893  25.279  25.329  1.00  0.00     0.260 C 
ATOM     83  H   UNL A   1      35.766  24.636  23.604  1.00  0.00     0.346 HD
ATOM     84  H   UNL A   1      34.117  24.933  23.487  1.00  0.00     0.346 HD
BRANCH  77  85
ATOM     85  C   UNL A   1      33.092  21.326  25.206  1.00  0.00     0.029 C 
BRANCH  85  86
ATOM     86  C   UNL A   1      32.234  20.445  24.274  1.00  0.00     0.038 C 
BRANCH  86  87
ATOM     87  C   UNL A   1      32.555  18.978  24.343  1.00  0.00    -0.030 A 
ATOM     88  C   UNL A   1      32.862  18.252  23.193  1.00  0.00     0.007 A 
ATOM     89  C   UNL A   1      32.630  18.300  25.559  1.00  0.00     0.114 A 
ATOM     90  C   UNL A   1      33.334  16.949  23.297  1.00  0.00     0.020 A 
ATOM     91  N   UNL A   1      33.047  17.019  25.689  1.00  0.00    -0.264 NA
ATOM     92  C   UNL A   1      33.417  16.382  24.556  1.00  0.00     0.111 A 
ENDBRANCH  86  87
ENDBRANCH  85  86
ENDBRANCH  77  85
ENDBRANCH  75  77
ENDBRANCH  74  75
ENDBRANCH  73  74
ENDBRANCH  72  73
ENDBRANCH  71  72
ENDBRANCH  70  71
ENDBRANCH   1  70
TORSDOF 23
ENDMDL
MODEL 3
REMARK VINA RESULT:      -8.8      3.993      9.003
REMARK SMILES O=C(OCCOCCOCCOC(=O)[C@]1(CCc2cccnc2)CCC[NH2+]C1)c1ccc(-c2c3nc(c(-c4ccc(S(=O)(=O)[O-])cc4)c4ccc([nH]4)c(-c4ccc(S(=O)(=O)[O-])cc4)c4nc(c(-c5ccc(S(=O)(=O)[O-])cc5)c5ccc2[nH]5)C=C4)C=C3)cc1
REMARK SMILES IDX 7 1 6 2 5 3 4 4 3 5 2 6 1 7 29 8 30 9 88 10 31 11 87 12
REMARK SMILES IDX 32 13 33 14 34 15 81 16 35 17 86 18 80 19 82 20 36 21 85 22
REMARK SMILES IDX 79 23 78 24 37 26 67 27 48 28 66 29 49 30 52 31 65 32 83 33
REMARK SMILES IDX 50 34 51 35 64 37 84 38 53 39 38 40 39 41 47 42 40 43 46 44
REMARK SMILES IDX 41 45 42 46 43 47 44 48 45 49 68 50 69 51 77 52 70 53 76 54
REMARK SMILES IDX 71 55 72 56 73 57 74 58 75 59 54 60 55 61 63 62 56 63 62 64
REMARK SMILES IDX 57 65 58 66 59 67 60 68 61 69 8 70 9 71 10 72 11 73 12 74
REMARK SMILES IDX 13 75 14 76 15 77 24 78 28 79 25 80 27 81 26 82 16 85 17 86
REMARK SMILES IDX 18 87 19 88 23 89 20 90 22 91 21 92
REMARK H PARENT 82 25 52 36 27 83 27 84
REMARK Flexibility Score: inf
ROOT
ATOM      1  C   UNL A   1      39.834  23.378  26.993  1.00  0.00     0.188 C 
ENDROOT
BRANCH   1   2
ATOM      2  O   UNL A   1      40.981  22.564  26.841  1.00  0.00    -0.376 OA
BRANCH   2   3
ATOM      3  C   UNL A   1      41.160  21.505  27.766  1.00  0.00     0.202 C 
BRANCH   3   4
ATOM      4  C   UNL A   1      41.342  20.091  27.186  1.00  0.00     0.261 C 
BRANCH   4   5
ATOM      5  O   UNL A   1      42.661  19.781  26.703  1.00  0.00    -0.460 OA
BRANCH   5   6
ATOM      6  C   UNL A   1      43.315  20.288  25.623  1.00  0.00     0.338 C 
ATOM      7  O   UNL A   1      43.430  19.572  24.628  1.00  0.00    -0.246 OA
BRANCH   6   8
ATOM      8  C   UNL A   1      44.054  21.599  25.627  1.00  0.00     0.060 A 
ATOM      9  C   UNL A   1      44.822  22.088  26.681  1.00  0.00     0.016 A 
ATOM     10  C   UNL A   1      43.979  22.392  24.460  1.00  0.00     0.016 A 
ATOM     11  C   UNL A   1      45.474  23.312  26.605  1.00  0.00     0.010 A 
ATOM     12  C   UNL A   1      44.596  23.650  24.386  1.00  0.00     0.010 A 
ATOM     13  C   UNL A   1      45.310  24.127  25.488  1.00  0.00    -0.014 A 
BRANCH  13  14
ATOM     14  C   UNL A   1      45.629  25.555  25.693  1.00  0.00     0.031 A 
ATOM     15  C   UNL A   1      44.545  26.404  26.290  1.00  0.00     0.074 A 
ATOM     16  C   UNL A   1      46.895  25.995  25.596  1.00  0.00     0.049 A 
ATOM     17  N   UNL A   1      44.618  27.610  26.781  1.00  0.00    -0.248 NA
ATOM     18  C   UNL A   1      43.207  25.791  26.386  1.00  0.00     0.031 C 
ATOM     19  C   UNL A   1      48.018  25.184  25.143  1.00  0.00     0.029 A 
ATOM     20  N   UNL A   1      47.465  27.195  25.929  1.00  0.00    -0.354 N 
ATOM     21  C   UNL A   1      43.338  27.900  27.237  1.00  0.00     0.074 A 
ATOM     22  C   UNL A   1      42.508  26.751  26.967  1.00  0.00     0.031 C 
ATOM     23  C   UNL A   1      49.155  25.886  25.269  1.00  0.00     0.029 A 
ATOM     24  C   UNL A   1      48.833  27.216  25.775  1.00  0.00     0.049 A 
ATOM     25  H   UNL A   1      46.946  27.968  26.248  1.00  0.00     0.167 HD
ATOM     26  C   UNL A   1      42.896  29.038  27.816  1.00  0.00     0.031 A 
ATOM     27  C   UNL A   1      49.718  28.203  26.017  1.00  0.00     0.031 A 
ATOM     28  C   UNL A   1      43.735  30.184  28.022  1.00  0.00     0.049 A 
ATOM     29  C   UNL A   1      49.180  29.498  26.565  1.00  0.00     0.074 A 
ATOM     30  C   UNL A   1      43.392  31.430  28.508  1.00  0.00     0.029 A 
ATOM     31  N   UNL A   1      45.095  30.220  27.736  1.00  0.00    -0.354 N 
ATOM     32  N   UNL A   1      47.953  29.783  26.939  1.00  0.00    -0.248 NA
ATOM     33  C   UNL A   1      50.132  30.603  26.717  1.00  0.00     0.031 C 
ATOM     34  C   UNL A   1      44.531  32.240  28.454  1.00  0.00     0.029 A 
ATOM     35  C   UNL A   1      45.601  31.476  28.008  1.00  0.00     0.049 A 
ATOM     36  H   UNL A   1      45.619  29.463  27.389  1.00  0.00     0.167 HD
ATOM     37  C   UNL A   1      47.988  31.097  27.387  1.00  0.00     0.074 A 
ATOM     38  C   UNL A   1      49.364  31.539  27.259  1.00  0.00     0.031 C 
ATOM     39  C   UNL A   1      46.979  31.873  27.858  1.00  0.00     0.031 A 
BRANCH  26  40
ATOM     40  C   UNL A   1      41.430  29.111  28.137  1.00  0.00    -0.014 A 
ATOM     41  C   UNL A   1      40.454  29.246  27.132  1.00  0.00     0.010 A 
ATOM     42  C   UNL A   1      41.028  29.099  29.485  1.00  0.00     0.010 A 
ATOM     43  C   UNL A   1      39.107  29.412  27.474  1.00  0.00     0.020 A 
ATOM     44  C   UNL A   1      39.681  29.238  29.829  1.00  0.00     0.020 A 
ATOM     45  C   UNL A   1      38.732  29.413  28.822  1.00  0.00     0.054 A 
BRANCH  45  46
ATOM     46  S   UNL A   1      36.981  29.636  29.241  1.00  0.00     0.124 S 
ATOM     47  O   UNL A   1      36.867  31.091  29.295  1.00  0.00    -0.237 OA
ATOM     48  O   UNL A   1      36.301  28.992  28.121  1.00  0.00    -0.237 OA
ATOM     49  O   UNL A   1      36.844  28.953  30.525  1.00  0.00    -0.744 OA
ENDBRANCH  45  46
ENDBRANCH  26  40
BRANCH  27  50
ATOM     50  C   UNL A   1      51.168  28.023  25.709  1.00  0.00    -0.014 A 
ATOM     51  C   UNL A   1      52.089  27.633  26.699  1.00  0.00     0.010 A 
ATOM     52  C   UNL A   1      51.643  28.256  24.403  1.00  0.00     0.010 A 
ATOM     53  C   UNL A   1      53.450  27.498  26.394  1.00  0.00     0.020 A 
ATOM     54  C   UNL A   1      52.994  28.090  24.086  1.00  0.00     0.020 A 
ATOM     55  C   UNL A   1      53.894  27.726  25.088  1.00  0.00     0.054 A 
BRANCH  55  56
ATOM     56  S   UNL A   1      55.654  27.513  24.701  1.00  0.00     0.124 S 
ATOM     57  O   UNL A   1      55.862  28.518  23.664  1.00  0.00    -0.237 OA
ATOM     58  O   UNL A   1      56.294  27.785  25.986  1.00  0.00    -0.237 OA
ATOM     59  O   UNL A   1      55.739  26.124  24.255  1.00  0.00    -0.744 OA
ENDBRANCH  55  56
ENDBRANCH  27  50
BRANCH  39  60
ATOM     60  C   UNL A   1      47.343  33.262  28.299  1.00  0.00    -0.014 A 
ATOM     61  C   UNL A   1      47.800  33.520  29.602  1.00  0.00     0.010 A 
ATOM     62  C   UNL A   1      47.272  34.314  27.368  1.00  0.00     0.010 A 
ATOM     63  C   UNL A   1      48.140  34.820  29.981  1.00  0.00     0.020 A 
ATOM     64  C   UNL A   1      47.642  35.608  27.733  1.00  0.00     0.020 A 
ATOM     65  C   UNL A   1      48.056  35.856  29.044  1.00  0.00     0.054 A 
BRANCH  65  66
ATOM     66  S   UNL A   1      48.530  37.529  29.550  1.00  0.00     0.124 S 
ATOM     67  O   UNL A   1      49.971  37.387  29.745  1.00  0.00    -0.237 OA
ATOM     68  O   UNL A   1      48.127  38.337  28.403  1.00  0.00    -0.237 OA
ATOM     69  O   UNL A   1      47.756  37.755  30.768  1.00  0.00    -0.744 OA
ENDBRANCH  65  66
ENDBRANCH  39  60
ENDBRANCH  13  14
ENDBRANCH   6   8
ENDBRANCH   5   6
ENDBRANCH   4   5
ENDBRANCH   3   4
ENDBRANCH   2   3
ENDBRANCH   1   2
BRANCH   1  70
ATOM     70  C   UNL A   1      38.568  23.070  26.193  1.00  0.00     0.188 C 
BRANCH  70  71
ATOM     71  O   UNL A   1      37.385  23.827  26.360  1.00  0.00    -0.376 OA
BRANCH  71  72
ATOM     72  C   UNL A   1      36.575  24.063  25.220  1.00  0.00     0.202 C 
BRANCH  72  73
ATOM     73  C   UNL A   1      35.050  23.986  25.350  1.00  0.00     0.261 C 
BRANCH  73  74
ATOM     74  O   UNL A   1      34.488  22.700  25.048  1.00  0.00    -0.463 OA
BRANCH  74  75
ATOM     75  C   UNL A   1      33.811  22.600  23.872  1.00  0.00     0.317 C 
ATOM     76  O   UNL A   1      34.215  23.084  22.815  1.00  0.00    -0.251 OA
BRANCH  75  77
ATOM     77  C   UNL A   1      32.474  21.842  23.991  1.00  0.00     0.117 C 
ATOM     78  C   UNL A   1      31.448  22.518  23.045  1.00  0.00     0.030 C 
ATOM     79  C   UNL A   1      31.918  21.984  25.433  1.00  0.00     0.279 C 
ATOM     80  C   UNL A   1      31.102  23.943  23.495  1.00  0.00     0.063 C 
ATOM     81  N   UNL A   1      31.666  23.371  25.821  1.00  0.00    -0.345 N 
ATOM     82  C   UNL A   1      30.666  23.994  24.956  1.00  0.00     0.260 C 
ATOM     83  H   UNL A   1      31.330  23.390  26.784  1.00  0.00     0.346 HD
ATOM     84  H   UNL A   1      32.538  23.894  25.731  1.00  0.00     0.346 HD
BRANCH  77  85
ATOM     85  C   UNL A   1      32.592  20.311  23.687  1.00  0.00     0.029 C 
BRANCH  85  86
ATOM     86  C   UNL A   1      32.149  19.277  24.743  1.00  0.00     0.038 C 
BRANCH  86  87
ATOM     87  C   UNL A   1      33.009  18.046  24.800  1.00  0.00    -0.030 A 
ATOM     88  C   UNL A   1      34.325  18.064  24.345  1.00  0.00     0.007 A 
ATOM     89  C   UNL A   1      32.553  16.860  25.374  1.00  0.00     0.114 A 
ATOM     90  C   UNL A   1      35.158  16.974  24.575  1.00  0.00     0.020 A 
ATOM     91  N   UNL A   1      33.327  15.768  25.575  1.00  0.00    -0.264 NA
ATOM     92  C   UNL A   1      34.621  15.862  25.197  1.00  0.00     0.111 A 
ENDBRANCH  86  87
ENDBRANCH  85  86
ENDBRANCH  77  85
ENDBRANCH  75  77
ENDBRANCH  74  75
ENDBRANCH  73  74
ENDBRANCH  72  73
ENDBRANCH  71  72
ENDBRANCH  70  71
ENDBRANCH   1  70
TORSDOF 23
ENDMDL
