MODEL 1
REMARK VINA RESULT:     -10.6      0.000      0.000
REMARK SMILES O=C(OCCOCCOCCOC(=O)[C@H]1CC=CC[C@@H]1C(=O)NNc1ccccc1)c1ccc(-c2c3nc(c(-c4ccc(S(=O)(=O)[O-])cc4)c4ccc([nH]4)c(-c4ccc(S(=O)(=O)[O-])cc4)c4nc(c(-c5ccc(S(=O)(=O)[O-])cc5)c5ccc2[nH]5)C=C4)C=C3)cc1
REMARK SMILES IDX 7 1 6 2 5 3 4 4 3 5 2 6 1 7 31 8 32 9 90 10 33 11 89 12
REMARK SMILES IDX 34 13 35 14 36 15 83 16 37 17 88 18 82 19 84 20 38 21 87 22
REMARK SMILES IDX 81 23 80 24 39 26 69 27 50 28 68 29 51 30 54 31 67 32 85 33
REMARK SMILES IDX 52 34 53 35 66 37 86 38 55 39 40 40 41 41 49 42 42 43 48 44
REMARK SMILES IDX 43 45 44 46 45 47 46 48 47 49 70 50 71 51 79 52 72 53 78 54
REMARK SMILES IDX 73 55 74 56 75 57 76 58 77 59 56 60 57 61 65 62 58 63 64 64
REMARK SMILES IDX 59 65 60 66 61 67 62 68 63 69 8 70 9 71 10 72 11 73 12 74
REMARK SMILES IDX 13 75 14 76 15 77 16 78 20 79 17 80 19 81 18 82 21 83 22 84
REMARK SMILES IDX 23 85 24 87 25 89 26 90 30 91 27 92 29 93 28 94
REMARK H PARENT 84 25 54 36 23 86 24 88
REMARK Flexibility Score: inf
ROOT
ATOM      1  C   UNL A   1      30.844  28.694  24.165  1.00  0.00     0.188 C 
ENDROOT
BRANCH   1   2
ATOM      2  O   UNL A   1      31.993  29.351  24.680  1.00  0.00    -0.376 OA
BRANCH   2   3
ATOM      3  C   UNL A   1      31.870  30.071  25.906  1.00  0.00     0.202 C 
BRANCH   3   4
ATOM      4  C   UNL A   1      32.853  29.810  27.066  1.00  0.00     0.261 C 
BRANCH   4   5
ATOM      5  O   UNL A   1      34.003  30.675  27.171  1.00  0.00    -0.460 OA
BRANCH   5   6
ATOM      6  C   UNL A   1      34.807  30.962  28.224  1.00  0.00     0.338 C 
ATOM      7  O   UNL A   1      34.461  31.807  29.039  1.00  0.00    -0.246 OA
BRANCH   6   8
ATOM      8  C   UNL A   1      36.120  30.300  28.411  1.00  0.00     0.060 A 
ATOM      9  C   UNL A   1      36.457  29.597  29.560  1.00  0.00     0.016 A 
ATOM     10  C   UNL A   1      37.014  30.280  27.335  1.00  0.00     0.016 A 
ATOM     11  C   UNL A   1      37.734  29.103  29.753  1.00  0.00     0.010 A 
ATOM     12  C   UNL A   1      38.264  29.665  27.471  1.00  0.00     0.010 A 
ATOM     13  C   UNL A   1      38.659  29.148  28.714  1.00  0.00    -0.014 A 
BRANCH  13  14
ATOM     14  C   UNL A   1      40.063  28.779  29.002  1.00  0.00     0.031 A 
ATOM     15  C   UNL A   1      40.903  29.750  29.784  1.00  0.00     0.074 A 
ATOM     16  C   UNL A   1      40.524  27.553  28.690  1.00  0.00     0.049 A 
ATOM     17  N   UNL A   1      42.153  29.657  30.146  1.00  0.00    -0.248 NA
ATOM     18  C   UNL A   1      40.243  30.990  30.231  1.00  0.00     0.031 C 
ATOM     19  C   UNL A   1      39.740  26.497  28.048  1.00  0.00     0.029 A 
ATOM     20  N   UNL A   1      41.745  26.968  28.898  1.00  0.00    -0.354 N 
ATOM     21  C   UNL A   1      42.437  30.837  30.823  1.00  0.00     0.074 A 
ATOM     22  C   UNL A   1      41.238  31.641  30.809  1.00  0.00     0.031 C 
ATOM     23  C   UNL A   1      40.485  25.388  27.935  1.00  0.00     0.029 A 
ATOM     24  C   UNL A   1      41.819  25.672  28.441  1.00  0.00     0.049 A 
ATOM     25  H   UNL A   1      42.497  27.430  29.333  1.00  0.00     0.167 HD
ATOM     26  C   UNL A   1      43.599  31.213  31.403  1.00  0.00     0.031 A 
ATOM     27  C   UNL A   1      42.857  24.816  28.415  1.00  0.00     0.031 A 
ATOM     28  C   UNL A   1      44.775  30.388  31.404  1.00  0.00     0.049 A 
ATOM     29  C   UNL A   1      44.164  25.295  28.981  1.00  0.00     0.074 A 
ATOM     30  C   UNL A   1      46.025  30.665  31.922  1.00  0.00     0.029 A 
ATOM     31  N   UNL A   1      44.837  29.113  30.853  1.00  0.00    -0.354 N 
ATOM     32  N   UNL A   1      44.435  26.437  29.570  1.00  0.00    -0.248 NA
ATOM     33  C   UNL A   1      45.304  24.379  28.876  1.00  0.00     0.031 C 
ATOM     34  C   UNL A   1      46.860  29.581  31.630  1.00  0.00     0.029 A 
ATOM     35  C   UNL A   1      46.112  28.600  30.995  1.00  0.00     0.049 A 
ATOM     36  H   UNL A   1      44.084  28.645  30.426  1.00  0.00     0.167 HD
ATOM     37  C   UNL A   1      45.773  26.368  29.931  1.00  0.00     0.074 A 
ATOM     38  C   UNL A   1      46.248  25.064  29.508  1.00  0.00     0.031 C 
ATOM     39  C   UNL A   1      46.542  27.294  30.556  1.00  0.00     0.031 A 
BRANCH  26  40
ATOM     40  C   UNL A   1      43.658  32.598  31.992  1.00  0.00    -0.014 A 
ATOM     41  C   UNL A   1      43.116  32.896  33.256  1.00  0.00     0.010 A 
ATOM     42  C   UNL A   1      44.239  33.635  31.239  1.00  0.00     0.010 A 
ATOM     43  C   UNL A   1      43.104  34.211  33.729  1.00  0.00     0.020 A 
ATOM     44  C   UNL A   1      44.256  34.946  31.721  1.00  0.00     0.020 A 
ATOM     45  C   UNL A   1      43.669  35.229  32.954  1.00  0.00     0.054 A 
BRANCH  45  46
ATOM     46  S   UNL A   1      43.630  36.930  33.583  1.00  0.00     0.124 S 
ATOM     47  O   UNL A   1      42.447  36.907  34.442  1.00  0.00    -0.237 OA
ATOM     48  O   UNL A   1      44.908  37.043  34.281  1.00  0.00    -0.237 OA
ATOM     49  O   UNL A   1      43.507  37.746  32.377  1.00  0.00    -0.744 OA
ENDBRANCH  45  46
ENDBRANCH  26  40
BRANCH  27  50
ATOM     50  C   UNL A   1      42.707  23.459  27.817  1.00  0.00    -0.014 A 
ATOM     51  C   UNL A   1      42.125  22.407  28.547  1.00  0.00     0.010 A 
ATOM     52  C   UNL A   1      43.139  23.210  26.500  1.00  0.00     0.010 A 
ATOM     53  C   UNL A   1      41.995  21.134  27.979  1.00  0.00     0.020 A 
ATOM     54  C   UNL A   1      42.983  21.949  25.918  1.00  0.00     0.020 A 
ATOM     55  C   UNL A   1      42.424  20.913  26.667  1.00  0.00     0.054 A 
BRANCH  55  56
ATOM     56  S   UNL A   1      42.215  19.263  25.940  1.00  0.00     0.124 S 
ATOM     57  O   UNL A   1      40.771  19.196  25.746  1.00  0.00    -0.237 OA
ATOM     58  O   UNL A   1      43.015  19.354  24.720  1.00  0.00    -0.237 OA
ATOM     59  O   UNL A   1      42.752  18.367  26.962  1.00  0.00    -0.744 OA
ENDBRANCH  55  56
ENDBRANCH  27  50
BRANCH  39  60
ATOM     60  C   UNL A   1      47.961  26.903  30.856  1.00  0.00    -0.014 A 
ATOM     61  C   UNL A   1      48.997  27.153  29.940  1.00  0.00     0.010 A 
ATOM     62  C   UNL A   1      48.261  26.315  32.098  1.00  0.00     0.010 A 
ATOM     63  C   UNL A   1      50.307  26.786  30.249  1.00  0.00     0.020 A 
ATOM     64  C   UNL A   1      49.574  25.978  32.422  1.00  0.00     0.020 A 
ATOM     65  C   UNL A   1      50.586  26.201  31.488  1.00  0.00     0.054 A 
BRANCH  65  66
ATOM     66  S   UNL A   1      52.302  25.770  31.881  1.00  0.00     0.124 S 
ATOM     67  O   UNL A   1      52.600  26.683  32.981  1.00  0.00    -0.237 OA
ATOM     68  O   UNL A   1      52.204  24.359  32.243  1.00  0.00    -0.237 OA
ATOM     69  O   UNL A   1      53.020  26.040  30.636  1.00  0.00    -0.744 OA
ENDBRANCH  65  66
ENDBRANCH  39  60
ENDBRANCH  13  14
ENDBRANCH   6   8
ENDBRANCH   5   6
ENDBRANCH   4   5
ENDBRANCH   3   4
ENDBRANCH   2   3
ENDBRANCH   1   2
BRANCH   1  70
ATOM     70  C   UNL A   1      30.759  28.675  22.634  1.00  0.00     0.188 C 
BRANCH  70  71
ATOM     71  O   UNL A   1      31.004  27.447  21.976  1.00  0.00    -0.376 OA
BRANCH  71  72
ATOM     72  C   UNL A   1      31.617  26.433  22.760  1.00  0.00     0.202 C 
BRANCH  72  73
ATOM     73  C   UNL A   1      31.016  25.004  22.849  1.00  0.00     0.261 C 
BRANCH  73  74
ATOM     74  O   UNL A   1      31.585  24.023  23.759  1.00  0.00    -0.463 OA
BRANCH  74  75
ATOM     75  C   UNL A   1      32.682  23.384  23.255  1.00  0.00     0.310 C 
ATOM     76  O   UNL A   1      33.008  23.490  22.074  1.00  0.00    -0.252 OA
BRANCH  75  77
ATOM     77  C   UNL A   1      33.413  22.430  24.231  1.00  0.00     0.116 C 
ATOM     78  C   UNL A   1      34.908  22.497  23.865  1.00  0.00     0.043 C 
ATOM     79  C   UNL A   1      33.289  22.678  25.756  1.00  0.00     0.098 C 
ATOM     80  C   UNL A   1      35.507  23.798  24.337  1.00  0.00    -0.030 C 
ATOM     81  C   UNL A   1      33.822  24.048  26.175  1.00  0.00     0.041 C 
ATOM     82  C   UNL A   1      34.988  24.517  25.348  1.00  0.00    -0.030 C 
BRANCH  79  83
ATOM     83  C   UNL A   1      33.879  21.470  26.536  1.00  0.00     0.242 C 
ATOM     84  O   UNL A   1      34.892  21.646  27.223  1.00  0.00    -0.273 OA
ATOM     85  N   UNL A   1      33.316  20.220  26.610  1.00  0.00    -0.270 N 
ATOM     86  H   UNL A   1      33.556  19.658  27.383  1.00  0.00     0.191 HD
BRANCH  85  87
ATOM     87  N   UNL A   1      32.443  19.691  25.688  1.00  0.00    -0.299 N 
ATOM     88  H   UNL A   1      31.496  19.960  25.712  1.00  0.00     0.188 HD
BRANCH  87  89
ATOM     89  C   UNL A   1      32.873  18.774  24.713  1.00  0.00     0.054 A 
ATOM     90  C   UNL A   1      33.971  17.956  25.036  1.00  0.00     0.027 A 
ATOM     91  C   UNL A   1      32.351  18.681  23.421  1.00  0.00     0.027 A 
ATOM     92  C   UNL A   1      34.489  17.028  24.127  1.00  0.00     0.002 A 
ATOM     93  C   UNL A   1      32.859  17.743  22.509  1.00  0.00     0.002 A 
ATOM     94  C   UNL A   1      33.921  16.913  22.864  1.00  0.00     0.000 A 
ENDBRANCH  87  89
ENDBRANCH  85  87
ENDBRANCH  79  83
ENDBRANCH  75  77
ENDBRANCH  74  75
ENDBRANCH  73  74
ENDBRANCH  72  73
ENDBRANCH  71  72
ENDBRANCH  70  71
ENDBRANCH   1  70
TORSDOF 23
ENDMDL
MODEL 2
REMARK VINA RESULT:     -10.1      2.757      3.846
REMARK SMILES O=C(OCCOCCOCCOC(=O)[C@H]1CC=CC[C@@H]1C(=O)NNc1ccccc1)c1ccc(-c2c3nc(c(-c4ccc(S(=O)(=O)[O-])cc4)c4ccc([nH]4)c(-c4ccc(S(=O)(=O)[O-])cc4)c4nc(c(-c5ccc(S(=O)(=O)[O-])cc5)c5ccc2[nH]5)C=C4)C=C3)cc1
REMARK SMILES IDX 7 1 6 2 5 3 4 4 3 5 2 6 1 7 31 8 32 9 90 10 33 11 89 12
REMARK SMILES IDX 34 13 35 14 36 15 83 16 37 17 88 18 82 19 84 20 38 21 87 22
REMARK SMILES IDX 81 23 80 24 39 26 69 27 50 28 68 29 51 30 54 31 67 32 85 33
REMARK SMILES IDX 52 34 53 35 66 37 86 38 55 39 40 40 41 41 49 42 42 43 48 44
REMARK SMILES IDX 43 45 44 46 45 47 46 48 47 49 70 50 71 51 79 52 72 53 78 54
REMARK SMILES IDX 73 55 74 56 75 57 76 58 77 59 56 60 57 61 65 62 58 63 64 64
REMARK SMILES IDX 59 65 60 66 61 67 62 68 63 69 8 70 9 71 10 72 11 73 12 74
REMARK SMILES IDX 13 75 14 76 15 77 16 78 20 79 17 80 19 81 18 82 21 83 22 84
REMARK SMILES IDX 23 85 24 87 25 89 26 90 30 91 27 92 29 93 28 94
REMARK H PARENT 84 25 54 36 23 86 24 88
REMARK Flexibility Score: inf
ROOT
ATOM      1  C   UNL A   1      30.837  28.981  23.897  1.00  0.00     0.188 C 
ENDROOT
BRANCH   1   2
ATOM      2  O   UNL A   1      31.835  29.675  24.633  1.00  0.00    -0.376 OA
BRANCH   2   3
ATOM      3  C   UNL A   1      31.459  30.303  25.858  1.00  0.00     0.202 C 
BRANCH   3   4
ATOM      4  C   UNL A   1      32.407  30.269  27.075  1.00  0.00     0.261 C 
BRANCH   4   5
ATOM      5  O   UNL A   1      33.618  31.051  26.998  1.00  0.00    -0.460 OA
BRANCH   5   6
ATOM      6  C   UNL A   1      34.365  31.632  27.968  1.00  0.00     0.338 C 
ATOM      7  O   UNL A   1      33.970  32.658  28.506  1.00  0.00    -0.246 OA
BRANCH   6   8
ATOM      8  C   UNL A   1      35.674  31.077  28.386  1.00  0.00     0.060 A 
ATOM      9  C   UNL A   1      35.854  29.746  28.737  1.00  0.00     0.016 A 
ATOM     10  C   UNL A   1      36.802  31.900  28.308  1.00  0.00     0.016 A 
ATOM     11  C   UNL A   1      37.058  29.293  29.245  1.00  0.00     0.010 A 
ATOM     12  C   UNL A   1      38.056  31.414  28.693  1.00  0.00     0.010 A 
ATOM     13  C   UNL A   1      38.170  30.129  29.245  1.00  0.00    -0.014 A 
BRANCH  13  14
ATOM     14  C   UNL A   1      39.390  29.683  29.953  1.00  0.00     0.031 A 
ATOM     15  C   UNL A   1      39.713  30.322  31.275  1.00  0.00     0.074 A 
ATOM     16  C   UNL A   1      40.107  28.641  29.490  1.00  0.00     0.049 A 
ATOM     17  N   UNL A   1      40.725  30.108  32.071  1.00  0.00    -0.248 NA
ATOM     18  C   UNL A   1      38.762  31.330  31.777  1.00  0.00     0.031 C 
ATOM     19  C   UNL A   1      39.792  27.873  28.284  1.00  0.00     0.029 A 
ATOM     20  N   UNL A   1      41.222  28.020  29.987  1.00  0.00    -0.354 N 
ATOM     21  C   UNL A   1      40.553  30.981  33.140  1.00  0.00     0.074 A 
ATOM     22  C   UNL A   1      39.351  31.740  32.887  1.00  0.00     0.031 C 
ATOM     23  C   UNL A   1      40.673  26.873  28.144  1.00  0.00     0.029 A 
ATOM     24  C   UNL A   1      41.651  26.963  29.217  1.00  0.00     0.049 A 
ATOM     25  H   UNL A   1      41.672  28.302  30.815  1.00  0.00     0.167 HD
ATOM     26  C   UNL A   1      41.333  31.131  34.234  1.00  0.00     0.031 A 
ATOM     27  C   UNL A   1      42.729  26.169  29.353  1.00  0.00     0.031 A 
ATOM     28  C   UNL A   1      42.521  30.357  34.459  1.00  0.00     0.049 A 
ATOM     29  C   UNL A   1      43.632  26.421  30.527  1.00  0.00     0.074 A 
ATOM     30  C   UNL A   1      43.420  30.437  35.505  1.00  0.00     0.029 A 
ATOM     31  N   UNL A   1      42.974  29.353  33.611  1.00  0.00    -0.354 N 
ATOM     32  N   UNL A   1      43.487  27.288  31.504  1.00  0.00    -0.248 NA
ATOM     33  C   UNL A   1      44.842  25.598  30.619  1.00  0.00     0.031 C 
ATOM     34  C   UNL A   1      44.449  29.521  35.258  1.00  0.00     0.029 A 
ATOM     35  C   UNL A   1      44.154  28.822  34.097  1.00  0.00     0.049 A 
ATOM     36  H   UNL A   1      42.520  29.062  32.788  1.00  0.00     0.167 HD
ATOM     37  C   UNL A   1      44.576  27.098  32.342  1.00  0.00     0.074 A 
ATOM     38  C   UNL A   1      45.359  26.021  31.765  1.00  0.00     0.031 C 
ATOM     39  C   UNL A   1      44.902  27.749  33.487  1.00  0.00     0.031 A 
BRANCH  26  40
ATOM     40  C   UNL A   1      40.961  32.227  35.199  1.00  0.00    -0.014 A 
ATOM     41  C   UNL A   1      41.428  33.545  35.047  1.00  0.00     0.010 A 
ATOM     42  C   UNL A   1      40.154  31.914  36.308  1.00  0.00     0.010 A 
ATOM     43  C   UNL A   1      41.140  34.515  36.012  1.00  0.00     0.020 A 
ATOM     44  C   UNL A   1      39.839  32.886  37.260  1.00  0.00     0.020 A 
ATOM     45  C   UNL A   1      40.353  34.175  37.118  1.00  0.00     0.054 A 
BRANCH  45  46
ATOM     46  S   UNL A   1      40.004  35.446  38.364  1.00  0.00     0.124 S 
ATOM     47  O   UNL A   1      39.752  36.622  37.534  1.00  0.00    -0.237 OA
ATOM     48  O   UNL A   1      38.836  34.905  39.055  1.00  0.00    -0.237 OA
ATOM     49  O   UNL A   1      41.228  35.498  39.161  1.00  0.00    -0.744 OA
ENDBRANCH  45  46
ENDBRANCH  26  40
BRANCH  27  50
ATOM     50  C   UNL A   1      43.018  25.103  28.352  1.00  0.00    -0.014 A 
ATOM     51  C   UNL A   1      42.761  23.750  28.640  1.00  0.00     0.010 A 
ATOM     52  C   UNL A   1      43.545  25.438  27.089  1.00  0.00     0.010 A 
ATOM     53  C   UNL A   1      43.043  22.757  27.695  1.00  0.00     0.020 A 
ATOM     54  C   UNL A   1      43.799  24.452  26.131  1.00  0.00     0.020 A 
ATOM     55  C   UNL A   1      43.559  23.114  26.445  1.00  0.00     0.054 A 
BRANCH  55  56
ATOM     56  S   UNL A   1      43.885  21.811  25.224  1.00  0.00     0.124 S 
ATOM     57  O   UNL A   1      42.802  20.870  25.486  1.00  0.00    -0.237 OA
ATOM     58  O   UNL A   1      43.800  22.538  23.959  1.00  0.00    -0.237 OA
ATOM     59  O   UNL A   1      45.223  21.339  25.574  1.00  0.00    -0.744 OA
ENDBRANCH  55  56
ENDBRANCH  27  50
BRANCH  39  60
ATOM     60  C   UNL A   1      46.134  27.278  34.205  1.00  0.00    -0.014 A 
ATOM     61  C   UNL A   1      47.408  27.767  33.869  1.00  0.00     0.010 A 
ATOM     62  C   UNL A   1      46.001  26.362  35.264  1.00  0.00     0.010 A 
ATOM     63  C   UNL A   1      48.534  27.318  34.558  1.00  0.00     0.020 A 
ATOM     64  C   UNL A   1      47.121  25.937  35.976  1.00  0.00     0.020 A 
ATOM     65  C   UNL A   1      48.382  26.405  35.608  1.00  0.00     0.054 A 
BRANCH  65  66
ATOM     66  S   UNL A   1      49.857  25.867  36.513  1.00  0.00     0.124 S 
ATOM     67  O   UNL A   1      49.273  25.227  37.689  1.00  0.00    -0.237 OA
ATOM     68  O   UNL A   1      50.506  24.967  35.564  1.00  0.00    -0.237 OA
ATOM     69  O   UNL A   1      50.576  27.113  36.774  1.00  0.00    -0.744 OA
ENDBRANCH  65  66
ENDBRANCH  39  60
ENDBRANCH  13  14
ENDBRANCH   6   8
ENDBRANCH   5   6
ENDBRANCH   4   5
ENDBRANCH   3   4
ENDBRANCH   2   3
ENDBRANCH   1   2
BRANCH   1  70
ATOM     70  C   UNL A   1      31.244  28.624  22.462  1.00  0.00     0.188 C 
BRANCH  70  71
ATOM     71  O   UNL A   1      30.750  27.415  21.919  1.00  0.00    -0.376 OA
BRANCH  71  72
ATOM     72  C   UNL A   1      31.620  26.294  22.004  1.00  0.00     0.202 C 
BRANCH  72  73
ATOM     73  C   UNL A   1      31.790  25.500  23.328  1.00  0.00     0.261 C 
BRANCH  73  74
ATOM     74  O   UNL A   1      33.094  24.990  23.716  1.00  0.00    -0.463 OA
BRANCH  74  75
ATOM     75  C   UNL A   1      33.291  24.966  25.068  1.00  0.00     0.310 C 
ATOM     76  O   UNL A   1      33.181  25.980  25.756  1.00  0.00    -0.252 OA
BRANCH  75  77
ATOM     77  C   UNL A   1      33.772  23.617  25.655  1.00  0.00     0.116 C 
ATOM     78  C   UNL A   1      33.054  23.452  27.008  1.00  0.00     0.043 C 
ATOM     79  C   UNL A   1      33.546  22.319  24.838  1.00  0.00     0.098 C 
ATOM     80  C   UNL A   1      31.605  23.094  26.794  1.00  0.00    -0.030 C 
ATOM     81  C   UNL A   1      32.067  22.048  24.564  1.00  0.00     0.041 C 
ATOM     82  C   UNL A   1      31.157  22.503  25.673  1.00  0.00    -0.030 C 
BRANCH  79  83
ATOM     83  C   UNL A   1      34.326  21.144  25.490  1.00  0.00     0.242 C 
ATOM     84  O   UNL A   1      33.746  20.438  26.324  1.00  0.00    -0.273 OA
ATOM     85  N   UNL A   1      35.596  20.748  25.150  1.00  0.00    -0.270 N 
ATOM     86  H   UNL A   1      35.851  19.818  25.349  1.00  0.00     0.191 HD
BRANCH  85  87
ATOM     87  N   UNL A   1      36.540  21.549  24.553  1.00  0.00    -0.299 N 
ATOM     88  H   UNL A   1      36.557  21.626  23.571  1.00  0.00     0.188 HD
BRANCH  87  89
ATOM     89  C   UNL A   1      37.482  22.264  25.313  1.00  0.00     0.054 A 
ATOM     90  C   UNL A   1      38.624  21.566  25.749  1.00  0.00     0.027 A 
ATOM     91  C   UNL A   1      37.325  23.583  25.743  1.00  0.00     0.027 A 
ATOM     92  C   UNL A   1      39.608  22.179  26.529  1.00  0.00     0.002 A 
ATOM     93  C   UNL A   1      38.315  24.208  26.516  1.00  0.00     0.002 A 
ATOM     94  C   UNL A   1      39.458  23.509  26.902  1.00  0.00     0.000 A 
ENDBRANCH  87  89
ENDBRANCH  85  87
ENDBRANCH  79  83
ENDBRANCH  75  77
ENDBRANCH  74  75
ENDBRANCH  73  74
ENDBRANCH  72  73
ENDBRANCH  71  72
ENDBRANCH  70  71
ENDBRANCH   1  70
TORSDOF 23
ENDMDL
MODEL 3
REMARK VINA RESULT:     -10.0      3.619      9.661
REMARK SMILES O=C(OCCOCCOCCOC(=O)[C@H]1CC=CC[C@@H]1C(=O)NNc1ccccc1)c1ccc(-c2c3nc(c(-c4ccc(S(=O)(=O)[O-])cc4)c4ccc([nH]4)c(-c4ccc(S(=O)(=O)[O-])cc4)c4nc(c(-c5ccc(S(=O)(=O)[O-])cc5)c5ccc2[nH]5)C=C4)C=C3)cc1
REMARK SMILES IDX 7 1 6 2 5 3 4 4 3 5 2 6 1 7 31 8 32 9 90 10 33 11 89 12
REMARK SMILES IDX 34 13 35 14 36 15 83 16 37 17 88 18 82 19 84 20 38 21 87 22
REMARK SMILES IDX 81 23 80 24 39 26 69 27 50 28 68 29 51 30 54 31 67 32 85 33
REMARK SMILES IDX 52 34 53 35 66 37 86 38 55 39 40 40 41 41 49 42 42 43 48 44
REMARK SMILES IDX 43 45 44 46 45 47 46 48 47 49 70 50 71 51 79 52 72 53 78 54
REMARK SMILES IDX 73 55 74 56 75 57 76 58 77 59 56 60 57 61 65 62 58 63 64 64
REMARK SMILES IDX 59 65 60 66 61 67 62 68 63 69 8 70 9 71 10 72 11 73 12 74
REMARK SMILES IDX 13 75 14 76 15 77 16 78 20 79 17 80 19 81 18 82 21 83 22 84
REMARK SMILES IDX 23 85 24 87 25 89 26 90 30 91 27 92 29 93 28 94
REMARK H PARENT 84 25 54 36 23 86 24 88
REMARK Flexibility Score: inf
ROOT
ATOM      1  C   UNL A   1      40.523  19.675  26.218  1.00  0.00     0.188 C 
ENDROOT
BRANCH   1   2
ATOM      2  O   UNL A   1      41.528  18.835  25.669  1.00  0.00    -0.376 OA
BRANCH   2   3
ATOM      3  C   UNL A   1      42.703  18.589  26.441  1.00  0.00     0.202 C 
BRANCH   3   4
ATOM      4  C   UNL A   1      43.957  17.981  25.782  1.00  0.00     0.261 C 
BRANCH   4   5
ATOM      5  O   UNL A   1      44.875  18.888  25.133  1.00  0.00    -0.460 OA
BRANCH   5   6
ATOM      6  C   UNL A   1      44.650  19.962  24.337  1.00  0.00     0.338 C 
ATOM      7  O   UNL A   1      44.496  19.803  23.133  1.00  0.00    -0.246 OA
BRANCH   6   8
ATOM      8  C   UNL A   1      44.612  21.342  24.876  1.00  0.00     0.060 A 
ATOM      9  C   UNL A   1      44.244  22.442  24.113  1.00  0.00     0.016 A 
ATOM     10  C   UNL A   1      44.841  21.530  26.243  1.00  0.00     0.016 A 
ATOM     11  C   UNL A   1      44.344  23.728  24.610  1.00  0.00     0.010 A 
ATOM     12  C   UNL A   1      44.814  22.817  26.790  1.00  0.00     0.010 A 
ATOM     13  C   UNL A   1      44.648  23.931  25.953  1.00  0.00    -0.014 A 
BRANCH  13  14
ATOM     14  C   UNL A   1      44.925  25.309  26.415  1.00  0.00     0.031 A 
ATOM     15  C   UNL A   1      46.306  25.862  26.204  1.00  0.00     0.074 A 
ATOM     16  C   UNL A   1      43.928  26.085  26.883  1.00  0.00     0.049 A 
ATOM     17  N   UNL A   1      46.789  27.030  26.531  1.00  0.00    -0.248 NA
ATOM     18  C   UNL A   1      47.275  24.987  25.519  1.00  0.00     0.031 C 
ATOM     19  C   UNL A   1      42.528  25.677  27.000  1.00  0.00     0.029 A 
ATOM     20  N   UNL A   1      43.923  27.386  27.313  1.00  0.00    -0.354 N 
ATOM     21  C   UNL A   1      48.120  27.011  26.131  1.00  0.00     0.074 A 
ATOM     22  C   UNL A   1      48.379  25.714  25.552  1.00  0.00     0.031 C 
ATOM     23  C   UNL A   1      41.794  26.706  27.446  1.00  0.00     0.029 A 
ATOM     24  C   UNL A   1      42.681  27.830  27.704  1.00  0.00     0.049 A 
ATOM     25  H   UNL A   1      44.730  27.948  27.339  1.00  0.00     0.167 HD
ATOM     26  C   UNL A   1      49.042  27.995  26.240  1.00  0.00     0.031 A 
ATOM     27  C   UNL A   1      42.305  29.009  28.233  1.00  0.00     0.031 A 
ATOM     28  C   UNL A   1      48.753  29.277  26.818  1.00  0.00     0.049 A 
ATOM     29  C   UNL A   1      43.370  30.050  28.432  1.00  0.00     0.074 A 
ATOM     30  C   UNL A   1      49.605  30.345  27.022  1.00  0.00     0.029 A 
ATOM     31  N   UNL A   1      47.501  29.661  27.284  1.00  0.00    -0.354 N 
ATOM     32  N   UNL A   1      44.639  30.001  28.099  1.00  0.00    -0.248 NA
ATOM     33  C   UNL A   1      42.959  31.300  29.079  1.00  0.00     0.031 C 
ATOM     34  C   UNL A   1      48.881  31.353  27.669  1.00  0.00     0.029 A 
ATOM     35  C   UNL A   1      47.563  30.941  27.801  1.00  0.00     0.049 A 
ATOM     36  H   UNL A   1      46.691  29.104  27.250  1.00  0.00     0.167 HD
ATOM     37  C   UNL A   1      45.177  31.224  28.473  1.00  0.00     0.074 A 
ATOM     38  C   UNL A   1      44.087  31.997  29.040  1.00  0.00     0.031 C 
ATOM     39  C   UNL A   1      46.451  31.673  28.359  1.00  0.00     0.031 A 
BRANCH  26  40
ATOM     40  C   UNL A   1      50.448  27.670  25.807  1.00  0.00    -0.014 A 
ATOM     41  C   UNL A   1      51.370  27.048  26.670  1.00  0.00     0.010 A 
ATOM     42  C   UNL A   1      50.865  28.035  24.514  1.00  0.00     0.010 A 
ATOM     43  C   UNL A   1      52.694  26.847  26.266  1.00  0.00     0.020 A 
ATOM     44  C   UNL A   1      52.179  27.810  24.096  1.00  0.00     0.020 A 
ATOM     45  C   UNL A   1      53.091  27.237  24.983  1.00  0.00     0.054 A 
BRANCH  45  46
ATOM     46  S   UNL A   1      54.817  26.980  24.487  1.00  0.00     0.124 S 
ATOM     47  O   UNL A   1      54.676  26.647  23.071  1.00  0.00    -0.237 OA
ATOM     48  O   UNL A   1      55.429  28.276  24.769  1.00  0.00    -0.237 OA
ATOM     49  O   UNL A   1      55.265  25.882  25.342  1.00  0.00    -0.744 OA
ENDBRANCH  45  46
ENDBRANCH  26  40
BRANCH  27  50
ATOM     50  C   UNL A   1      40.887  29.247  28.628  1.00  0.00    -0.014 A 
ATOM     51  C   UNL A   1      40.500  29.227  29.980  1.00  0.00     0.010 A 
ATOM     52  C   UNL A   1      39.910  29.508  27.648  1.00  0.00     0.010 A 
ATOM     53  C   UNL A   1      39.165  29.444  30.340  1.00  0.00     0.020 A 
ATOM     54  C   UNL A   1      38.581  29.757  28.005  1.00  0.00     0.020 A 
ATOM     55  C   UNL A   1      38.214  29.709  29.350  1.00  0.00     0.054 A 
BRANCH  55  56
ATOM     56  S   UNL A   1      36.495  30.020  29.844  1.00  0.00     0.124 S 
ATOM     57  O   UNL A   1      36.453  31.477  29.898  1.00  0.00    -0.237 OA
ATOM     58  O   UNL A   1      35.739  29.405  28.755  1.00  0.00    -0.237 OA
ATOM     59  O   UNL A   1      36.379  29.342  31.134  1.00  0.00    -0.744 OA
ENDBRANCH  55  56
ENDBRANCH  27  50
BRANCH  39  60
ATOM     60  C   UNL A   1      46.716  33.079  28.817  1.00  0.00    -0.014 A 
ATOM     61  C   UNL A   1      47.134  33.352  30.130  1.00  0.00     0.010 A 
ATOM     62  C   UNL A   1      46.585  34.134  27.897  1.00  0.00     0.010 A 
ATOM     63  C   UNL A   1      47.381  34.667  30.527  1.00  0.00     0.020 A 
ATOM     64  C   UNL A   1      46.864  35.445  28.281  1.00  0.00     0.020 A 
ATOM     65  C   UNL A   1      47.244  35.704  29.599  1.00  0.00     0.054 A 
BRANCH  65  66
ATOM     66  S   UNL A   1      47.609  37.399  30.127  1.00  0.00     0.124 S 
ATOM     67  O   UNL A   1      48.918  37.245  30.755  1.00  0.00    -0.237 OA
ATOM     68  O   UNL A   1      47.598  38.137  28.867  1.00  0.00    -0.237 OA
ATOM     69  O   UNL A   1      46.514  37.719  31.041  1.00  0.00    -0.744 OA
ENDBRANCH  65  66
ENDBRANCH  39  60
ENDBRANCH  13  14
ENDBRANCH   6   8
ENDBRANCH   5   6
ENDBRANCH   4   5
ENDBRANCH   3   4
ENDBRANCH   2   3
ENDBRANCH   1   2
BRANCH   1  70
ATOM     70  C   UNL A   1      41.061  20.909  26.951  1.00  0.00     0.188 C 
BRANCH  70  71
ATOM     71  O   UNL A   1      40.833  22.176  26.364  1.00  0.00    -0.376 OA
BRANCH  71  72
ATOM     72  C   UNL A   1      39.540  22.731  26.566  1.00  0.00     0.202 C 
BRANCH  72  73
ATOM     73  C   UNL A   1      38.314  22.243  25.747  1.00  0.00     0.261 C 
BRANCH  73  74
ATOM     74  O   UNL A   1      37.102  23.044  25.692  1.00  0.00    -0.463 OA
BRANCH  74  75
ATOM     75  C   UNL A   1      36.187  22.588  24.786  1.00  0.00     0.310 C 
ATOM     76  O   UNL A   1      36.507  22.295  23.635  1.00  0.00    -0.252 OA
BRANCH  75  77
ATOM     77  C   UNL A   1      34.714  22.576  25.263  1.00  0.00     0.116 C 
ATOM     78  C   UNL A   1      34.532  23.831  26.139  1.00  0.00     0.043 C 
ATOM     79  C   UNL A   1      33.583  22.571  24.204  1.00  0.00     0.098 C 
ATOM     80  C   UNL A   1      34.476  25.068  25.279  1.00  0.00    -0.030 C 
ATOM     81  C   UNL A   1      33.623  23.799  23.294  1.00  0.00     0.041 C 
ATOM     82  C   UNL A   1      34.110  25.043  23.986  1.00  0.00    -0.030 C 
BRANCH  79  83
ATOM     83  C   UNL A   1      32.217  22.302  24.894  1.00  0.00     0.242 C 
ATOM     84  O   UNL A   1      31.399  23.226  24.970  1.00  0.00    -0.273 OA
ATOM     85  N   UNL A   1      31.785  21.082  25.354  1.00  0.00    -0.270 N 
ATOM     86  H   UNL A   1      30.813  20.945  25.438  1.00  0.00     0.191 HD
BRANCH  85  87
ATOM     87  N   UNL A   1      32.605  20.036  25.707  1.00  0.00    -0.299 N 
ATOM     88  H   UNL A   1      32.936  19.974  26.632  1.00  0.00     0.188 HD
BRANCH  87  89
ATOM     89  C   UNL A   1      32.980  19.052  24.775  1.00  0.00     0.054 A 
ATOM     90  C   UNL A   1      34.214  18.409  24.977  1.00  0.00     0.027 A 
ATOM     91  C   UNL A   1      32.263  18.734  23.620  1.00  0.00     0.027 A 
ATOM     92  C   UNL A   1      34.688  17.433  24.096  1.00  0.00     0.002 A 
ATOM     93  C   UNL A   1      32.728  17.747  22.737  1.00  0.00     0.002 A 
ATOM     94  C   UNL A   1      33.934  17.092  22.979  1.00  0.00     0.000 A 
ENDBRANCH  87  89
ENDBRANCH  85  87
ENDBRANCH  79  83
ENDBRANCH  75  77
ENDBRANCH  74  75
ENDBRANCH  73  74
ENDBRANCH  72  73
ENDBRANCH  71  72
ENDBRANCH  70  71
ENDBRANCH   1  70
TORSDOF 23
ENDMDL
