MODEL 1
REMARK VINA RESULT:     -11.0      0.000      0.000
REMARK SMILES COc1ccc(-c2nc(C(C)C)cc3nn(CC(=O)OCCOCCOCCOC(=O)c4ccc(-c5c6nc(c(-c7ccc(S(=O)(=O)[O-])cc7)c7ccc([nH]7)c(-c7ccc(S(=O)(=O)[O-])cc7)c7nc(c(-c8ccc(S(=O)(=O)[O-])cc8)c8ccc5[nH]8)C=C7)C=C6)cc4)c(=O)n23)cc1
REMARK SMILES IDX 24 1 23 2 22 3 21 4 20 5 18 6 19 7 17 8 16 9 7 10 8 11 94 12
REMARK SMILES IDX 9 13 14 14 92 15 13 16 15 17 93 18 6 19 3 20 4 21 96 22 5 23
REMARK SMILES IDX 95 24 2 25 1 26 10 27 11 28 12 29 25 30 26 31 27 32 28 33
REMARK SMILES IDX 29 34 30 35 31 36 32 37 33 38 91 39 34 40 90 41 35 42 36 43
REMARK SMILES IDX 37 44 84 45 38 46 89 47 83 48 85 49 39 50 88 51 82 52 81 53
REMARK SMILES IDX 40 55 70 56 51 57 69 58 52 59 55 60 68 61 86 62 53 63 54 64
REMARK SMILES IDX 67 66 87 67 56 68 41 69 42 70 50 71 43 72 49 73 44 74 45 75
REMARK SMILES IDX 46 76 47 77 48 78 71 79 72 80 80 81 73 82 79 83 74 84 75 85
REMARK SMILES IDX 76 86 77 87 78 88 57 89 58 90 66 91 59 92 65 93 60 94 61 95
REMARK SMILES IDX 62 96 63 97 64 98
REMARK H PARENT 85 54 55 65
REMARK Flexibility Score: inf
ROOT
ATOM      1  C   UNL A   1      33.691  27.731  23.986  1.00  0.00     0.188 C 
ENDROOT
BRANCH   1   2
ATOM      2  O   UNL A   1      33.263  27.631  22.626  1.00  0.00    -0.376 OA
BRANCH   2   3
ATOM      3  C   UNL A   1      31.966  27.119  22.375  1.00  0.00     0.202 C 
BRANCH   3   4
ATOM      4  C   UNL A   1      31.907  25.739  21.696  1.00  0.00     0.261 C 
BRANCH   4   5
ATOM      5  O   UNL A   1      31.358  24.675  22.518  1.00  0.00    -0.462 OA
BRANCH   5   6
ATOM      6  C   UNL A   1      30.907  24.989  23.758  1.00  0.00     0.328 C 
ATOM      7  O   UNL A   1      29.855  25.595  23.953  1.00  0.00    -0.250 OA
BRANCH   6   8
ATOM      8  C   UNL A   1      31.773  24.485  24.946  1.00  0.00     0.272 C 
BRANCH   8   9
ATOM      9  N   UNL A   1      32.439  23.178  25.043  1.00  0.00    -0.201 N 
ATOM     10  C   UNL A   1      34.938  20.522  24.821  1.00  0.00     0.150 A 
ATOM     11  N   UNL A   1      34.687  19.250  24.700  1.00  0.00    -0.234 NA
ATOM     12  N   UNL A   1      33.911  21.484  24.843  1.00  0.00    -0.226 N 
ATOM     13  C   UNL A   1      33.386  18.829  24.598  1.00  0.00     0.049 A 
ATOM     14  C   UNL A   1      32.620  21.082  24.869  1.00  0.00     0.165 A 
ATOM     15  C   UNL A   1      33.827  22.888  24.858  1.00  0.00     0.352 A 
ATOM     16  C   UNL A   1      32.337  19.656  24.715  1.00  0.00     0.073 A 
ATOM     17  N   UNL A   1      31.717  22.009  25.000  1.00  0.00    -0.149 NA
ATOM     18  O   UNL A   1      34.701  23.711  24.640  1.00  0.00    -0.245 OA
BRANCH  10  19
ATOM     19  C   UNL A   1      36.359  20.882  25.040  1.00  0.00     0.018 A 
ATOM     20  C   UNL A   1      38.995  21.499  25.839  1.00  0.00     0.118 A 
ATOM     21  C   UNL A   1      37.937  22.354  26.152  1.00  0.00     0.047 A 
ATOM     22  C   UNL A   1      38.714  20.288  25.205  1.00  0.00     0.047 A 
ATOM     23  C   UNL A   1      36.625  22.034  25.786  1.00  0.00     0.016 A 
ATOM     24  C   UNL A   1      37.397  19.976  24.808  1.00  0.00     0.016 A 
BRANCH  20  25
ATOM     25  O   UNL A   1      40.222  21.968  26.208  1.00  0.00    -0.497 OA
ATOM     26  C   UNL A   1      41.326  21.068  26.187  1.00  0.00     0.278 C 
ENDBRANCH  20  25
ENDBRANCH  10  19
BRANCH  13  27
ATOM     27  C   UNL A   1      33.228  17.337  24.343  1.00  0.00     0.032 C 
ATOM     28  C   UNL A   1      34.069  16.835  23.167  1.00  0.00     0.014 C 
ATOM     29  C   UNL A   1      33.530  16.543  25.616  1.00  0.00     0.014 C 
ENDBRANCH  13  27
ENDBRANCH   8   9
ENDBRANCH   6   8
ENDBRANCH   5   6
ENDBRANCH   4   5
ENDBRANCH   3   4
ENDBRANCH   2   3
ENDBRANCH   1   2
BRANCH   1  30
ATOM     30  C   UNL A   1      33.446  29.055  24.766  1.00  0.00     0.188 C 
BRANCH  30  31
ATOM     31  O   UNL A   1      32.183  29.084  25.395  1.00  0.00    -0.376 OA
BRANCH  31  32
ATOM     32  C   UNL A   1      31.730  30.330  25.868  1.00  0.00     0.202 C 
BRANCH  32  33
ATOM     33  C   UNL A   1      32.278  30.766  27.220  1.00  0.00     0.261 C 
BRANCH  33  34
ATOM     34  O   UNL A   1      33.329  31.726  27.174  1.00  0.00    -0.460 OA
BRANCH  34  35
ATOM     35  C   UNL A   1      32.979  32.917  27.700  1.00  0.00     0.338 C 
ATOM     36  O   UNL A   1      31.998  33.583  27.396  1.00  0.00    -0.246 OA
BRANCH  35  37
ATOM     37  C   UNL A   1      34.020  33.489  28.538  1.00  0.00     0.060 A 
ATOM     38  C   UNL A   1      35.125  33.920  27.802  1.00  0.00     0.016 A 
ATOM     39  C   UNL A   1      34.108  33.019  29.850  1.00  0.00     0.016 A 
ATOM     40  C   UNL A   1      36.347  33.501  28.236  1.00  0.00     0.010 A 
ATOM     41  C   UNL A   1      35.345  32.631  30.295  1.00  0.00     0.010 A 
ATOM     42  C   UNL A   1      36.426  32.763  29.424  1.00  0.00    -0.014 A 
BRANCH  42  43
ATOM     43  C   UNL A   1      37.738  32.272  29.784  1.00  0.00     0.031 A 
ATOM     44  C   UNL A   1      37.890  30.846  29.410  1.00  0.00     0.074 A 
ATOM     45  C   UNL A   1      38.683  33.070  30.313  1.00  0.00     0.049 A 
ATOM     46  N   UNL A   1      38.140  29.838  30.178  1.00  0.00    -0.248 NA
ATOM     47  C   UNL A   1      37.452  30.476  28.046  1.00  0.00     0.031 C 
ATOM     48  C   UNL A   1      38.629  34.523  30.503  1.00  0.00     0.029 A 
ATOM     49  N   UNL A   1      39.966  32.767  30.647  1.00  0.00    -0.354 N 
ATOM     50  C   UNL A   1      38.118  28.735  29.332  1.00  0.00     0.074 A 
ATOM     51  C   UNL A   1      37.457  29.149  28.124  1.00  0.00     0.031 C 
ATOM     52  C   UNL A   1      39.889  34.995  30.623  1.00  0.00     0.029 A 
ATOM     53  C   UNL A   1      40.812  33.871  30.632  1.00  0.00     0.049 A 
ATOM     54  H   UNL A   1      40.265  31.859  30.878  1.00  0.00     0.167 HD
ATOM     55  C   UNL A   1      38.944  27.676  29.536  1.00  0.00     0.031 A 
ATOM     56  C   UNL A   1      42.163  33.848  30.496  1.00  0.00     0.031 A 
ATOM     57  C   UNL A   1      39.371  27.591  30.906  1.00  0.00     0.049 A 
ATOM     58  C   UNL A   1      42.611  32.464  30.802  1.00  0.00     0.074 A 
ATOM     59  C   UNL A   1      38.714  27.452  32.112  1.00  0.00     0.029 A 
ATOM     60  N   UNL A   1      40.631  28.054  31.202  1.00  0.00    -0.354 N 
ATOM     61  N   UNL A   1      42.524  31.923  31.985  1.00  0.00    -0.248 NA
ATOM     62  C   UNL A   1      42.724  31.523  29.698  1.00  0.00     0.031 C 
ATOM     63  C   UNL A   1      39.451  28.248  33.032  1.00  0.00     0.029 A 
ATOM     64  C   UNL A   1      40.552  28.784  32.360  1.00  0.00     0.049 A 
ATOM     65  H   UNL A   1      41.447  27.893  30.674  1.00  0.00     0.167 HD
ATOM     66  C   UNL A   1      42.139  30.610  31.750  1.00  0.00     0.074 A 
ATOM     67  C   UNL A   1      42.373  30.396  30.324  1.00  0.00     0.031 C 
ATOM     68  C   UNL A   1      41.403  29.915  32.669  1.00  0.00     0.031 A 
BRANCH  55  69
ATOM     69  C   UNL A   1      39.709  27.059  28.388  1.00  0.00    -0.014 A 
ATOM     70  C   UNL A   1      40.158  25.732  28.503  1.00  0.00     0.010 A 
ATOM     71  C   UNL A   1      40.248  27.826  27.328  1.00  0.00     0.010 A 
ATOM     72  C   UNL A   1      41.150  25.231  27.649  1.00  0.00     0.020 A 
ATOM     73  C   UNL A   1      41.199  27.325  26.446  1.00  0.00     0.020 A 
ATOM     74  C   UNL A   1      41.674  26.040  26.638  1.00  0.00     0.054 A 
BRANCH  74  75
ATOM     75  S   UNL A   1      43.039  25.434  25.621  1.00  0.00     0.124 S 
ATOM     76  O   UNL A   1      42.521  24.148  25.164  1.00  0.00    -0.237 OA
ATOM     77  O   UNL A   1      43.147  26.476  24.603  1.00  0.00    -0.237 OA
ATOM     78  O   UNL A   1      44.158  25.365  26.556  1.00  0.00    -0.744 OA
ENDBRANCH  74  75
ENDBRANCH  55  69
BRANCH  56  79
ATOM     79  C   UNL A   1      43.013  34.826  29.762  1.00  0.00    -0.014 A 
ATOM     80  C   UNL A   1      43.218  34.714  28.374  1.00  0.00     0.010 A 
ATOM     81  C   UNL A   1      43.417  36.029  30.381  1.00  0.00     0.010 A 
ATOM     82  C   UNL A   1      43.751  35.783  27.629  1.00  0.00     0.020 A 
ATOM     83  C   UNL A   1      43.960  37.091  29.650  1.00  0.00     0.020 A 
ATOM     84  C   UNL A   1      44.103  36.973  28.272  1.00  0.00     0.054 A 
BRANCH  84  85
ATOM     85  S   UNL A   1      44.629  38.408  27.288  1.00  0.00     0.124 S 
ATOM     86  O   UNL A   1      45.065  39.348  28.317  1.00  0.00    -0.237 OA
ATOM     87  O   UNL A   1      45.687  37.851  26.452  1.00  0.00    -0.237 OA
ATOM     88  O   UNL A   1      43.415  38.796  26.570  1.00  0.00    -0.744 OA
ENDBRANCH  84  85
ENDBRANCH  56  79
BRANCH  68  89
ATOM     89  C   UNL A   1      41.281  30.481  34.066  1.00  0.00    -0.014 A 
ATOM     90  C   UNL A   1      42.108  30.108  35.143  1.00  0.00     0.010 A 
ATOM     91  C   UNL A   1      40.383  31.547  34.248  1.00  0.00     0.010 A 
ATOM     92  C   UNL A   1      42.015  30.769  36.379  1.00  0.00     0.020 A 
ATOM     93  C   UNL A   1      40.300  32.222  35.467  1.00  0.00     0.020 A 
ATOM     94  C   UNL A   1      41.110  31.822  36.531  1.00  0.00     0.054 A 
BRANCH  94  95
ATOM     95  S   UNL A   1      41.018  32.707  38.114  1.00  0.00     0.124 S 
ATOM     96  O   UNL A   1      39.589  32.679  38.412  1.00  0.00    -0.237 OA
ATOM     97  O   UNL A   1      41.862  31.895  38.988  1.00  0.00    -0.237 OA
ATOM     98  O   UNL A   1      41.559  34.030  37.805  1.00  0.00    -0.744 OA
ENDBRANCH  94  95
ENDBRANCH  68  89
ENDBRANCH  42  43
ENDBRANCH  35  37
ENDBRANCH  34  35
ENDBRANCH  33  34
ENDBRANCH  32  33
ENDBRANCH  31  32
ENDBRANCH  30  31
ENDBRANCH   1  30
TORSDOF 24
ENDMDL
MODEL 2
REMARK VINA RESULT:     -10.0      5.438     11.115
REMARK SMILES COc1ccc(-c2nc(C(C)C)cc3nn(CC(=O)OCCOCCOCCOC(=O)c4ccc(-c5c6nc(c(-c7ccc(S(=O)(=O)[O-])cc7)c7ccc([nH]7)c(-c7ccc(S(=O)(=O)[O-])cc7)c7nc(c(-c8ccc(S(=O)(=O)[O-])cc8)c8ccc5[nH]8)C=C7)C=C6)cc4)c(=O)n23)cc1
REMARK SMILES IDX 24 1 23 2 22 3 21 4 20 5 18 6 19 7 17 8 16 9 7 10 8 11 94 12
REMARK SMILES IDX 9 13 14 14 92 15 13 16 15 17 93 18 6 19 3 20 4 21 96 22 5 23
REMARK SMILES IDX 95 24 2 25 1 26 10 27 11 28 12 29 25 30 26 31 27 32 28 33
REMARK SMILES IDX 29 34 30 35 31 36 32 37 33 38 91 39 34 40 90 41 35 42 36 43
REMARK SMILES IDX 37 44 84 45 38 46 89 47 83 48 85 49 39 50 88 51 82 52 81 53
REMARK SMILES IDX 40 55 70 56 51 57 69 58 52 59 55 60 68 61 86 62 53 63 54 64
REMARK SMILES IDX 67 66 87 67 56 68 41 69 42 70 50 71 43 72 49 73 44 74 45 75
REMARK SMILES IDX 46 76 47 77 48 78 71 79 72 80 80 81 73 82 79 83 74 84 75 85
REMARK SMILES IDX 76 86 77 87 78 88 57 89 58 90 66 91 59 92 65 93 60 94 61 95
REMARK SMILES IDX 62 96 63 97 64 98
REMARK H PARENT 85 54 55 65
REMARK Flexibility Score: inf
ROOT
ATOM      1  C   UNL A   1      35.706  23.072  25.399  1.00  0.00     0.188 C 
ENDROOT
BRANCH   1   2
ATOM      2  O   UNL A   1      34.951  24.212  25.814  1.00  0.00    -0.376 OA
BRANCH   2   3
ATOM      3  C   UNL A   1      33.886  24.639  24.983  1.00  0.00     0.202 C 
BRANCH   3   4
ATOM      4  C   UNL A   1      33.664  26.160  24.901  1.00  0.00     0.261 C 
BRANCH   4   5
ATOM      5  O   UNL A   1      32.276  26.581  24.981  1.00  0.00    -0.462 OA
BRANCH   5   6
ATOM      6  C   UNL A   1      31.873  27.255  26.087  1.00  0.00     0.328 C 
ATOM      7  O   UNL A   1      31.353  26.700  27.054  1.00  0.00    -0.250 OA
BRANCH   6   8
ATOM      8  C   UNL A   1      32.157  28.782  26.097  1.00  0.00     0.272 C 
BRANCH   8   9
ATOM      9  N   UNL A   1      33.137  29.478  26.943  1.00  0.00    -0.201 N 
ATOM     10  C   UNL A   1      35.011  32.106  28.656  1.00  0.00     0.150 A 
ATOM     11  N   UNL A   1      36.258  32.034  29.023  1.00  0.00    -0.234 NA
ATOM     12  N   UNL A   1      34.383  31.063  27.949  1.00  0.00    -0.226 N 
ATOM     13  C   UNL A   1      36.984  30.911  28.721  1.00  0.00     0.049 A 
ATOM     14  C   UNL A   1      35.042  29.899  27.751  1.00  0.00     0.165 A 
ATOM     15  C   UNL A   1      33.136  30.854  27.333  1.00  0.00     0.352 A 
ATOM     16  C   UNL A   1      36.447  29.824  28.147  1.00  0.00     0.073 A 
ATOM     17  N   UNL A   1      34.375  28.934  27.190  1.00  0.00    -0.149 NA
ATOM     18  O   UNL A   1      32.268  31.668  27.061  1.00  0.00    -0.245 OA
BRANCH  10  19
ATOM     19  C   UNL A   1      34.268  33.302  29.120  1.00  0.00     0.018 A 
ATOM     20  C   UNL A   1      33.209  35.734  30.082  1.00  0.00     0.118 A 
ATOM     21  C   UNL A   1      33.799  34.821  30.955  1.00  0.00     0.047 A 
ATOM     22  C   UNL A   1      33.234  35.467  28.712  1.00  0.00     0.047 A 
ATOM     23  C   UNL A   1      34.355  33.628  30.477  1.00  0.00     0.016 A 
ATOM     24  C   UNL A   1      33.767  34.254  28.229  1.00  0.00     0.016 A 
BRANCH  20  25
ATOM     25  O   UNL A   1      32.660  36.823  30.697  1.00  0.00    -0.497 OA
ATOM     26  C   UNL A   1      33.363  37.411  31.787  1.00  0.00     0.278 C 
ENDBRANCH  20  25
ENDBRANCH  10  19
BRANCH  13  27
ATOM     27  C   UNL A   1      38.456  30.995  29.097  1.00  0.00     0.032 C 
ATOM     28  C   UNL A   1      38.684  31.208  30.596  1.00  0.00     0.014 C 
ATOM     29  C   UNL A   1      39.206  29.759  28.595  1.00  0.00     0.014 C 
ENDBRANCH  13  27
ENDBRANCH   8   9
ENDBRANCH   6   8
ENDBRANCH   5   6
ENDBRANCH   4   5
ENDBRANCH   3   4
ENDBRANCH   2   3
ENDBRANCH   1   2
BRANCH   1  30
ATOM     30  C   UNL A   1      37.252  23.191  25.265  1.00  0.00     0.188 C 
BRANCH  30  31
ATOM     31  O   UNL A   1      37.873  23.542  26.484  1.00  0.00    -0.376 OA
BRANCH  31  32
ATOM     32  C   UNL A   1      39.206  23.132  26.666  1.00  0.00     0.202 C 
BRANCH  32  33
ATOM     33  C   UNL A   1      39.500  21.669  26.362  1.00  0.00     0.261 C 
BRANCH  33  34
ATOM     34  O   UNL A   1      40.621  21.434  25.515  1.00  0.00    -0.460 OA
BRANCH  34  35
ATOM     35  C   UNL A   1      41.785  21.348  26.191  1.00  0.00     0.338 C 
ATOM     36  O   UNL A   1      41.978  20.715  27.222  1.00  0.00    -0.246 OA
BRANCH  35  37
ATOM     37  C   UNL A   1      42.786  22.282  25.707  1.00  0.00     0.060 A 
ATOM     38  C   UNL A   1      44.071  21.972  26.157  1.00  0.00     0.016 A 
ATOM     39  C   UNL A   1      42.362  23.585  25.438  1.00  0.00     0.016 A 
ATOM     40  C   UNL A   1      44.784  22.991  26.716  1.00  0.00     0.010 A 
ATOM     41  C   UNL A   1      43.101  24.608  25.972  1.00  0.00     0.010 A 
ATOM     42  C   UNL A   1      44.234  24.279  26.714  1.00  0.00    -0.014 A 
BRANCH  42  43
ATOM     43  C   UNL A   1      44.999  25.299  27.399  1.00  0.00     0.031 A 
ATOM     44  C   UNL A   1      44.729  25.271  28.857  1.00  0.00     0.074 A 
ATOM     45  C   UNL A   1      45.882  26.087  26.759  1.00  0.00     0.049 A 
ATOM     46  N   UNL A   1      44.249  26.210  29.601  1.00  0.00    -0.248 NA
ATOM     47  C   UNL A   1      44.765  23.941  29.504  1.00  0.00     0.031 C 
ATOM     48  C   UNL A   1      46.317  25.998  25.362  1.00  0.00     0.029 A 
ATOM     49  N   UNL A   1      46.703  27.040  27.273  1.00  0.00    -0.354 N 
ATOM     50  C   UNL A   1      44.144  25.641  30.865  1.00  0.00     0.074 A 
ATOM     51  C   UNL A   1      44.232  24.217  30.690  1.00  0.00     0.031 C 
ATOM     52  C   UNL A   1      47.501  26.636  25.231  1.00  0.00     0.029 A 
ATOM     53  C   UNL A   1      47.837  27.263  26.499  1.00  0.00     0.049 A 
ATOM     54  H   UNL A   1      46.515  27.525  28.109  1.00  0.00     0.167 HD
ATOM     55  C   UNL A   1      44.348  26.380  31.987  1.00  0.00     0.031 A 
ATOM     56  C   UNL A   1      49.010  27.801  26.924  1.00  0.00     0.031 A 
ATOM     57  C   UNL A   1      44.128  27.781  31.749  1.00  0.00     0.049 A 
ATOM     58  C   UNL A   1      48.734  28.496  28.209  1.00  0.00     0.074 A 
ATOM     59  C   UNL A   1      43.046  28.525  31.322  1.00  0.00     0.029 A 
ATOM     60  N   UNL A   1      45.238  28.571  31.571  1.00  0.00    -0.354 N 
ATOM     61  N   UNL A   1      47.984  29.558  28.307  1.00  0.00    -0.248 NA
ATOM     62  C   UNL A   1      48.907  27.744  29.443  1.00  0.00     0.031 C 
ATOM     63  C   UNL A   1      43.600  29.550  30.505  1.00  0.00     0.029 A 
ATOM     64  C   UNL A   1      44.990  29.418  30.522  1.00  0.00     0.049 A 
ATOM     65  H   UNL A   1      46.066  28.534  32.103  1.00  0.00     0.167 HD
ATOM     66  C   UNL A   1      47.254  29.374  29.475  1.00  0.00     0.074 A 
ATOM     67  C   UNL A   1      47.935  28.290  30.180  1.00  0.00     0.031 C 
ATOM     68  C   UNL A   1      46.009  29.919  29.622  1.00  0.00     0.031 A 
BRANCH  55  69
ATOM     69  C   UNL A   1      45.207  25.855  33.114  1.00  0.00    -0.014 A 
ATOM     70  C   UNL A   1      46.605  25.905  32.984  1.00  0.00     0.010 A 
ATOM     71  C   UNL A   1      44.691  25.055  34.161  1.00  0.00     0.010 A 
ATOM     72  C   UNL A   1      47.433  25.133  33.811  1.00  0.00     0.020 A 
ATOM     73  C   UNL A   1      45.505  24.321  35.017  1.00  0.00     0.020 A 
ATOM     74  C   UNL A   1      46.873  24.334  34.810  1.00  0.00     0.054 A 
BRANCH  74  75
ATOM     75  S   UNL A   1      47.933  23.247  35.789  1.00  0.00     0.124 S 
ATOM     76  O   UNL A   1      48.737  24.209  36.535  1.00  0.00    -0.237 OA
ATOM     77  O   UNL A   1      46.956  22.491  36.569  1.00  0.00    -0.237 OA
ATOM     78  O   UNL A   1      48.652  22.472  34.782  1.00  0.00    -0.744 OA
ENDBRANCH  74  75
ENDBRANCH  55  69
BRANCH  56  79
ATOM     79  C   UNL A   1      50.384  27.426  26.491  1.00  0.00    -0.014 A 
ATOM     80  C   UNL A   1      50.821  26.089  26.535  1.00  0.00     0.010 A 
ATOM     81  C   UNL A   1      51.188  28.347  25.785  1.00  0.00     0.010 A 
ATOM     82  C   UNL A   1      51.982  25.680  25.852  1.00  0.00     0.020 A 
ATOM     83  C   UNL A   1      52.351  27.952  25.115  1.00  0.00     0.020 A 
ATOM     84  C   UNL A   1      52.731  26.614  25.131  1.00  0.00     0.054 A 
BRANCH  84  85
ATOM     85  S   UNL A   1      54.130  26.056  24.112  1.00  0.00     0.124 S 
ATOM     86  O   UNL A   1      55.117  27.107  24.337  1.00  0.00    -0.237 OA
ATOM     87  O   UNL A   1      54.447  24.755  24.693  1.00  0.00    -0.237 OA
ATOM     88  O   UNL A   1      53.573  26.009  22.761  1.00  0.00    -0.744 OA
ENDBRANCH  84  85
ENDBRANCH  56  79
BRANCH  68  89
ATOM     89  C   UNL A   1      45.568  30.976  28.636  1.00  0.00    -0.014 A 
ATOM     90  C   UNL A   1      45.828  32.353  28.787  1.00  0.00     0.010 A 
ATOM     91  C   UNL A   1      44.998  30.530  27.432  1.00  0.00     0.010 A 
ATOM     92  C   UNL A   1      45.496  33.260  27.767  1.00  0.00     0.020 A 
ATOM     93  C   UNL A   1      44.684  31.423  26.406  1.00  0.00     0.020 A 
ATOM     94  C   UNL A   1      44.925  32.786  26.582  1.00  0.00     0.054 A 
BRANCH  94  95
ATOM     95  S   UNL A   1      44.535  33.951  25.245  1.00  0.00     0.124 S 
ATOM     96  O   UNL A   1      45.819  34.604  25.007  1.00  0.00    -0.237 OA
ATOM     97  O   UNL A   1      44.067  33.071  24.176  1.00  0.00    -0.237 OA
ATOM     98  O   UNL A   1      43.502  34.810  25.822  1.00  0.00    -0.744 OA
ENDBRANCH  94  95
ENDBRANCH  68  89
ENDBRANCH  42  43
ENDBRANCH  35  37
ENDBRANCH  34  35
ENDBRANCH  33  34
ENDBRANCH  32  33
ENDBRANCH  31  32
ENDBRANCH  30  31
ENDBRANCH   1  30
TORSDOF 24
ENDMDL
MODEL 3
REMARK VINA RESULT:     -10.0      1.447      2.947
REMARK SMILES COc1ccc(-c2nc(C(C)C)cc3nn(CC(=O)OCCOCCOCCOC(=O)c4ccc(-c5c6nc(c(-c7ccc(S(=O)(=O)[O-])cc7)c7ccc([nH]7)c(-c7ccc(S(=O)(=O)[O-])cc7)c7nc(c(-c8ccc(S(=O)(=O)[O-])cc8)c8ccc5[nH]8)C=C7)C=C6)cc4)c(=O)n23)cc1
REMARK SMILES IDX 24 1 23 2 22 3 21 4 20 5 18 6 19 7 17 8 16 9 7 10 8 11 94 12
REMARK SMILES IDX 9 13 14 14 92 15 13 16 15 17 93 18 6 19 3 20 4 21 96 22 5 23
REMARK SMILES IDX 95 24 2 25 1 26 10 27 11 28 12 29 25 30 26 31 27 32 28 33
REMARK SMILES IDX 29 34 30 35 31 36 32 37 33 38 91 39 34 40 90 41 35 42 36 43
REMARK SMILES IDX 37 44 84 45 38 46 89 47 83 48 85 49 39 50 88 51 82 52 81 53
REMARK SMILES IDX 40 55 70 56 51 57 69 58 52 59 55 60 68 61 86 62 53 63 54 64
REMARK SMILES IDX 67 66 87 67 56 68 41 69 42 70 50 71 43 72 49 73 44 74 45 75
REMARK SMILES IDX 46 76 47 77 48 78 71 79 72 80 80 81 73 82 79 83 74 84 75 85
REMARK SMILES IDX 76 86 77 87 78 88 57 89 58 90 66 91 59 92 65 93 60 94 61 95
REMARK SMILES IDX 62 96 63 97 64 98
REMARK H PARENT 85 54 55 65
REMARK Flexibility Score: inf
ROOT
ATOM      1  C   UNL A   1      33.942  27.201  22.901  1.00  0.00     0.188 C 
ENDROOT
BRANCH   1   2
ATOM      2  O   UNL A   1      32.926  27.009  21.915  1.00  0.00    -0.376 OA
BRANCH   2   3
ATOM      3  C   UNL A   1      31.681  26.482  22.339  1.00  0.00     0.202 C 
BRANCH   3   4
ATOM      4  C   UNL A   1      31.661  24.976  22.659  1.00  0.00     0.261 C 
BRANCH   4   5
ATOM      5  O   UNL A   1      30.935  24.616  23.864  1.00  0.00    -0.462 OA
BRANCH   5   6
ATOM      6  C   UNL A   1      31.032  25.434  24.941  1.00  0.00     0.328 C 
ATOM      7  O   UNL A   1      30.121  26.179  25.299  1.00  0.00    -0.250 OA
BRANCH   6   8
ATOM      8  C   UNL A   1      32.354  25.339  25.752  1.00  0.00     0.272 C 
BRANCH   8   9
ATOM      9  N   UNL A   1      33.457  24.397  25.509  1.00  0.00    -0.201 N 
ATOM     10  C   UNL A   1      35.430  21.329  25.303  1.00  0.00     0.150 A 
ATOM     11  N   UNL A   1      36.727  21.253  25.380  1.00  0.00    -0.234 NA
ATOM     12  N   UNL A   1      34.746  22.551  25.449  1.00  0.00    -0.226 N 
ATOM     13  C   UNL A   1      37.455  22.394  25.601  1.00  0.00     0.049 A 
ATOM     14  C   UNL A   1      35.450  23.702  25.543  1.00  0.00     0.165 A 
ATOM     15  C   UNL A   1      33.405  22.968  25.522  1.00  0.00     0.352 A 
ATOM     16  C   UNL A   1      36.905  23.617  25.647  1.00  0.00     0.073 A 
ATOM     17  N   UNL A   1      34.767  24.809  25.564  1.00  0.00    -0.149 NA
ATOM     18  O   UNL A   1      32.401  22.296  25.688  1.00  0.00    -0.245 OA
BRANCH  10  19
ATOM     19  C   UNL A   1      34.729  20.072  24.949  1.00  0.00     0.018 A 
ATOM     20  C   UNL A   1      33.571  17.523  24.593  1.00  0.00     0.118 A 
ATOM     21  C   UNL A   1      34.932  17.726  24.359  1.00  0.00     0.047 A 
ATOM     22  C   UNL A   1      32.811  18.580  25.095  1.00  0.00     0.047 A 
ATOM     23  C   UNL A   1      35.515  18.981  24.567  1.00  0.00     0.016 A 
ATOM     24  C   UNL A   1      33.388  19.854  25.278  1.00  0.00     0.016 A 
BRANCH  20  25
ATOM     25  O   UNL A   1      33.133  16.265  24.293  1.00  0.00    -0.497 OA
ATOM     26  C   UNL A   1      32.689  15.430  25.358  1.00  0.00     0.278 C 
ENDBRANCH  20  25
ENDBRANCH  10  19
BRANCH  13  27
ATOM     27  C   UNL A   1      38.948  22.160  25.788  1.00  0.00     0.032 C 
ATOM     28  C   UNL A   1      39.592  23.141  26.770  1.00  0.00     0.014 C 
ATOM     29  C   UNL A   1      39.212  20.711  26.201  1.00  0.00     0.014 C 
ENDBRANCH  13  27
ENDBRANCH   8   9
ENDBRANCH   6   8
ENDBRANCH   5   6
ENDBRANCH   4   5
ENDBRANCH   3   4
ENDBRANCH   2   3
ENDBRANCH   1   2
BRANCH   1  30
ATOM     30  C   UNL A   1      33.911  28.480  23.787  1.00  0.00     0.188 C 
BRANCH  30  31
ATOM     31  O   UNL A   1      32.655  28.680  24.400  1.00  0.00    -0.376 OA
BRANCH  31  32
ATOM     32  C   UNL A   1      32.533  29.781  25.268  1.00  0.00     0.202 C 
BRANCH  32  33
ATOM     33  C   UNL A   1      33.235  29.649  26.613  1.00  0.00     0.261 C 
BRANCH  33  34
ATOM     34  O   UNL A   1      34.124  30.711  26.945  1.00  0.00    -0.460 OA
BRANCH  34  35
ATOM     35  C   UNL A   1      33.502  31.762  27.515  1.00  0.00     0.338 C 
ATOM     36  O   UNL A   1      32.390  32.187  27.229  1.00  0.00    -0.246 OA
BRANCH  35  37
ATOM     37  C   UNL A   1      34.377  32.529  28.386  1.00  0.00     0.060 A 
ATOM     38  C   UNL A   1      35.397  33.176  27.686  1.00  0.00     0.016 A 
ATOM     39  C   UNL A   1      34.513  32.083  29.702  1.00  0.00     0.016 A 
ATOM     40  C   UNL A   1      36.663  33.010  28.163  1.00  0.00     0.010 A 
ATOM     41  C   UNL A   1      35.787  31.951  30.191  1.00  0.00     0.010 A 
ATOM     42  C   UNL A   1      36.848  32.299  29.356  1.00  0.00    -0.014 A 
BRANCH  42  43
ATOM     43  C   UNL A   1      38.219  32.082  29.763  1.00  0.00     0.031 A 
ATOM     44  C   UNL A   1      38.628  30.679  29.512  1.00  0.00     0.074 A 
ATOM     45  C   UNL A   1      38.997  33.077  30.226  1.00  0.00     0.049 A 
ATOM     46  N   UNL A   1      39.038  29.800  30.364  1.00  0.00    -0.248 NA
ATOM     47  C   UNL A   1      38.290  30.126  28.182  1.00  0.00     0.031 C 
ATOM     48  C   UNL A   1      38.683  34.507  30.291  1.00  0.00     0.029 A 
ATOM     49  N   UNL A   1      40.306  33.036  30.590  1.00  0.00    -0.354 N 
ATOM     50  C   UNL A   1      39.228  28.644  29.615  1.00  0.00     0.074 A 
ATOM     51  C   UNL A   1      38.528  28.832  28.373  1.00  0.00     0.031 C 
ATOM     52  C   UNL A   1      39.837  35.205  30.376  1.00  0.00     0.029 A 
ATOM     53  C   UNL A   1      40.944  34.268  30.485  1.00  0.00     0.049 A 
ATOM     54  H   UNL A   1      40.757  32.218  30.899  1.00  0.00     0.167 HD
ATOM     55  C   UNL A   1      40.224  27.769  29.913  1.00  0.00     0.031 A 
ATOM     56  C   UNL A   1      42.280  34.475  30.358  1.00  0.00     0.031 A 
ATOM     57  C   UNL A   1      40.633  27.876  31.286  1.00  0.00     0.049 A 
ATOM     58  C   UNL A   1      42.960  33.223  30.782  1.00  0.00     0.074 A 
ATOM     59  C   UNL A   1      39.987  27.723  32.497  1.00  0.00     0.029 A 
ATOM     60  N   UNL A   1      41.784  28.580  31.547  1.00  0.00    -0.354 N 
ATOM     61  N   UNL A   1      42.947  32.775  32.007  1.00  0.00    -0.248 NA
ATOM     62  C   UNL A   1      43.259  32.228  29.763  1.00  0.00     0.031 C 
ATOM     63  C   UNL A   1      40.554  28.711  33.349  1.00  0.00     0.029 A 
ATOM     64  C   UNL A   1      41.555  29.377  32.639  1.00  0.00     0.049 A 
ATOM     65  H   UNL A   1      42.626  28.522  31.039  1.00  0.00     0.167 HD
ATOM     66  C   UNL A   1      42.805  31.399  31.883  1.00  0.00     0.074 A 
ATOM     67  C   UNL A   1      43.102  31.113  30.481  1.00  0.00     0.031 C 
ATOM     68  C   UNL A   1      42.186  30.663  32.854  1.00  0.00     0.031 A 
BRANCH  55  69
ATOM     69  C   UNL A   1      41.109  27.206  28.824  1.00  0.00    -0.014 A 
ATOM     70  C   UNL A   1      41.295  25.815  28.750  1.00  0.00     0.010 A 
ATOM     71  C   UNL A   1      41.986  28.009  28.059  1.00  0.00     0.010 A 
ATOM     72  C   UNL A   1      42.353  25.269  28.010  1.00  0.00     0.020 A 
ATOM     73  C   UNL A   1      43.010  27.476  27.284  1.00  0.00     0.020 A 
ATOM     74  C   UNL A   1      43.212  26.107  27.297  1.00  0.00     0.054 A 
BRANCH  74  75
ATOM     75  S   UNL A   1      44.646  25.410  26.447  1.00  0.00     0.124 S 
ATOM     76  O   UNL A   1      44.424  25.855  25.075  1.00  0.00    -0.237 OA
ATOM     77  O   UNL A   1      45.756  26.044  27.153  1.00  0.00    -0.237 OA
ATOM     78  O   UNL A   1      44.512  23.973  26.672  1.00  0.00    -0.744 OA
ENDBRANCH  74  75
ENDBRANCH  55  69
BRANCH  56  79
ATOM     79  C   UNL A   1      42.958  35.524  29.547  1.00  0.00    -0.014 A 
ATOM     80  C   UNL A   1      43.865  36.425  30.135  1.00  0.00     0.010 A 
ATOM     81  C   UNL A   1      42.912  35.479  28.137  1.00  0.00     0.010 A 
ATOM     82  C   UNL A   1      44.730  37.205  29.345  1.00  0.00     0.020 A 
ATOM     83  C   UNL A   1      43.759  36.260  27.343  1.00  0.00     0.020 A 
ATOM     84  C   UNL A   1      44.683  37.104  27.952  1.00  0.00     0.054 A 
BRANCH  84  85
ATOM     85  S   UNL A   1      45.914  37.980  26.941  1.00  0.00     0.124 S 
ATOM     86  O   UNL A   1      46.862  38.451  27.945  1.00  0.00    -0.237 OA
ATOM     87  O   UNL A   1      46.402  36.930  26.053  1.00  0.00    -0.237 OA
ATOM     88  O   UNL A   1      45.135  39.029  26.284  1.00  0.00    -0.744 OA
ENDBRANCH  84  85
ENDBRANCH  56  79
BRANCH  68  89
ATOM     89  C   UNL A   1      41.938  31.313  34.197  1.00  0.00    -0.014 A 
ATOM     90  C   UNL A   1      40.893  32.223  34.452  1.00  0.00     0.010 A 
ATOM     91  C   UNL A   1      42.712  30.859  35.279  1.00  0.00     0.010 A 
ATOM     92  C   UNL A   1      40.651  32.687  35.756  1.00  0.00     0.020 A 
ATOM     93  C   UNL A   1      42.464  31.301  36.580  1.00  0.00     0.020 A 
ATOM     94  C   UNL A   1      41.441  32.221  36.811  1.00  0.00     0.054 A 
BRANCH  94  95
ATOM     95  S   UNL A   1      41.103  32.786  38.503  1.00  0.00     0.124 S 
ATOM     96  O   UNL A   1      42.008  31.964  39.300  1.00  0.00    -0.237 OA
ATOM     97  O   UNL A   1      41.430  34.209  38.441  1.00  0.00    -0.237 OA
ATOM     98  O   UNL A   1      39.681  32.496  38.689  1.00  0.00    -0.744 OA
ENDBRANCH  94  95
ENDBRANCH  68  89
ENDBRANCH  42  43
ENDBRANCH  35  37
ENDBRANCH  34  35
ENDBRANCH  33  34
ENDBRANCH  32  33
ENDBRANCH  31  32
ENDBRANCH  30  31
ENDBRANCH   1  30
TORSDOF 24
ENDMDL
