MODEL 1
REMARK VINA RESULT:      -9.8      0.000      0.000
REMARK SMILES CCN(C(=O)c1ccc(C)cc1F)[C@@H]1COC[C@@H]1C(=O)OCCOCCOCCOC(=O)c1ccc(-c2c3nc(c(-c4ccc(S(=O)(=O)[O-])cc4)c4ccc([nH]4)c(-c4ccc(S(=O)(=O)[O-])cc4)c4nc(c(-c5ccc(S(=O)(=O)[O-])cc5)c5ccc2[nH]5)C=C4)C=C3)cc1
REMARK SMILES IDX 25 1 24 2 23 3 22 4 21 5 19 6 20 7 18 8 14 9 15 10 16 11
REMARK SMILES IDX 17 12 3 13 2 14 1 15 4 16 5 17 6 18 7 19 12 20 8 21 11 22
REMARK SMILES IDX 13 23 9 24 10 25 26 26 27 27 28 28 29 29 30 30 31 31 32 32
REMARK SMILES IDX 33 33 34 34 92 35 35 36 91 37 36 38 37 39 38 40 85 41 39 42
REMARK SMILES IDX 90 43 84 44 86 45 40 46 89 47 83 48 82 49 41 51 71 52 52 53
REMARK SMILES IDX 70 54 53 55 56 56 69 57 87 58 54 59 55 60 68 62 88 63 57 64
REMARK SMILES IDX 42 65 43 66 51 67 44 68 50 69 45 70 46 71 47 72 48 73 49 74
REMARK SMILES IDX 72 75 73 76 81 77 74 78 80 79 75 80 76 81 77 82 78 83 79 84
REMARK SMILES IDX 58 85 59 86 67 87 60 88 66 89 61 90 62 91 63 92 64 93 65 94
REMARK H PARENT 86 50 56 61
REMARK Flexibility Score: inf
ROOT
ATOM      1  C   UNL A   1      34.875  21.756  25.143  1.00  0.00     0.188 C 
ENDROOT
BRANCH   1   2
ATOM      2  O   UNL A   1      33.630  21.984  25.785  1.00  0.00    -0.376 OA
BRANCH   2   3
ATOM      3  C   UNL A   1      32.461  21.750  24.994  1.00  0.00     0.202 C 
BRANCH   3   4
ATOM      4  C   UNL A   1      32.718  21.345  23.544  1.00  0.00     0.261 C 
BRANCH   4   5
ATOM      5  O   UNL A   1      32.393  22.427  22.642  1.00  0.00    -0.463 OA
BRANCH   5   6
ATOM      6  C   UNL A   1      31.788  23.500  23.203  1.00  0.00     0.313 C 
ATOM      7  O   UNL A   1      30.569  23.577  23.336  1.00  0.00    -0.252 OA
BRANCH   6   8
ATOM      8  C   UNL A   1      32.719  24.659  23.510  1.00  0.00     0.150 C 
ATOM      9  C   UNL A   1      32.346  26.154  23.504  1.00  0.00     0.127 C 
ATOM     10  C   UNL A   1      32.480  26.541  22.027  1.00  0.00     0.186 C 
ATOM     11  O   UNL A   1      33.340  25.599  21.395  1.00  0.00    -0.378 OA
ATOM     12  C   UNL A   1      33.778  24.665  22.390  1.00  0.00     0.177 C 
BRANCH   9  13
ATOM     13  N   UNL A   1      31.196  26.818  24.182  1.00  0.00    -0.333 N 
BRANCH  13  14
ATOM     14  C   UNL A   1      30.372  27.662  23.281  1.00  0.00     0.117 C 
ATOM     15  C   UNL A   1      28.879  27.590  23.581  1.00  0.00     0.027 C 
ENDBRANCH  13  14
BRANCH  13  16
ATOM     16  C   UNL A   1      31.267  27.107  25.562  1.00  0.00     0.257 C 
ATOM     17  O   UNL A   1      30.570  26.449  26.336  1.00  0.00    -0.269 OA
BRANCH  16  18
ATOM     18  C   UNL A   1      32.175  28.183  26.137  1.00  0.00     0.075 A 
ATOM     19  C   UNL A   1      31.776  29.470  26.520  1.00  0.00     0.017 A 
ATOM     20  C   UNL A   1      33.525  27.878  26.369  1.00  0.00     0.136 A 
ATOM     21  C   UNL A   1      32.686  30.441  26.978  1.00  0.00     0.004 A 
ATOM     22  C   UNL A   1      34.428  28.818  26.900  1.00  0.00     0.043 A 
ATOM     23  F   UNL A   1      34.018  26.653  26.135  1.00  0.00    -0.206 F 
ATOM     24  C   UNL A   1      34.019  30.118  27.197  1.00  0.00    -0.048 A 
ATOM     25  C   UNL A   1      34.973  31.123  27.770  1.00  0.00     0.044 C 
ENDBRANCH  16  18
ENDBRANCH  13  16
ENDBRANCH   9  13
ENDBRANCH   6   8
ENDBRANCH   5   6
ENDBRANCH   4   5
ENDBRANCH   3   4
ENDBRANCH   2   3
ENDBRANCH   1   2
BRANCH   1  26
ATOM     26  C   UNL A   1      36.113  21.877  26.024  1.00  0.00     0.188 C 
BRANCH  26  27
ATOM     27  O   UNL A   1      37.356  22.053  25.353  1.00  0.00    -0.376 OA
BRANCH  27  28
ATOM     28  C   UNL A   1      38.277  22.873  26.078  1.00  0.00     0.202 C 
BRANCH  28  29
ATOM     29  C   UNL A   1      39.629  22.186  26.326  1.00  0.00     0.261 C 
BRANCH  29  30
ATOM     30  O   UNL A   1      40.385  22.852  27.353  1.00  0.00    -0.460 OA
BRANCH  30  31
ATOM     31  C   UNL A   1      41.246  23.811  26.918  1.00  0.00     0.338 C 
ATOM     32  O   UNL A   1      41.940  23.789  25.921  1.00  0.00    -0.246 OA
BRANCH  31  33
ATOM     33  C   UNL A   1      41.068  25.022  27.747  1.00  0.00     0.060 A 
ATOM     34  C   UNL A   1      42.067  26.005  27.695  1.00  0.00     0.016 A 
ATOM     35  C   UNL A   1      39.939  25.201  28.546  1.00  0.00     0.016 A 
ATOM     36  C   UNL A   1      41.948  27.169  28.450  1.00  0.00     0.010 A 
ATOM     37  C   UNL A   1      39.832  26.357  29.320  1.00  0.00     0.010 A 
ATOM     38  C   UNL A   1      40.846  27.332  29.294  1.00  0.00    -0.014 A 
BRANCH  38  39
ATOM     39  C   UNL A   1      40.832  28.418  30.300  1.00  0.00     0.031 A 
ATOM     40  C   UNL A   1      41.813  28.332  31.436  1.00  0.00     0.074 A 
ATOM     41  C   UNL A   1      39.963  29.440  30.214  1.00  0.00     0.049 A 
ATOM     42  N   UNL A   1      41.879  29.038  32.531  1.00  0.00    -0.248 NA
ATOM     43  C   UNL A   1      42.856  27.296  31.322  1.00  0.00     0.031 C 
ATOM     44  C   UNL A   1      39.022  29.665  29.117  1.00  0.00     0.029 A 
ATOM     45  N   UNL A   1      39.721  30.475  31.082  1.00  0.00    -0.354 N 
ATOM     46  C   UNL A   1      42.936  28.503  33.258  1.00  0.00     0.074 A 
ATOM     47  C   UNL A   1      43.483  27.413  32.483  1.00  0.00     0.031 C 
ATOM     48  C   UNL A   1      38.286  30.757  29.390  1.00  0.00     0.029 A 
ATOM     49  C   UNL A   1      38.665  31.271  30.704  1.00  0.00     0.049 A 
ATOM     50  H   UNL A   1      40.250  30.631  31.897  1.00  0.00     0.167 HD
ATOM     51  C   UNL A   1      43.398  28.884  34.472  1.00  0.00     0.031 A 
ATOM     52  C   UNL A   1      38.049  32.271  31.367  1.00  0.00     0.031 A 
ATOM     53  C   UNL A   1      42.845  29.978  35.223  1.00  0.00     0.049 A 
ATOM     54  C   UNL A   1      38.547  32.642  32.742  1.00  0.00     0.074 A 
ATOM     55  C   UNL A   1      43.242  30.462  36.456  1.00  0.00     0.029 A 
ATOM     56  N   UNL A   1      41.775  30.757  34.809  1.00  0.00    -0.354 N 
ATOM     57  N   UNL A   1      39.540  32.123  33.428  1.00  0.00    -0.248 NA
ATOM     58  C   UNL A   1      37.845  33.732  33.432  1.00  0.00     0.031 C 
ATOM     59  C   UNL A   1      42.373  31.497  36.814  1.00  0.00     0.029 A 
ATOM     60  C   UNL A   1      41.481  31.704  35.773  1.00  0.00     0.049 A 
ATOM     61  H   UNL A   1      41.297  30.652  33.955  1.00  0.00     0.167 HD
ATOM     62  C   UNL A   1      39.597  32.842  34.618  1.00  0.00     0.074 A 
ATOM     63  C   UNL A   1      38.551  33.842  34.549  1.00  0.00     0.031 C 
ATOM     64  C   UNL A   1      40.436  32.692  35.673  1.00  0.00     0.031 A 
BRANCH  51  65
ATOM     65  C   UNL A   1      44.513  28.078  35.084  1.00  0.00    -0.014 A 
ATOM     66  C   UNL A   1      45.865  28.419  34.893  1.00  0.00     0.010 A 
ATOM     67  C   UNL A   1      44.196  26.974  35.898  1.00  0.00     0.010 A 
ATOM     68  C   UNL A   1      46.876  27.654  35.482  1.00  0.00     0.020 A 
ATOM     69  C   UNL A   1      45.203  26.224  36.512  1.00  0.00     0.020 A 
ATOM     70  C   UNL A   1      46.539  26.562  36.288  1.00  0.00     0.054 A 
BRANCH  70  71
ATOM     71  S   UNL A   1      47.871  25.611  37.069  1.00  0.00     0.124 S 
ATOM     72  O   UNL A   1      47.641  24.272  36.532  1.00  0.00    -0.237 OA
ATOM     73  O   UNL A   1      49.072  26.285  36.581  1.00  0.00    -0.237 OA
ATOM     74  O   UNL A   1      47.613  25.760  38.499  1.00  0.00    -0.744 OA
ENDBRANCH  70  71
ENDBRANCH  51  65
BRANCH  52  75
ATOM     75  C   UNL A   1      36.861  32.948  30.773  1.00  0.00    -0.014 A 
ATOM     76  C   UNL A   1      37.004  33.867  29.718  1.00  0.00     0.010 A 
ATOM     77  C   UNL A   1      35.572  32.686  31.274  1.00  0.00     0.010 A 
ATOM     78  C   UNL A   1      35.886  34.526  29.194  1.00  0.00     0.020 A 
ATOM     79  C   UNL A   1      34.449  33.318  30.731  1.00  0.00     0.020 A 
ATOM     80  C   UNL A   1      34.615  34.247  29.705  1.00  0.00     0.054 A 
BRANCH  80  81
ATOM     81  S   UNL A   1      33.176  35.091  28.989  1.00  0.00     0.124 S 
ATOM     82  O   UNL A   1      32.333  35.301  30.163  1.00  0.00    -0.237 OA
ATOM     83  O   UNL A   1      33.770  36.295  28.414  1.00  0.00    -0.237 OA
ATOM     84  O   UNL A   1      32.664  34.130  28.014  1.00  0.00    -0.744 OA
ENDBRANCH  80  81
ENDBRANCH  52  75
BRANCH  64  85
ATOM     85  C   UNL A   1      40.291  33.660  36.817  1.00  0.00    -0.014 A 
ATOM     86  C   UNL A   1      40.941  34.906  36.811  1.00  0.00     0.010 A 
ATOM     87  C   UNL A   1      39.436  33.336  37.888  1.00  0.00     0.010 A 
ATOM     88  C   UNL A   1      40.765  35.797  37.871  1.00  0.00     0.020 A 
ATOM     89  C   UNL A   1      39.233  34.238  38.934  1.00  0.00     0.020 A 
ATOM     90  C   UNL A   1      39.911  35.458  38.926  1.00  0.00     0.054 A 
BRANCH  90  91
ATOM     91  S   UNL A   1      39.666  36.651  40.270  1.00  0.00     0.124 S 
ATOM     92  O   UNL A   1      39.748  37.925  39.562  1.00  0.00    -0.237 OA
ATOM     93  O   UNL A   1      38.341  36.295  40.774  1.00  0.00    -0.237 OA
ATOM     94  O   UNL A   1      40.770  36.374  41.186  1.00  0.00    -0.744 OA
ENDBRANCH  90  91
ENDBRANCH  64  85
ENDBRANCH  38  39
ENDBRANCH  31  33
ENDBRANCH  30  31
ENDBRANCH  29  30
ENDBRANCH  28  29
ENDBRANCH  27  28
ENDBRANCH  26  27
ENDBRANCH   1  26
TORSDOF 24
ENDMDL
MODEL 2
REMARK VINA RESULT:      -9.5      6.043     10.600
REMARK SMILES CCN(C(=O)c1ccc(C)cc1F)[C@@H]1COC[C@@H]1C(=O)OCCOCCOCCOC(=O)c1ccc(-c2c3nc(c(-c4ccc(S(=O)(=O)[O-])cc4)c4ccc([nH]4)c(-c4ccc(S(=O)(=O)[O-])cc4)c4nc(c(-c5ccc(S(=O)(=O)[O-])cc5)c5ccc2[nH]5)C=C4)C=C3)cc1
REMARK SMILES IDX 25 1 24 2 23 3 22 4 21 5 19 6 20 7 18 8 14 9 15 10 16 11
REMARK SMILES IDX 17 12 3 13 2 14 1 15 4 16 5 17 6 18 7 19 12 20 8 21 11 22
REMARK SMILES IDX 13 23 9 24 10 25 26 26 27 27 28 28 29 29 30 30 31 31 32 32
REMARK SMILES IDX 33 33 34 34 92 35 35 36 91 37 36 38 37 39 38 40 85 41 39 42
REMARK SMILES IDX 90 43 84 44 86 45 40 46 89 47 83 48 82 49 41 51 71 52 52 53
REMARK SMILES IDX 70 54 53 55 56 56 69 57 87 58 54 59 55 60 68 62 88 63 57 64
REMARK SMILES IDX 42 65 43 66 51 67 44 68 50 69 45 70 46 71 47 72 48 73 49 74
REMARK SMILES IDX 72 75 73 76 81 77 74 78 80 79 75 80 76 81 77 82 78 83 79 84
REMARK SMILES IDX 58 85 59 86 67 87 60 88 66 89 61 90 62 91 63 92 64 93 65 94
REMARK H PARENT 86 50 56 61
REMARK Flexibility Score: inf
ROOT
ATOM      1  C   UNL A   1      34.579  21.911  25.348  1.00  0.00     0.188 C 
ENDROOT
BRANCH   1   2
ATOM      2  O   UNL A   1      34.415  22.110  26.744  1.00  0.00    -0.376 OA
BRANCH   2   3
ATOM      3  C   UNL A   1      33.633  23.244  27.132  1.00  0.00     0.202 C 
BRANCH   3   4
ATOM      4  C   UNL A   1      33.156  24.137  25.988  1.00  0.00     0.261 C 
BRANCH   4   5
ATOM      5  O   UNL A   1      32.900  25.480  26.456  1.00  0.00    -0.463 OA
BRANCH   5   6
ATOM      6  C   UNL A   1      31.596  25.825  26.574  1.00  0.00     0.313 C 
ATOM      7  O   UNL A   1      30.719  25.009  26.846  1.00  0.00    -0.252 OA
BRANCH   6   8
ATOM      8  C   UNL A   1      31.288  27.260  26.190  1.00  0.00     0.150 C 
ATOM      9  C   UNL A   1      32.109  28.144  25.233  1.00  0.00     0.127 C 
ATOM     10  C   UNL A   1      33.213  28.707  26.137  1.00  0.00     0.186 C 
ATOM     11  O   UNL A   1      32.763  28.634  27.486  1.00  0.00    -0.378 OA
ATOM     12  C   UNL A   1      31.437  28.090  27.481  1.00  0.00     0.177 C 
BRANCH   9  13
ATOM     13  N   UNL A   1      32.589  27.816  23.860  1.00  0.00    -0.333 N 
BRANCH  13  14
ATOM     14  C   UNL A   1      33.546  28.804  23.304  1.00  0.00     0.117 C 
ATOM     15  C   UNL A   1      34.275  28.308  22.060  1.00  0.00     0.027 C 
ENDBRANCH  13  14
BRANCH  13  16
ATOM     16  C   UNL A   1      31.776  27.048  22.998  1.00  0.00     0.257 C 
ATOM     17  O   UNL A   1      30.920  27.626  22.326  1.00  0.00    -0.269 OA
BRANCH  16  18
ATOM     18  C   UNL A   1      31.920  25.541  22.851  1.00  0.00     0.075 A 
ATOM     19  C   UNL A   1      33.059  24.869  22.386  1.00  0.00     0.017 A 
ATOM     20  C   UNL A   1      30.861  24.715  23.258  1.00  0.00     0.136 A 
ATOM     21  C   UNL A   1      33.097  23.475  22.207  1.00  0.00     0.004 A 
ATOM     22  C   UNL A   1      30.917  23.313  23.156  1.00  0.00     0.043 A 
ATOM     23  F   UNL A   1      29.748  25.223  23.809  1.00  0.00    -0.206 F 
ATOM     24  C   UNL A   1      32.034  22.677  22.614  1.00  0.00    -0.048 A 
ATOM     25  C   UNL A   1      32.105  21.183  22.509  1.00  0.00     0.044 C 
ENDBRANCH  16  18
ENDBRANCH  13  16
ENDBRANCH   9  13
ENDBRANCH   6   8
ENDBRANCH   5   6
ENDBRANCH   4   5
ENDBRANCH   3   4
ENDBRANCH   2   3
ENDBRANCH   1   2
BRANCH   1  26
ATOM     26  C   UNL A   1      36.009  21.982  24.826  1.00  0.00     0.188 C 
BRANCH  26  27
ATOM     27  O   UNL A   1      36.851  20.874  25.125  1.00  0.00    -0.376 OA
BRANCH  27  28
ATOM     28  C   UNL A   1      38.212  21.247  25.358  1.00  0.00     0.202 C 
BRANCH  28  29
ATOM     29  C   UNL A   1      39.148  20.039  25.520  1.00  0.00     0.261 C 
BRANCH  29  30
ATOM     30  O   UNL A   1      40.119  20.252  26.559  1.00  0.00    -0.460 OA
BRANCH  30  31
ATOM     31  C   UNL A   1      41.409  19.984  26.220  1.00  0.00     0.338 C 
ATOM     32  O   UNL A   1      41.836  19.004  25.642  1.00  0.00    -0.246 OA
BRANCH  31  33
ATOM     33  C   UNL A   1      42.229  21.186  26.480  1.00  0.00     0.060 A 
ATOM     34  C   UNL A   1      42.596  21.456  27.806  1.00  0.00     0.016 A 
ATOM     35  C   UNL A   1      42.648  22.022  25.445  1.00  0.00     0.016 A 
ATOM     36  C   UNL A   1      43.375  22.570  28.107  1.00  0.00     0.010 A 
ATOM     37  C   UNL A   1      43.408  23.151  25.750  1.00  0.00     0.010 A 
ATOM     38  C   UNL A   1      43.753  23.443  27.083  1.00  0.00    -0.014 A 
BRANCH  38  39
ATOM     39  C   UNL A   1      44.338  24.763  27.407  1.00  0.00     0.031 A 
ATOM     40  C   UNL A   1      43.408  25.842  27.886  1.00  0.00     0.074 A 
ATOM     41  C   UNL A   1      45.655  24.999  27.265  1.00  0.00     0.049 A 
ATOM     42  N   UNL A   1      43.632  27.117  28.052  1.00  0.00    -0.248 NA
ATOM     43  C   UNL A   1      42.033  25.423  28.210  1.00  0.00     0.031 C 
ATOM     44  C   UNL A   1      46.659  24.006  26.882  1.00  0.00     0.029 A 
ATOM     45  N   UNL A   1      46.369  26.161  27.409  1.00  0.00    -0.354 N 
ATOM     46  C   UNL A   1      42.416  27.661  28.453  1.00  0.00     0.074 A 
ATOM     47  C   UNL A   1      41.459  26.580  28.504  1.00  0.00     0.031 C 
ATOM     48  C   UNL A   1      47.858  24.608  26.798  1.00  0.00     0.029 A 
ATOM     49  C   UNL A   1      47.695  26.036  27.065  1.00  0.00     0.049 A 
ATOM     50  H   UNL A   1      45.972  27.003  27.727  1.00  0.00     0.167 HD
ATOM     51  C   UNL A   1      42.128  28.951  28.739  1.00  0.00     0.031 A 
ATOM     52  C   UNL A   1      48.652  26.976  26.936  1.00  0.00     0.031 A 
ATOM     53  C   UNL A   1      43.099  30.011  28.690  1.00  0.00     0.049 A 
ATOM     54  C   UNL A   1      48.294  28.416  27.208  1.00  0.00     0.074 A 
ATOM     55  C   UNL A   1      42.923  31.352  28.974  1.00  0.00     0.029 A 
ATOM     56  N   UNL A   1      44.429  29.844  28.334  1.00  0.00    -0.354 N 
ATOM     57  N   UNL A   1      47.139  28.924  27.575  1.00  0.00    -0.248 NA
ATOM     58  C   UNL A   1      49.364  29.409  27.051  1.00  0.00     0.031 C 
ATOM     59  C   UNL A   1      44.134  32.008  28.732  1.00  0.00     0.029 A 
ATOM     60  C   UNL A   1      45.081  31.063  28.367  1.00  0.00     0.049 A 
ATOM     61  H   UNL A   1      44.847  28.986  28.095  1.00  0.00     0.167 HD
ATOM     62  C   UNL A   1      47.353  30.291  27.717  1.00  0.00     0.074 A 
ATOM     63  C   UNL A   1      48.750  30.527  27.415  1.00  0.00     0.031 C 
ATOM     64  C   UNL A   1      46.476  31.266  28.066  1.00  0.00     0.031 A 
BRANCH  51  65
ATOM     65  C   UNL A   1      40.700  29.295  29.070  1.00  0.00    -0.014 A 
ATOM     66  C   UNL A   1      39.786  29.698  28.080  1.00  0.00     0.010 A 
ATOM     67  C   UNL A   1      40.255  29.175  30.401  1.00  0.00     0.010 A 
ATOM     68  C   UNL A   1      38.464  30.003  28.420  1.00  0.00     0.020 A 
ATOM     69  C   UNL A   1      38.929  29.451  30.740  1.00  0.00     0.020 A 
ATOM     70  C   UNL A   1      38.044  29.876  29.747  1.00  0.00     0.054 A 
BRANCH  70  71
ATOM     71  S   UNL A   1      36.314  30.242  30.152  1.00  0.00     0.124 S 
ATOM     72  O   UNL A   1      36.169  29.606  31.460  1.00  0.00    -0.237 OA
ATOM     73  O   UNL A   1      36.290  31.702  30.158  1.00  0.00    -0.237 OA
ATOM     74  O   UNL A   1      35.562  29.613  29.069  1.00  0.00    -0.744 OA
ENDBRANCH  70  71
ENDBRANCH  51  65
BRANCH  52  75
ATOM     75  C   UNL A   1      50.019  26.601  26.473  1.00  0.00    -0.014 A 
ATOM     76  C   UNL A   1      50.992  26.146  27.381  1.00  0.00     0.010 A 
ATOM     77  C   UNL A   1      50.361  26.711  25.111  1.00  0.00     0.010 A 
ATOM     78  C   UNL A   1      52.284  25.834  26.941  1.00  0.00     0.020 A 
ATOM     79  C   UNL A   1      51.640  26.368  24.663  1.00  0.00     0.020 A 
ATOM     80  C   UNL A   1      52.599  25.947  25.584  1.00  0.00     0.054 A 
BRANCH  80  81
ATOM     81  S   UNL A   1      54.271  25.506  25.031  1.00  0.00     0.124 S 
ATOM     82  O   UNL A   1      54.173  24.056  24.892  1.00  0.00    -0.237 OA
ATOM     83  O   UNL A   1      54.397  26.254  23.783  1.00  0.00    -0.237 OA
ATOM     84  O   UNL A   1      55.127  25.974  26.120  1.00  0.00    -0.744 OA
ENDBRANCH  80  81
ENDBRANCH  52  75
BRANCH  64  85
ATOM     85  C   UNL A   1      47.011  32.668  28.188  1.00  0.00    -0.014 A 
ATOM     86  C   UNL A   1      47.564  33.141  29.391  1.00  0.00     0.010 A 
ATOM     87  C   UNL A   1      47.015  33.504  27.055  1.00  0.00     0.010 A 
ATOM     88  C   UNL A   1      48.081  34.436  29.467  1.00  0.00     0.020 A 
ATOM     89  C   UNL A   1      47.560  34.788  27.119  1.00  0.00     0.020 A 
ATOM     90  C   UNL A   1      48.076  35.251  28.331  1.00  0.00     0.054 A 
BRANCH  90  91
ATOM     91  S   UNL A   1      48.792  36.913  28.445  1.00  0.00     0.124 S 
ATOM     92  O   UNL A   1      47.904  37.685  27.581  1.00  0.00    -0.237 OA
ATOM     93  O   UNL A   1      48.693  37.206  29.872  1.00  0.00    -0.237 OA
ATOM     94  O   UNL A   1      50.154  36.739  27.943  1.00  0.00    -0.744 OA
ENDBRANCH  90  91
ENDBRANCH  64  85
ENDBRANCH  38  39
ENDBRANCH  31  33
ENDBRANCH  30  31
ENDBRANCH  29  30
ENDBRANCH  28  29
ENDBRANCH  27  28
ENDBRANCH  26  27
ENDBRANCH   1  26
TORSDOF 24
ENDMDL
MODEL 3
REMARK VINA RESULT:      -8.6      5.201      6.706
REMARK SMILES CCN(C(=O)c1ccc(C)cc1F)[C@@H]1COC[C@@H]1C(=O)OCCOCCOCCOC(=O)c1ccc(-c2c3nc(c(-c4ccc(S(=O)(=O)[O-])cc4)c4ccc([nH]4)c(-c4ccc(S(=O)(=O)[O-])cc4)c4nc(c(-c5ccc(S(=O)(=O)[O-])cc5)c5ccc2[nH]5)C=C4)C=C3)cc1
REMARK SMILES IDX 25 1 24 2 23 3 22 4 21 5 19 6 20 7 18 8 14 9 15 10 16 11
REMARK SMILES IDX 17 12 3 13 2 14 1 15 4 16 5 17 6 18 7 19 12 20 8 21 11 22
REMARK SMILES IDX 13 23 9 24 10 25 26 26 27 27 28 28 29 29 30 30 31 31 32 32
REMARK SMILES IDX 33 33 34 34 92 35 35 36 91 37 36 38 37 39 38 40 85 41 39 42
REMARK SMILES IDX 90 43 84 44 86 45 40 46 89 47 83 48 82 49 41 51 71 52 52 53
REMARK SMILES IDX 70 54 53 55 56 56 69 57 87 58 54 59 55 60 68 62 88 63 57 64
REMARK SMILES IDX 42 65 43 66 51 67 44 68 50 69 45 70 46 71 47 72 48 73 49 74
REMARK SMILES IDX 72 75 73 76 81 77 74 78 80 79 75 80 76 81 77 82 78 83 79 84
REMARK SMILES IDX 58 85 59 86 67 87 60 88 66 89 61 90 62 91 63 92 64 93 65 94
REMARK H PARENT 86 50 56 61
REMARK Flexibility Score: inf
ROOT
ATOM      1  C   UNL A   1      34.863  21.921  25.089  1.00  0.00     0.188 C 
ENDROOT
BRANCH   1   2
ATOM      2  O   UNL A   1      34.396  21.996  26.427  1.00  0.00    -0.376 OA
BRANCH   2   3
ATOM      3  C   UNL A   1      33.899  23.269  26.851  1.00  0.00     0.202 C 
BRANCH   3   4
ATOM      4  C   UNL A   1      33.477  24.217  25.730  1.00  0.00     0.261 C 
BRANCH   4   5
ATOM      5  O   UNL A   1      33.187  25.534  26.252  1.00  0.00    -0.463 OA
BRANCH   5   6
ATOM      6  C   UNL A   1      31.881  25.798  26.494  1.00  0.00     0.313 C 
ATOM      7  O   UNL A   1      31.076  24.923  26.803  1.00  0.00    -0.252 OA
BRANCH   6   8
ATOM      8  C   UNL A   1      31.463  27.227  26.202  1.00  0.00     0.150 C 
ATOM      9  C   UNL A   1      32.078  28.157  25.139  1.00  0.00     0.127 C 
ATOM     10  C   UNL A   1      33.301  28.745  25.854  1.00  0.00     0.186 C 
ATOM     11  O   UNL A   1      33.092  28.632  27.258  1.00  0.00    -0.378 OA
ATOM     12  C   UNL A   1      31.803  28.040  27.467  1.00  0.00     0.177 C 
BRANCH   9  13
ATOM     13  N   UNL A   1      32.326  27.871  23.697  1.00  0.00    -0.333 N 
BRANCH  13  14
ATOM     14  C   UNL A   1      33.056  28.948  22.986  1.00  0.00     0.117 C 
ATOM     15  C   UNL A   1      34.533  28.637  22.765  1.00  0.00     0.027 C 
ENDBRANCH  13  14
BRANCH  13  16
ATOM     16  C   UNL A   1      31.452  27.016  22.992  1.00  0.00     0.257 C 
ATOM     17  O   UNL A   1      30.451  27.504  22.464  1.00  0.00    -0.269 OA
BRANCH  16  18
ATOM     18  C   UNL A   1      31.697  25.522  22.842  1.00  0.00     0.075 A 
ATOM     19  C   UNL A   1      32.847  24.933  22.301  1.00  0.00     0.017 A 
ATOM     20  C   UNL A   1      30.733  24.625  23.325  1.00  0.00     0.136 A 
ATOM     21  C   UNL A   1      32.977  23.543  22.126  1.00  0.00     0.004 A 
ATOM     22  C   UNL A   1      30.886  23.230  23.226  1.00  0.00     0.043 A 
ATOM     23  F   UNL A   1      29.626  25.054  23.951  1.00  0.00    -0.206 F 
ATOM     24  C   UNL A   1      32.008  22.673  22.610  1.00  0.00    -0.048 A 
ATOM     25  C   UNL A   1      32.182  21.187  22.507  1.00  0.00     0.044 C 
ENDBRANCH  16  18
ENDBRANCH  13  16
ENDBRANCH   9  13
ENDBRANCH   6   8
ENDBRANCH   5   6
ENDBRANCH   4   5
ENDBRANCH   3   4
ENDBRANCH   2   3
ENDBRANCH   1   2
BRANCH   1  26
ATOM     26  C   UNL A   1      36.340  22.234  24.878  1.00  0.00     0.188 C 
BRANCH  26  27
ATOM     27  O   UNL A   1      37.270  21.284  25.387  1.00  0.00    -0.376 OA
BRANCH  27  28
ATOM     28  C   UNL A   1      38.533  21.861  25.731  1.00  0.00     0.202 C 
BRANCH  28  29
ATOM     29  C   UNL A   1      39.592  20.812  26.104  1.00  0.00     0.261 C 
BRANCH  29  30
ATOM     30  O   UNL A   1      40.292  21.166  27.310  1.00  0.00    -0.460 OA
BRANCH  30  31
ATOM     31  C   UNL A   1      41.611  21.460  27.158  1.00  0.00     0.338 C 
ATOM     32  O   UNL A   1      42.479  20.753  26.685  1.00  0.00    -0.246 OA
BRANCH  31  33
ATOM     33  C   UNL A   1      41.820  22.889  27.473  1.00  0.00     0.060 A 
ATOM     34  C   UNL A   1      41.561  23.827  26.464  1.00  0.00     0.016 A 
ATOM     35  C   UNL A   1      42.244  23.304  28.735  1.00  0.00     0.016 A 
ATOM     36  C   UNL A   1      41.734  25.187  26.708  1.00  0.00     0.010 A 
ATOM     37  C   UNL A   1      42.440  24.665  28.971  1.00  0.00     0.010 A 
ATOM     38  C   UNL A   1      42.210  25.609  27.952  1.00  0.00    -0.014 A 
BRANCH  38  39
ATOM     39  C   UNL A   1      42.660  27.006  28.145  1.00  0.00     0.031 A 
ATOM     40  C   UNL A   1      44.111  27.313  27.905  1.00  0.00     0.074 A 
ATOM     41  C   UNL A   1      41.806  27.968  28.536  1.00  0.00     0.049 A 
ATOM     42  N   UNL A   1      44.788  28.394  28.182  1.00  0.00    -0.248 NA
ATOM     43  C   UNL A   1      44.911  26.244  27.277  1.00  0.00     0.031 C 
ATOM     44  C   UNL A   1      40.365  27.800  28.723  1.00  0.00     0.029 A 
ATOM     45  N   UNL A   1      42.036  29.279  28.865  1.00  0.00    -0.354 N 
ATOM     46  C   UNL A   1      46.099  28.121  27.807  1.00  0.00     0.074 A 
ATOM     47  C   UNL A   1      46.125  26.774  27.285  1.00  0.00     0.031 C 
ATOM     48  C   UNL A   1      39.843  28.961  29.157  1.00  0.00     0.029 A 
ATOM     49  C   UNL A   1      40.920  29.932  29.333  1.00  0.00     0.049 A 
ATOM     50  H   UNL A   1      42.916  29.712  28.776  1.00  0.00     0.167 HD
ATOM     51  C   UNL A   1      47.184  28.924  27.904  1.00  0.00     0.031 A 
ATOM     52  C   UNL A   1      40.795  31.157  29.883  1.00  0.00     0.031 A 
ATOM     53  C   UNL A   1      47.134  30.265  28.418  1.00  0.00     0.049 A 
ATOM     54  C   UNL A   1      42.028  32.013  30.031  1.00  0.00     0.074 A 
ATOM     55  C   UNL A   1      48.167  31.175  28.548  1.00  0.00     0.029 A 
ATOM     56  N   UNL A   1      45.986  30.889  28.885  1.00  0.00    -0.354 N 
ATOM     57  N   UNL A   1      43.266  31.743  29.685  1.00  0.00    -0.248 NA
ATOM     58  C   UNL A   1      41.849  33.338  30.640  1.00  0.00     0.031 C 
ATOM     59  C   UNL A   1      47.654  32.328  29.151  1.00  0.00     0.029 A 
ATOM     60  C   UNL A   1      46.289  32.163  29.328  1.00  0.00     0.049 A 
ATOM     61  H   UNL A   1      45.089  30.484  28.898  1.00  0.00     0.167 HD
ATOM     62  C   UNL A   1      44.008  32.874  30.011  1.00  0.00     0.074 A 
ATOM     63  C   UNL A   1      43.076  33.837  30.564  1.00  0.00     0.031 C 
ATOM     64  C   UNL A   1      45.337  33.101  29.868  1.00  0.00     0.031 A 
BRANCH  51  65
ATOM     65  C   UNL A   1      48.518  28.353  27.502  1.00  0.00    -0.014 A 
ATOM     66  C   UNL A   1      48.921  28.288  26.156  1.00  0.00     0.010 A 
ATOM     67  C   UNL A   1      49.403  27.904  28.501  1.00  0.00     0.010 A 
ATOM     68  C   UNL A   1      50.170  27.759  25.817  1.00  0.00     0.020 A 
ATOM     69  C   UNL A   1      50.663  27.401  28.170  1.00  0.00     0.020 A 
ATOM     70  C   UNL A   1      51.033  27.320  26.826  1.00  0.00     0.054 A 
BRANCH  70  71
ATOM     71  S   UNL A   1      52.662  26.674  26.359  1.00  0.00     0.124 S 
ATOM     72  O   UNL A   1      53.351  27.883  25.914  1.00  0.00    -0.237 OA
ATOM     73  O   UNL A   1      53.148  26.098  27.610  1.00  0.00    -0.237 OA
ATOM     74  O   UNL A   1      52.364  25.707  25.305  1.00  0.00    -0.744 OA
ENDBRANCH  70  71
ENDBRANCH  51  65
BRANCH  52  75
ATOM     75  C   UNL A   1      39.472  31.623  30.390  1.00  0.00    -0.014 A 
ATOM     76  C   UNL A   1      39.072  31.367  31.713  1.00  0.00     0.010 A 
ATOM     77  C   UNL A   1      38.593  32.319  29.538  1.00  0.00     0.010 A 
ATOM     78  C   UNL A   1      37.812  31.775  32.166  1.00  0.00     0.020 A 
ATOM     79  C   UNL A   1      37.348  32.758  29.997  1.00  0.00     0.020 A 
ATOM     80  C   UNL A   1      36.958  32.469  31.304  1.00  0.00     0.054 A 
BRANCH  80  81
ATOM     81  S   UNL A   1      35.341  33.016  31.922  1.00  0.00     0.124 S 
ATOM     82  O   UNL A   1      34.427  32.406  30.961  1.00  0.00    -0.237 OA
ATOM     83  O   UNL A   1      35.311  32.451  33.269  1.00  0.00    -0.237 OA
ATOM     84  O   UNL A   1      35.428  34.474  31.867  1.00  0.00    -0.744 OA
ENDBRANCH  80  81
ENDBRANCH  52  75
BRANCH  64  85
ATOM     85  C   UNL A   1      45.856  34.456  30.269  1.00  0.00    -0.014 A 
ATOM     86  C   UNL A   1      46.349  34.700  31.563  1.00  0.00     0.010 A 
ATOM     87  C   UNL A   1      45.908  35.485  29.310  1.00  0.00     0.010 A 
ATOM     88  C   UNL A   1      46.852  35.958  31.900  1.00  0.00     0.020 A 
ATOM     89  C   UNL A   1      46.441  36.734  29.634  1.00  0.00     0.020 A 
ATOM     90  C   UNL A   1      46.896  36.967  30.933  1.00  0.00     0.054 A 
BRANCH  90  91
ATOM     91  S   UNL A   1      47.595  38.579  31.382  1.00  0.00     0.124 S 
ATOM     92  O   UNL A   1      48.960  38.223  31.756  1.00  0.00    -0.237 OA
ATOM     93  O   UNL A   1      47.460  39.342  30.144  1.00  0.00    -0.237 OA
ATOM     94  O   UNL A   1      46.745  39.031  32.482  1.00  0.00    -0.744 OA
ENDBRANCH  90  91
ENDBRANCH  64  85
ENDBRANCH  38  39
ENDBRANCH  31  33
ENDBRANCH  30  31
ENDBRANCH  29  30
ENDBRANCH  28  29
ENDBRANCH  27  28
ENDBRANCH  26  27
ENDBRANCH   1  26
TORSDOF 24
ENDMDL
