MODEL 1
REMARK VINA RESULT:      -8.0      0.000      0.000
REMARK SMILES COC[C@H](O)CC1(C(=O)OCCOCCOCCOC(=O)c2ccc(-c3c4nc(c(-c5ccc(S(=O)(=O)[O-])cc5)c5ccc([nH]5)c(-c5ccc(S(=O)(=O)[O-])cc5)c5nc(c(-c6ccc(S(=O)(=O)[O-])cc6)c6ccc3[nH]6)C=C5)C=C4)cc2)CC1
REMARK SMILES IDX 14 1 13 2 12 3 11 4 10 5 8 6 9 7 7 8 82 9 83 10 6 11 4 12
REMARK SMILES IDX 3 13 2 14 1 15 5 16 15 18 16 19 17 20 18 21 19 22 20 23
REMARK SMILES IDX 21 24 22 25 23 26 81 27 24 28 80 29 25 30 26 31 27 32 74 33
REMARK SMILES IDX 28 34 79 35 73 36 75 37 29 38 78 39 72 40 71 41 30 43 60 44
REMARK SMILES IDX 41 45 59 46 42 47 45 48 58 49 76 50 43 51 44 52 57 54 77 55
REMARK SMILES IDX 46 56 31 57 32 58 40 59 33 60 39 61 34 62 35 63 36 64 37 65
REMARK SMILES IDX 38 66 61 67 62 68 70 69 63 70 69 71 64 72 65 73 66 74 67 75
REMARK SMILES IDX 68 76 47 77 48 78 56 79 49 80 55 81 50 82 51 83 52 84 53 85
REMARK SMILES IDX 54 86
REMARK H PARENT 5 17 75 42 45 53
REMARK Flexibility Score: inf
ROOT
ATOM      1  C   UNL A   1      33.229  26.784  25.132  1.00  0.00     0.188 C 
ENDROOT
BRANCH   1   2
ATOM      2  O   UNL A   1      34.158  26.388  26.129  1.00  0.00    -0.376 OA
BRANCH   2   3
ATOM      3  C   UNL A   1      34.678  25.070  26.000  1.00  0.00     0.202 C 
BRANCH   3   4
ATOM      4  C   UNL A   1      34.686  24.520  24.571  1.00  0.00     0.261 C 
BRANCH   4   5
ATOM      5  O   UNL A   1      34.077  23.224  24.472  1.00  0.00    -0.463 OA
BRANCH   5   6
ATOM      6  C   UNL A   1      32.742  23.165  24.256  1.00  0.00     0.312 C 
ATOM      7  O   UNL A   1      32.146  23.652  23.307  1.00  0.00    -0.252 OA
BRANCH   6   8
ATOM      8  C   UNL A   1      32.054  22.314  25.295  1.00  0.00     0.071 C 
ATOM      9  C   UNL A   1      30.776  22.894  25.896  1.00  0.00     0.020 C 
ATOM     10  C   UNL A   1      32.005  22.833  26.739  1.00  0.00     0.020 C 
BRANCH   8  11
ATOM     11  C   UNL A   1      32.047  20.805  24.999  1.00  0.00     0.053 C 
BRANCH  11  12
ATOM     12  C   UNL A   1      33.394  20.185  24.603  1.00  0.00     0.141 C 
BRANCH  12  13
ATOM     13  C   UNL A   1      33.257  18.697  24.234  1.00  0.00     0.191 C 
BRANCH  13  14
ATOM     14  O   UNL A   1      32.198  18.063  24.962  1.00  0.00    -0.382 OA
ATOM     15  C   UNL A   1      32.514  16.855  25.639  1.00  0.00     0.195 C 
ENDBRANCH  13  14
ENDBRANCH  12  13
BRANCH  12  16
ATOM     16  O   UNL A   1      34.305  20.310  25.701  1.00  0.00    -0.391 OA
ATOM     17  H   UNL A   1      34.753  19.462  25.848  1.00  0.00     0.211 HD
ENDBRANCH  12  16
ENDBRANCH  11  12
ENDBRANCH   8  11
ENDBRANCH   6   8
ENDBRANCH   5   6
ENDBRANCH   4   5
ENDBRANCH   3   4
ENDBRANCH   2   3
ENDBRANCH   1   2
BRANCH   1  18
ATOM     18  C   UNL A   1      33.493  28.188  24.536  1.00  0.00     0.188 C 
BRANCH  18  19
ATOM     19  O   UNL A   1      32.386  29.031  24.243  1.00  0.00    -0.376 OA
BRANCH  19  20
ATOM     20  C   UNL A   1      31.669  29.578  25.346  1.00  0.00     0.202 C 
BRANCH  20  21
ATOM     21  C   UNL A   1      32.309  30.757  26.092  1.00  0.00     0.261 C 
BRANCH  21  22
ATOM     22  O   UNL A   1      33.672  30.515  26.494  1.00  0.00    -0.460 OA
BRANCH  22  23
ATOM     23  C   UNL A   1      34.049  31.137  27.639  1.00  0.00     0.338 C 
ATOM     24  O   UNL A   1      33.355  31.856  28.339  1.00  0.00    -0.246 OA
BRANCH  23  25
ATOM     25  C   UNL A   1      35.453  30.821  27.986  1.00  0.00     0.060 A 
ATOM     26  C   UNL A   1      35.860  29.499  28.156  1.00  0.00     0.016 A 
ATOM     27  C   UNL A   1      36.325  31.856  28.340  1.00  0.00     0.016 A 
ATOM     28  C   UNL A   1      37.109  29.219  28.708  1.00  0.00     0.010 A 
ATOM     29  C   UNL A   1      37.581  31.563  28.899  1.00  0.00     0.010 A 
ATOM     30  C   UNL A   1      37.965  30.234  29.141  1.00  0.00    -0.014 A 
BRANCH  30  31
ATOM     31  C   UNL A   1      39.098  29.865  30.046  1.00  0.00     0.031 A 
ATOM     32  C   UNL A   1      40.139  28.892  29.546  1.00  0.00     0.074 A 
ATOM     33  C   UNL A   1      39.338  30.508  31.209  1.00  0.00     0.049 A 
ATOM     34  N   UNL A   1      41.127  28.327  30.191  1.00  0.00    -0.248 NA
ATOM     35  C   UNL A   1      40.066  28.524  28.122  1.00  0.00     0.031 C 
ATOM     36  C   UNL A   1      38.555  31.621  31.746  1.00  0.00     0.029 A 
ATOM     37  N   UNL A   1      40.350  30.345  32.127  1.00  0.00    -0.354 N 
ATOM     38  C   UNL A   1      41.744  27.481  29.274  1.00  0.00     0.074 A 
ATOM     39  C   UNL A   1      41.035  27.626  28.022  1.00  0.00     0.031 C 
ATOM     40  C   UNL A   1      39.145  32.074  32.866  1.00  0.00     0.029 A 
ATOM     41  C   UNL A   1      40.282  31.216  33.191  1.00  0.00     0.049 A 
ATOM     42  H   UNL A   1      41.058  29.668  32.032  1.00  0.00     0.167 HD
ATOM     43  C   UNL A   1      42.792  26.644  29.462  1.00  0.00     0.031 A 
ATOM     44  C   UNL A   1      41.011  31.286  34.325  1.00  0.00     0.031 A 
ATOM     45  C   UNL A   1      43.531  26.533  30.691  1.00  0.00     0.049 A 
ATOM     46  C   UNL A   1      42.098  30.268  34.568  1.00  0.00     0.074 A 
ATOM     47  C   UNL A   1      44.557  25.658  31.004  1.00  0.00     0.029 A 
ATOM     48  N   UNL A   1      43.341  27.340  31.802  1.00  0.00    -0.354 N 
ATOM     49  N   UNL A   1      42.558  29.342  33.761  1.00  0.00    -0.248 NA
ATOM     50  C   UNL A   1      42.741  30.285  35.890  1.00  0.00     0.031 C 
ATOM     51  C   UNL A   1      44.955  25.904  32.322  1.00  0.00     0.029 A 
ATOM     52  C   UNL A   1      44.220  26.974  32.808  1.00  0.00     0.049 A 
ATOM     53  H   UNL A   1      42.680  28.066  31.866  1.00  0.00     0.167 HD
ATOM     54  C   UNL A   1      43.548  28.673  34.475  1.00  0.00     0.074 A 
ATOM     55  C   UNL A   1      43.641  29.317  35.768  1.00  0.00     0.031 C 
ATOM     56  C   UNL A   1      44.307  27.616  34.094  1.00  0.00     0.031 A 
BRANCH  43  57
ATOM     57  C   UNL A   1      43.129  25.701  28.339  1.00  0.00    -0.014 A 
ATOM     58  C   UNL A   1      42.493  24.458  28.184  1.00  0.00     0.010 A 
ATOM     59  C   UNL A   1      44.112  26.090  27.410  1.00  0.00     0.010 A 
ATOM     60  C   UNL A   1      42.868  23.602  27.143  1.00  0.00     0.020 A 
ATOM     61  C   UNL A   1      44.468  25.251  26.353  1.00  0.00     0.020 A 
ATOM     62  C   UNL A   1      43.857  24.003  26.237  1.00  0.00     0.054 A 
BRANCH  62  63
ATOM     63  S   UNL A   1      44.324  22.879  24.892  1.00  0.00     0.124 S 
ATOM     64  O   UNL A   1      45.254  23.702  24.123  1.00  0.00    -0.237 OA
ATOM     65  O   UNL A   1      44.924  21.755  25.608  1.00  0.00    -0.237 OA
ATOM     66  O   UNL A   1      43.056  22.586  24.230  1.00  0.00    -0.744 OA
ENDBRANCH  62  63
ENDBRANCH  43  57
BRANCH  44  67
ATOM     67  C   UNL A   1      40.672  32.289  35.378  1.00  0.00    -0.014 A 
ATOM     68  C   UNL A   1      41.274  33.560  35.399  1.00  0.00     0.010 A 
ATOM     69  C   UNL A   1      39.754  31.957  36.393  1.00  0.00     0.010 A 
ATOM     70  C   UNL A   1      40.971  34.472  36.417  1.00  0.00     0.020 A 
ATOM     71  C   UNL A   1      39.421  32.876  37.388  1.00  0.00     0.020 A 
ATOM     72  C   UNL A   1      40.042  34.125  37.402  1.00  0.00     0.054 A 
BRANCH  72  73
ATOM     73  S   UNL A   1      39.617  35.337  38.684  1.00  0.00     0.124 S 
ATOM     74  O   UNL A   1      38.496  34.689  39.356  1.00  0.00    -0.237 OA
ATOM     75  O   UNL A   1      40.853  35.427  39.458  1.00  0.00    -0.237 OA
ATOM     76  O   UNL A   1      39.282  36.537  37.921  1.00  0.00    -0.744 OA
ENDBRANCH  72  73
ENDBRANCH  44  67
BRANCH  56  77
ATOM     77  C   UNL A   1      45.331  27.101  35.071  1.00  0.00    -0.014 A 
ATOM     78  C   UNL A   1      45.023  26.075  35.982  1.00  0.00     0.010 A 
ATOM     79  C   UNL A   1      46.640  27.616  35.040  1.00  0.00     0.010 A 
ATOM     80  C   UNL A   1      45.995  25.599  36.867  1.00  0.00     0.020 A 
ATOM     81  C   UNL A   1      47.623  27.124  35.904  1.00  0.00     0.020 A 
ATOM     82  C   UNL A   1      47.289  26.128  36.822  1.00  0.00     0.054 A 
BRANCH  82  83
ATOM     83  S   UNL A   1      48.543  25.468  37.956  1.00  0.00     0.124 S 
ATOM     84  O   UNL A   1      49.701  26.304  37.649  1.00  0.00    -0.237 OA
ATOM     85  O   UNL A   1      47.939  25.690  39.268  1.00  0.00    -0.237 OA
ATOM     86  O   UNL A   1      48.664  24.067  37.563  1.00  0.00    -0.744 OA
ENDBRANCH  82  83
ENDBRANCH  56  77
ENDBRANCH  30  31
ENDBRANCH  23  25
ENDBRANCH  22  23
ENDBRANCH  21  22
ENDBRANCH  20  21
ENDBRANCH  19  20
ENDBRANCH  18  19
ENDBRANCH   1  18
TORSDOF 25
ENDMDL
MODEL 2
REMARK VINA RESULT:      -7.8      5.487      7.946
REMARK SMILES COC[C@H](O)CC1(C(=O)OCCOCCOCCOC(=O)c2ccc(-c3c4nc(c(-c5ccc(S(=O)(=O)[O-])cc5)c5ccc([nH]5)c(-c5ccc(S(=O)(=O)[O-])cc5)c5nc(c(-c6ccc(S(=O)(=O)[O-])cc6)c6ccc3[nH]6)C=C5)C=C4)cc2)CC1
REMARK SMILES IDX 14 1 13 2 12 3 11 4 10 5 8 6 9 7 7 8 82 9 83 10 6 11 4 12
REMARK SMILES IDX 3 13 2 14 1 15 5 16 15 18 16 19 17 20 18 21 19 22 20 23
REMARK SMILES IDX 21 24 22 25 23 26 81 27 24 28 80 29 25 30 26 31 27 32 74 33
REMARK SMILES IDX 28 34 79 35 73 36 75 37 29 38 78 39 72 40 71 41 30 43 60 44
REMARK SMILES IDX 41 45 59 46 42 47 45 48 58 49 76 50 43 51 44 52 57 54 77 55
REMARK SMILES IDX 46 56 31 57 32 58 40 59 33 60 39 61 34 62 35 63 36 64 37 65
REMARK SMILES IDX 38 66 61 67 62 68 70 69 63 70 69 71 64 72 65 73 66 74 67 75
REMARK SMILES IDX 68 76 47 77 48 78 56 79 49 80 55 81 50 82 51 83 52 84 53 85
REMARK SMILES IDX 54 86
REMARK H PARENT 5 17 75 42 45 53
REMARK Flexibility Score: inf
ROOT
ATOM      1  C   UNL A   1      35.328  31.499  28.219  1.00  0.00     0.188 C 
ENDROOT
BRANCH   1   2
ATOM      2  O   UNL A   1      34.456  31.236  27.130  1.00  0.00    -0.376 OA
BRANCH   2   3
ATOM      3  C   UNL A   1      33.624  30.089  27.267  1.00  0.00     0.202 C 
BRANCH   3   4
ATOM      4  C   UNL A   1      32.184  30.279  26.784  1.00  0.00     0.261 C 
BRANCH   4   5
ATOM      5  O   UNL A   1      31.655  29.108  26.144  1.00  0.00    -0.463 OA
BRANCH   5   6
ATOM      6  C   UNL A   1      32.284  28.651  25.037  1.00  0.00     0.312 C 
ATOM      7  O   UNL A   1      32.706  29.336  24.116  1.00  0.00    -0.252 OA
BRANCH   6   8
ATOM      8  C   UNL A   1      32.512  27.161  25.109  1.00  0.00     0.071 C 
ATOM      9  C   UNL A   1      32.761  26.588  26.502  1.00  0.00     0.020 C 
ATOM     10  C   UNL A   1      33.899  26.661  25.539  1.00  0.00     0.020 C 
BRANCH   8  11
ATOM     11  C   UNL A   1      31.628  26.321  24.172  1.00  0.00     0.053 C 
BRANCH  11  12
ATOM     12  C   UNL A   1      30.751  25.255  24.842  1.00  0.00     0.141 C 
BRANCH  12  13
ATOM     13  C   UNL A   1      30.964  23.862  24.222  1.00  0.00     0.191 C 
BRANCH  13  14
ATOM     14  O   UNL A   1      30.700  22.814  25.163  1.00  0.00    -0.382 OA
ATOM     15  C   UNL A   1      30.891  23.117  26.537  1.00  0.00     0.195 C 
ENDBRANCH  13  14
ENDBRANCH  12  13
BRANCH  12  16
ATOM     16  O   UNL A   1      29.375  25.624  24.696  1.00  0.00    -0.391 OA
ATOM     17  H   UNL A   1      29.296  26.318  24.023  1.00  0.00     0.211 HD
ENDBRANCH  12  16
ENDBRANCH  11  12
ENDBRANCH   8  11
ENDBRANCH   6   8
ENDBRANCH   5   6
ENDBRANCH   4   5
ENDBRANCH   3   4
ENDBRANCH   2   3
ENDBRANCH   1   2
BRANCH   1  18
ATOM     18  C   UNL A   1      34.697  32.347  29.349  1.00  0.00     0.188 C 
BRANCH  18  19
ATOM     19  O   UNL A   1      35.474  32.648  30.501  1.00  0.00    -0.376 OA
BRANCH  19  20
ATOM     20  C   UNL A   1      35.359  31.769  31.616  1.00  0.00     0.202 C 
BRANCH  20  21
ATOM     21  C   UNL A   1      36.258  32.042  32.829  1.00  0.00     0.261 C 
BRANCH  21  22
ATOM     22  O   UNL A   1      37.515  32.662  32.490  1.00  0.00    -0.460 OA
BRANCH  22  23
ATOM     23  C   UNL A   1      38.588  32.191  33.174  1.00  0.00     0.338 C 
ATOM     24  O   UNL A   1      38.844  32.389  34.350  1.00  0.00    -0.246 OA
BRANCH  23  25
ATOM     25  C   UNL A   1      39.448  31.349  32.312  1.00  0.00     0.060 A 
ATOM     26  C   UNL A   1      40.345  30.444  32.876  1.00  0.00     0.016 A 
ATOM     27  C   UNL A   1      39.507  31.604  30.939  1.00  0.00     0.016 A 
ATOM     28  C   UNL A   1      41.311  29.830  32.079  1.00  0.00     0.010 A 
ATOM     29  C   UNL A   1      40.487  30.983  30.144  1.00  0.00     0.010 A 
ATOM     30  C   UNL A   1      41.439  30.127  30.722  1.00  0.00    -0.014 A 
BRANCH  30  31
ATOM     31  C   UNL A   1      42.703  29.730  30.027  1.00  0.00     0.031 A 
ATOM     32  C   UNL A   1      42.749  28.403  29.306  1.00  0.00     0.074 A 
ATOM     33  C   UNL A   1      43.734  30.584  29.849  1.00  0.00     0.049 A 
ATOM     34  N   UNL A   1      43.765  27.792  28.753  1.00  0.00    -0.248 NA
ATOM     35  C   UNL A   1      41.473  27.680  29.177  1.00  0.00     0.031 C 
ATOM     36  C   UNL A   1      43.775  31.977  30.293  1.00  0.00     0.029 A 
ATOM     37  N   UNL A   1      44.933  30.412  29.196  1.00  0.00    -0.354 N 
ATOM     38  C   UNL A   1      43.267  26.582  28.279  1.00  0.00     0.074 A 
ATOM     39  C   UNL A   1      41.855  26.557  28.588  1.00  0.00     0.031 C 
ATOM     40  C   UNL A   1      44.911  32.546  29.855  1.00  0.00     0.029 A 
ATOM     41  C   UNL A   1      45.732  31.533  29.195  1.00  0.00     0.049 A 
ATOM     42  H   UNL A   1      45.195  29.566  28.767  1.00  0.00     0.167 HD
ATOM     43  C   UNL A   1      43.930  25.574  27.662  1.00  0.00     0.031 A 
ATOM     44  C   UNL A   1      46.999  31.716  28.767  1.00  0.00     0.031 A 
ATOM     45  C   UNL A   1      45.323  25.617  27.310  1.00  0.00     0.049 A 
ATOM     46  C   UNL A   1      47.760  30.548  28.190  1.00  0.00     0.074 A 
ATOM     47  C   UNL A   1      46.102  24.615  26.754  1.00  0.00     0.029 A 
ATOM     48  N   UNL A   1      46.141  26.726  27.453  1.00  0.00    -0.354 N 
ATOM     49  N   UNL A   1      47.332  29.340  27.912  1.00  0.00    -0.248 NA
ATOM     50  C   UNL A   1      49.186  30.760  27.901  1.00  0.00     0.031 C 
ATOM     51  C   UNL A   1      47.404  25.105  26.607  1.00  0.00     0.029 A 
ATOM     52  C   UNL A   1      47.420  26.431  27.012  1.00  0.00     0.049 A 
ATOM     53  H   UNL A   1      45.855  27.595  27.815  1.00  0.00     0.167 HD
ATOM     54  C   UNL A   1      48.433  28.652  27.408  1.00  0.00     0.074 A 
ATOM     55  C   UNL A   1      49.539  29.586  27.394  1.00  0.00     0.031 C 
ATOM     56  C   UNL A   1      48.519  27.362  27.001  1.00  0.00     0.031 A 
BRANCH  43  57
ATOM     57  C   UNL A   1      43.172  24.295  27.430  1.00  0.00    -0.014 A 
ATOM     58  C   UNL A   1      43.047  23.305  28.418  1.00  0.00     0.010 A 
ATOM     59  C   UNL A   1      42.564  24.095  26.176  1.00  0.00     0.010 A 
ATOM     60  C   UNL A   1      42.363  22.117  28.140  1.00  0.00     0.020 A 
ATOM     61  C   UNL A   1      41.855  22.924  25.905  1.00  0.00     0.020 A 
ATOM     62  C   UNL A   1      41.775  21.933  26.882  1.00  0.00     0.054 A 
BRANCH  62  63
ATOM     63  S   UNL A   1      40.889  20.386  26.545  1.00  0.00     0.124 S 
ATOM     64  O   UNL A   1      39.600  20.879  26.064  1.00  0.00    -0.237 OA
ATOM     65  O   UNL A   1      41.732  19.747  25.538  1.00  0.00    -0.237 OA
ATOM     66  O   UNL A   1      40.855  19.717  27.842  1.00  0.00    -0.744 OA
ENDBRANCH  62  63
ENDBRANCH  43  57
BRANCH  44  67
ATOM     67  C   UNL A   1      47.679  33.031  28.964  1.00  0.00    -0.014 A 
ATOM     68  C   UNL A   1      47.649  34.027  27.971  1.00  0.00     0.010 A 
ATOM     69  C   UNL A   1      48.392  33.281  30.153  1.00  0.00     0.010 A 
ATOM     70  C   UNL A   1      48.325  35.239  28.160  1.00  0.00     0.020 A 
ATOM     71  C   UNL A   1      49.036  34.501  30.361  1.00  0.00     0.020 A 
ATOM     72  C   UNL A   1      49.009  35.469  29.357  1.00  0.00     0.054 A 
BRANCH  72  73
ATOM     73  S   UNL A   1      49.835  37.065  29.612  1.00  0.00     0.124 S 
ATOM     74  O   UNL A   1      49.714  37.683  28.295  1.00  0.00    -0.237 OA
ATOM     75  O   UNL A   1      49.033  37.671  30.672  1.00  0.00    -0.237 OA
ATOM     76  O   UNL A   1      51.191  36.688  30.005  1.00  0.00    -0.744 OA
ENDBRANCH  72  73
ENDBRANCH  44  67
BRANCH  56  77
ATOM     77  C   UNL A   1      49.845  26.881  26.473  1.00  0.00    -0.014 A 
ATOM     78  C   UNL A   1      50.758  26.201  27.297  1.00  0.00     0.010 A 
ATOM     79  C   UNL A   1      50.159  27.069  25.114  1.00  0.00     0.010 A 
ATOM     80  C   UNL A   1      51.975  25.745  26.781  1.00  0.00     0.020 A 
ATOM     81  C   UNL A   1      51.363  26.591  24.587  1.00  0.00     0.020 A 
ATOM     82  C   UNL A   1      52.270  25.945  25.428  1.00  0.00     0.054 A 
BRANCH  82  83
ATOM     83  S   UNL A   1      53.840  25.315  24.773  1.00  0.00     0.124 S 
ATOM     84  O   UNL A   1      53.609  23.873  24.762  1.00  0.00    -0.237 OA
ATOM     85  O   UNL A   1      53.919  25.950  23.460  1.00  0.00    -0.237 OA
ATOM     86  O   UNL A   1      54.831  25.779  25.742  1.00  0.00    -0.744 OA
ENDBRANCH  82  83
ENDBRANCH  56  77
ENDBRANCH  30  31
ENDBRANCH  23  25
ENDBRANCH  22  23
ENDBRANCH  21  22
ENDBRANCH  20  21
ENDBRANCH  19  20
ENDBRANCH  18  19
ENDBRANCH   1  18
TORSDOF 25
ENDMDL
MODEL 3
REMARK VINA RESULT:      -7.6      5.010     10.427
REMARK SMILES COC[C@H](O)CC1(C(=O)OCCOCCOCCOC(=O)c2ccc(-c3c4nc(c(-c5ccc(S(=O)(=O)[O-])cc5)c5ccc([nH]5)c(-c5ccc(S(=O)(=O)[O-])cc5)c5nc(c(-c6ccc(S(=O)(=O)[O-])cc6)c6ccc3[nH]6)C=C5)C=C4)cc2)CC1
REMARK SMILES IDX 14 1 13 2 12 3 11 4 10 5 8 6 9 7 7 8 82 9 83 10 6 11 4 12
REMARK SMILES IDX 3 13 2 14 1 15 5 16 15 18 16 19 17 20 18 21 19 22 20 23
REMARK SMILES IDX 21 24 22 25 23 26 81 27 24 28 80 29 25 30 26 31 27 32 74 33
REMARK SMILES IDX 28 34 79 35 73 36 75 37 29 38 78 39 72 40 71 41 30 43 60 44
REMARK SMILES IDX 41 45 59 46 42 47 45 48 58 49 76 50 43 51 44 52 57 54 77 55
REMARK SMILES IDX 46 56 31 57 32 58 40 59 33 60 39 61 34 62 35 63 36 64 37 65
REMARK SMILES IDX 38 66 61 67 62 68 70 69 63 70 69 71 64 72 65 73 66 74 67 75
REMARK SMILES IDX 68 76 47 77 48 78 56 79 49 80 55 81 50 82 51 83 52 84 53 85
REMARK SMILES IDX 54 86
REMARK H PARENT 5 17 75 42 45 53
REMARK Flexibility Score: inf
ROOT
ATOM      1  C   UNL A   1      32.839  22.796  23.415  1.00  0.00     0.188 C 
ENDROOT
BRANCH   1   2
ATOM      2  O   UNL A   1      31.427  22.924  23.499  1.00  0.00    -0.376 OA
BRANCH   2   3
ATOM      3  C   UNL A   1      30.934  24.255  23.601  1.00  0.00     0.202 C 
BRANCH   3   4
ATOM      4  C   UNL A   1      30.456  24.657  24.999  1.00  0.00     0.261 C 
BRANCH   4   5
ATOM      5  O   UNL A   1      30.715  26.037  25.298  1.00  0.00    -0.463 OA
BRANCH   5   6
ATOM      6  C   UNL A   1      31.526  26.318  26.345  1.00  0.00     0.312 C 
ATOM      7  O   UNL A   1      31.818  25.552  27.252  1.00  0.00    -0.252 OA
BRANCH   6   8
ATOM      8  C   UNL A   1      32.137  27.691  26.214  1.00  0.00     0.071 C 
ATOM      9  C   UNL A   1      32.942  28.183  27.415  1.00  0.00     0.020 C 
ATOM     10  C   UNL A   1      31.616  28.806  27.132  1.00  0.00     0.020 C 
BRANCH   8  11
ATOM     11  C   UNL A   1      32.713  28.018  24.826  1.00  0.00     0.053 C 
BRANCH  11  12
ATOM     12  C   UNL A   1      31.693  28.380  23.737  1.00  0.00     0.141 C 
BRANCH  12  13
ATOM     13  C   UNL A   1      32.226  28.077  22.326  1.00  0.00     0.191 C 
BRANCH  13  14
ATOM     14  O   UNL A   1      33.066  26.917  22.310  1.00  0.00    -0.382 OA
ATOM     15  C   UNL A   1      32.856  25.982  21.261  1.00  0.00     0.195 C 
ENDBRANCH  13  14
ENDBRANCH  12  13
BRANCH  12  16
ATOM     16  O   UNL A   1      31.388  29.777  23.830  1.00  0.00    -0.391 OA
ATOM     17  H   UNL A   1      30.776  29.926  24.567  1.00  0.00     0.211 HD
ENDBRANCH  12  16
ENDBRANCH  11  12
ENDBRANCH   8  11
ENDBRANCH   6   8
ENDBRANCH   5   6
ENDBRANCH   4   5
ENDBRANCH   3   4
ENDBRANCH   2   3
ENDBRANCH   1   2
BRANCH   1  18
ATOM     18  C   UNL A   1      33.481  22.039  24.603  1.00  0.00     0.188 C 
BRANCH  18  19
ATOM     19  O   UNL A   1      34.663  21.281  24.379  1.00  0.00    -0.376 OA
BRANCH  19  20
ATOM     20  C   UNL A   1      35.738  21.460  25.296  1.00  0.00     0.202 C 
BRANCH  20  21
ATOM     21  C   UNL A   1      37.050  22.037  24.748  1.00  0.00     0.261 C 
BRANCH  21  22
ATOM     22  O   UNL A   1      37.690  22.970  25.642  1.00  0.00    -0.460 OA
BRANCH  22  23
ATOM     23  C   UNL A   1      38.822  22.511  26.232  1.00  0.00     0.338 C 
ATOM     24  O   UNL A   1      39.299  21.394  26.120  1.00  0.00    -0.246 OA
BRANCH  23  25
ATOM     25  C   UNL A   1      39.466  23.564  27.050  1.00  0.00     0.060 A 
ATOM     26  C   UNL A   1      38.845  24.798  27.232  1.00  0.00     0.016 A 
ATOM     27  C   UNL A   1      40.787  23.394  27.473  1.00  0.00     0.016 A 
ATOM     28  C   UNL A   1      39.552  25.858  27.798  1.00  0.00     0.010 A 
ATOM     29  C   UNL A   1      41.493  24.470  28.040  1.00  0.00     0.010 A 
ATOM     30  C   UNL A   1      40.895  25.735  28.157  1.00  0.00    -0.014 A 
BRANCH  30  31
ATOM     31  C   UNL A   1      41.679  26.986  28.401  1.00  0.00     0.031 A 
ATOM     32  C   UNL A   1      41.006  28.138  29.110  1.00  0.00     0.074 A 
ATOM     33  C   UNL A   1      43.011  27.062  28.194  1.00  0.00     0.049 A 
ATOM     34  N   UNL A   1      41.436  29.357  29.312  1.00  0.00    -0.248 NA
ATOM     35  C   UNL A   1      39.677  27.870  29.685  1.00  0.00     0.031 C 
ATOM     36  C   UNL A   1      43.863  25.974  27.713  1.00  0.00     0.029 A 
ATOM     37  N   UNL A   1      43.892  28.096  28.413  1.00  0.00    -0.354 N 
ATOM     38  C   UNL A   1      40.404  30.020  29.968  1.00  0.00     0.074 A 
ATOM     39  C   UNL A   1      39.336  29.063  30.151  1.00  0.00     0.031 C 
ATOM     40  C   UNL A   1      45.144  26.380  27.725  1.00  0.00     0.029 A 
ATOM     41  C   UNL A   1      45.198  27.789  28.106  1.00  0.00     0.049 A 
ATOM     42  H   UNL A   1      43.614  28.975  28.758  1.00  0.00     0.167 HD
ATOM     43  C   UNL A   1      40.341  31.315  30.362  1.00  0.00     0.031 A 
ATOM     44  C   UNL A   1      46.305  28.562  28.079  1.00  0.00     0.031 A 
ATOM     45  C   UNL A   1      41.419  32.257  30.225  1.00  0.00     0.049 A 
ATOM     46  C   UNL A   1      46.190  30.029  28.407  1.00  0.00     0.074 A 
ATOM     47  C   UNL A   1      41.424  33.609  30.522  1.00  0.00     0.029 A 
ATOM     48  N   UNL A   1      42.691  31.941  29.777  1.00  0.00    -0.354 N 
ATOM     49  N   UNL A   1      45.154  30.697  28.855  1.00  0.00    -0.248 NA
ATOM     50  C   UNL A   1      47.389  30.855  28.194  1.00  0.00     0.031 C 
ATOM     51  C   UNL A   1      42.687  34.121  30.206  1.00  0.00     0.029 A 
ATOM     52  C   UNL A   1      43.487  33.075  29.774  1.00  0.00     0.049 A 
ATOM     53  H   UNL A   1      42.987  31.044  29.502  1.00  0.00     0.167 HD
ATOM     54  C   UNL A   1      45.578  32.017  28.984  1.00  0.00     0.074 A 
ATOM     55  C   UNL A   1      46.972  32.049  28.594  1.00  0.00     0.031 C 
ATOM     56  C   UNL A   1      44.873  33.103  29.383  1.00  0.00     0.031 A 
BRANCH  43  57
ATOM     57  C   UNL A   1      39.018  31.812  30.879  1.00  0.00    -0.014 A 
ATOM     58  C   UNL A   1      38.004  32.278  30.026  1.00  0.00     0.010 A 
ATOM     59  C   UNL A   1      38.796  31.800  32.269  1.00  0.00     0.010 A 
ATOM     60  C   UNL A   1      36.806  32.764  30.559  1.00  0.00     0.020 A 
ATOM     61  C   UNL A   1      37.589  32.256  32.803  1.00  0.00     0.020 A 
ATOM     62  C   UNL A   1      36.609  32.754  31.946  1.00  0.00     0.054 A 
BRANCH  62  63
ATOM     63  S   UNL A   1      35.045  33.385  32.615  1.00  0.00     0.124 S 
ATOM     64  O   UNL A   1      35.148  34.812  32.320  1.00  0.00    -0.237 OA
ATOM     65  O   UNL A   1      34.047  32.654  31.838  1.00  0.00    -0.237 OA
ATOM     66  O   UNL A   1      35.108  33.035  34.031  1.00  0.00    -0.744 OA
ENDBRANCH  62  63
ENDBRANCH  43  57
BRANCH  44  67
ATOM     67  C   UNL A   1      47.608  27.994  27.619  1.00  0.00    -0.014 A 
ATOM     68  C   UNL A   1      48.544  27.476  28.533  1.00  0.00     0.010 A 
ATOM     69  C   UNL A   1      47.930  27.999  26.248  1.00  0.00     0.010 A 
ATOM     70  C   UNL A   1      49.776  26.984  28.085  1.00  0.00     0.020 A 
ATOM     71  C   UNL A   1      49.141  27.476  25.793  1.00  0.00     0.020 A 
ATOM     72  C   UNL A   1      50.064  26.982  26.717  1.00  0.00     0.054 A 
BRANCH  72  73
ATOM     73  S   UNL A   1      51.641  26.291  26.145  1.00  0.00     0.124 S 
ATOM     74  O   UNL A   1      51.721  26.804  24.781  1.00  0.00    -0.237 OA
ATOM     75  O   UNL A   1      52.598  26.858  27.092  1.00  0.00    -0.237 OA
ATOM     76  O   UNL A   1      51.442  24.848  26.262  1.00  0.00    -0.744 OA
ENDBRANCH  72  73
ENDBRANCH  44  67
BRANCH  56  77
ATOM     77  C   UNL A   1      45.598  34.422  29.452  1.00  0.00    -0.014 A 
ATOM     78  C   UNL A   1      46.320  34.801  30.597  1.00  0.00     0.010 A 
ATOM     79  C   UNL A   1      45.598  35.273  28.331  1.00  0.00     0.010 A 
ATOM     80  C   UNL A   1      47.003  36.021  30.632  1.00  0.00     0.020 A 
ATOM     81  C   UNL A   1      46.301  36.481  28.352  1.00  0.00     0.020 A 
ATOM     82  C   UNL A   1      46.987  36.854  29.508  1.00  0.00     0.054 A 
BRANCH  82  83
ATOM     83  S   UNL A   1      47.908  38.416  29.565  1.00  0.00     0.124 S 
ATOM     84  O   UNL A   1      49.275  37.955  29.796  1.00  0.00    -0.237 OA
ATOM     85  O   UNL A   1      47.652  38.989  28.245  1.00  0.00    -0.237 OA
ATOM     86  O   UNL A   1      47.298  39.138  30.679  1.00  0.00    -0.744 OA
ENDBRANCH  82  83
ENDBRANCH  56  77
ENDBRANCH  30  31
ENDBRANCH  23  25
ENDBRANCH  22  23
ENDBRANCH  21  22
ENDBRANCH  20  21
ENDBRANCH  19  20
ENDBRANCH  18  19
ENDBRANCH   1  18
TORSDOF 25
ENDMDL
