MODEL 1
REMARK VINA RESULT:     -10.4      0.000      0.000
REMARK SMILES CCCOc1ccccc1O[C@@H]1CC[C@@]([NH3+])(C(=O)OCCOCCOCCOC(=O)c2ccc(-c3c4nc(c(-c5ccc(S(=O)(=O)[O-])cc5)c5ccc([nH]5)c(-c5ccc(S(=O)(=O)[O-])cc5)c5nc(c(-c6ccc(S(=O)(=O)[O-])cc6)c6ccc3[nH]6)C=C5)C=C4)cc2)C1
REMARK SMILES IDX 23 1 22 2 21 3 20 4 19 5 17 6 18 7 15 8 12 9 13 10 91 11
REMARK SMILES IDX 14 12 11 13 10 14 5 15 6 16 7 17 9 18 8 19 4 20 3 21 2 22
REMARK SMILES IDX 1 23 16 24 24 28 25 29 26 30 27 31 28 32 29 33 30 34 31 35
REMARK SMILES IDX 32 36 90 37 33 38 89 39 34 40 35 41 36 42 83 43 37 44 88 45
REMARK SMILES IDX 82 46 84 47 38 48 87 49 81 50 80 51 39 53 69 54 50 55 68 56
REMARK SMILES IDX 51 57 54 58 67 59 85 60 52 61 53 62 66 64 86 65 55 66 40 67
REMARK SMILES IDX 41 68 49 69 42 70 48 71 43 72 44 73 45 74 46 75 47 76 70 77
REMARK SMILES IDX 71 78 79 79 72 80 78 81 73 82 74 83 75 84 76 85 77 86 56 87
REMARK SMILES IDX 57 88 65 89 58 90 64 91 59 92 60 93 61 94 62 95 63 96
REMARK H PARENT 16 25 16 26 16 27 84 52 54 63
REMARK Flexibility Score: inf
ROOT
ATOM      1  C   UNL A   1      35.422  20.963  25.291  1.00  0.00     0.188 C 
ENDROOT
BRANCH   1   2
ATOM      2  O   UNL A   1      34.684  19.915  24.704  1.00  0.00    -0.376 OA
BRANCH   2   3
ATOM      3  C   UNL A   1      33.313  19.812  25.058  1.00  0.00     0.202 C 
BRANCH   3   4
ATOM      4  C   UNL A   1      32.236  20.822  24.555  1.00  0.00     0.261 C 
BRANCH   4   5
ATOM      5  O   UNL A   1      31.430  21.540  25.523  1.00  0.00    -0.459 OA
BRANCH   5   6
ATOM      6  C   UNL A   1      31.991  22.564  26.273  1.00  0.00     0.368 C 
ATOM      7  O   UNL A   1      32.807  22.395  27.172  1.00  0.00    -0.245 OA
BRANCH   6   8
ATOM      8  C   UNL A   1      31.360  24.095  25.863  1.00  0.00     0.196 C 
ATOM      9  C   UNL A   1      33.054  26.436  24.266  1.00  0.00     0.180 C 
ATOM     10  C   UNL A   1      31.812  25.518  22.955  1.00  0.00     0.052 C 
ATOM     11  C   UNL A   1      32.643  25.656  26.123  1.00  0.00     0.126 C 
ATOM     12  C   UNL A   1      30.866  24.057  23.927  1.00  0.00     0.085 C 
BRANCH   9  13
ATOM     13  O   UNL A   1      33.535  27.738  24.062  1.00  0.00    -0.486 OA
BRANCH  13  14
ATOM     14  C   UNL A   1      33.167  28.595  25.018  1.00  0.00     0.161 A 
ATOM     15  C   UNL A   1      32.024  29.348  24.870  1.00  0.00     0.161 A 
ATOM     16  C   UNL A   1      31.733  30.311  25.821  1.00  0.00     0.050 A 
ATOM     17  C   UNL A   1      32.592  30.479  26.919  1.00  0.00     0.004 A 
ATOM     18  C   UNL A   1      34.049  28.769  26.074  1.00  0.00     0.050 A 
ATOM     19  C   UNL A   1      33.758  29.717  27.040  1.00  0.00     0.004 A 
BRANCH  15  20
ATOM     20  O   UNL A   1      31.422  29.334  23.649  1.00  0.00    -0.490 OA
BRANCH  20  21
ATOM     21  C   UNL A   1      29.916  29.544  23.503  1.00  0.00     0.229 C 
BRANCH  21  22
ATOM     22  C   UNL A   1      28.692  31.347  23.634  1.00  0.00     0.038 C 
ATOM     23  C   UNL A   1      28.723  32.865  22.707  1.00  0.00     0.007 C 
ENDBRANCH  21  22
ENDBRANCH  20  21
ENDBRANCH  15  20
ENDBRANCH  13  14
ENDBRANCH   9  13
BRANCH   8  24
ATOM     24  N   UNL A   1      30.125  24.098  26.698  1.00  0.00    -0.343 N 
ATOM     25  H   UNL A   1      30.027  25.004  27.157  1.00  0.00     0.345 HD
ATOM     26  H   UNL A   1      30.189  23.364  27.403  1.00  0.00     0.345 HD
ATOM     27  H   UNL A   1      29.313  23.929  26.104  1.00  0.00     0.345 HD
ENDBRANCH   8  24
ENDBRANCH   6   8
ENDBRANCH   5   6
ENDBRANCH   4   5
ENDBRANCH   3   4
ENDBRANCH   2   3
ENDBRANCH   1   2
BRANCH   1  28
ATOM     28  C   UNL A   1      36.064  22.025  24.393  1.00  0.00     0.188 C 
BRANCH  28  29
ATOM     29  O   UNL A   1      37.360  22.442  24.694  1.00  0.00    -0.376 OA
BRANCH  29  30
ATOM     30  C   UNL A   1      37.551  23.294  25.796  1.00  0.00     0.202 C 
BRANCH  30  31
ATOM     31  C   UNL A   1      38.919  23.854  26.259  1.00  0.00     0.261 C 
BRANCH  31  32
ATOM     32  O   UNL A   1      38.993  24.747  27.388  1.00  0.00    -0.460 OA
BRANCH  32  33
ATOM     33  C   UNL A   1      39.798  25.841  27.249  1.00  0.00     0.338 C 
ATOM     34  O   UNL A   1      40.331  26.209  26.214  1.00  0.00    -0.246 OA
BRANCH  33  35
ATOM     35  C   UNL A   1      39.757  26.680  28.481  1.00  0.00     0.060 A 
ATOM     36  C   UNL A   1      40.656  27.750  28.603  1.00  0.00     0.016 A 
ATOM     37  C   UNL A   1      38.886  26.402  29.534  1.00  0.00     0.016 A 
ATOM     38  C   UNL A   1      40.673  28.549  29.757  1.00  0.00     0.010 A 
ATOM     39  C   UNL A   1      38.925  27.186  30.703  1.00  0.00     0.010 A 
ATOM     40  C   UNL A   1      39.817  28.269  30.828  1.00  0.00    -0.014 A 
BRANCH  40  41
ATOM     41  C   UNL A   1      39.960  28.990  32.129  1.00  0.00     0.031 A 
ATOM     42  C   UNL A   1      38.997  30.104  32.447  1.00  0.00     0.074 A 
ATOM     43  C   UNL A   1      40.917  28.679  33.027  1.00  0.00     0.049 A 
ATOM     44  N   UNL A   1      39.006  30.954  33.443  1.00  0.00    -0.248 NA
ATOM     45  C   UNL A   1      37.874  30.281  31.513  1.00  0.00     0.031 C 
ATOM     46  C   UNL A   1      41.858  27.570  32.912  1.00  0.00     0.029 A 
ATOM     47  N   UNL A   1      41.256  29.280  34.221  1.00  0.00    -0.354 N 
ATOM     48  C   UNL A   1      37.906  31.781  33.245  1.00  0.00     0.074 A 
ATOM     49  C   UNL A   1      37.256  31.333  32.031  1.00  0.00     0.031 C 
ATOM     50  C   UNL A   1      42.675  27.573  33.982  1.00  0.00     0.029 A 
ATOM     51  C   UNL A   1      42.359  28.722  34.832  1.00  0.00     0.049 A 
ATOM     52  H   UNL A   1      40.758  30.038  34.602  1.00  0.00     0.167 HD
ATOM     53  C   UNL A   1      37.483  32.830  33.992  1.00  0.00     0.031 A 
ATOM     54  C   UNL A   1      43.059  29.112  35.921  1.00  0.00     0.031 A 
ATOM     55  C   UNL A   1      38.145  33.300  35.181  1.00  0.00     0.049 A 
ATOM     56  C   UNL A   1      42.644  30.360  36.667  1.00  0.00     0.074 A 
ATOM     57  C   UNL A   1      37.795  34.366  35.993  1.00  0.00     0.029 A 
ATOM     58  N   UNL A   1      39.295  32.748  35.725  1.00  0.00    -0.354 N 
ATOM     59  N   UNL A   1      41.610  31.141  36.461  1.00  0.00    -0.248 NA
ATOM     60  C   UNL A   1      43.497  30.786  37.790  1.00  0.00     0.031 C 
ATOM     61  C   UNL A   1      38.777  34.508  36.977  1.00  0.00     0.029 A 
ATOM     62  C   UNL A   1      39.690  33.476  36.836  1.00  0.00     0.049 A 
ATOM     63  H   UNL A   1      39.762  31.956  35.373  1.00  0.00     0.167 HD
ATOM     64  C   UNL A   1      41.675  32.130  37.442  1.00  0.00     0.074 A 
ATOM     65  C   UNL A   1      42.837  31.839  38.253  1.00  0.00     0.031 C 
ATOM     66  C   UNL A   1      40.845  33.182  37.648  1.00  0.00     0.031 A 
BRANCH  53  67
ATOM     67  C   UNL A   1      36.280  33.593  33.500  1.00  0.00    -0.014 A 
ATOM     68  C   UNL A   1      36.409  34.822  32.828  1.00  0.00     0.010 A 
ATOM     69  C   UNL A   1      34.995  33.048  33.684  1.00  0.00     0.010 A 
ATOM     70  C   UNL A   1      35.275  35.510  32.388  1.00  0.00     0.020 A 
ATOM     71  C   UNL A   1      33.861  33.715  33.214  1.00  0.00     0.020 A 
ATOM     72  C   UNL A   1      34.007  34.951  32.584  1.00  0.00     0.054 A 
BRANCH  72  73
ATOM     73  S   UNL A   1      32.556  35.856  31.982  1.00  0.00     0.124 S 
ATOM     74  O   UNL A   1      32.710  35.744  30.534  1.00  0.00    -0.237 OA
ATOM     75  O   UNL A   1      31.449  35.098  32.558  1.00  0.00    -0.237 OA
ATOM     76  O   UNL A   1      32.736  37.201  32.523  1.00  0.00    -0.744 OA
ENDBRANCH  72  73
ENDBRANCH  53  67
BRANCH  54  77
ATOM     77  C   UNL A   1      44.279  28.359  36.350  1.00  0.00    -0.014 A 
ATOM     78  C   UNL A   1      45.555  28.703  35.865  1.00  0.00     0.010 A 
ATOM     79  C   UNL A   1      44.165  27.258  37.220  1.00  0.00     0.010 A 
ATOM     80  C   UNL A   1      46.683  27.958  36.231  1.00  0.00     0.020 A 
ATOM     81  C   UNL A   1      45.294  26.535  37.619  1.00  0.00     0.020 A 
ATOM     82  C   UNL A   1      46.546  26.884  37.114  1.00  0.00     0.054 A 
BRANCH  82  83
ATOM     83  S   UNL A   1      48.031  25.971  37.622  1.00  0.00     0.124 S 
ATOM     84  O   UNL A   1      48.804  25.931  36.385  1.00  0.00    -0.237 OA
ATOM     85  O   UNL A   1      48.573  26.819  38.681  1.00  0.00    -0.237 OA
ATOM     86  O   UNL A   1      47.505  24.684  38.071  1.00  0.00    -0.744 OA
ENDBRANCH  82  83
ENDBRANCH  54  77
BRANCH  66  87
ATOM     87  C   UNL A   1      41.122  34.091  38.823  1.00  0.00    -0.014 A 
ATOM     88  C   UNL A   1      42.101  35.098  38.763  1.00  0.00     0.010 A 
ATOM     89  C   UNL A   1      40.322  33.988  39.978  1.00  0.00     0.010 A 
ATOM     90  C   UNL A   1      42.287  35.970  39.841  1.00  0.00     0.020 A 
ATOM     91  C   UNL A   1      40.482  34.880  41.043  1.00  0.00     0.020 A 
ATOM     92  C   UNL A   1      41.471  35.861  40.971  1.00  0.00     0.054 A 
BRANCH  92  93
ATOM     93  S   UNL A   1      41.688  37.051  42.324  1.00  0.00     0.124 S 
ATOM     94  O   UNL A   1      42.339  38.169  41.647  1.00  0.00    -0.237 OA
ATOM     95  O   UNL A   1      40.315  37.292  42.760  1.00  0.00    -0.237 OA
ATOM     96  O   UNL A   1      42.524  36.335  43.286  1.00  0.00    -0.744 OA
ENDBRANCH  92  93
ENDBRANCH  66  87
ENDBRANCH  40  41
ENDBRANCH  33  35
ENDBRANCH  32  33
ENDBRANCH  31  32
ENDBRANCH  30  31
ENDBRANCH  29  30
ENDBRANCH  28  29
ENDBRANCH   1  28
TORSDOF 26
ENDMDL
MODEL 2
REMARK VINA RESULT:     -10.2      1.493      8.163
REMARK SMILES CCCOc1ccccc1O[C@@H]1CC[C@@]([NH3+])(C(=O)OCCOCCOCCOC(=O)c2ccc(-c3c4nc(c(-c5ccc(S(=O)(=O)[O-])cc5)c5ccc([nH]5)c(-c5ccc(S(=O)(=O)[O-])cc5)c5nc(c(-c6ccc(S(=O)(=O)[O-])cc6)c6ccc3[nH]6)C=C5)C=C4)cc2)C1
REMARK SMILES IDX 23 1 22 2 21 3 20 4 19 5 17 6 18 7 15 8 12 9 13 10 91 11
REMARK SMILES IDX 14 12 11 13 10 14 5 15 6 16 7 17 9 18 8 19 4 20 3 21 2 22
REMARK SMILES IDX 1 23 16 24 24 28 25 29 26 30 27 31 28 32 29 33 30 34 31 35
REMARK SMILES IDX 32 36 90 37 33 38 89 39 34 40 35 41 36 42 83 43 37 44 88 45
REMARK SMILES IDX 82 46 84 47 38 48 87 49 81 50 80 51 39 53 69 54 50 55 68 56
REMARK SMILES IDX 51 57 54 58 67 59 85 60 52 61 53 62 66 64 86 65 55 66 40 67
REMARK SMILES IDX 41 68 49 69 42 70 48 71 43 72 44 73 45 74 46 75 47 76 70 77
REMARK SMILES IDX 71 78 79 79 72 80 78 81 73 82 74 83 75 84 76 85 77 86 56 87
REMARK SMILES IDX 57 88 65 89 58 90 64 91 59 92 60 93 61 94 62 95 63 96
REMARK H PARENT 16 25 16 26 16 27 84 52 54 63
REMARK Flexibility Score: inf
ROOT
ATOM      1  C   UNL A   1      34.303  21.343  26.123  1.00  0.00     0.188 C 
ENDROOT
BRANCH   1   2
ATOM      2  O   UNL A   1      34.299  21.099  24.734  1.00  0.00    -0.376 OA
BRANCH   2   3
ATOM      3  C   UNL A   1      33.055  21.219  24.061  1.00  0.00     0.202 C 
BRANCH   3   4
ATOM      4  C   UNL A   1      32.792  22.298  22.966  1.00  0.00     0.261 C 
BRANCH   4   5
ATOM      5  O   UNL A   1      33.174  23.674  23.222  1.00  0.00    -0.459 OA
BRANCH   5   6
ATOM      6  C   UNL A   1      33.011  24.636  22.234  1.00  0.00     0.368 C 
ATOM      7  O   UNL A   1      33.385  24.504  21.074  1.00  0.00    -0.245 OA
BRANCH   6   8
ATOM      8  C   UNL A   1      32.301  26.068  22.827  1.00  0.00     0.196 C 
ATOM      9  C   UNL A   1      33.051  27.448  25.732  1.00  0.00     0.180 C 
ATOM     10  C   UNL A   1      33.997  28.469  24.260  1.00  0.00     0.052 C 
ATOM     11  C   UNL A   1      31.854  26.052  24.815  1.00  0.00     0.126 C 
ATOM     12  C   UNL A   1      33.594  27.563  22.529  1.00  0.00     0.085 C 
BRANCH   9  13
ATOM     13  O   UNL A   1      32.757  28.024  26.977  1.00  0.00    -0.486 OA
BRANCH  13  14
ATOM     14  C   UNL A   1      33.521  29.079  27.266  1.00  0.00     0.161 A 
ATOM     15  C   UNL A   1      32.959  30.330  27.385  1.00  0.00     0.161 A 
ATOM     16  C   UNL A   1      33.793  31.421  27.567  1.00  0.00     0.050 A 
ATOM     17  C   UNL A   1      35.181  31.223  27.650  1.00  0.00     0.004 A 
ATOM     18  C   UNL A   1      34.892  28.865  27.308  1.00  0.00     0.050 A 
ATOM     19  C   UNL A   1      35.733  29.947  27.508  1.00  0.00     0.004 A 
BRANCH  15  20
ATOM     20  O   UNL A   1      31.662  30.470  26.995  1.00  0.00    -0.490 OA
BRANCH  20  21
ATOM     21  C   UNL A   1      31.299  30.807  25.550  1.00  0.00     0.229 C 
BRANCH  21  22
ATOM     22  C   UNL A   1      30.296  29.637  24.004  1.00  0.00     0.038 C 
ATOM     23  C   UNL A   1      30.562  29.526  22.248  1.00  0.00     0.007 C 
ENDBRANCH  21  22
ENDBRANCH  20  21
ENDBRANCH  15  20
ENDBRANCH  13  14
ENDBRANCH   9  13
BRANCH   8  24
ATOM     24  N   UNL A   1      31.153  26.200  21.885  1.00  0.00    -0.343 N 
ATOM     25  H   UNL A   1      31.217  27.092  21.395  1.00  0.00     0.345 HD
ATOM     26  H   UNL A   1      30.278  26.159  22.406  1.00  0.00     0.345 HD
ATOM     27  H   UNL A   1      31.181  25.438  21.208  1.00  0.00     0.345 HD
ENDBRANCH   8  24
ENDBRANCH   6   8
ENDBRANCH   5   6
ENDBRANCH   4   5
ENDBRANCH   3   4
ENDBRANCH   2   3
ENDBRANCH   1   2
BRANCH   1  28
ATOM     28  C   UNL A   1      34.866  22.666  26.651  1.00  0.00     0.188 C 
BRANCH  28  29
ATOM     29  O   UNL A   1      35.812  23.333  25.873  1.00  0.00    -0.376 OA
BRANCH  29  30
ATOM     30  C   UNL A   1      37.071  22.736  25.689  1.00  0.00     0.202 C 
BRANCH  30  31
ATOM     31  C   UNL A   1      38.415  23.327  26.184  1.00  0.00     0.261 C 
BRANCH  31  32
ATOM     32  O   UNL A   1      38.448  24.623  26.816  1.00  0.00    -0.460 OA
BRANCH  32  33
ATOM     33  C   UNL A   1      39.683  25.158  27.048  1.00  0.00     0.338 C 
ATOM     34  O   UNL A   1      40.679  24.975  26.367  1.00  0.00    -0.246 OA
BRANCH  33  35
ATOM     35  C   UNL A   1      39.610  26.195  28.117  1.00  0.00     0.060 A 
ATOM     36  C   UNL A   1      40.289  27.409  27.930  1.00  0.00     0.016 A 
ATOM     37  C   UNL A   1      38.927  25.976  29.313  1.00  0.00     0.016 A 
ATOM     38  C   UNL A   1      40.271  28.404  28.920  1.00  0.00     0.010 A 
ATOM     39  C   UNL A   1      38.937  26.963  30.317  1.00  0.00     0.010 A 
ATOM     40  C   UNL A   1      39.606  28.188  30.133  1.00  0.00    -0.014 A 
BRANCH  40  41
ATOM     41  C   UNL A   1      39.743  29.158  31.261  1.00  0.00     0.031 A 
ATOM     42  C   UNL A   1      40.899  28.999  32.215  1.00  0.00     0.074 A 
ATOM     43  C   UNL A   1      38.874  30.171  31.454  1.00  0.00     0.049 A 
ATOM     44  N   UNL A   1      41.148  29.630  33.334  1.00  0.00    -0.248 NA
ATOM     45  C   UNL A   1      41.906  27.989  31.855  1.00  0.00     0.031 C 
ATOM     46  C   UNL A   1      37.767  30.517  30.568  1.00  0.00     0.029 A 
ATOM     47  N   UNL A   1      38.787  31.097  32.471  1.00  0.00    -0.354 N 
ATOM     48  C   UNL A   1      42.326  29.080  33.825  1.00  0.00     0.074 A 
ATOM     49  C   UNL A   1      42.739  28.061  32.883  1.00  0.00     0.031 C 
ATOM     50  C   UNL A   1      37.105  31.570  31.082  1.00  0.00     0.029 A 
ATOM     51  C   UNL A   1      37.700  31.939  32.368  1.00  0.00     0.049 A 
ATOM     52  H   UNL A   1      39.440  31.153  33.205  1.00  0.00     0.167 HD
ATOM     53  C   UNL A   1      42.998  29.380  34.964  1.00  0.00     0.031 A 
ATOM     54  C   UNL A   1      37.213  32.865  33.224  1.00  0.00     0.031 A 
ATOM     55  C   UNL A   1      42.574  30.370  35.920  1.00  0.00     0.049 A 
ATOM     56  C   UNL A   1      37.907  33.096  34.548  1.00  0.00     0.074 A 
ATOM     57  C   UNL A   1      43.184  30.729  37.110  1.00  0.00     0.029 A 
ATOM     58  N   UNL A   1      41.433  31.149  35.808  1.00  0.00    -0.354 N 
ATOM     59  N   UNL A   1      39.013  32.558  35.006  1.00  0.00    -0.248 NA
ATOM     60  C   UNL A   1      37.280  34.052  35.477  1.00  0.00     0.031 C 
ATOM     61  C   UNL A   1      42.370  31.665  37.755  1.00  0.00     0.029 A 
ATOM     62  C   UNL A   1      41.299  31.957  36.927  1.00  0.00     0.049 A 
ATOM     63  H   UNL A   1      40.809  31.131  35.047  1.00  0.00     0.167 HD
ATOM     64  C   UNL A   1      39.226  33.131  36.259  1.00  0.00     0.074 A 
ATOM     65  C   UNL A   1      38.147  34.069  36.480  1.00  0.00     0.031 C 
ATOM     66  C   UNL A   1      40.227  32.897  37.143  1.00  0.00     0.031 A 
BRANCH  53  67
ATOM     67  C   UNL A   1      44.230  28.571  35.278  1.00  0.00    -0.014 A 
ATOM     68  C   UNL A   1      45.509  29.156  35.315  1.00  0.00     0.010 A 
ATOM     69  C   UNL A   1      44.097  27.202  35.578  1.00  0.00     0.010 A 
ATOM     70  C   UNL A   1      46.633  28.378  35.604  1.00  0.00     0.020 A 
ATOM     71  C   UNL A   1      45.214  26.429  35.902  1.00  0.00     0.020 A 
ATOM     72  C   UNL A   1      46.478  27.019  35.896  1.00  0.00     0.054 A 
BRANCH  72  73
ATOM     73  S   UNL A   1      47.954  26.041  36.288  1.00  0.00     0.124 S 
ATOM     74  O   UNL A   1      47.936  26.041  37.749  1.00  0.00    -0.237 OA
ATOM     75  O   UNL A   1      47.662  24.758  35.656  1.00  0.00    -0.237 OA
ATOM     76  O   UNL A   1      49.046  26.799  35.681  1.00  0.00    -0.744 OA
ENDBRANCH  72  73
ENDBRANCH  53  67
BRANCH  54  77
ATOM     77  C   UNL A   1      35.957  33.613  32.901  1.00  0.00    -0.014 A 
ATOM     78  C   UNL A   1      35.970  34.710  32.021  1.00  0.00     0.010 A 
ATOM     79  C   UNL A   1      34.740  33.254  33.511  1.00  0.00     0.010 A 
ATOM     80  C   UNL A   1      34.799  35.436  31.766  1.00  0.00     0.020 A 
ATOM     81  C   UNL A   1      33.561  33.952  33.231  1.00  0.00     0.020 A 
ATOM     82  C   UNL A   1      33.600  35.046  32.366  1.00  0.00     0.054 A 
BRANCH  82  83
ATOM     83  S   UNL A   1      32.083  35.966  31.975  1.00  0.00     0.124 S 
ATOM     84  O   UNL A   1      31.053  35.131  32.585  1.00  0.00    -0.237 OA
ATOM     85  O   UNL A   1      32.323  37.253  32.623  1.00  0.00    -0.237 OA
ATOM     86  O   UNL A   1      32.073  36.003  30.514  1.00  0.00    -0.744 OA
ENDBRANCH  82  83
ENDBRANCH  54  77
BRANCH  66  87
ATOM     87  C   UNL A   1      40.246  33.694  38.427  1.00  0.00    -0.014 A 
ATOM     88  C   UNL A   1      40.888  34.942  38.512  1.00  0.00     0.010 A 
ATOM     89  C   UNL A   1      39.529  33.220  39.544  1.00  0.00     0.010 A 
ATOM     90  C   UNL A   1      40.830  35.689  39.693  1.00  0.00     0.020 A 
ATOM     91  C   UNL A   1      39.439  33.981  40.714  1.00  0.00     0.020 A 
ATOM     92  C   UNL A   1      40.099  35.208  40.784  1.00  0.00     0.054 A 
BRANCH  92  93
ATOM     93  S   UNL A   1      39.982  36.233  42.277  1.00  0.00     0.124 S 
ATOM     94  O   UNL A   1      38.814  35.668  42.947  1.00  0.00    -0.237 OA
ATOM     95  O   UNL A   1      41.263  35.986  42.934  1.00  0.00    -0.237 OA
ATOM     96  O   UNL A   1      39.806  37.587  41.757  1.00  0.00    -0.744 OA
ENDBRANCH  92  93
ENDBRANCH  66  87
ENDBRANCH  40  41
ENDBRANCH  33  35
ENDBRANCH  32  33
ENDBRANCH  31  32
ENDBRANCH  30  31
ENDBRANCH  29  30
ENDBRANCH  28  29
ENDBRANCH   1  28
TORSDOF 26
ENDMDL
MODEL 3
REMARK VINA RESULT:      -9.4      7.133      9.030
REMARK SMILES CCCOc1ccccc1O[C@@H]1CC[C@@]([NH3+])(C(=O)OCCOCCOCCOC(=O)c2ccc(-c3c4nc(c(-c5ccc(S(=O)(=O)[O-])cc5)c5ccc([nH]5)c(-c5ccc(S(=O)(=O)[O-])cc5)c5nc(c(-c6ccc(S(=O)(=O)[O-])cc6)c6ccc3[nH]6)C=C5)C=C4)cc2)C1
REMARK SMILES IDX 23 1 22 2 21 3 20 4 19 5 17 6 18 7 15 8 12 9 13 10 91 11
REMARK SMILES IDX 14 12 11 13 10 14 5 15 6 16 7 17 9 18 8 19 4 20 3 21 2 22
REMARK SMILES IDX 1 23 16 24 24 28 25 29 26 30 27 31 28 32 29 33 30 34 31 35
REMARK SMILES IDX 32 36 90 37 33 38 89 39 34 40 35 41 36 42 83 43 37 44 88 45
REMARK SMILES IDX 82 46 84 47 38 48 87 49 81 50 80 51 39 53 69 54 50 55 68 56
REMARK SMILES IDX 51 57 54 58 67 59 85 60 52 61 53 62 66 64 86 65 55 66 40 67
REMARK SMILES IDX 41 68 49 69 42 70 48 71 43 72 44 73 45 74 46 75 47 76 70 77
REMARK SMILES IDX 71 78 79 79 72 80 78 81 73 82 74 83 75 84 76 85 77 86 56 87
REMARK SMILES IDX 57 88 65 89 58 90 64 91 59 92 60 93 61 94 62 95 63 96
REMARK H PARENT 16 25 16 26 16 27 84 52 54 63
REMARK Flexibility Score: inf
ROOT
ATOM      1  C   UNL A   1      39.511  24.435  27.564  1.00  0.00     0.188 C 
ENDROOT
BRANCH   1   2
ATOM      2  O   UNL A   1      38.327  24.623  26.821  1.00  0.00    -0.376 OA
BRANCH   2   3
ATOM      3  C   UNL A   1      37.844  23.512  26.083  1.00  0.00     0.202 C 
BRANCH   3   4
ATOM      4  C   UNL A   1      36.492  23.540  25.307  1.00  0.00     0.261 C 
BRANCH   4   5
ATOM      5  O   UNL A   1      35.274  23.145  25.990  1.00  0.00    -0.459 OA
BRANCH   5   6
ATOM      6  C   UNL A   1      34.635  21.962  25.643  1.00  0.00     0.368 C 
ATOM      7  O   UNL A   1      35.214  20.910  25.401  1.00  0.00    -0.245 OA
BRANCH   6   8
ATOM      8  C   UNL A   1      32.945  22.149  25.509  1.00  0.00     0.196 C 
ATOM      9  C   UNL A   1      31.422  25.051  25.106  1.00  0.00     0.180 C 
ATOM     10  C   UNL A   1      31.510  24.105  23.317  1.00  0.00     0.052 C 
ATOM     11  C   UNL A   1      32.170  23.746  26.508  1.00  0.00     0.126 C 
ATOM     12  C   UNL A   1      32.507  22.397  23.575  1.00  0.00     0.085 C 
BRANCH   9  13
ATOM     13  O   UNL A   1      30.458  26.028  25.394  1.00  0.00    -0.486 OA
BRANCH  13  14
ATOM     14  C   UNL A   1      30.982  27.230  25.647  1.00  0.00     0.161 A 
ATOM     15  C   UNL A   1      31.059  28.176  24.649  1.00  0.00     0.161 A 
ATOM     16  C   UNL A   1      31.715  29.367  24.910  1.00  0.00     0.050 A 
ATOM     17  C   UNL A   1      32.261  29.591  26.185  1.00  0.00     0.004 A 
ATOM     18  C   UNL A   1      31.546  27.415  26.902  1.00  0.00     0.050 A 
ATOM     19  C   UNL A   1      32.188  28.610  27.178  1.00  0.00     0.004 A 
BRANCH  15  20
ATOM     20  O   UNL A   1      30.781  27.767  23.381  1.00  0.00    -0.490 OA
BRANCH  20  21
ATOM     21  C   UNL A   1      29.687  28.439  22.553  1.00  0.00     0.229 C 
BRANCH  21  22
ATOM     22  C   UNL A   1      28.502  30.236  22.915  1.00  0.00     0.038 C 
ATOM     23  C   UNL A   1      28.852  31.714  23.842  1.00  0.00     0.007 C 
ENDBRANCH  21  22
ENDBRANCH  20  21
ENDBRANCH  15  20
ENDBRANCH  13  14
ENDBRANCH   9  13
BRANCH   8  24
ATOM     24  N   UNL A   1      32.498  20.798  25.956  1.00  0.00    -0.343 N 
ATOM     25  H   UNL A   1      33.289  20.296  26.360  1.00  0.00     0.345 HD
ATOM     26  H   UNL A   1      32.136  20.278  25.158  1.00  0.00     0.345 HD
ATOM     27  H   UNL A   1      31.765  20.898  26.658  1.00  0.00     0.345 HD
ENDBRANCH   8  24
ENDBRANCH   6   8
ENDBRANCH   5   6
ENDBRANCH   4   5
ENDBRANCH   3   4
ENDBRANCH   2   3
ENDBRANCH   1   2
BRANCH   1  28
ATOM     28  C   UNL A   1      40.672  23.656  26.941  1.00  0.00     0.188 C 
BRANCH  28  29
ATOM     29  O   UNL A   1      41.290  22.671  27.711  1.00  0.00    -0.376 OA
BRANCH  29  30
ATOM     30  C   UNL A   1      40.800  21.355  27.636  1.00  0.00     0.202 C 
BRANCH  30  31
ATOM     31  C   UNL A   1      41.237  20.303  26.586  1.00  0.00     0.261 C 
BRANCH  31  32
ATOM     32  O   UNL A   1      41.865  20.723  25.358  1.00  0.00    -0.460 OA
BRANCH  32  33
ATOM     33  C   UNL A   1      43.225  20.620  25.302  1.00  0.00     0.338 C 
ATOM     34  O   UNL A   1      43.852  19.688  24.825  1.00  0.00    -0.246 OA
BRANCH  33  35
ATOM     35  C   UNL A   1      43.862  21.912  25.689  1.00  0.00     0.060 A 
ATOM     36  C   UNL A   1      44.711  21.941  26.806  1.00  0.00     0.016 A 
ATOM     37  C   UNL A   1      43.603  23.098  25.002  1.00  0.00     0.016 A 
ATOM     38  C   UNL A   1      45.310  23.140  27.224  1.00  0.00     0.010 A 
ATOM     39  C   UNL A   1      44.181  24.304  25.441  1.00  0.00     0.010 A 
ATOM     40  C   UNL A   1      45.042  24.339  26.555  1.00  0.00    -0.014 A 
BRANCH  40  41
ATOM     41  C   UNL A   1      45.521  25.644  27.106  1.00  0.00     0.031 A 
ATOM     42  C   UNL A   1      44.571  26.471  27.933  1.00  0.00     0.074 A 
ATOM     43  C   UNL A   1      46.770  26.104  26.893  1.00  0.00     0.049 A 
ATOM     44  N   UNL A   1      44.714  27.685  28.400  1.00  0.00    -0.248 NA
ATOM     45  C   UNL A   1      43.287  25.840  28.275  1.00  0.00     0.031 C 
ATOM     46  C   UNL A   1      47.833  25.381  26.201  1.00  0.00     0.029 A 
ATOM     47  N   UNL A   1      47.355  27.303  27.238  1.00  0.00    -0.354 N 
ATOM     48  C   UNL A   1      43.532  27.974  29.072  1.00  0.00     0.074 A 
ATOM     49  C   UNL A   1      42.682  26.810  28.947  1.00  0.00     0.031 C 
ATOM     50  C   UNL A   1      48.935  26.151  26.162  1.00  0.00     0.029 A 
ATOM     51  C   UNL A   1      48.644  27.450  26.771  1.00  0.00     0.049 A 
ATOM     52  H   UNL A   1      46.896  27.993  27.770  1.00  0.00     0.167 HD
ATOM     53  C   UNL A   1      43.176  29.111  29.720  1.00  0.00     0.031 A 
ATOM     54  C   UNL A   1      49.477  28.516  26.790  1.00  0.00     0.031 A 
ATOM     55  C   UNL A   1      44.005  30.284  29.819  1.00  0.00     0.049 A 
ATOM     56  C   UNL A   1      49.011  29.815  27.408  1.00  0.00     0.074 A 
ATOM     57  C   UNL A   1      43.718  31.487  30.442  1.00  0.00     0.029 A 
ATOM     58  N   UNL A   1      45.273  30.412  29.273  1.00  0.00    -0.354 N 
ATOM     59  N   UNL A   1      47.885  30.080  28.027  1.00  0.00    -0.248 NA
ATOM     60  C   UNL A   1      49.926  30.966  27.319  1.00  0.00     0.031 C 
ATOM     61  C   UNL A   1      44.777  32.367  30.203  1.00  0.00     0.029 A 
ATOM     62  C   UNL A   1      45.764  31.686  29.510  1.00  0.00     0.049 A 
ATOM     63  H   UNL A   1      45.754  29.703  28.788  1.00  0.00     0.167 HD
ATOM     64  C   UNL A   1      47.970  31.413  28.424  1.00  0.00     0.074 A 
ATOM     65  C   UNL A   1      49.264  31.898  27.992  1.00  0.00     0.031 C 
ATOM     66  C   UNL A   1      47.057  32.166  29.085  1.00  0.00     0.031 A 
BRANCH  53  67
ATOM     67  C   UNL A   1      41.791  29.168  30.312  1.00  0.00    -0.014 A 
ATOM     68  C   UNL A   1      41.499  28.598  31.564  1.00  0.00     0.010 A 
ATOM     69  C   UNL A   1      40.770  29.839  29.613  1.00  0.00     0.010 A 
ATOM     70  C   UNL A   1      40.204  28.661  32.085  1.00  0.00     0.020 A 
ATOM     71  C   UNL A   1      39.482  29.936  30.147  1.00  0.00     0.020 A 
ATOM     72  C   UNL A   1      39.203  29.331  31.372  1.00  0.00     0.054 A 
BRANCH  72  73
ATOM     73  S   UNL A   1      37.538  29.416  32.084  1.00  0.00     0.124 S 
ATOM     74  O   UNL A   1      37.574  28.335  33.066  1.00  0.00    -0.237 OA
ATOM     75  O   UNL A   1      37.498  30.767  32.637  1.00  0.00    -0.237 OA
ATOM     76  O   UNL A   1      36.658  29.187  30.941  1.00  0.00    -0.744 OA
ENDBRANCH  72  73
ENDBRANCH  53  67
BRANCH  54  77
ATOM     77  C   UNL A   1      50.825  28.438  26.146  1.00  0.00    -0.014 A 
ATOM     78  C   UNL A   1      51.010  28.796  24.798  1.00  0.00     0.010 A 
ATOM     79  C   UNL A   1      51.933  27.961  26.873  1.00  0.00     0.010 A 
ATOM     80  C   UNL A   1      52.265  28.670  24.190  1.00  0.00     0.020 A 
ATOM     81  C   UNL A   1      53.197  27.868  26.281  1.00  0.00     0.020 A 
ATOM     82  C   UNL A   1      53.354  28.215  24.939  1.00  0.00     0.054 A 
BRANCH  82  83
ATOM     83  S   UNL A   1      54.984  28.116  24.146  1.00  0.00     0.124 S 
ATOM     84  O   UNL A   1      55.057  26.707  23.772  1.00  0.00    -0.237 OA
ATOM     85  O   UNL A   1      54.851  29.060  23.039  1.00  0.00    -0.237 OA
ATOM     86  O   UNL A   1      55.905  28.530  25.203  1.00  0.00    -0.744 OA
ENDBRANCH  82  83
ENDBRANCH  54  77
BRANCH  66  87
ATOM     87  C   UNL A   1      47.422  33.590  29.434  1.00  0.00    -0.014 A 
ATOM     88  C   UNL A   1      48.113  33.906  30.616  1.00  0.00     0.010 A 
ATOM     89  C   UNL A   1      47.143  34.619  28.512  1.00  0.00     0.010 A 
ATOM     90  C   UNL A   1      48.500  35.225  30.879  1.00  0.00     0.020 A 
ATOM     91  C   UNL A   1      47.559  35.932  28.756  1.00  0.00     0.020 A 
ATOM     92  C   UNL A   1      48.228  36.228  29.944  1.00  0.00     0.054 A 
BRANCH  92  93
ATOM     93  S   UNL A   1      48.805  37.916  30.280  1.00  0.00     0.124 S 
ATOM     94  O   UNL A   1      47.649  38.508  30.947  1.00  0.00    -0.237 OA
ATOM     95  O   UNL A   1      49.973  37.690  31.128  1.00  0.00    -0.237 OA
ATOM     96  O   UNL A   1      49.101  38.453  28.953  1.00  0.00    -0.744 OA
ENDBRANCH  92  93
ENDBRANCH  66  87
ENDBRANCH  40  41
ENDBRANCH  33  35
ENDBRANCH  32  33
ENDBRANCH  31  32
ENDBRANCH  30  31
ENDBRANCH  29  30
ENDBRANCH  28  29
ENDBRANCH   1  28
TORSDOF 26
ENDMDL
