MODEL 1
REMARK VINA RESULT:      -8.1      0.000      0.000
REMARK SMILES CC(C)Cc1ccc([C@H](C)C(=O)OCCOCCOCCOC(=O)c2ccc(-c3c4nc(c(-c5ccc(S(=O)(=O)[O-])cc5)c5ccc([nH]5)c(-c5ccc(S(=O)(=O)[O-])cc5)c5nc(c(-c6ccc(S(=O)(=O)[O-])cc6)c6ccc3[nH]6)C=C5)C=C4)cc2)cc1
REMARK SMILES IDX 17 1 16 2 15 3 14 4 13 5 11 6 12 7 9 8 10 9 8 10 5 11 6 12
REMARK SMILES IDX 86 13 7 14 85 15 4 16 2 17 1 18 3 19 18 20 19 21 20 22 21 23
REMARK SMILES IDX 22 24 23 25 24 26 25 27 26 28 84 29 27 30 83 31 28 32 29 33
REMARK SMILES IDX 30 34 77 35 31 36 82 37 76 38 78 39 32 40 81 41 75 42 74 43
REMARK SMILES IDX 33 45 63 46 44 47 62 48 45 49 48 50 61 51 79 52 46 53 47 54
REMARK SMILES IDX 60 56 80 57 49 58 34 59 35 60 43 61 36 62 42 63 37 64 38 65
REMARK SMILES IDX 39 66 40 67 41 68 64 69 65 70 73 71 66 72 72 73 67 74 68 75
REMARK SMILES IDX 69 76 70 77 71 78 50 79 51 80 59 81 52 82 58 83 53 84 54 85
REMARK SMILES IDX 55 86 56 87 57 88
REMARK H PARENT 78 44 48 55
REMARK Flexibility Score: inf
ROOT
ATOM      1  C   UNL A   1      34.179  29.197  27.317  1.00  0.00     0.188 C 
ENDROOT
BRANCH   1   2
ATOM      2  O   UNL A   1      33.933  28.211  26.324  1.00  0.00    -0.376 OA
BRANCH   2   3
ATOM      3  C   UNL A   1      33.377  28.571  25.067  1.00  0.00     0.202 C 
BRANCH   3   4
ATOM      4  C   UNL A   1      31.886  28.933  24.965  1.00  0.00     0.261 C 
BRANCH   4   5
ATOM      5  O   UNL A   1      31.076  28.076  24.138  1.00  0.00    -0.463 OA
BRANCH   5   6
ATOM      6  C   UNL A   1      30.918  26.793  24.568  1.00  0.00     0.313 C 
ATOM      7  O   UNL A   1      30.623  26.492  25.721  1.00  0.00    -0.252 OA
BRANCH   6   8
ATOM      8  C   UNL A   1      31.218  25.736  23.493  1.00  0.00     0.126 C 
ATOM      9  C   UNL A   1      31.186  26.252  22.039  1.00  0.00     0.025 C 
BRANCH   8  10
ATOM     10  C   UNL A   1      32.465  24.922  23.806  1.00  0.00    -0.034 A 
ATOM     11  C   UNL A   1      34.714  23.269  24.192  1.00  0.00    -0.048 A 
ATOM     12  C   UNL A   1      34.672  24.174  23.131  1.00  0.00     0.004 A 
ATOM     13  C   UNL A   1      33.652  23.234  25.095  1.00  0.00     0.004 A 
ATOM     14  C   UNL A   1      33.539  24.939  22.906  1.00  0.00     0.005 A 
ATOM     15  C   UNL A   1      32.545  24.062  24.911  1.00  0.00     0.005 A 
BRANCH  11  16
ATOM     16  C   UNL A   1      35.851  22.292  24.293  1.00  0.00     0.038 C 
BRANCH  16  17
ATOM     17  C   UNL A   1      36.699  22.479  25.573  1.00  0.00    -0.013 C 
ATOM     18  C   UNL A   1      37.967  21.615  25.607  1.00  0.00     0.008 C 
ATOM     19  C   UNL A   1      37.092  23.948  25.699  1.00  0.00     0.008 C 
ENDBRANCH  16  17
ENDBRANCH  11  16
ENDBRANCH   8  10
ENDBRANCH   6   8
ENDBRANCH   5   6
ENDBRANCH   4   5
ENDBRANCH   3   4
ENDBRANCH   2   3
ENDBRANCH   1   2
BRANCH   1  20
ATOM     20  C   UNL A   1      35.590  29.771  27.469  1.00  0.00     0.188 C 
BRANCH  20  21
ATOM     21  O   UNL A   1      35.657  31.115  27.873  1.00  0.00    -0.376 OA
BRANCH  21  22
ATOM     22  C   UNL A   1      34.809  31.565  28.910  1.00  0.00     0.202 C 
BRANCH  22  23
ATOM     23  C   UNL A   1      35.275  31.632  30.376  1.00  0.00     0.261 C 
BRANCH  23  24
ATOM     24  O   UNL A   1      36.667  31.414  30.651  1.00  0.00    -0.460 OA
BRANCH  24  25
ATOM     25  C   UNL A   1      37.082  30.140  30.844  1.00  0.00     0.338 C 
ATOM     26  O   UNL A   1      36.388  29.186  31.156  1.00  0.00    -0.246 OA
BRANCH  25  27
ATOM     27  C   UNL A   1      38.484  30.055  30.360  1.00  0.00     0.060 A 
ATOM     28  C   UNL A   1      38.797  30.506  29.068  1.00  0.00     0.016 A 
ATOM     29  C   UNL A   1      39.492  29.575  31.197  1.00  0.00     0.016 A 
ATOM     30  C   UNL A   1      40.114  30.452  28.601  1.00  0.00     0.010 A 
ATOM     31  C   UNL A   1      40.804  29.498  30.720  1.00  0.00     0.010 A 
ATOM     32  C   UNL A   1      41.119  29.908  29.411  1.00  0.00    -0.014 A 
BRANCH  32  33
ATOM     33  C   UNL A   1      42.444  29.551  28.845  1.00  0.00     0.031 A 
ATOM     34  C   UNL A   1      42.660  28.127  28.406  1.00  0.00     0.074 A 
ATOM     35  C   UNL A   1      43.447  30.442  28.749  1.00  0.00     0.049 A 
ATOM     36  N   UNL A   1      43.755  27.532  28.013  1.00  0.00    -0.248 NA
ATOM     37  C   UNL A   1      41.473  27.254  28.424  1.00  0.00     0.031 C 
ATOM     38  C   UNL A   1      43.356  31.864  29.072  1.00  0.00     0.029 A 
ATOM     39  N   UNL A   1      44.755  30.268  28.362  1.00  0.00    -0.354 N 
ATOM     40  C   UNL A   1      43.398  26.213  27.761  1.00  0.00     0.074 A 
ATOM     41  C   UNL A   1      41.988  26.089  28.066  1.00  0.00     0.031 C 
ATOM     42  C   UNL A   1      44.563  32.431  28.884  1.00  0.00     0.029 A 
ATOM     43  C   UNL A   1      45.520  31.404  28.474  1.00  0.00     0.049 A 
ATOM     44  H   UNL A   1      45.110  29.409  28.037  1.00  0.00     0.167 HD
ATOM     45  C   UNL A   1      44.171  25.192  27.321  1.00  0.00     0.031 A 
ATOM     46  C   UNL A   1      46.846  31.586  28.296  1.00  0.00     0.031 A 
ATOM     47  C   UNL A   1      45.576  25.312  27.040  1.00  0.00     0.049 A 
ATOM     48  C   UNL A   1      47.711  30.411  27.906  1.00  0.00     0.074 A 
ATOM     49  C   UNL A   1      46.446  24.340  26.578  1.00  0.00     0.029 A 
ATOM     50  N   UNL A   1      46.321  26.470  27.206  1.00  0.00    -0.354 N 
ATOM     51  N   UNL A   1      47.360  29.172  27.656  1.00  0.00    -0.248 NA
ATOM     52  C   UNL A   1      49.155  30.661  27.773  1.00  0.00     0.031 C 
ATOM     53  C   UNL A   1      47.729  24.892  26.529  1.00  0.00     0.029 A 
ATOM     54  C   UNL A   1      47.646  26.229  26.887  1.00  0.00     0.049 A 
ATOM     55  H   UNL A   1      45.960  27.336  27.506  1.00  0.00     0.167 HD
ATOM     56  C   UNL A   1      48.531  28.508  27.298  1.00  0.00     0.074 A 
ATOM     57  C   UNL A   1      49.600  29.482  27.361  1.00  0.00     0.031 C 
ATOM     58  C   UNL A   1      48.702  27.210  26.942  1.00  0.00     0.031 A 
BRANCH  45  59
ATOM     59  C   UNL A   1      43.517  23.844  27.172  1.00  0.00    -0.014 A 
ATOM     60  C   UNL A   1      43.348  22.985  28.274  1.00  0.00     0.010 A 
ATOM     61  C   UNL A   1      43.053  23.434  25.909  1.00  0.00     0.010 A 
ATOM     62  C   UNL A   1      42.776  21.721  28.103  1.00  0.00     0.020 A 
ATOM     63  C   UNL A   1      42.451  22.184  25.740  1.00  0.00     0.020 A 
ATOM     64  C   UNL A   1      42.337  21.327  26.835  1.00  0.00     0.054 A 
BRANCH  64  65
ATOM     65  S   UNL A   1      41.601  19.681  26.644  1.00  0.00     0.124 S 
ATOM     66  O   UNL A   1      40.965  19.788  25.333  1.00  0.00    -0.237 OA
ATOM     67  O   UNL A   1      42.764  18.800  26.708  1.00  0.00    -0.237 OA
ATOM     68  O   UNL A   1      40.680  19.578  27.774  1.00  0.00    -0.744 OA
ENDBRANCH  64  65
ENDBRANCH  45  59
BRANCH  46  69
ATOM     69  C   UNL A   1      47.452  32.932  28.498  1.00  0.00    -0.014 A 
ATOM     70  C   UNL A   1      47.271  33.946  27.541  1.00  0.00     0.010 A 
ATOM     71  C   UNL A   1      48.225  33.208  29.643  1.00  0.00     0.010 A 
ATOM     72  C   UNL A   1      47.860  35.203  27.715  1.00  0.00     0.020 A 
ATOM     73  C   UNL A   1      48.790  34.472  29.836  1.00  0.00     0.020 A 
ATOM     74  C   UNL A   1      48.612  35.459  28.865  1.00  0.00     0.054 A 
BRANCH  74  75
ATOM     75  S   UNL A   1      49.322  37.115  29.092  1.00  0.00     0.124 S 
ATOM     76  O   UNL A   1      50.755  36.839  29.053  1.00  0.00    -0.237 OA
ATOM     77  O   UNL A   1      48.788  37.845  27.946  1.00  0.00    -0.237 OA
ATOM     78  O   UNL A   1      48.800  37.537  30.389  1.00  0.00    -0.744 OA
ENDBRANCH  74  75
ENDBRANCH  46  69
BRANCH  58  79
ATOM     79  C   UNL A   1      50.083  26.764  26.532  1.00  0.00    -0.014 A 
ATOM     80  C   UNL A   1      50.961  26.152  27.444  1.00  0.00     0.010 A 
ATOM     81  C   UNL A   1      50.471  26.882  25.184  1.00  0.00     0.010 A 
ATOM     82  C   UNL A   1      52.209  25.684  27.018  1.00  0.00     0.020 A 
ATOM     83  C   UNL A   1      51.704  26.388  24.749  1.00  0.00     0.020 A 
ATOM     84  C   UNL A   1      52.569  25.799  25.671  1.00  0.00     0.054 A 
BRANCH  84  85
ATOM     85  S   UNL A   1      54.163  25.120  25.132  1.00  0.00     0.124 S 
ATOM     86  O   UNL A   1      54.424  25.880  23.914  1.00  0.00    -0.237 OA
ATOM     87  O   UNL A   1      55.038  25.422  26.262  1.00  0.00    -0.237 OA
ATOM     88  O   UNL A   1      53.884  23.698  24.931  1.00  0.00    -0.744 OA
ENDBRANCH  84  85
ENDBRANCH  58  79
ENDBRANCH  32  33
ENDBRANCH  25  27
ENDBRANCH  24  25
ENDBRANCH  23  24
ENDBRANCH  22  23
ENDBRANCH  21  22
ENDBRANCH  20  21
ENDBRANCH   1  20
TORSDOF 23
ENDMDL
MODEL 2
REMARK VINA RESULT:      -7.4      3.616      7.482
REMARK SMILES CC(C)Cc1ccc([C@H](C)C(=O)OCCOCCOCCOC(=O)c2ccc(-c3c4nc(c(-c5ccc(S(=O)(=O)[O-])cc5)c5ccc([nH]5)c(-c5ccc(S(=O)(=O)[O-])cc5)c5nc(c(-c6ccc(S(=O)(=O)[O-])cc6)c6ccc3[nH]6)C=C5)C=C4)cc2)cc1
REMARK SMILES IDX 17 1 16 2 15 3 14 4 13 5 11 6 12 7 9 8 10 9 8 10 5 11 6 12
REMARK SMILES IDX 86 13 7 14 85 15 4 16 2 17 1 18 3 19 18 20 19 21 20 22 21 23
REMARK SMILES IDX 22 24 23 25 24 26 25 27 26 28 84 29 27 30 83 31 28 32 29 33
REMARK SMILES IDX 30 34 77 35 31 36 82 37 76 38 78 39 32 40 81 41 75 42 74 43
REMARK SMILES IDX 33 45 63 46 44 47 62 48 45 49 48 50 61 51 79 52 46 53 47 54
REMARK SMILES IDX 60 56 80 57 49 58 34 59 35 60 43 61 36 62 42 63 37 64 38 65
REMARK SMILES IDX 39 66 40 67 41 68 64 69 65 70 73 71 66 72 72 73 67 74 68 75
REMARK SMILES IDX 69 76 70 77 71 78 50 79 51 80 59 81 52 82 58 83 53 84 54 85
REMARK SMILES IDX 55 86 56 87 57 88
REMARK H PARENT 78 44 48 55
REMARK Flexibility Score: inf
ROOT
ATOM      1  C   UNL A   1      34.548  33.114  32.591  1.00  0.00     0.188 C 
ENDROOT
BRANCH   1   2
ATOM      2  O   UNL A   1      34.572  33.591  33.929  1.00  0.00    -0.376 OA
BRANCH   2   3
ATOM      3  C   UNL A   1      35.601  34.466  34.369  1.00  0.00     0.202 C 
BRANCH   3   4
ATOM      4  C   UNL A   1      37.065  33.996  34.354  1.00  0.00     0.261 C 
BRANCH   4   5
ATOM      5  O   UNL A   1      38.048  34.951  34.798  1.00  0.00    -0.463 OA
BRANCH   5   6
ATOM      6  C   UNL A   1      38.761  34.614  35.910  1.00  0.00     0.313 C 
ATOM      7  O   UNL A   1      38.448  33.701  36.668  1.00  0.00    -0.252 OA
BRANCH   6   8
ATOM      8  C   UNL A   1      39.964  35.531  36.179  1.00  0.00     0.126 C 
ATOM      9  C   UNL A   1      40.446  35.566  37.645  1.00  0.00     0.025 C 
BRANCH   8  10
ATOM     10  C   UNL A   1      41.098  35.314  35.188  1.00  0.00    -0.034 A 
ATOM     11  C   UNL A   1      43.046  35.000  33.177  1.00  0.00    -0.048 A 
ATOM     12  C   UNL A   1      42.722  36.268  33.659  1.00  0.00     0.004 A 
ATOM     13  C   UNL A   1      42.434  33.882  33.745  1.00  0.00     0.004 A 
ATOM     14  C   UNL A   1      41.719  36.425  34.601  1.00  0.00     0.005 A 
ATOM     15  C   UNL A   1      41.480  34.038  34.750  1.00  0.00     0.005 A 
BRANCH  11  16
ATOM     16  C   UNL A   1      43.972  34.863  32.001  1.00  0.00     0.038 C 
BRANCH  16  17
ATOM     17  C   UNL A   1      43.265  35.082  30.643  1.00  0.00    -0.013 C 
ATOM     18  C   UNL A   1      41.749  34.849  30.691  1.00  0.00     0.008 C 
ATOM     19  C   UNL A   1      43.537  36.506  30.164  1.00  0.00     0.008 C 
ENDBRANCH  16  17
ENDBRANCH  11  16
ENDBRANCH   8  10
ENDBRANCH   6   8
ENDBRANCH   5   6
ENDBRANCH   4   5
ENDBRANCH   3   4
ENDBRANCH   2   3
ENDBRANCH   1   2
BRANCH   1  20
ATOM     20  C   UNL A   1      34.192  34.081  31.459  1.00  0.00     0.188 C 
BRANCH  20  21
ATOM     21  O   UNL A   1      35.176  34.242  30.469  1.00  0.00    -0.376 OA
BRANCH  21  22
ATOM     22  C   UNL A   1      36.050  33.168  30.186  1.00  0.00     0.202 C 
BRANCH  22  23
ATOM     23  C   UNL A   1      35.773  32.165  29.052  1.00  0.00     0.261 C 
BRANCH  23  24
ATOM     24  O   UNL A   1      35.723  30.770  29.384  1.00  0.00    -0.460 OA
BRANCH  24  25
ATOM     25  C   UNL A   1      36.395  30.356  30.484  1.00  0.00     0.338 C 
ATOM     26  O   UNL A   1      35.926  30.162  31.595  1.00  0.00    -0.246 OA
BRANCH  25  27
ATOM     27  C   UNL A   1      37.748  29.933  30.042  1.00  0.00     0.060 A 
ATOM     28  C   UNL A   1      38.844  30.119  30.898  1.00  0.00     0.016 A 
ATOM     29  C   UNL A   1      37.924  29.312  28.804  1.00  0.00     0.016 A 
ATOM     30  C   UNL A   1      40.123  29.710  30.507  1.00  0.00     0.010 A 
ATOM     31  C   UNL A   1      39.207  28.928  28.404  1.00  0.00     0.010 A 
ATOM     32  C   UNL A   1      40.318  29.150  29.239  1.00  0.00    -0.014 A 
BRANCH  32  33
ATOM     33  C   UNL A   1      41.683  28.994  28.676  1.00  0.00     0.031 A 
ATOM     34  C   UNL A   1      42.088  27.630  28.183  1.00  0.00     0.074 A 
ATOM     35  C   UNL A   1      42.560  30.013  28.629  1.00  0.00     0.049 A 
ATOM     36  N   UNL A   1      43.255  27.202  27.780  1.00  0.00    -0.248 NA
ATOM     37  C   UNL A   1      41.027  26.609  28.151  1.00  0.00     0.031 C 
ATOM     38  C   UNL A   1      42.280  31.396  29.008  1.00  0.00     0.029 A 
ATOM     39  N   UNL A   1      43.882  30.028  28.252  1.00  0.00    -0.354 N 
ATOM     40  C   UNL A   1      43.077  25.859  27.471  1.00  0.00     0.074 A 
ATOM     41  C   UNL A   1      41.694  25.538  27.753  1.00  0.00     0.031 C 
ATOM     42  C   UNL A   1      43.403  32.124  28.857  1.00  0.00     0.029 A 
ATOM     43  C   UNL A   1      44.490  31.250  28.419  1.00  0.00     0.049 A 
ATOM     44  H   UNL A   1      44.350  29.238  27.896  1.00  0.00     0.167 HD
ATOM     45  C   UNL A   1      43.982  24.968  27.000  1.00  0.00     0.031 A 
ATOM     46  C   UNL A   1      45.781  31.612  28.265  1.00  0.00     0.031 A 
ATOM     47  C   UNL A   1      45.361  25.284  26.742  1.00  0.00     0.049 A 
ATOM     48  C   UNL A   1      46.797  30.579  27.839  1.00  0.00     0.074 A 
ATOM     49  C   UNL A   1      46.355  24.455  26.252  1.00  0.00     0.029 A 
ATOM     50  N   UNL A   1      45.944  26.521  26.963  1.00  0.00    -0.354 N 
ATOM     51  N   UNL A   1      46.614  29.316  27.535  1.00  0.00    -0.248 NA
ATOM     52  C   UNL A   1      48.196  31.022  27.735  1.00  0.00     0.031 C 
ATOM     53  C   UNL A   1      47.554  25.173  26.242  1.00  0.00     0.029 A 
ATOM     54  C   UNL A   1      47.292  26.470  26.652  1.00  0.00     0.049 A 
ATOM     55  H   UNL A   1      45.470  27.319  27.294  1.00  0.00     0.167 HD
ATOM     56  C   UNL A   1      47.865  28.827  27.166  1.00  0.00     0.074 A 
ATOM     57  C   UNL A   1      48.796  29.930  27.281  1.00  0.00     0.031 C 
ATOM     58  C   UNL A   1      48.209  27.578  26.760  1.00  0.00     0.031 A 
BRANCH  45  59
ATOM     59  C   UNL A   1      43.513  23.553  26.789  1.00  0.00    -0.014 A 
ATOM     60  C   UNL A   1      43.242  23.053  25.502  1.00  0.00     0.010 A 
ATOM     61  C   UNL A   1      43.351  22.704  27.899  1.00  0.00     0.010 A 
ATOM     62  C   UNL A   1      42.767  21.749  25.335  1.00  0.00     0.020 A 
ATOM     63  C   UNL A   1      42.908  21.389  27.734  1.00  0.00     0.020 A 
ATOM     64  C   UNL A   1      42.598  20.928  26.454  1.00  0.00     0.054 A 
BRANCH  64  65
ATOM     65  S   UNL A   1      41.980  19.241  26.208  1.00  0.00     0.124 S 
ATOM     66  O   UNL A   1      42.774  18.794  25.066  1.00  0.00    -0.237 OA
ATOM     67  O   UNL A   1      42.292  18.596  27.481  1.00  0.00    -0.237 OA
ATOM     68  O   UNL A   1      40.556  19.428  25.939  1.00  0.00    -0.744 OA
ENDBRANCH  64  65
ENDBRANCH  45  59
BRANCH  46  69
ATOM     69  C   UNL A   1      46.203  33.017  28.529  1.00  0.00    -0.014 A 
ATOM     70  C   UNL A   1      46.600  33.412  29.819  1.00  0.00     0.010 A 
ATOM     71  C   UNL A   1      46.197  33.974  27.497  1.00  0.00     0.010 A 
ATOM     72  C   UNL A   1      46.972  34.736  30.076  1.00  0.00     0.020 A 
ATOM     73  C   UNL A   1      46.597  35.292  27.742  1.00  0.00     0.020 A 
ATOM     74  C   UNL A   1      46.972  35.666  29.033  1.00  0.00     0.054 A 
BRANCH  74  75
ATOM     75  S   UNL A   1      47.509  37.366  29.381  1.00  0.00     0.124 S 
ATOM     76  O   UNL A   1      48.821  37.408  28.743  1.00  0.00    -0.237 OA
ATOM     77  O   UNL A   1      46.466  38.161  28.738  1.00  0.00    -0.237 OA
ATOM     78  O   UNL A   1      47.520  37.430  30.841  1.00  0.00    -0.744 OA
ENDBRANCH  74  75
ENDBRANCH  46  69
BRANCH  58  79
ATOM     79  C   UNL A   1      49.640  27.337  26.350  1.00  0.00    -0.014 A 
ATOM     80  C   UNL A   1      50.589  26.826  27.253  1.00  0.00     0.010 A 
ATOM     81  C   UNL A   1      50.014  27.541  25.008  1.00  0.00     0.010 A 
ATOM     82  C   UNL A   1      51.891  26.544  26.825  1.00  0.00     0.020 A 
ATOM     83  C   UNL A   1      51.305  27.231  24.571  1.00  0.00     0.020 A 
ATOM     84  C   UNL A   1      52.238  26.742  25.484  1.00  0.00     0.054 A 
BRANCH  84  85
ATOM     85  S   UNL A   1      53.912  26.300  24.942  1.00  0.00     0.124 S 
ATOM     86  O   UNL A   1      54.338  25.374  25.987  1.00  0.00    -0.237 OA
ATOM     87  O   UNL A   1      53.676  25.703  23.630  1.00  0.00    -0.237 OA
ATOM     88  O   UNL A   1      54.619  27.580  24.919  1.00  0.00    -0.744 OA
ENDBRANCH  84  85
ENDBRANCH  58  79
ENDBRANCH  32  33
ENDBRANCH  25  27
ENDBRANCH  24  25
ENDBRANCH  23  24
ENDBRANCH  22  23
ENDBRANCH  21  22
ENDBRANCH  20  21
ENDBRANCH   1  20
TORSDOF 23
ENDMDL
MODEL 3
REMARK VINA RESULT:      -7.3      8.607     13.307
REMARK SMILES CC(C)Cc1ccc([C@H](C)C(=O)OCCOCCOCCOC(=O)c2ccc(-c3c4nc(c(-c5ccc(S(=O)(=O)[O-])cc5)c5ccc([nH]5)c(-c5ccc(S(=O)(=O)[O-])cc5)c5nc(c(-c6ccc(S(=O)(=O)[O-])cc6)c6ccc3[nH]6)C=C5)C=C4)cc2)cc1
REMARK SMILES IDX 17 1 16 2 15 3 14 4 13 5 11 6 12 7 9 8 10 9 8 10 5 11 6 12
REMARK SMILES IDX 86 13 7 14 85 15 4 16 2 17 1 18 3 19 18 20 19 21 20 22 21 23
REMARK SMILES IDX 22 24 23 25 24 26 25 27 26 28 84 29 27 30 83 31 28 32 29 33
REMARK SMILES IDX 30 34 77 35 31 36 82 37 76 38 78 39 32 40 81 41 75 42 74 43
REMARK SMILES IDX 33 45 63 46 44 47 62 48 45 49 48 50 61 51 79 52 46 53 47 54
REMARK SMILES IDX 60 56 80 57 49 58 34 59 35 60 43 61 36 62 42 63 37 64 38 65
REMARK SMILES IDX 39 66 40 67 41 68 64 69 65 70 73 71 66 72 72 73 67 74 68 75
REMARK SMILES IDX 69 76 70 77 71 78 50 79 51 80 59 81 52 82 58 83 53 84 54 85
REMARK SMILES IDX 55 86 56 87 57 88
REMARK H PARENT 78 44 48 55
REMARK Flexibility Score: inf
ROOT
ATOM      1  C   UNL A   1      39.508  27.147  28.092  1.00  0.00     0.188 C 
ENDROOT
BRANCH   1   2
ATOM      2  O   UNL A   1      39.918  25.838  27.722  1.00  0.00    -0.376 OA
BRANCH   2   3
ATOM      3  C   UNL A   1      38.979  24.773  27.665  1.00  0.00     0.202 C 
BRANCH   3   4
ATOM      4  C   UNL A   1      38.874  23.912  26.396  1.00  0.00     0.261 C 
BRANCH   4   5
ATOM      5  O   UNL A   1      37.569  23.389  26.084  1.00  0.00    -0.463 OA
BRANCH   5   6
ATOM      6  C   UNL A   1      37.535  22.182  25.452  1.00  0.00     0.313 C 
ATOM      7  O   UNL A   1      38.488  21.409  25.409  1.00  0.00    -0.252 OA
BRANCH   6   8
ATOM      8  C   UNL A   1      36.213  21.897  24.724  1.00  0.00     0.126 C 
ATOM      9  C   UNL A   1      35.600  20.507  24.996  1.00  0.00     0.025 C 
BRANCH   8  10
ATOM     10  C   UNL A   1      35.206  23.028  24.876  1.00  0.00    -0.034 A 
ATOM     11  C   UNL A   1      33.534  25.279  25.150  1.00  0.00    -0.048 A 
ATOM     12  C   UNL A   1      34.111  24.969  23.918  1.00  0.00     0.004 A 
ATOM     13  C   UNL A   1      33.748  24.426  26.232  1.00  0.00     0.004 A 
ATOM     14  C   UNL A   1      34.984  23.900  23.802  1.00  0.00     0.005 A 
ATOM     15  C   UNL A   1      34.565  23.304  26.093  1.00  0.00     0.005 A 
BRANCH  11  16
ATOM     16  C   UNL A   1      32.772  26.564  25.313  1.00  0.00     0.038 C 
BRANCH  16  17
ATOM     17  C   UNL A   1      31.720  26.505  26.446  1.00  0.00    -0.013 C 
ATOM     18  C   UNL A   1      31.546  27.831  27.199  1.00  0.00     0.008 C 
ATOM     19  C   UNL A   1      30.376  26.086  25.856  1.00  0.00     0.008 C 
ENDBRANCH  16  17
ENDBRANCH  11  16
ENDBRANCH   8  10
ENDBRANCH   6   8
ENDBRANCH   5   6
ENDBRANCH   4   5
ENDBRANCH   3   4
ENDBRANCH   2   3
ENDBRANCH   1   2
BRANCH   1  20
ATOM     20  C   UNL A   1      39.271  27.467  29.571  1.00  0.00     0.188 C 
BRANCH  20  21
ATOM     21  O   UNL A   1      38.675  28.712  29.832  1.00  0.00    -0.376 OA
BRANCH  21  22
ATOM     22  C   UNL A   1      37.890  29.324  28.828  1.00  0.00     0.202 C 
BRANCH  22  23
ATOM     23  C   UNL A   1      36.564  30.037  29.150  1.00  0.00     0.261 C 
BRANCH  23  24
ATOM     24  O   UNL A   1      36.274  30.333  30.524  1.00  0.00    -0.460 OA
BRANCH  24  25
ATOM     25  C   UNL A   1      35.797  31.565  30.820  1.00  0.00     0.338 C 
ATOM     26  O   UNL A   1      34.789  32.084  30.369  1.00  0.00    -0.246 OA
BRANCH  25  27
ATOM     27  C   UNL A   1      36.573  32.071  31.981  1.00  0.00     0.060 A 
ATOM     28  C   UNL A   1      36.270  33.331  32.518  1.00  0.00     0.016 A 
ATOM     29  C   UNL A   1      37.566  31.282  32.564  1.00  0.00     0.016 A 
ATOM     30  C   UNL A   1      36.976  33.817  33.623  1.00  0.00     0.010 A 
ATOM     31  C   UNL A   1      38.289  31.780  33.652  1.00  0.00     0.010 A 
ATOM     32  C   UNL A   1      38.020  33.060  34.170  1.00  0.00    -0.014 A 
BRANCH  32  33
ATOM     33  C   UNL A   1      38.982  33.666  35.126  1.00  0.00     0.031 A 
ATOM     34  C   UNL A   1      38.698  33.516  36.597  1.00  0.00     0.074 A 
ATOM     35  C   UNL A   1      40.058  34.361  34.717  1.00  0.00     0.049 A 
ATOM     36  N   UNL A   1      39.297  34.063  37.621  1.00  0.00    -0.248 NA
ATOM     37  C   UNL A   1      37.575  32.632  36.956  1.00  0.00     0.031 C 
ATOM     38  C   UNL A   1      40.488  34.528  33.330  1.00  0.00     0.029 A 
ATOM     39  N   UNL A   1      40.980  35.076  35.444  1.00  0.00    -0.354 N 
ATOM     40  C   UNL A   1      38.611  33.612  38.743  1.00  0.00     0.074 A 
ATOM     41  C   UNL A   1      37.539  32.763  38.272  1.00  0.00     0.031 C 
ATOM     42  C   UNL A   1      41.585  35.309  33.306  1.00  0.00     0.029 A 
ATOM     43  C   UNL A   1      41.904  35.736  34.668  1.00  0.00     0.049 A 
ATOM     44  H   UNL A   1      40.980  35.113  36.427  1.00  0.00     0.167 HD
ATOM     45  C   UNL A   1      38.848  33.881  40.049  1.00  0.00     0.031 A 
ATOM     46  C   UNL A   1      42.874  36.607  35.015  1.00  0.00     0.031 A 
ATOM     47  C   UNL A   1      39.902  34.743  40.514  1.00  0.00     0.049 A 
ATOM     48  C   UNL A   1      43.056  36.977  36.468  1.00  0.00     0.074 A 
ATOM     49  C   UNL A   1      40.231  35.070  41.817  1.00  0.00     0.029 A 
ATOM     50  N   UNL A   1      40.788  35.423  39.693  1.00  0.00    -0.354 N 
ATOM     51  N   UNL A   1      42.411  36.533  37.521  1.00  0.00    -0.248 NA
ATOM     52  C   UNL A   1      44.098  37.968  36.779  1.00  0.00     0.031 C 
ATOM     53  C   UNL A   1      41.274  36.002  41.781  1.00  0.00     0.029 A 
ATOM     54  C   UNL A   1      41.644  36.195  40.459  1.00  0.00     0.049 A 
ATOM     55  H   UNL A   1      40.805  35.365  38.709  1.00  0.00     0.167 HD
ATOM     56  C   UNL A   1      42.997  37.158  38.619  1.00  0.00     0.074 A 
ATOM     57  C   UNL A   1      44.048  38.010  38.104  1.00  0.00     0.031 C 
ATOM     58  C   UNL A   1      42.696  37.031  39.936  1.00  0.00     0.031 A 
BRANCH  45  59
ATOM     59  C   UNL A   1      37.910  33.277  41.060  1.00  0.00    -0.014 A 
ATOM     60  C   UNL A   1      36.767  33.967  41.504  1.00  0.00     0.010 A 
ATOM     61  C   UNL A   1      38.171  31.991  41.566  1.00  0.00     0.010 A 
ATOM     62  C   UNL A   1      35.934  33.404  42.475  1.00  0.00     0.020 A 
ATOM     63  C   UNL A   1      37.322  31.410  42.513  1.00  0.00     0.020 A 
ATOM     64  C   UNL A   1      36.221  32.131  42.977  1.00  0.00     0.054 A 
BRANCH  64  65
ATOM     65  S   UNL A   1      35.124  31.425  44.237  1.00  0.00     0.124 S 
ATOM     66  O   UNL A   1      35.939  30.336  44.769  1.00  0.00    -0.237 OA
ATOM     67  O   UNL A   1      34.910  32.551  45.142  1.00  0.00    -0.237 OA
ATOM     68  O   UNL A   1      33.948  31.006  43.478  1.00  0.00    -0.744 OA
ENDBRANCH  64  65
ENDBRANCH  45  59
BRANCH  46  69
ATOM     69  C   UNL A   1      43.749  37.211  33.970  1.00  0.00    -0.014 A 
ATOM     70  C   UNL A   1      43.415  38.447  33.389  1.00  0.00     0.010 A 
ATOM     71  C   UNL A   1      44.914  36.550  33.539  1.00  0.00     0.010 A 
ATOM     72  C   UNL A   1      44.221  39.005  32.390  1.00  0.00     0.020 A 
ATOM     73  C   UNL A   1      45.739  37.118  32.562  1.00  0.00     0.020 A 
ATOM     74  C   UNL A   1      45.380  38.338  31.987  1.00  0.00     0.054 A 
BRANCH  74  75
ATOM     75  S   UNL A   1      46.435  39.107  30.725  1.00  0.00     0.124 S 
ATOM     76  O   UNL A   1      46.250  40.529  30.999  1.00  0.00    -0.237 OA
ATOM     77  O   UNL A   1      47.754  38.568  31.047  1.00  0.00    -0.237 OA
ATOM     78  O   UNL A   1      45.866  38.633  29.466  1.00  0.00    -0.744 OA
ENDBRANCH  74  75
ENDBRANCH  46  69
BRANCH  58  79
ATOM     79  C   UNL A   1      43.544  37.782  40.932  1.00  0.00    -0.014 A 
ATOM     80  C   UNL A   1      44.799  37.300  41.343  1.00  0.00     0.010 A 
ATOM     81  C   UNL A   1      43.111  39.040  41.392  1.00  0.00     0.010 A 
ATOM     82  C   UNL A   1      45.595  38.054  42.212  1.00  0.00     0.020 A 
ATOM     83  C   UNL A   1      43.917  39.810  42.236  1.00  0.00     0.020 A 
ATOM     84  C   UNL A   1      45.151  39.307  42.648  1.00  0.00     0.054 A 
BRANCH  84  85
ATOM     85  S   UNL A   1      46.235  40.294  43.716  1.00  0.00     0.124 S 
ATOM     86  O   UNL A   1      47.384  40.535  42.848  1.00  0.00    -0.237 OA
ATOM     87  O   UNL A   1      45.413  41.465  44.012  1.00  0.00    -0.237 OA
ATOM     88  O   UNL A   1      46.491  39.416  44.857  1.00  0.00    -0.744 OA
ENDBRANCH  84  85
ENDBRANCH  58  79
ENDBRANCH  32  33
ENDBRANCH  25  27
ENDBRANCH  24  25
ENDBRANCH  23  24
ENDBRANCH  22  23
ENDBRANCH  21  22
ENDBRANCH  20  21
ENDBRANCH   1  20
TORSDOF 23
ENDMDL
