MODEL 1
REMARK VINA RESULT:     -10.2      0.000      0.000
REMARK SMILES O=C(OCCOCCOCCOC(=O)c1ccc(-c2c3nc(c(-c4ccc(S(=O)(=O)[O-])cc4)c4ccc([nH]4)c(-c4ccc(S(=O)(=O)[O-])cc4)c4nc(c(-c5ccc(S(=O)(=O)[O-])cc5)c5ccc2[nH]5)C=C4)C=C3)cc1)c1ccc(NS(=O)(=O)C2=Cc3ccccc3CC2)cc1
REMARK SMILES IDX 7 1 6 2 5 3 4 4 3 5 2 6 1 7 75 8 76 9 94 10 77 11 93 12
REMARK SMILES IDX 78 13 79 14 80 16 81 17 82 18 83 19 84 20 92 21 85 22 91 23
REMARK SMILES IDX 86 24 90 25 87 26 89 27 88 28 8 29 9 30 10 31 11 32 12 33
REMARK SMILES IDX 13 34 14 35 15 36 16 37 74 38 17 39 73 40 18 41 19 42 20 43
REMARK SMILES IDX 67 44 21 45 72 46 66 47 68 48 22 49 71 50 65 51 64 52 23 54
REMARK SMILES IDX 53 55 34 56 52 57 35 58 38 59 51 60 69 61 36 62 37 63 50 65
REMARK SMILES IDX 70 66 39 67 24 68 25 69 33 70 26 71 32 72 27 73 28 74 29 75
REMARK SMILES IDX 30 76 31 77 54 78 55 79 63 80 56 81 62 82 57 83 58 84 59 85
REMARK SMILES IDX 60 86 61 87 40 88 41 89 49 90 42 91 48 92 43 93 44 94 45 95
REMARK SMILES IDX 46 96 47 97
REMARK H PARENT 79 15 68 53 38 64
REMARK Flexibility Score: inf
ROOT
ATOM      1  C   UNL A   1      43.291  20.410  25.951  1.00  0.00     0.188 C 
ENDROOT
BRANCH   1   2
ATOM      2  O   UNL A   1      42.183  20.966  26.664  1.00  0.00    -0.376 OA
BRANCH   2   3
ATOM      3  C   UNL A   1      40.918  20.671  26.086  1.00  0.00     0.202 C 
BRANCH   3   4
ATOM      4  C   UNL A   1      39.760  21.612  26.427  1.00  0.00     0.261 C 
BRANCH   4   5
ATOM      5  O   UNL A   1      38.850  21.970  25.372  1.00  0.00    -0.460 OA
BRANCH   5   6
ATOM      6  C   UNL A   1      37.542  21.684  25.173  1.00  0.00     0.338 C 
ATOM      7  O   UNL A   1      37.198  20.506  25.116  1.00  0.00    -0.246 OA
BRANCH   6   8
ATOM      8  C   UNL A   1      36.517  22.732  24.928  1.00  0.00     0.060 A 
ATOM      9  C   UNL A   1      36.136  23.181  23.670  1.00  0.00     0.018 A 
ATOM     10  C   UNL A   1      35.941  23.350  26.048  1.00  0.00     0.018 A 
ATOM     11  C   UNL A   1      35.074  24.080  23.540  1.00  0.00     0.027 A 
ATOM     12  C   UNL A   1      34.869  24.240  25.906  1.00  0.00     0.027 A 
ATOM     13  C   UNL A   1      34.362  24.530  24.644  1.00  0.00     0.049 A 
BRANCH  13  14
ATOM     14  N   UNL A   1      33.077  25.137  24.567  1.00  0.00    -0.280 N 
ATOM     15  H   UNL A   1      33.014  26.099  24.775  1.00  0.00     0.180 HD
BRANCH  14  16
ATOM     16  S   UNL A   1      31.655  24.338  24.152  1.00  0.00     0.258 S 
ATOM     17  O   UNL A   1      31.607  24.439  22.704  1.00  0.00    -0.202 OA
ATOM     18  O   UNL A   1      31.720  23.029  24.770  1.00  0.00    -0.202 OA
BRANCH  16  19
ATOM     19  C   UNL A   1      30.286  25.261  24.859  1.00  0.00     0.066 C 
ATOM     20  C   UNL A   1      30.531  25.796  26.081  1.00  0.00     0.026 C 
ATOM     21  C   UNL A   1      29.604  26.243  23.919  1.00  0.00     0.055 C 
ATOM     22  C   UNL A   1      31.217  27.127  26.042  1.00  0.00    -0.021 A 
ATOM     23  C   UNL A   1      30.529  27.425  23.613  1.00  0.00     0.041 C 
ATOM     24  C   UNL A   1      31.822  27.627  27.196  1.00  0.00     0.008 A 
ATOM     25  C   UNL A   1      31.267  27.882  24.849  1.00  0.00    -0.040 A 
ATOM     26  C   UNL A   1      32.540  28.824  27.146  1.00  0.00     0.001 A 
ATOM     27  C   UNL A   1      32.029  29.054  24.797  1.00  0.00     0.004 A 
ATOM     28  C   UNL A   1      32.668  29.519  25.942  1.00  0.00     0.000 A 
ENDBRANCH  16  19
ENDBRANCH  14  16
ENDBRANCH  13  14
ENDBRANCH   6   8
ENDBRANCH   5   6
ENDBRANCH   4   5
ENDBRANCH   3   4
ENDBRANCH   2   3
ENDBRANCH   1   2
BRANCH   1  29
ATOM     29  C   UNL A   1      43.887  21.407  24.953  1.00  0.00     0.188 C 
BRANCH  29  30
ATOM     30  O   UNL A   1      44.179  22.702  25.479  1.00  0.00    -0.376 OA
BRANCH  30  31
ATOM     31  C   UNL A   1      43.387  23.793  25.020  1.00  0.00     0.202 C 
BRANCH  31  32
ATOM     32  C   UNL A   1      42.601  24.577  26.076  1.00  0.00     0.261 C 
BRANCH  32  33
ATOM     33  O   UNL A   1      41.629  25.479  25.513  1.00  0.00    -0.460 OA
BRANCH  33  34
ATOM     34  C   UNL A   1      41.869  26.785  25.777  1.00  0.00     0.338 C 
ATOM     35  O   UNL A   1      41.918  27.702  24.973  1.00  0.00    -0.246 OA
BRANCH  34  36
ATOM     36  C   UNL A   1      42.008  27.027  27.222  1.00  0.00     0.060 A 
ATOM     37  C   UNL A   1      40.933  26.688  28.052  1.00  0.00     0.016 A 
ATOM     38  C   UNL A   1      43.056  27.817  27.697  1.00  0.00     0.016 A 
ATOM     39  C   UNL A   1      40.858  27.218  29.340  1.00  0.00     0.010 A 
ATOM     40  C   UNL A   1      42.980  28.344  28.991  1.00  0.00     0.010 A 
ATOM     41  C   UNL A   1      41.848  28.103  29.791  1.00  0.00    -0.014 A 
BRANCH  41  42
ATOM     42  C   UNL A   1      41.599  28.923  31.004  1.00  0.00     0.031 A 
ATOM     43  C   UNL A   1      40.430  29.874  31.018  1.00  0.00     0.074 A 
ATOM     44  C   UNL A   1      42.374  28.805  32.096  1.00  0.00     0.049 A 
ATOM     45  N   UNL A   1      40.031  30.681  31.967  1.00  0.00    -0.248 NA
ATOM     46  C   UNL A   1      39.603  29.922  29.800  1.00  0.00     0.031 C 
ATOM     47  C   UNL A   1      43.503  27.889  32.228  1.00  0.00     0.029 A 
ATOM     48  N   UNL A   1      42.326  29.457  33.301  1.00  0.00    -0.354 N 
ATOM     49  C   UNL A   1      38.919  31.345  31.458  1.00  0.00     0.074 A 
ATOM     50  C   UNL A   1      38.723  30.863  30.107  1.00  0.00     0.031 C 
ATOM     51  C   UNL A   1      44.044  28.033  33.449  1.00  0.00     0.029 A 
ATOM     52  C   UNL A   1      43.315  29.074  34.174  1.00  0.00     0.049 A 
ATOM     53  H   UNL A   1      41.647  30.134  33.521  1.00  0.00     0.167 HD
ATOM     54  C   UNL A   1      38.132  32.269  32.058  1.00  0.00     0.031 A 
ATOM     55  C   UNL A   1      43.604  29.515  35.414  1.00  0.00     0.031 A 
ATOM     56  C   UNL A   1      38.325  32.752  33.400  1.00  0.00     0.049 A 
ATOM     57  C   UNL A   1      42.743  30.578  36.043  1.00  0.00     0.074 A 
ATOM     58  C   UNL A   1      37.563  33.670  34.103  1.00  0.00     0.029 A 
ATOM     59  N   UNL A   1      39.356  32.362  34.241  1.00  0.00    -0.354 N 
ATOM     60  N   UNL A   1      41.682  31.177  35.557  1.00  0.00    -0.248 NA
ATOM     61  C   UNL A   1      43.112  31.012  37.398  1.00  0.00     0.031 C 
ATOM     62  C   UNL A   1      38.162  33.871  35.352  1.00  0.00     0.029 A 
ATOM     63  C   UNL A   1      39.263  33.035  35.448  1.00  0.00     0.049 A 
ATOM     64  H   UNL A   1      40.052  31.704  34.013  1.00  0.00     0.167 HD
ATOM     65  C   UNL A   1      41.234  32.029  36.562  1.00  0.00     0.074 A 
ATOM     66  C   UNL A   1      42.138  31.864  37.682  1.00  0.00     0.031 C 
ATOM     67  C   UNL A   1      40.163  32.862  36.559  1.00  0.00     0.031 A 
BRANCH  54  68
ATOM     68  C   UNL A   1      37.006  32.851  31.244  1.00  0.00    -0.014 A 
ATOM     69  C   UNL A   1      35.662  32.555  31.533  1.00  0.00     0.010 A 
ATOM     70  C   UNL A   1      37.301  33.726  30.182  1.00  0.00     0.010 A 
ATOM     71  C   UNL A   1      34.636  33.086  30.746  1.00  0.00     0.020 A 
ATOM     72  C   UNL A   1      36.276  34.280  29.409  1.00  0.00     0.020 A 
ATOM     73  C   UNL A   1      34.951  33.939  29.683  1.00  0.00     0.054 A 
BRANCH  73  74
ATOM     74  S   UNL A   1      33.602  34.619  28.678  1.00  0.00     0.124 S 
ATOM     75  O   UNL A   1      32.543  34.783  29.670  1.00  0.00    -0.237 OA
ATOM     76  O   UNL A   1      34.177  35.859  28.162  1.00  0.00    -0.237 OA
ATOM     77  O   UNL A   1      33.361  33.584  27.675  1.00  0.00    -0.744 OA
ENDBRANCH  73  74
ENDBRANCH  54  68
BRANCH  55  78
ATOM     78  C   UNL A   1      44.758  28.938  36.154  1.00  0.00    -0.014 A 
ATOM     79  C   UNL A   1      45.983  29.625  36.209  1.00  0.00     0.010 A 
ATOM     80  C   UNL A   1      44.635  27.701  36.811  1.00  0.00     0.010 A 
ATOM     81  C   UNL A   1      47.070  29.079  36.898  1.00  0.00     0.020 A 
ATOM     82  C   UNL A   1      45.711  27.163  37.522  1.00  0.00     0.020 A 
ATOM     83  C   UNL A   1      46.926  27.852  37.551  1.00  0.00     0.054 A 
BRANCH  83  84
ATOM     84  S   UNL A   1      48.331  27.191  38.489  1.00  0.00     0.124 S 
ATOM     85  O   UNL A   1      47.950  25.792  38.661  1.00  0.00    -0.237 OA
ATOM     86  O   UNL A   1      49.455  27.436  37.589  1.00  0.00    -0.237 OA
ATOM     87  O   UNL A   1      48.335  27.995  39.709  1.00  0.00    -0.744 OA
ENDBRANCH  83  84
ENDBRANCH  55  78
BRANCH  67  88
ATOM     88  C   UNL A   1      39.872  33.620  37.829  1.00  0.00    -0.014 A 
ATOM     89  C   UNL A   1      39.163  33.035  38.892  1.00  0.00     0.010 A 
ATOM     90  C   UNL A   1      40.351  34.936  37.968  1.00  0.00     0.010 A 
ATOM     91  C   UNL A   1      38.900  33.767  40.054  1.00  0.00     0.020 A 
ATOM     92  C   UNL A   1      40.114  35.662  39.139  1.00  0.00     0.020 A 
ATOM     93  C   UNL A   1      39.373  35.078  40.168  1.00  0.00     0.054 A 
BRANCH  93  94
ATOM     94  S   UNL A   1      39.039  36.003  41.693  1.00  0.00     0.124 S 
ATOM     95  O   UNL A   1      40.157  35.600  42.543  1.00  0.00    -0.237 OA
ATOM     96  O   UNL A   1      39.063  37.392  41.240  1.00  0.00    -0.237 OA
ATOM     97  O   UNL A   1      37.728  35.514  42.114  1.00  0.00    -0.744 OA
ENDBRANCH  93  94
ENDBRANCH  67  88
ENDBRANCH  41  42
ENDBRANCH  34  36
ENDBRANCH  33  34
ENDBRANCH  32  33
ENDBRANCH  31  32
ENDBRANCH  30  31
ENDBRANCH  29  30
ENDBRANCH   1  29
TORSDOF 23
ENDMDL
MODEL 2
REMARK VINA RESULT:      -9.8      5.580     12.097
REMARK SMILES O=C(OCCOCCOCCOC(=O)c1ccc(-c2c3nc(c(-c4ccc(S(=O)(=O)[O-])cc4)c4ccc([nH]4)c(-c4ccc(S(=O)(=O)[O-])cc4)c4nc(c(-c5ccc(S(=O)(=O)[O-])cc5)c5ccc2[nH]5)C=C4)C=C3)cc1)c1ccc(NS(=O)(=O)C2=Cc3ccccc3CC2)cc1
REMARK SMILES IDX 7 1 6 2 5 3 4 4 3 5 2 6 1 7 75 8 76 9 94 10 77 11 93 12
REMARK SMILES IDX 78 13 79 14 80 16 81 17 82 18 83 19 84 20 92 21 85 22 91 23
REMARK SMILES IDX 86 24 90 25 87 26 89 27 88 28 8 29 9 30 10 31 11 32 12 33
REMARK SMILES IDX 13 34 14 35 15 36 16 37 74 38 17 39 73 40 18 41 19 42 20 43
REMARK SMILES IDX 67 44 21 45 72 46 66 47 68 48 22 49 71 50 65 51 64 52 23 54
REMARK SMILES IDX 53 55 34 56 52 57 35 58 38 59 51 60 69 61 36 62 37 63 50 65
REMARK SMILES IDX 70 66 39 67 24 68 25 69 33 70 26 71 32 72 27 73 28 74 29 75
REMARK SMILES IDX 30 76 31 77 54 78 55 79 63 80 56 81 62 82 57 83 58 84 59 85
REMARK SMILES IDX 60 86 61 87 40 88 41 89 49 90 42 91 48 92 43 93 44 94 45 95
REMARK SMILES IDX 46 96 47 97
REMARK H PARENT 79 15 68 53 38 64
REMARK Flexibility Score: inf
ROOT
ATOM      1  C   UNL A   1      33.354  35.256  30.464  1.00  0.00     0.188 C 
ENDROOT
BRANCH   1   2
ATOM      2  O   UNL A   1      33.637  35.220  29.062  1.00  0.00    -0.376 OA
BRANCH   2   3
ATOM      3  C   UNL A   1      32.949  34.194  28.361  1.00  0.00     0.202 C 
BRANCH   3   4
ATOM      4  C   UNL A   1      33.803  33.117  27.687  1.00  0.00     0.261 C 
BRANCH   4   5
ATOM      5  O   UNL A   1      34.173  31.965  28.467  1.00  0.00    -0.460 OA
BRANCH   5   6
ATOM      6  C   UNL A   1      34.571  30.723  28.108  1.00  0.00     0.338 C 
ATOM      7  O   UNL A   1      35.626  30.287  28.563  1.00  0.00    -0.246 OA
BRANCH   6   8
ATOM      8  C   UNL A   1      33.836  29.896  27.116  1.00  0.00     0.060 A 
ATOM      9  C   UNL A   1      34.343  29.515  25.880  1.00  0.00     0.018 A 
ATOM     10  C   UNL A   1      32.518  29.528  27.427  1.00  0.00     0.018 A 
ATOM     11  C   UNL A   1      33.622  28.633  25.070  1.00  0.00     0.027 A 
ATOM     12  C   UNL A   1      31.811  28.634  26.614  1.00  0.00     0.027 A 
ATOM     13  C   UNL A   1      32.407  28.099  25.478  1.00  0.00     0.049 A 
BRANCH  13  14
ATOM     14  N   UNL A   1      31.808  26.947  24.892  1.00  0.00    -0.280 N 
ATOM     15  H   UNL A   1      30.955  27.070  24.415  1.00  0.00     0.180 HD
BRANCH  14  16
ATOM     16  S   UNL A   1      32.446  25.391  24.956  1.00  0.00     0.258 S 
ATOM     17  O   UNL A   1      33.099  25.227  23.670  1.00  0.00    -0.202 OA
ATOM     18  O   UNL A   1      33.236  25.317  26.168  1.00  0.00    -0.202 OA
BRANCH  16  19
ATOM     19  C   UNL A   1      31.068  24.244  25.076  1.00  0.00     0.066 C 
ATOM     20  C   UNL A   1      31.065  23.258  24.144  1.00  0.00     0.026 C 
ATOM     21  C   UNL A   1      30.768  23.725  26.473  1.00  0.00     0.055 C 
ATOM     22  C   UNL A   1      31.897  22.068  24.508  1.00  0.00    -0.021 A 
ATOM     23  C   UNL A   1      31.877  22.782  26.947  1.00  0.00     0.041 C 
ATOM     24  C   UNL A   1      32.253  21.145  23.522  1.00  0.00     0.008 A 
ATOM     25  C   UNL A   1      32.336  21.867  25.836  1.00  0.00    -0.040 A 
ATOM     26  C   UNL A   1      33.103  20.082  23.835  1.00  0.00     0.001 A 
ATOM     27  C   UNL A   1      33.225  20.828  26.128  1.00  0.00     0.004 A 
ATOM     28  C   UNL A   1      33.611  19.942  25.128  1.00  0.00     0.000 A 
ENDBRANCH  16  19
ENDBRANCH  14  16
ENDBRANCH  13  14
ENDBRANCH   6   8
ENDBRANCH   5   6
ENDBRANCH   4   5
ENDBRANCH   3   4
ENDBRANCH   2   3
ENDBRANCH   1   2
BRANCH   1  29
ATOM     29  C   UNL A   1      34.292  34.346  31.261  1.00  0.00     0.188 C 
BRANCH  29  30
ATOM     30  O   UNL A   1      35.616  34.223  30.742  1.00  0.00    -0.376 OA
BRANCH  30  31
ATOM     31  C   UNL A   1      36.453  33.214  31.301  1.00  0.00     0.202 C 
BRANCH  31  32
ATOM     32  C   UNL A   1      35.775  31.915  31.748  1.00  0.00     0.261 C 
BRANCH  32  33
ATOM     33  O   UNL A   1      36.634  31.059  32.525  1.00  0.00    -0.460 OA
BRANCH  33  34
ATOM     34  C   UNL A   1      37.172  30.032  31.825  1.00  0.00     0.338 C 
ATOM     35  O   UNL A   1      36.624  28.987  31.513  1.00  0.00    -0.246 OA
BRANCH  34  36
ATOM     36  C   UNL A   1      38.544  30.337  31.389  1.00  0.00     0.060 A 
ATOM     37  C   UNL A   1      38.752  30.641  30.038  1.00  0.00     0.016 A 
ATOM     38  C   UNL A   1      39.620  30.058  32.232  1.00  0.00     0.016 A 
ATOM     39  C   UNL A   1      40.039  30.575  29.504  1.00  0.00     0.010 A 
ATOM     40  C   UNL A   1      40.910  29.998  31.695  1.00  0.00     0.010 A 
ATOM     41  C   UNL A   1      41.115  30.188  30.316  1.00  0.00    -0.014 A 
BRANCH  41  42
ATOM     42  C   UNL A   1      42.400  29.789  29.687  1.00  0.00     0.031 A 
ATOM     43  C   UNL A   1      42.536  28.402  29.115  1.00  0.00     0.074 A 
ATOM     44  C   UNL A   1      43.424  30.654  29.588  1.00  0.00     0.049 A 
ATOM     45  N   UNL A   1      43.563  27.848  28.523  1.00  0.00    -0.248 NA
ATOM     46  C   UNL A   1      41.360  27.523  29.225  1.00  0.00     0.031 C 
ATOM     47  C   UNL A   1      43.403  32.037  30.056  1.00  0.00     0.029 A 
ATOM     48  N   UNL A   1      44.679  30.496  29.059  1.00  0.00    -0.354 N 
ATOM     49  C   UNL A   1      43.166  26.553  28.207  1.00  0.00     0.074 A 
ATOM     50  C   UNL A   1      41.812  26.397  28.694  1.00  0.00     0.031 C 
ATOM     51  C   UNL A   1      44.591  32.607  29.793  1.00  0.00     0.029 A 
ATOM     52  C   UNL A   1      45.466  31.618  29.162  1.00  0.00     0.049 A 
ATOM     53  H   UNL A   1      44.988  29.659  28.643  1.00  0.00     0.167 HD
ATOM     54  C   UNL A   1      43.861  25.582  27.568  1.00  0.00     0.031 A 
ATOM     55  C   UNL A   1      46.745  31.824  28.795  1.00  0.00     0.031 A 
ATOM     56  C   UNL A   1      45.207  25.733  27.084  1.00  0.00     0.049 A 
ATOM     57  C   UNL A   1      47.514  30.714  28.130  1.00  0.00     0.074 A 
ATOM     58  C   UNL A   1      45.986  24.812  26.402  1.00  0.00     0.029 A 
ATOM     59  N   UNL A   1      45.980  26.874  27.235  1.00  0.00    -0.354 N 
ATOM     60  N   UNL A   1      47.115  29.504  27.817  1.00  0.00    -0.248 NA
ATOM     61  C   UNL A   1      48.905  31.006  27.754  1.00  0.00     0.031 C 
ATOM     62  C   UNL A   1      47.246  25.381  26.183  1.00  0.00     0.029 A 
ATOM     63  C   UNL A   1      47.233  26.675  26.677  1.00  0.00     0.049 A 
ATOM     64  H   UNL A   1      45.682  27.703  27.674  1.00  0.00     0.167 HD
ATOM     65  C   UNL A   1      48.192  28.905  27.171  1.00  0.00     0.074 A 
ATOM     66  C   UNL A   1      49.257  29.887  27.137  1.00  0.00     0.031 C 
ATOM     67  C   UNL A   1      48.285  27.659  26.643  1.00  0.00     0.031 A 
BRANCH  54  68
ATOM     68  C   UNL A   1      43.183  24.248  27.393  1.00  0.00    -0.014 A 
ATOM     69  C   UNL A   1      43.230  23.264  28.396  1.00  0.00     0.010 A 
ATOM     70  C   UNL A   1      42.469  23.986  26.209  1.00  0.00     0.010 A 
ATOM     71  C   UNL A   1      42.615  22.024  28.199  1.00  0.00     0.020 A 
ATOM     72  C   UNL A   1      41.830  22.757  26.020  1.00  0.00     0.020 A 
ATOM     73  C   UNL A   1      41.926  21.775  27.008  1.00  0.00     0.054 A 
BRANCH  73  74
ATOM     74  S   UNL A   1      41.133  20.160  26.777  1.00  0.00     0.124 S 
ATOM     75  O   UNL A   1      42.189  19.400  26.113  1.00  0.00    -0.237 OA
ATOM     76  O   UNL A   1      40.830  19.750  28.146  1.00  0.00    -0.237 OA
ATOM     77  O   UNL A   1      39.968  20.461  25.948  1.00  0.00    -0.744 OA
ENDBRANCH  73  74
ENDBRANCH  54  68
BRANCH  55  78
ATOM     78  C   UNL A   1      47.380  33.147  29.037  1.00  0.00    -0.014 A 
ATOM     79  C   UNL A   1      48.218  33.342  30.149  1.00  0.00     0.010 A 
ATOM     80  C   UNL A   1      47.154  34.217  28.153  1.00  0.00     0.010 A 
ATOM     81  C   UNL A   1      48.808  34.588  30.379  1.00  0.00     0.020 A 
ATOM     82  C   UNL A   1      47.761  35.456  28.366  1.00  0.00     0.020 A 
ATOM     83  C   UNL A   1      48.577  35.637  29.485  1.00  0.00     0.054 A 
BRANCH  83  84
ATOM     84  S   UNL A   1      49.401  37.228  29.772  1.00  0.00     0.124 S 
ATOM     85  O   UNL A   1      49.873  37.571  28.434  1.00  0.00    -0.237 OA
ATOM     86  O   UNL A   1      48.316  38.056  30.294  1.00  0.00    -0.237 OA
ATOM     87  O   UNL A   1      50.444  36.900  30.741  1.00  0.00    -0.744 OA
ENDBRANCH  83  84
ENDBRANCH  55  78
BRANCH  67  88
ATOM     88  C   UNL A   1      49.563  27.301  25.929  1.00  0.00    -0.014 A 
ATOM     89  C   UNL A   1      50.606  26.621  26.581  1.00  0.00     0.010 A 
ATOM     90  C   UNL A   1      49.702  27.622  24.567  1.00  0.00     0.010 A 
ATOM     91  C   UNL A   1      51.785  26.310  25.895  1.00  0.00     0.020 A 
ATOM     92  C   UNL A   1      50.866  27.289  23.869  1.00  0.00     0.020 A 
ATOM     93  C   UNL A   1      51.909  26.651  24.544  1.00  0.00     0.054 A 
BRANCH  93  94
ATOM     94  S   UNL A   1      53.437  26.219  23.666  1.00  0.00     0.124 S 
ATOM     95  O   UNL A   1      53.925  25.085  24.447  1.00  0.00    -0.237 OA
ATOM     96  O   UNL A   1      52.959  25.899  22.324  1.00  0.00    -0.237 OA
ATOM     97  O   UNL A   1      54.244  27.434  23.759  1.00  0.00    -0.744 OA
ENDBRANCH  93  94
ENDBRANCH  67  88
ENDBRANCH  41  42
ENDBRANCH  34  36
ENDBRANCH  33  34
ENDBRANCH  32  33
ENDBRANCH  31  32
ENDBRANCH  30  31
ENDBRANCH  29  30
ENDBRANCH   1  29
TORSDOF 23
ENDMDL
MODEL 3
REMARK VINA RESULT:      -9.2      5.514      9.686
REMARK SMILES O=C(OCCOCCOCCOC(=O)c1ccc(-c2c3nc(c(-c4ccc(S(=O)(=O)[O-])cc4)c4ccc([nH]4)c(-c4ccc(S(=O)(=O)[O-])cc4)c4nc(c(-c5ccc(S(=O)(=O)[O-])cc5)c5ccc2[nH]5)C=C4)C=C3)cc1)c1ccc(NS(=O)(=O)C2=Cc3ccccc3CC2)cc1
REMARK SMILES IDX 7 1 6 2 5 3 4 4 3 5 2 6 1 7 75 8 76 9 94 10 77 11 93 12
REMARK SMILES IDX 78 13 79 14 80 16 81 17 82 18 83 19 84 20 92 21 85 22 91 23
REMARK SMILES IDX 86 24 90 25 87 26 89 27 88 28 8 29 9 30 10 31 11 32 12 33
REMARK SMILES IDX 13 34 14 35 15 36 16 37 74 38 17 39 73 40 18 41 19 42 20 43
REMARK SMILES IDX 67 44 21 45 72 46 66 47 68 48 22 49 71 50 65 51 64 52 23 54
REMARK SMILES IDX 53 55 34 56 52 57 35 58 38 59 51 60 69 61 36 62 37 63 50 65
REMARK SMILES IDX 70 66 39 67 24 68 25 69 33 70 26 71 32 72 27 73 28 74 29 75
REMARK SMILES IDX 30 76 31 77 54 78 55 79 63 80 56 81 62 82 57 83 58 84 59 85
REMARK SMILES IDX 60 86 61 87 40 88 41 89 49 90 42 91 48 92 43 93 44 94 45 95
REMARK SMILES IDX 46 96 47 97
REMARK H PARENT 79 15 68 53 38 64
REMARK Flexibility Score: inf
ROOT
ATOM      1  C   UNL A   1      34.293  34.384  29.346  1.00  0.00     0.188 C 
ENDROOT
BRANCH   1   2
ATOM      2  O   UNL A   1      34.159  33.918  28.000  1.00  0.00    -0.376 OA
BRANCH   2   3
ATOM      3  C   UNL A   1      33.226  32.857  27.847  1.00  0.00     0.202 C 
BRANCH   3   4
ATOM      4  C   UNL A   1      33.797  31.463  27.574  1.00  0.00     0.261 C 
BRANCH   4   5
ATOM      5  O   UNL A   1      32.869  30.386  27.352  1.00  0.00    -0.460 OA
BRANCH   5   6
ATOM      6  C   UNL A   1      32.108  30.057  26.282  1.00  0.00     0.338 C 
ATOM      7  O   UNL A   1      31.389  30.918  25.782  1.00  0.00    -0.246 OA
BRANCH   6   8
ATOM      8  C   UNL A   1      32.036  28.674  25.740  1.00  0.00     0.060 A 
ATOM      9  C   UNL A   1      32.445  28.308  24.464  1.00  0.00     0.018 A 
ATOM     10  C   UNL A   1      31.457  27.688  26.554  1.00  0.00     0.018 A 
ATOM     11  C   UNL A   1      32.452  26.961  24.092  1.00  0.00     0.027 A 
ATOM     12  C   UNL A   1      31.482  26.340  26.176  1.00  0.00     0.027 A 
ATOM     13  C   UNL A   1      32.078  25.959  24.978  1.00  0.00     0.049 A 
BRANCH  13  14
ATOM     14  N   UNL A   1      32.399  24.583  24.804  1.00  0.00    -0.280 N 
ATOM     15  H   UNL A   1      33.292  24.283  25.094  1.00  0.00     0.180 HD
BRANCH  14  16
ATOM     16  S   UNL A   1      31.370  23.430  24.137  1.00  0.00     0.258 S 
ATOM     17  O   UNL A   1      31.014  22.586  25.264  1.00  0.00    -0.202 OA
ATOM     18  O   UNL A   1      30.329  24.158  23.439  1.00  0.00    -0.202 OA
BRANCH  16  19
ATOM     19  C   UNL A   1      32.322  22.472  22.952  1.00  0.00     0.066 C 
ATOM     20  C   UNL A   1      33.542  22.985  22.655  1.00  0.00     0.026 C 
ATOM     21  C   UNL A   1      32.366  20.974  23.207  1.00  0.00     0.055 C 
ATOM     22  C   UNL A   1      34.622  22.596  23.616  1.00  0.00    -0.021 A 
ATOM     23  C   UNL A   1      33.198  20.665  24.455  1.00  0.00     0.041 C 
ATOM     24  C   UNL A   1      35.824  23.305  23.629  1.00  0.00     0.008 A 
ATOM     25  C   UNL A   1      34.439  21.523  24.518  1.00  0.00    -0.040 A 
ATOM     26  C   UNL A   1      36.801  23.006  24.582  1.00  0.00     0.001 A 
ATOM     27  C   UNL A   1      35.402  21.265  25.499  1.00  0.00     0.004 A 
ATOM     28  C   UNL A   1      36.577  22.009  25.533  1.00  0.00     0.000 A 
ENDBRANCH  16  19
ENDBRANCH  14  16
ENDBRANCH  13  14
ENDBRANCH   6   8
ENDBRANCH   5   6
ENDBRANCH   4   5
ENDBRANCH   3   4
ENDBRANCH   2   3
ENDBRANCH   1   2
BRANCH   1  29
ATOM     29  C   UNL A   1      35.624  33.954  29.969  1.00  0.00     0.188 C 
BRANCH  29  30
ATOM     30  O   UNL A   1      36.502  33.232  29.106  1.00  0.00    -0.376 OA
BRANCH  30  31
ATOM     31  C   UNL A   1      37.137  32.072  29.633  1.00  0.00     0.202 C 
BRANCH  31  32
ATOM     32  C   UNL A   1      36.229  30.949  30.142  1.00  0.00     0.261 C 
BRANCH  32  33
ATOM     33  O   UNL A   1      35.831  31.112  31.517  1.00  0.00    -0.460 OA
BRANCH  33  34
ATOM     34  C   UNL A   1      36.593  30.423  32.399  1.00  0.00     0.338 C 
ATOM     35  O   UNL A   1      36.733  29.213  32.464  1.00  0.00    -0.246 OA
BRANCH  34  36
ATOM     36  C   UNL A   1      37.339  31.328  33.289  1.00  0.00     0.060 A 
ATOM     37  C   UNL A   1      37.051  32.696  33.227  1.00  0.00     0.016 A 
ATOM     38  C   UNL A   1      38.474  30.866  33.957  1.00  0.00     0.016 A 
ATOM     39  C   UNL A   1      37.953  33.618  33.758  1.00  0.00     0.010 A 
ATOM     40  C   UNL A   1      39.374  31.793  34.493  1.00  0.00     0.010 A 
ATOM     41  C   UNL A   1      39.151  33.173  34.334  1.00  0.00    -0.014 A 
BRANCH  41  42
ATOM     42  C   UNL A   1      40.248  34.143  34.582  1.00  0.00     0.031 A 
ATOM     43  C   UNL A   1      41.215  34.457  33.469  1.00  0.00     0.074 A 
ATOM     44  C   UNL A   1      40.370  34.768  35.766  1.00  0.00     0.049 A 
ATOM     45  N   UNL A   1      42.240  35.270  33.469  1.00  0.00    -0.248 NA
ATOM     46  C   UNL A   1      40.996  33.763  32.189  1.00  0.00     0.031 C 
ATOM     47  C   UNL A   1      39.474  34.590  36.905  1.00  0.00     0.029 A 
ATOM     48  N   UNL A   1      41.295  35.681  36.204  1.00  0.00    -0.354 N 
ATOM     49  C   UNL A   1      42.800  35.173  32.199  1.00  0.00     0.074 A 
ATOM     50  C   UNL A   1      42.014  34.204  31.465  1.00  0.00     0.031 C 
ATOM     51  C   UNL A   1      39.890  35.371  37.916  1.00  0.00     0.029 A 
ATOM     52  C   UNL A   1      41.100  36.083  37.503  1.00  0.00     0.049 A 
ATOM     53  H   UNL A   1      42.028  36.018  35.641  1.00  0.00     0.167 HD
ATOM     54  C   UNL A   1      43.868  35.829  31.687  1.00  0.00     0.031 A 
ATOM     55  C   UNL A   1      41.816  36.924  38.274  1.00  0.00     0.031 A 
ATOM     56  C   UNL A   1      44.653  36.791  32.415  1.00  0.00     0.049 A 
ATOM     57  C   UNL A   1      43.029  37.606  37.699  1.00  0.00     0.074 A 
ATOM     58  C   UNL A   1      45.740  37.527  31.972  1.00  0.00     0.029 A 
ATOM     59  N   UNL A   1      44.442  37.148  33.738  1.00  0.00    -0.354 N 
ATOM     60  N   UNL A   1      43.530  37.521  36.490  1.00  0.00    -0.248 NA
ATOM     61  C   UNL A   1      43.764  38.512  38.594  1.00  0.00     0.031 C 
ATOM     62  C   UNL A   1      46.215  38.294  33.043  1.00  0.00     0.029 A 
ATOM     63  C   UNL A   1      45.390  38.078  34.134  1.00  0.00     0.049 A 
ATOM     64  H   UNL A   1      43.725  36.792  34.311  1.00  0.00     0.167 HD
ATOM     65  C   UNL A   1      44.614  38.393  36.466  1.00  0.00     0.074 A 
ATOM     66  C   UNL A   1      44.693  38.996  37.781  1.00  0.00     0.031 C 
ATOM     67  C   UNL A   1      45.458  38.676  35.443  1.00  0.00     0.031 A 
BRANCH  54  68
ATOM     68  C   UNL A   1      44.275  35.493  30.277  1.00  0.00    -0.014 A 
ATOM     69  C   UNL A   1      45.152  34.429  30.000  1.00  0.00     0.010 A 
ATOM     70  C   UNL A   1      43.754  36.246  29.209  1.00  0.00     0.010 A 
ATOM     71  C   UNL A   1      45.536  34.153  28.684  1.00  0.00     0.020 A 
ATOM     72  C   UNL A   1      44.115  35.957  27.890  1.00  0.00     0.020 A 
ATOM     73  C   UNL A   1      45.021  34.925  27.638  1.00  0.00     0.054 A 
BRANCH  73  74
ATOM     74  S   UNL A   1      45.531  34.547  25.939  1.00  0.00     0.124 S 
ATOM     75  O   UNL A   1      44.250  34.530  25.238  1.00  0.00    -0.237 OA
ATOM     76  O   UNL A   1      46.412  35.664  25.609  1.00  0.00    -0.237 OA
ATOM     77  O   UNL A   1      46.194  33.250  26.056  1.00  0.00    -0.744 OA
ENDBRANCH  73  74
ENDBRANCH  54  68
BRANCH  55  78
ATOM     78  C   UNL A   1      41.395  37.181  39.677  1.00  0.00    -0.014 A 
ATOM     79  C   UNL A   1      41.879  36.378  40.724  1.00  0.00     0.010 A 
ATOM     80  C   UNL A   1      40.513  38.235  39.973  1.00  0.00     0.010 A 
ATOM     81  C   UNL A   1      41.476  36.615  42.041  1.00  0.00     0.020 A 
ATOM     82  C   UNL A   1      40.127  38.492  41.290  1.00  0.00     0.020 A 
ATOM     83  C   UNL A   1      40.604  37.672  42.316  1.00  0.00     0.054 A 
BRANCH  83  84
ATOM     84  S   UNL A   1      40.143  37.999  44.040  1.00  0.00     0.124 S 
ATOM     85  O   UNL A   1      41.430  37.906  44.722  1.00  0.00    -0.237 OA
ATOM     86  O   UNL A   1      39.560  39.336  43.964  1.00  0.00    -0.237 OA
ATOM     87  O   UNL A   1      39.192  36.931  44.346  1.00  0.00    -0.744 OA
ENDBRANCH  83  84
ENDBRANCH  55  78
BRANCH  67  88
ATOM     88  C   UNL A   1      46.510  39.729  35.683  1.00  0.00    -0.014 A 
ATOM     89  C   UNL A   1      46.257  41.091  35.450  1.00  0.00     0.010 A 
ATOM     90  C   UNL A   1      47.766  39.342  36.188  1.00  0.00     0.010 A 
ATOM     91  C   UNL A   1      47.257  42.044  35.674  1.00  0.00     0.020 A 
ATOM     92  C   UNL A   1      48.758  40.294  36.439  1.00  0.00     0.020 A 
ATOM     93  C   UNL A   1      48.503  41.638  36.162  1.00  0.00     0.054 A 
BRANCH  93  94
ATOM     94  S   UNL A   1      49.778  42.892  36.466  1.00  0.00     0.124 S 
ATOM     95  O   UNL A   1      49.669  43.731  35.276  1.00  0.00    -0.237 OA
ATOM     96  O   UNL A   1      49.334  43.510  37.713  1.00  0.00    -0.237 OA
ATOM     97  O   UNL A   1      51.011  42.113  36.569  1.00  0.00    -0.744 OA
ENDBRANCH  93  94
ENDBRANCH  67  88
ENDBRANCH  41  42
ENDBRANCH  34  36
ENDBRANCH  33  34
ENDBRANCH  32  33
ENDBRANCH  31  32
ENDBRANCH  30  31
ENDBRANCH  29  30
ENDBRANCH   1  29
TORSDOF 23
ENDMDL
