MODEL 1
REMARK VINA RESULT:     -10.5      0.000      0.000
REMARK SMILES CC1(C)S[C@H](c2ccc(-c3ccccc3)o2)[NH2+][C@H]1C(=O)OCCOCCOCCOC(=O)c1ccc(-c2c3nc(c(-c4ccc(S(=O)(=O)[O-])cc4)c4ccc([nH]4)c(-c4ccc(S(=O)(=O)[O-])cc4)c4nc(c(-c5ccc(S(=O)(=O)[O-])cc5)c5ccc2[nH]5)C=C4)C=C3)cc1
REMARK SMILES IDX 26 1 25 2 24 3 23 4 22 5 21 6 19 7 20 8 18 9 1 10 2 11 3 12
REMARK SMILES IDX 4 13 5 14 17 15 6 18 7 19 16 20 8 21 9 22 10 23 11 24 15 25
REMARK SMILES IDX 12 26 14 27 13 28 27 29 28 30 29 31 30 32 31 33 32 34 33 35
REMARK SMILES IDX 34 36 92 37 35 38 91 39 36 40 37 41 38 42 85 43 39 44 90 45
REMARK SMILES IDX 84 46 86 47 40 48 89 49 83 50 82 51 41 53 71 54 52 55 70 56
REMARK SMILES IDX 53 57 56 58 69 59 87 60 54 61 55 62 68 64 88 65 57 66 42 67
REMARK SMILES IDX 43 68 51 69 44 70 50 71 45 72 46 73 47 74 48 75 49 76 72 77
REMARK SMILES IDX 73 78 81 79 74 80 80 81 75 82 76 83 77 84 78 85 79 86 58 87
REMARK SMILES IDX 59 88 67 89 60 90 66 91 61 92 62 93 63 94 64 95 65 96
REMARK H PARENT 17 16 17 17 86 52 56 63
REMARK Flexibility Score: inf
ROOT
ATOM      1  C   UNL A   1      40.970  21.139  26.617  1.00  0.00     0.188 C 
ENDROOT
BRANCH   1   2
ATOM      2  C   UNL A   1      39.647  20.729  25.966  1.00  0.00     0.188 C 
BRANCH   2   3
ATOM      3  O   UNL A   1      38.652  21.721  25.750  1.00  0.00    -0.376 OA
BRANCH   3   4
ATOM      4  C   UNL A   1      37.442  21.391  25.084  1.00  0.00     0.202 C 
BRANCH   4   5
ATOM      5  C   UNL A   1      36.098  21.679  25.777  1.00  0.00     0.261 C 
BRANCH   5   6
ATOM      6  O   UNL A   1      35.379  22.876  25.385  1.00  0.00    -0.459 OA
BRANCH   6   7
ATOM      7  C   UNL A   1      34.168  23.058  25.984  1.00  0.00     0.366 C 
ATOM      8  O   UNL A   1      33.896  22.588  27.086  1.00  0.00    -0.245 OA
BRANCH   7   9
ATOM      9  C   UNL A   1      33.101  23.815  25.139  1.00  0.00     0.310 C 
ATOM     10  C   UNL A   1      32.160  21.819  23.665  1.00  0.00     0.030 C 
ATOM     11  C   UNL A   1      32.527  23.302  23.782  1.00  0.00     0.079 C 
ATOM     12  C   UNL A   1      33.314  23.796  22.558  1.00  0.00     0.030 C 
ATOM     13  S   UNL A   1      30.901  24.183  23.653  1.00  0.00    -0.078 SA
ATOM     14  C   UNL A   1      31.014  24.932  25.295  1.00  0.00     0.311 C 
ATOM     15  N   UNL A   1      31.961  24.117  26.049  1.00  0.00    -0.316 N 
ATOM     16  H   UNL A   1      31.514  23.250  26.349  1.00  0.00     0.348 HD
ATOM     17  H   UNL A   1      32.282  24.610  26.882  1.00  0.00     0.348 HD
BRANCH  14  18
ATOM     18  C   UNL A   1      31.308  26.401  25.196  1.00  0.00     0.172 A 
ATOM     19  C   UNL A   1      30.704  27.389  24.436  1.00  0.00     0.054 A 
ATOM     20  O   UNL A   1      32.276  26.967  25.992  1.00  0.00    -0.454 OA
ATOM     21  C   UNL A   1      31.296  28.612  24.806  1.00  0.00     0.051 A 
ATOM     22  C   UNL A   1      32.244  28.315  25.761  1.00  0.00     0.134 A 
BRANCH  22  23
ATOM     23  C   UNL A   1      33.109  29.169  26.560  1.00  0.00     0.017 A 
ATOM     24  C   UNL A   1      34.412  28.786  26.895  1.00  0.00     0.012 A 
ATOM     25  C   UNL A   1      32.664  30.451  26.917  1.00  0.00     0.012 A 
ATOM     26  C   UNL A   1      35.261  29.683  27.555  1.00  0.00     0.001 A 
ATOM     27  C   UNL A   1      33.508  31.340  27.586  1.00  0.00     0.001 A 
ATOM     28  C   UNL A   1      34.809  30.958  27.898  1.00  0.00     0.000 A 
ENDBRANCH  22  23
ENDBRANCH  14  18
ENDBRANCH   7   9
ENDBRANCH   6   7
ENDBRANCH   5   6
ENDBRANCH   4   5
ENDBRANCH   3   4
ENDBRANCH   2   3
ENDBRANCH   1   2
BRANCH   1  29
ATOM     29  O   UNL A   1      42.049  21.277  25.730  1.00  0.00    -0.376 OA
BRANCH  29  30
ATOM     30  C   UNL A   1      42.663  22.530  25.535  1.00  0.00     0.202 C 
BRANCH  30  31
ATOM     31  C   UNL A   1      42.501  23.700  26.519  1.00  0.00     0.261 C 
BRANCH  31  32
ATOM     32  O   UNL A   1      41.344  24.534  26.399  1.00  0.00    -0.460 OA
BRANCH  32  33
ATOM     33  C   UNL A   1      41.541  25.819  26.028  1.00  0.00     0.338 C 
ATOM     34  O   UNL A   1      41.789  26.226  24.901  1.00  0.00    -0.246 OA
BRANCH  33  35
ATOM     35  C   UNL A   1      41.194  26.677  27.180  1.00  0.00     0.060 A 
ATOM     36  C   UNL A   1      41.836  27.913  27.340  1.00  0.00     0.016 A 
ATOM     37  C   UNL A   1      40.231  26.260  28.100  1.00  0.00     0.016 A 
ATOM     38  C   UNL A   1      41.534  28.725  28.435  1.00  0.00     0.010 A 
ATOM     39  C   UNL A   1      39.944  27.064  29.206  1.00  0.00     0.010 A 
ATOM     40  C   UNL A   1      40.613  28.288  29.394  1.00  0.00    -0.014 A 
BRANCH  40  41
ATOM     41  C   UNL A   1      40.460  29.012  30.681  1.00  0.00     0.031 A 
ATOM     42  C   UNL A   1      39.406  30.082  30.780  1.00  0.00     0.074 A 
ATOM     43  C   UNL A   1      41.248  28.738  31.737  1.00  0.00     0.049 A 
ATOM     44  N   UNL A   1      39.174  30.933  31.745  1.00  0.00    -0.248 NA
ATOM     45  C   UNL A   1      38.496  30.213  29.630  1.00  0.00     0.031 C 
ATOM     46  C   UNL A   1      42.262  27.686  31.790  1.00  0.00     0.029 A 
ATOM     47  N   UNL A   1      41.324  29.341  32.968  1.00  0.00    -0.354 N 
ATOM     48  C   UNL A   1      38.111  31.716  31.311  1.00  0.00     0.074 A 
ATOM     49  C   UNL A   1      37.758  31.252  29.986  1.00  0.00     0.031 C 
ATOM     50  C   UNL A   1      42.869  27.727  32.989  1.00  0.00     0.029 A 
ATOM     51  C   UNL A   1      42.324  28.838  33.767  1.00  0.00     0.049 A 
ATOM     52  H   UNL A   1      40.720  30.064  33.254  1.00  0.00     0.167 HD
ATOM     53  C   UNL A   1      37.486  32.729  31.956  1.00  0.00     0.031 A 
ATOM     54  C   UNL A   1      42.773  29.251  34.969  1.00  0.00     0.031 A 
ATOM     55  C   UNL A   1      37.849  33.190  33.270  1.00  0.00     0.049 A 
ATOM     56  C   UNL A   1      42.120  30.438  35.632  1.00  0.00     0.074 A 
ATOM     57  C   UNL A   1      37.272  34.202  34.016  1.00  0.00     0.029 A 
ATOM     58  N   UNL A   1      38.888  32.674  34.031  1.00  0.00    -0.354 N 
ATOM     59  N   UNL A   1      41.112  31.167  35.214  1.00  0.00    -0.248 NA
ATOM     60  C   UNL A   1      42.665  30.857  36.932  1.00  0.00     0.031 C 
ATOM     61  C   UNL A   1      38.003  34.342  35.199  1.00  0.00     0.029 A 
ATOM     62  C   UNL A   1      38.988  33.367  35.225  1.00  0.00     0.049 A 
ATOM     63  H   UNL A   1      39.468  31.926  33.762  1.00  0.00     0.167 HD
ATOM     64  C   UNL A   1      40.881  32.108  36.214  1.00  0.00     0.074 A 
ATOM     65  C   UNL A   1      41.847  31.848  37.261  1.00  0.00     0.031 C 
ATOM     66  C   UNL A   1      39.952  33.095  36.263  1.00  0.00     0.031 A 
BRANCH  53  67
ATOM     67  C   UNL A   1      36.375  33.441  31.227  1.00  0.00    -0.014 A 
ATOM     68  C   UNL A   1      35.185  33.808  31.880  1.00  0.00     0.010 A 
ATOM     69  C   UNL A   1      36.543  33.780  29.872  1.00  0.00     0.010 A 
ATOM     70  C   UNL A   1      34.167  34.464  31.181  1.00  0.00     0.020 A 
ATOM     71  C   UNL A   1      35.541  34.464  29.177  1.00  0.00     0.020 A 
ATOM     72  C   UNL A   1      34.353  34.786  29.833  1.00  0.00     0.054 A 
BRANCH  72  73
ATOM     73  S   UNL A   1      33.025  35.659  28.957  1.00  0.00     0.124 S 
ATOM     74  O   UNL A   1      33.769  36.677  28.220  1.00  0.00    -0.237 OA
ATOM     75  O   UNL A   1      32.433  34.601  28.141  1.00  0.00    -0.237 OA
ATOM     76  O   UNL A   1      32.174  36.166  30.030  1.00  0.00    -0.744 OA
ENDBRANCH  72  73
ENDBRANCH  53  67
BRANCH  54  77
ATOM     77  C   UNL A   1      43.922  28.556  35.615  1.00  0.00    -0.014 A 
ATOM     78  C   UNL A   1      43.709  27.487  36.504  1.00  0.00     0.010 A 
ATOM     79  C   UNL A   1      45.242  28.966  35.350  1.00  0.00     0.010 A 
ATOM     80  C   UNL A   1      44.790  26.855  37.127  1.00  0.00     0.020 A 
ATOM     81  C   UNL A   1      46.327  28.316  35.944  1.00  0.00     0.020 A 
ATOM     82  C   UNL A   1      46.093  27.272  36.839  1.00  0.00     0.054 A 
BRANCH  82  83
ATOM     83  S   UNL A   1      47.479  26.403  37.626  1.00  0.00     0.124 S 
ATOM     84  O   UNL A   1      48.024  27.434  38.504  1.00  0.00    -0.237 OA
ATOM     85  O   UNL A   1      46.811  25.291  38.295  1.00  0.00    -0.237 OA
ATOM     86  O   UNL A   1      48.330  26.027  36.500  1.00  0.00    -0.744 OA
ENDBRANCH  82  83
ENDBRANCH  54  77
BRANCH  66  87
ATOM     87  C   UNL A   1      39.893  33.942  37.508  1.00  0.00    -0.014 A 
ATOM     88  C   UNL A   1      39.026  33.631  38.570  1.00  0.00     0.010 A 
ATOM     89  C   UNL A   1      40.774  35.032  37.643  1.00  0.00     0.010 A 
ATOM     90  C   UNL A   1      39.023  34.411  39.731  1.00  0.00     0.020 A 
ATOM     91  C   UNL A   1      40.797  35.794  38.813  1.00  0.00     0.020 A 
ATOM     92  C   UNL A   1      39.910  35.486  39.846  1.00  0.00     0.054 A 
BRANCH  92  93
ATOM     93  S   UNL A   1      39.919  36.450  41.383  1.00  0.00     0.124 S 
ATOM     94  O   UNL A   1      39.822  37.819  40.884  1.00  0.00    -0.237 OA
ATOM     95  O   UNL A   1      38.738  35.949  42.081  1.00  0.00    -0.237 OA
ATOM     96  O   UNL A   1      41.196  36.103  42.003  1.00  0.00    -0.744 OA
ENDBRANCH  92  93
ENDBRANCH  66  87
ENDBRANCH  40  41
ENDBRANCH  33  35
ENDBRANCH  32  33
ENDBRANCH  31  32
ENDBRANCH  30  31
ENDBRANCH  29  30
ENDBRANCH   1  29
TORSDOF 22
ENDMDL
MODEL 2
REMARK VINA RESULT:     -10.1      6.019     12.219
REMARK SMILES CC1(C)S[C@H](c2ccc(-c3ccccc3)o2)[NH2+][C@H]1C(=O)OCCOCCOCCOC(=O)c1ccc(-c2c3nc(c(-c4ccc(S(=O)(=O)[O-])cc4)c4ccc([nH]4)c(-c4ccc(S(=O)(=O)[O-])cc4)c4nc(c(-c5ccc(S(=O)(=O)[O-])cc5)c5ccc2[nH]5)C=C4)C=C3)cc1
REMARK SMILES IDX 26 1 25 2 24 3 23 4 22 5 21 6 19 7 20 8 18 9 1 10 2 11 3 12
REMARK SMILES IDX 4 13 5 14 17 15 6 18 7 19 16 20 8 21 9 22 10 23 11 24 15 25
REMARK SMILES IDX 12 26 14 27 13 28 27 29 28 30 29 31 30 32 31 33 32 34 33 35
REMARK SMILES IDX 34 36 92 37 35 38 91 39 36 40 37 41 38 42 85 43 39 44 90 45
REMARK SMILES IDX 84 46 86 47 40 48 89 49 83 50 82 51 41 53 71 54 52 55 70 56
REMARK SMILES IDX 53 57 56 58 69 59 87 60 54 61 55 62 68 64 88 65 57 66 42 67
REMARK SMILES IDX 43 68 51 69 44 70 50 71 45 72 46 73 47 74 48 75 49 76 72 77
REMARK SMILES IDX 73 78 81 79 74 80 80 81 75 82 76 83 77 84 78 85 79 86 58 87
REMARK SMILES IDX 59 88 67 89 60 90 66 91 61 92 62 93 63 94 64 95 65 96
REMARK H PARENT 17 16 17 17 86 52 56 63
REMARK Flexibility Score: inf
ROOT
ATOM      1  C   UNL A   1      34.522  33.019  30.295  1.00  0.00     0.188 C 
ENDROOT
BRANCH   1   2
ATOM      2  C   UNL A   1      35.020  33.332  28.882  1.00  0.00     0.188 C 
BRANCH   2   3
ATOM      3  O   UNL A   1      35.288  32.255  27.994  1.00  0.00    -0.376 OA
BRANCH   3   4
ATOM      4  C   UNL A   1      34.531  31.056  28.070  1.00  0.00     0.202 C 
BRANCH   4   5
ATOM      5  C   UNL A   1      33.319  30.871  27.141  1.00  0.00     0.261 C 
BRANCH   5   6
ATOM      6  O   UNL A   1      33.432  29.905  26.066  1.00  0.00    -0.459 OA
BRANCH   6   7
ATOM      7  C   UNL A   1      32.279  29.634  25.392  1.00  0.00     0.366 C 
ATOM      8  O   UNL A   1      31.277  30.339  25.484  1.00  0.00    -0.245 OA
BRANCH   7   9
ATOM      9  C   UNL A   1      32.267  28.311  24.571  1.00  0.00     0.310 C 
ATOM     10  C   UNL A   1      30.894  29.089  22.438  1.00  0.00     0.030 C 
ATOM     11  C   UNL A   1      31.242  27.985  23.442  1.00  0.00     0.079 C 
ATOM     12  C   UNL A   1      29.987  27.254  23.947  1.00  0.00     0.030 C 
ATOM     13  S   UNL A   1      32.124  26.709  22.427  1.00  0.00    -0.078 SA
ATOM     14  C   UNL A   1      33.668  26.827  23.361  1.00  0.00     0.311 C 
ATOM     15  N   UNL A   1      33.641  28.125  24.027  1.00  0.00    -0.316 N 
ATOM     16  H   UNL A   1      33.856  28.865  23.358  1.00  0.00     0.348 HD
ATOM     17  H   UNL A   1      34.336  28.164  24.773  1.00  0.00     0.348 HD
BRANCH  14  18
ATOM     18  C   UNL A   1      33.862  25.620  24.232  1.00  0.00     0.172 A 
ATOM     19  C   UNL A   1      34.217  25.523  25.567  1.00  0.00     0.054 A 
ATOM     20  O   UNL A   1      33.612  24.362  23.735  1.00  0.00    -0.454 OA
ATOM     21  C   UNL A   1      34.147  24.159  25.913  1.00  0.00     0.051 A 
ATOM     22  C   UNL A   1      33.769  23.485  24.773  1.00  0.00     0.134 A 
BRANCH  22  23
ATOM     23  C   UNL A   1      33.460  22.083  24.538  1.00  0.00     0.017 A 
ATOM     24  C   UNL A   1      32.462  21.690  23.641  1.00  0.00     0.012 A 
ATOM     25  C   UNL A   1      34.252  21.097  25.147  1.00  0.00     0.012 A 
ATOM     26  C   UNL A   1      32.276  20.335  23.342  1.00  0.00     0.001 A 
ATOM     27  C   UNL A   1      34.060  19.745  24.858  1.00  0.00     0.001 A 
ATOM     28  C   UNL A   1      33.076  19.365  23.949  1.00  0.00     0.000 A 
ENDBRANCH  22  23
ENDBRANCH  14  18
ENDBRANCH   7   9
ENDBRANCH   6   7
ENDBRANCH   5   6
ENDBRANCH   4   5
ENDBRANCH   3   4
ENDBRANCH   2   3
ENDBRANCH   1   2
BRANCH   1  29
ATOM     29  O   UNL A   1      35.190  33.703  31.324  1.00  0.00    -0.376 OA
BRANCH  29  30
ATOM     30  C   UNL A   1      36.372  33.178  31.884  1.00  0.00     0.202 C 
BRANCH  30  31
ATOM     31  C   UNL A   1      36.370  32.085  32.965  1.00  0.00     0.261 C 
BRANCH  31  32
ATOM     32  O   UNL A   1      37.275  30.985  32.820  1.00  0.00    -0.460 OA
BRANCH  32  33
ATOM     33  C   UNL A   1      37.131  30.204  31.727  1.00  0.00     0.338 C 
ATOM     34  O   UNL A   1      36.080  29.783  31.261  1.00  0.00    -0.246 OA
BRANCH  33  35
ATOM     35  C   UNL A   1      38.447  30.117  31.060  1.00  0.00     0.060 A 
ATOM     36  C   UNL A   1      38.534  30.307  29.674  1.00  0.00     0.016 A 
ATOM     37  C   UNL A   1      39.595  29.851  31.808  1.00  0.00     0.016 A 
ATOM     38  C   UNL A   1      39.767  30.207  29.027  1.00  0.00     0.010 A 
ATOM     39  C   UNL A   1      40.825  29.732  31.157  1.00  0.00     0.010 A 
ATOM     40  C   UNL A   1      40.915  29.882  29.761  1.00  0.00    -0.014 A 
BRANCH  40  41
ATOM     41  C   UNL A   1      42.180  29.529  29.068  1.00  0.00     0.031 A 
ATOM     42  C   UNL A   1      42.344  28.126  28.547  1.00  0.00     0.074 A 
ATOM     43  C   UNL A   1      43.168  30.429  28.914  1.00  0.00     0.049 A 
ATOM     44  N   UNL A   1      43.398  27.551  28.031  1.00  0.00    -0.248 NA
ATOM     45  C   UNL A   1      41.159  27.256  28.628  1.00  0.00     0.031 C 
ATOM     46  C   UNL A   1      43.109  31.833  29.317  1.00  0.00     0.029 A 
ATOM     47  N   UNL A   1      44.428  30.282  28.387  1.00  0.00    -0.354 N 
ATOM     48  C   UNL A   1      43.013  26.244  27.749  1.00  0.00     0.074 A 
ATOM     49  C   UNL A   1      41.636  26.108  28.171  1.00  0.00     0.031 C 
ATOM     50  C   UNL A   1      44.288  32.416  29.035  1.00  0.00     0.029 A 
ATOM     51  C   UNL A   1      45.199  31.417  28.481  1.00  0.00     0.049 A 
ATOM     52  H   UNL A   1      44.749  29.445  27.980  1.00  0.00     0.167 HD
ATOM     53  C   UNL A   1      43.742  25.249  27.190  1.00  0.00     0.031 A 
ATOM     54  C   UNL A   1      46.501  31.615  28.190  1.00  0.00     0.031 A 
ATOM     55  C   UNL A   1      45.114  25.391  26.781  1.00  0.00     0.049 A 
ATOM     56  C   UNL A   1      47.318  30.468  27.650  1.00  0.00     0.074 A 
ATOM     57  C   UNL A   1      45.937  24.447  26.194  1.00  0.00     0.029 A 
ATOM     58  N   UNL A   1      45.867  26.547  26.922  1.00  0.00    -0.354 N 
ATOM     59  N   UNL A   1      46.943  29.239  27.382  1.00  0.00    -0.248 NA
ATOM     60  C   UNL A   1      48.737  30.736  27.370  1.00  0.00     0.031 C 
ATOM     61  C   UNL A   1      47.207  25.011  26.041  1.00  0.00     0.029 A 
ATOM     62  C   UNL A   1      47.155  26.330  26.462  1.00  0.00     0.049 A 
ATOM     63  H   UNL A   1      45.536  27.395  27.294  1.00  0.00     0.167 HD
ATOM     64  C   UNL A   1      48.069  28.599  26.871  1.00  0.00     0.074 A 
ATOM     65  C   UNL A   1      49.134  29.579  26.858  1.00  0.00     0.031 C 
ATOM     66  C   UNL A   1      48.207  27.317  26.449  1.00  0.00     0.031 A 
BRANCH  53  67
ATOM     67  C   UNL A   1      43.080  23.904  27.032  1.00  0.00    -0.014 A 
ATOM     68  C   UNL A   1      42.514  23.501  25.810  1.00  0.00     0.010 A 
ATOM     69  C   UNL A   1      43.060  23.012  28.121  1.00  0.00     0.010 A 
ATOM     70  C   UNL A   1      41.904  22.250  25.690  1.00  0.00     0.020 A 
ATOM     71  C   UNL A   1      42.479  21.747  27.997  1.00  0.00     0.020 A 
ATOM     72  C   UNL A   1      41.889  21.381  26.786  1.00  0.00     0.054 A 
BRANCH  72  73
ATOM     73  S   UNL A   1      41.111  19.753  26.596  1.00  0.00     0.124 S 
ATOM     74  O   UNL A   1      39.852  20.097  25.940  1.00  0.00    -0.237 OA
ATOM     75  O   UNL A   1      42.075  19.035  25.766  1.00  0.00    -0.237 OA
ATOM     76  O   UNL A   1      40.985  19.264  27.966  1.00  0.00    -0.744 OA
ENDBRANCH  72  73
ENDBRANCH  53  67
BRANCH  54  77
ATOM     77  C   UNL A   1      47.125  32.947  28.430  1.00  0.00    -0.014 A 
ATOM     78  C   UNL A   1      47.718  33.250  29.668  1.00  0.00     0.010 A 
ATOM     79  C   UNL A   1      47.121  33.927  27.420  1.00  0.00     0.010 A 
ATOM     80  C   UNL A   1      48.279  34.510  29.897  1.00  0.00     0.020 A 
ATOM     81  C   UNL A   1      47.711  35.176  27.632  1.00  0.00     0.020 A 
ATOM     82  C   UNL A   1      48.276  35.464  28.875  1.00  0.00     0.054 A 
BRANCH  82  83
ATOM     83  S   UNL A   1      49.052  37.075  29.184  1.00  0.00     0.124 S 
ATOM     84  O   UNL A   1      50.209  37.030  28.295  1.00  0.00    -0.237 OA
ATOM     85  O   UNL A   1      47.997  38.009  28.803  1.00  0.00    -0.237 OA
ATOM     86  O   UNL A   1      49.359  37.038  30.612  1.00  0.00    -0.744 OA
ENDBRANCH  82  83
ENDBRANCH  54  77
BRANCH  66  87
ATOM     87  C   UNL A   1      49.543  26.904  25.886  1.00  0.00    -0.014 A 
ATOM     88  C   UNL A   1      49.922  27.234  24.573  1.00  0.00     0.010 A 
ATOM     89  C   UNL A   1      50.462  26.232  26.714  1.00  0.00     0.010 A 
ATOM     90  C   UNL A   1      51.185  26.873  24.091  1.00  0.00     0.020 A 
ATOM     91  C   UNL A   1      51.735  25.899  26.248  1.00  0.00     0.020 A 
ATOM     92  C   UNL A   1      52.084  26.211  24.932  1.00  0.00     0.054 A 
BRANCH  92  93
ATOM     93  S   UNL A   1      53.733  25.801  24.297  1.00  0.00     0.124 S 
ATOM     94  O   UNL A   1      53.946  24.463  24.843  1.00  0.00    -0.237 OA
ATOM     95  O   UNL A   1      53.544  25.867  22.850  1.00  0.00    -0.237 OA
ATOM     96  O   UNL A   1      54.591  26.844  24.856  1.00  0.00    -0.744 OA
ENDBRANCH  92  93
ENDBRANCH  66  87
ENDBRANCH  40  41
ENDBRANCH  33  35
ENDBRANCH  32  33
ENDBRANCH  31  32
ENDBRANCH  30  31
ENDBRANCH  29  30
ENDBRANCH   1  29
TORSDOF 22
ENDMDL
MODEL 3
REMARK VINA RESULT:     -10.0      1.355      2.294
REMARK SMILES CC1(C)S[C@H](c2ccc(-c3ccccc3)o2)[NH2+][C@H]1C(=O)OCCOCCOCCOC(=O)c1ccc(-c2c3nc(c(-c4ccc(S(=O)(=O)[O-])cc4)c4ccc([nH]4)c(-c4ccc(S(=O)(=O)[O-])cc4)c4nc(c(-c5ccc(S(=O)(=O)[O-])cc5)c5ccc2[nH]5)C=C4)C=C3)cc1
REMARK SMILES IDX 26 1 25 2 24 3 23 4 22 5 21 6 19 7 20 8 18 9 1 10 2 11 3 12
REMARK SMILES IDX 4 13 5 14 17 15 6 18 7 19 16 20 8 21 9 22 10 23 11 24 15 25
REMARK SMILES IDX 12 26 14 27 13 28 27 29 28 30 29 31 30 32 31 33 32 34 33 35
REMARK SMILES IDX 34 36 92 37 35 38 91 39 36 40 37 41 38 42 85 43 39 44 90 45
REMARK SMILES IDX 84 46 86 47 40 48 89 49 83 50 82 51 41 53 71 54 52 55 70 56
REMARK SMILES IDX 53 57 56 58 69 59 87 60 54 61 55 62 68 64 88 65 57 66 42 67
REMARK SMILES IDX 43 68 51 69 44 70 50 71 45 72 46 73 47 74 48 75 49 76 72 77
REMARK SMILES IDX 73 78 81 79 74 80 80 81 75 82 76 83 77 84 78 85 79 86 58 87
REMARK SMILES IDX 59 88 67 89 60 90 66 91 61 92 62 93 63 94 64 95 65 96
REMARK H PARENT 17 16 17 17 86 52 56 63
REMARK Flexibility Score: inf
ROOT
ATOM      1  C   UNL A   1      41.129  21.485  26.521  1.00  0.00     0.188 C 
ENDROOT
BRANCH   1   2
ATOM      2  C   UNL A   1      39.799  21.021  25.922  1.00  0.00     0.188 C 
BRANCH   2   3
ATOM      3  O   UNL A   1      38.693  21.914  25.933  1.00  0.00    -0.376 OA
BRANCH   3   4
ATOM      4  C   UNL A   1      37.474  21.555  25.299  1.00  0.00     0.202 C 
BRANCH   4   5
ATOM      5  C   UNL A   1      36.734  22.600  24.445  1.00  0.00     0.261 C 
BRANCH   5   6
ATOM      6  O   UNL A   1      36.181  23.756  25.121  1.00  0.00    -0.459 OA
BRANCH   6   7
ATOM      7  C   UNL A   1      34.983  23.560  25.742  1.00  0.00     0.366 C 
ATOM      8  O   UNL A   1      34.889  23.035  26.848  1.00  0.00    -0.245 OA
BRANCH   7   9
ATOM      9  C   UNL A   1      33.720  23.947  24.917  1.00  0.00     0.310 C 
ATOM     10  C   UNL A   1      32.907  21.543  24.142  1.00  0.00     0.030 C 
ATOM     11  C   UNL A   1      33.063  23.035  23.834  1.00  0.00     0.079 C 
ATOM     12  C   UNL A   1      33.612  23.274  22.418  1.00  0.00     0.030 C 
ATOM     13  S   UNL A   1      31.323  23.667  23.752  1.00  0.00    -0.078 SA
ATOM     14  C   UNL A   1      31.528  24.829  25.122  1.00  0.00     0.311 C 
ATOM     15  N   UNL A   1      32.670  24.349  25.893  1.00  0.00    -0.316 N 
ATOM     16  H   UNL A   1      32.396  23.548  26.462  1.00  0.00     0.348 HD
ATOM     17  H   UNL A   1      33.016  25.077  26.519  1.00  0.00     0.348 HD
BRANCH  14  18
ATOM     18  C   UNL A   1      31.589  26.243  24.623  1.00  0.00     0.172 A 
ATOM     19  C   UNL A   1      32.671  27.003  24.207  1.00  0.00     0.054 A 
ATOM     20  O   UNL A   1      30.433  26.968  24.455  1.00  0.00    -0.454 OA
ATOM     21  C   UNL A   1      32.156  28.225  23.733  1.00  0.00     0.051 A 
ATOM     22  C   UNL A   1      30.789  28.164  23.894  1.00  0.00     0.134 A 
BRANCH  22  23
ATOM     23  C   UNL A   1      29.730  29.086  23.516  1.00  0.00     0.017 A 
ATOM     24  C   UNL A   1      28.482  28.633  23.078  1.00  0.00     0.012 A 
ATOM     25  C   UNL A   1      29.929  30.464  23.694  1.00  0.00     0.012 A 
ATOM     26  C   UNL A   1      27.444  29.543  22.845  1.00  0.00     0.001 A 
ATOM     27  C   UNL A   1      28.897  31.373  23.450  1.00  0.00     0.001 A 
ATOM     28  C   UNL A   1      27.652  30.911  23.033  1.00  0.00     0.000 A 
ENDBRANCH  22  23
ENDBRANCH  14  18
ENDBRANCH   7   9
ENDBRANCH   6   7
ENDBRANCH   5   6
ENDBRANCH   4   5
ENDBRANCH   3   4
ENDBRANCH   2   3
ENDBRANCH   1   2
BRANCH   1  29
ATOM     29  O   UNL A   1      42.267  21.141  25.774  1.00  0.00    -0.376 OA
BRANCH  29  30
ATOM     30  C   UNL A   1      43.204  22.124  25.400  1.00  0.00     0.202 C 
BRANCH  30  31
ATOM     31  C   UNL A   1      43.540  23.336  26.283  1.00  0.00     0.261 C 
BRANCH  31  32
ATOM     32  O   UNL A   1      42.663  24.467  26.248  1.00  0.00    -0.460 OA
BRANCH  32  33
ATOM     33  C   UNL A   1      43.232  25.690  26.164  1.00  0.00     0.338 C 
ATOM     34  O   UNL A   1      43.907  26.122  25.240  1.00  0.00    -0.246 OA
BRANCH  33  35
ATOM     35  C   UNL A   1      42.720  26.501  27.289  1.00  0.00     0.060 A 
ATOM     36  C   UNL A   1      43.230  27.790  27.501  1.00  0.00     0.016 A 
ATOM     37  C   UNL A   1      41.732  25.987  28.131  1.00  0.00     0.016 A 
ATOM     38  C   UNL A   1      42.770  28.560  28.572  1.00  0.00     0.010 A 
ATOM     39  C   UNL A   1      41.288  26.750  29.214  1.00  0.00     0.010 A 
ATOM     40  C   UNL A   1      41.823  28.029  29.456  1.00  0.00    -0.014 A 
BRANCH  40  41
ATOM     41  C   UNL A   1      41.507  28.723  30.730  1.00  0.00     0.031 A 
ATOM     42  C   UNL A   1      40.351  29.688  30.751  1.00  0.00     0.074 A 
ATOM     43  C   UNL A   1      42.235  28.514  31.841  1.00  0.00     0.049 A 
ATOM     44  N   UNL A   1      39.968  30.503  31.698  1.00  0.00    -0.248 NA
ATOM     45  C   UNL A   1      39.522  29.743  29.536  1.00  0.00     0.031 C 
ATOM     46  C   UNL A   1      43.337  27.563  31.968  1.00  0.00     0.029 A 
ATOM     47  N   UNL A   1      42.161  29.110  33.077  1.00  0.00    -0.354 N 
ATOM     48  C   UNL A   1      38.871  31.187  31.186  1.00  0.00     0.074 A 
ATOM     49  C   UNL A   1      38.664  30.705  29.838  1.00  0.00     0.031 C 
ATOM     50  C   UNL A   1      43.846  27.649  33.210  1.00  0.00     0.029 A 
ATOM     51  C   UNL A   1      43.142  28.696  33.947  1.00  0.00     0.049 A 
ATOM     52  H   UNL A   1      41.471  29.770  33.317  1.00  0.00     0.167 HD
ATOM     53  C   UNL A   1      38.106  32.131  31.785  1.00  0.00     0.031 A 
ATOM     54  C   UNL A   1      43.457  29.138  35.181  1.00  0.00     0.031 A 
ATOM     55  C   UNL A   1      38.324  32.611  33.123  1.00  0.00     0.049 A 
ATOM     56  C   UNL A   1      42.647  30.252  35.795  1.00  0.00     0.074 A 
ATOM     57  C   UNL A   1      37.599  33.556  33.826  1.00  0.00     0.029 A 
ATOM     58  N   UNL A   1      39.346  32.187  33.960  1.00  0.00    -0.354 N 
ATOM     59  N   UNL A   1      41.609  30.886  35.304  1.00  0.00    -0.248 NA
ATOM     60  C   UNL A   1      43.050  30.708  37.134  1.00  0.00     0.031 C 
ATOM     61  C   UNL A   1      38.222  33.753  35.062  1.00  0.00     0.029 A 
ATOM     62  C   UNL A   1      39.290  32.875  35.159  1.00  0.00     0.049 A 
ATOM     63  H   UNL A   1      40.014  31.500  33.734  1.00  0.00     0.167 HD
ATOM     64  C   UNL A   1      41.215  31.792  36.286  1.00  0.00     0.074 A 
ATOM     65  C   UNL A   1      42.120  31.613  37.403  1.00  0.00     0.031 C 
ATOM     66  C   UNL A   1      40.195  32.686  36.267  1.00  0.00     0.031 A 
BRANCH  53  67
ATOM     67  C   UNL A   1      36.990  32.741  30.976  1.00  0.00    -0.014 A 
ATOM     68  C   UNL A   1      37.238  33.729  30.007  1.00  0.00     0.010 A 
ATOM     69  C   UNL A   1      35.672  32.286  31.165  1.00  0.00     0.010 A 
ATOM     70  C   UNL A   1      36.185  34.281  29.273  1.00  0.00     0.020 A 
ATOM     71  C   UNL A   1      34.619  32.813  30.411  1.00  0.00     0.020 A 
ATOM     72  C   UNL A   1      34.881  33.820  29.481  1.00  0.00     0.054 A 
BRANCH  72  73
ATOM     73  S   UNL A   1      33.537  34.537  28.496  1.00  0.00     0.124 S 
ATOM     74  O   UNL A   1      33.099  33.391  27.704  1.00  0.00    -0.237 OA
ATOM     75  O   UNL A   1      32.598  34.988  29.521  1.00  0.00    -0.237 OA
ATOM     76  O   UNL A   1      34.189  35.603  27.740  1.00  0.00    -0.744 OA
ENDBRANCH  72  73
ENDBRANCH  53  67
BRANCH  54  77
ATOM     77  C   UNL A   1      44.615  28.548  35.911  1.00  0.00    -0.014 A 
ATOM     78  C   UNL A   1      45.815  29.267  36.057  1.00  0.00     0.010 A 
ATOM     79  C   UNL A   1      44.527  27.255  36.459  1.00  0.00     0.010 A 
ATOM     80  C   UNL A   1      46.907  28.699  36.720  1.00  0.00     0.020 A 
ATOM     81  C   UNL A   1      45.605  26.696  37.152  1.00  0.00     0.020 A 
ATOM     82  C   UNL A   1      46.793  27.418  37.267  1.00  0.00     0.054 A 
BRANCH  82  83
ATOM     83  S   UNL A   1      48.210  26.723  38.163  1.00  0.00     0.124 S 
ATOM     84  O   UNL A   1      48.107  27.388  39.458  1.00  0.00    -0.237 OA
ATOM     85  O   UNL A   1      47.911  25.294  38.161  1.00  0.00    -0.237 OA
ATOM     86  O   UNL A   1      49.356  27.117  37.347  1.00  0.00    -0.744 OA
ENDBRANCH  82  83
ENDBRANCH  54  77
BRANCH  66  87
ATOM     87  C   UNL A   1      39.963  33.512  37.506  1.00  0.00    -0.014 A 
ATOM     88  C   UNL A   1      40.580  34.762  37.684  1.00  0.00     0.010 A 
ATOM     89  C   UNL A   1      39.054  33.055  38.479  1.00  0.00     0.010 A 
ATOM     90  C   UNL A   1      40.315  35.526  38.825  1.00  0.00     0.020 A 
ATOM     91  C   UNL A   1      38.761  33.829  39.604  1.00  0.00     0.020 A 
ATOM     92  C   UNL A   1      39.405  35.055  39.776  1.00  0.00     0.054 A 
BRANCH  92  93
ATOM     93  S   UNL A   1      39.040  36.089  41.222  1.00  0.00     0.124 S 
ATOM     94  O   UNL A   1      40.254  35.936  42.020  1.00  0.00    -0.237 OA
ATOM     95  O   UNL A   1      38.840  37.409  40.629  1.00  0.00    -0.237 OA
ATOM     96  O   UNL A   1      37.840  35.481  41.791  1.00  0.00    -0.744 OA
ENDBRANCH  92  93
ENDBRANCH  66  87
ENDBRANCH  40  41
ENDBRANCH  33  35
ENDBRANCH  32  33
ENDBRANCH  31  32
ENDBRANCH  30  31
ENDBRANCH  29  30
ENDBRANCH   1  29
TORSDOF 22
ENDMDL
