MODEL 1
REMARK VINA RESULT:      -9.2      0.000      0.000
REMARK SMILES CCN(C(=O)N[C@@H]1CCOC1)[C@H]1COC[C@H]1C(=O)OCCOCCOCCOC(=O)c1ccc(-c2c3nc(c(-c4ccc(S(=O)(=O)[O-])cc4)c4ccc([nH]4)c(-c4ccc(S(=O)(=O)[O-])cc4)c4nc(c(-c5ccc(S(=O)(=O)[O-])cc5)c5ccc2[nH]5)C=C4)C=C3)cc1
REMARK SMILES IDX 23 1 22 2 21 3 20 4 19 5 17 6 18 7 16 8 12 9 13 10 14 11
REMARK SMILES IDX 15 12 3 13 2 14 1 15 4 16 5 17 6 18 7 20 8 21 11 22 9 23
REMARK SMILES IDX 10 24 24 25 25 26 26 27 27 28 28 29 29 30 30 31 31 32 32 33
REMARK SMILES IDX 90 34 33 35 89 36 34 37 35 38 36 39 83 40 37 41 88 42 82 43
REMARK SMILES IDX 84 44 38 45 87 46 81 47 80 48 39 50 69 51 50 52 68 53 51 54
REMARK SMILES IDX 54 55 67 56 85 57 52 58 53 59 66 61 86 62 55 63 40 64 41 65
REMARK SMILES IDX 49 66 42 67 48 68 43 69 44 70 45 71 46 72 47 73 70 74 71 75
REMARK SMILES IDX 79 76 72 77 78 78 73 79 74 80 75 81 76 82 77 83 56 84 57 85
REMARK SMILES IDX 65 86 58 87 64 88 59 89 60 90 61 91 62 92 63 93
REMARK H PARENT 6 19 84 49 54 60
REMARK Flexibility Score: inf
ROOT
ATOM      1  C   UNL A   1      39.520  21.611  26.128  1.00  0.00     0.188 C 
ENDROOT
BRANCH   1   2
ATOM      2  O   UNL A   1      39.382  23.007  26.330  1.00  0.00    -0.376 OA
BRANCH   2   3
ATOM      3  C   UNL A   1      38.086  23.587  26.205  1.00  0.00     0.202 C 
BRANCH   3   4
ATOM      4  C   UNL A   1      37.025  22.892  25.340  1.00  0.00     0.261 C 
BRANCH   4   5
ATOM      5  O   UNL A   1      35.677  23.134  25.787  1.00  0.00    -0.463 OA
BRANCH   5   6
ATOM      6  C   UNL A   1      34.918  23.911  24.980  1.00  0.00     0.313 C 
ATOM      7  O   UNL A   1      34.944  25.140  25.017  1.00  0.00    -0.252 OA
BRANCH   6   8
ATOM      8  C   UNL A   1      34.142  23.174  23.902  1.00  0.00     0.150 C 
ATOM      9  C   UNL A   1      33.188  21.971  24.036  1.00  0.00     0.129 C 
ATOM     10  C   UNL A   1      32.144  22.223  22.936  1.00  0.00     0.186 C 
ATOM     11  O   UNL A   1      32.363  23.505  22.355  1.00  0.00    -0.378 OA
ATOM     12  C   UNL A   1      33.303  24.206  23.167  1.00  0.00     0.177 C 
BRANCH   9  13
ATOM     13  N   UNL A   1      32.574  21.529  25.315  1.00  0.00    -0.319 N 
BRANCH  13  14
ATOM     14  C   UNL A   1      31.328  22.237  25.670  1.00  0.00     0.118 C 
ATOM     15  C   UNL A   1      31.557  23.524  26.458  1.00  0.00     0.027 C 
ENDBRANCH  13  14
BRANCH  13  16
ATOM     16  C   UNL A   1      33.238  20.608  26.072  1.00  0.00     0.318 C 
ATOM     17  O   UNL A   1      33.808  20.925  27.120  1.00  0.00    -0.249 OA
ATOM     18  N   UNL A   1      33.361  19.308  25.765  1.00  0.00    -0.333 N 
ATOM     19  H   UNL A   1      34.091  18.890  26.275  1.00  0.00     0.165 HD
BRANCH  18  20
ATOM     20  C   UNL A   1      32.710  18.341  24.882  1.00  0.00     0.112 C 
ATOM     21  C   UNL A   1      32.606  17.005  25.586  1.00  0.00     0.056 C 
ATOM     22  C   UNL A   1      33.611  17.952  23.707  1.00  0.00     0.185 C 
ATOM     23  C   UNL A   1      34.023  16.482  25.458  1.00  0.00     0.162 C 
ATOM     24  O   UNL A   1      34.506  16.927  24.182  1.00  0.00    -0.379 OA
ENDBRANCH  18  20
ENDBRANCH  13  16
ENDBRANCH   9  13
ENDBRANCH   6   8
ENDBRANCH   5   6
ENDBRANCH   4   5
ENDBRANCH   3   4
ENDBRANCH   2   3
ENDBRANCH   1   2
BRANCH   1  25
ATOM     25  C   UNL A   1      40.804  20.919  26.608  1.00  0.00     0.188 C 
BRANCH  25  26
ATOM     26  O   UNL A   1      41.898  20.828  25.731  1.00  0.00    -0.376 OA
BRANCH  26  27
ATOM     27  C   UNL A   1      43.027  21.671  25.847  1.00  0.00     0.202 C 
BRANCH  27  28
ATOM     28  C   UNL A   1      43.102  23.158  25.456  1.00  0.00     0.261 C 
BRANCH  28  29
ATOM     29  O   UNL A   1      42.732  24.139  26.419  1.00  0.00    -0.460 OA
BRANCH  29  30
ATOM     30  C   UNL A   1      42.581  25.404  25.951  1.00  0.00     0.338 C 
ATOM     31  O   UNL A   1      42.565  25.759  24.788  1.00  0.00    -0.246 OA
BRANCH  30  32
ATOM     32  C   UNL A   1      42.172  26.241  27.100  1.00  0.00     0.060 A 
ATOM     33  C   UNL A   1      42.794  27.484  27.287  1.00  0.00     0.016 A 
ATOM     34  C   UNL A   1      41.148  25.825  27.952  1.00  0.00     0.016 A 
ATOM     35  C   UNL A   1      42.405  28.309  28.341  1.00  0.00     0.010 A 
ATOM     36  C   UNL A   1      40.778  26.640  29.023  1.00  0.00     0.010 A 
ATOM     37  C   UNL A   1      41.423  27.871  29.238  1.00  0.00    -0.014 A 
BRANCH  37  38
ATOM     38  C   UNL A   1      41.211  28.593  30.514  1.00  0.00     0.031 A 
ATOM     39  C   UNL A   1      40.086  29.588  30.582  1.00  0.00     0.074 A 
ATOM     40  C   UNL A   1      41.998  28.378  31.584  1.00  0.00     0.049 A 
ATOM     41  N   UNL A   1      39.757  30.402  31.549  1.00  0.00    -0.248 NA
ATOM     42  C   UNL A   1      39.219  29.681  29.394  1.00  0.00     0.031 C 
ATOM     43  C   UNL A   1      43.088  27.407  31.658  1.00  0.00     0.029 A 
ATOM     44  N   UNL A   1      42.002  28.985  32.816  1.00  0.00    -0.354 N 
ATOM     45  C   UNL A   1      38.660  31.116  31.082  1.00  0.00     0.074 A 
ATOM     46  C   UNL A   1      38.392  30.655  29.738  1.00  0.00     0.031 C 
ATOM     47  C   UNL A   1      43.668  27.496  32.869  1.00  0.00     0.029 A 
ATOM     48  C   UNL A   1      43.017  28.555  33.638  1.00  0.00     0.049 A 
ATOM     49  H   UNL A   1      41.341  29.663  33.085  1.00  0.00     0.167 HD
ATOM     50  C   UNL A   1      37.939  32.068  31.716  1.00  0.00     0.031 A 
ATOM     51  C   UNL A   1      43.395  28.991  34.857  1.00  0.00     0.031 A 
ATOM     52  C   UNL A   1      38.217  32.532  33.048  1.00  0.00     0.049 A 
ATOM     53  C   UNL A   1      42.622  30.109  35.514  1.00  0.00     0.074 A 
ATOM     54  C   UNL A   1      37.532  33.482  33.786  1.00  0.00     0.029 A 
ATOM     55  N   UNL A   1      39.267  32.091  33.838  1.00  0.00    -0.354 N 
ATOM     56  N   UNL A   1      41.569  30.756  35.072  1.00  0.00    -0.248 NA
ATOM     57  C   UNL A   1      43.085  30.551  36.837  1.00  0.00     0.031 C 
ATOM     58  C   UNL A   1      38.208  33.663  34.997  1.00  0.00     0.029 A 
ATOM     59  C   UNL A   1      39.268  32.771  35.044  1.00  0.00     0.049 A 
ATOM     60  H   UNL A   1      39.915  31.397  33.580  1.00  0.00     0.167 HD
ATOM     61  C   UNL A   1      41.226  31.656  36.078  1.00  0.00     0.074 A 
ATOM     62  C   UNL A   1      42.174  31.460  37.155  1.00  0.00     0.031 C 
ATOM     63  C   UNL A   1      40.215  32.561  36.110  1.00  0.00     0.031 A 
BRANCH  50  64
ATOM     64  C   UNL A   1      36.803  32.704  30.960  1.00  0.00    -0.014 A 
ATOM     65  C   UNL A   1      35.485  32.230  31.085  1.00  0.00     0.010 A 
ATOM     66  C   UNL A   1      37.054  33.825  30.147  1.00  0.00     0.010 A 
ATOM     67  C   UNL A   1      34.443  32.848  30.388  1.00  0.00     0.020 A 
ATOM     68  C   UNL A   1      36.011  34.465  29.474  1.00  0.00     0.020 A 
ATOM     69  C   UNL A   1      34.713  33.964  29.589  1.00  0.00     0.054 A 
BRANCH  69  70
ATOM     70  S   UNL A   1      33.335  34.771  28.730  1.00  0.00     0.124 S 
ATOM     71  O   UNL A   1      32.810  33.679  27.913  1.00  0.00    -0.237 OA
ATOM     72  O   UNL A   1      32.478  35.197  29.834  1.00  0.00    -0.237 OA
ATOM     73  O   UNL A   1      33.974  35.852  27.985  1.00  0.00    -0.744 OA
ENDBRANCH  69  70
ENDBRANCH  50  64
BRANCH  51  74
ATOM     74  C   UNL A   1      44.582  28.394  35.533  1.00  0.00    -0.014 A 
ATOM     75  C   UNL A   1      45.867  28.930  35.339  1.00  0.00     0.010 A 
ATOM     76  C   UNL A   1      44.433  27.266  36.362  1.00  0.00     0.010 A 
ATOM     77  C   UNL A   1      46.983  28.334  35.938  1.00  0.00     0.020 A 
ATOM     78  C   UNL A   1      45.540  26.687  36.988  1.00  0.00     0.020 A 
ATOM     79  C   UNL A   1      46.810  27.217  36.761  1.00  0.00     0.054 A 
BRANCH  79  80
ATOM     80  S   UNL A   1      48.268  26.483  37.554  1.00  0.00     0.124 S 
ATOM     81  O   UNL A   1      47.853  26.420  38.952  1.00  0.00    -0.237 OA
ATOM     82  O   UNL A   1      48.386  25.200  36.868  1.00  0.00    -0.237 OA
ATOM     83  O   UNL A   1      49.335  27.439  37.261  1.00  0.00    -0.744 OA
ENDBRANCH  79  80
ENDBRANCH  51  74
BRANCH  63  84
ATOM     84  C   UNL A   1      40.043  33.378  37.365  1.00  0.00    -0.014 A 
ATOM     85  C   UNL A   1      40.651  34.637  37.514  1.00  0.00     0.010 A 
ATOM     86  C   UNL A   1      39.203  32.900  38.390  1.00  0.00     0.010 A 
ATOM     87  C   UNL A   1      40.448  35.388  38.676  1.00  0.00     0.020 A 
ATOM     88  C   UNL A   1      38.971  33.661  39.538  1.00  0.00     0.020 A 
ATOM     89  C   UNL A   1      39.608  34.895  39.680  1.00  0.00     0.054 A 
BRANCH  89  90
ATOM     90  S   UNL A   1      39.326  35.908  41.159  1.00  0.00     0.124 S 
ATOM     91  O   UNL A   1      39.696  37.240  40.689  1.00  0.00    -0.237 OA
ATOM     92  O   UNL A   1      37.902  35.705  41.418  1.00  0.00    -0.237 OA
ATOM     93  O   UNL A   1      40.223  35.327  42.154  1.00  0.00    -0.744 OA
ENDBRANCH  89  90
ENDBRANCH  63  84
ENDBRANCH  37  38
ENDBRANCH  30  32
ENDBRANCH  29  30
ENDBRANCH  28  29
ENDBRANCH  27  28
ENDBRANCH  26  27
ENDBRANCH  25  26
ENDBRANCH   1  25
TORSDOF 24
ENDMDL
MODEL 2
REMARK VINA RESULT:      -8.9      1.679      3.252
REMARK SMILES CCN(C(=O)N[C@@H]1CCOC1)[C@H]1COC[C@H]1C(=O)OCCOCCOCCOC(=O)c1ccc(-c2c3nc(c(-c4ccc(S(=O)(=O)[O-])cc4)c4ccc([nH]4)c(-c4ccc(S(=O)(=O)[O-])cc4)c4nc(c(-c5ccc(S(=O)(=O)[O-])cc5)c5ccc2[nH]5)C=C4)C=C3)cc1
REMARK SMILES IDX 23 1 22 2 21 3 20 4 19 5 17 6 18 7 16 8 12 9 13 10 14 11
REMARK SMILES IDX 15 12 3 13 2 14 1 15 4 16 5 17 6 18 7 20 8 21 11 22 9 23
REMARK SMILES IDX 10 24 24 25 25 26 26 27 27 28 28 29 29 30 30 31 31 32 32 33
REMARK SMILES IDX 90 34 33 35 89 36 34 37 35 38 36 39 83 40 37 41 88 42 82 43
REMARK SMILES IDX 84 44 38 45 87 46 81 47 80 48 39 50 69 51 50 52 68 53 51 54
REMARK SMILES IDX 54 55 67 56 85 57 52 58 53 59 66 61 86 62 55 63 40 64 41 65
REMARK SMILES IDX 49 66 42 67 48 68 43 69 44 70 45 71 46 72 47 73 70 74 71 75
REMARK SMILES IDX 79 76 72 77 78 78 73 79 74 80 75 81 76 82 77 83 56 84 57 85
REMARK SMILES IDX 65 86 58 87 64 88 59 89 60 90 61 91 62 92 63 93
REMARK H PARENT 6 19 84 49 54 60
REMARK Flexibility Score: inf
ROOT
ATOM      1  C   UNL A   1      38.800  22.537  26.049  1.00  0.00     0.188 C 
ENDROOT
BRANCH   1   2
ATOM      2  O   UNL A   1      38.701  21.185  25.634  1.00  0.00    -0.376 OA
BRANCH   2   3
ATOM      3  C   UNL A   1      37.501  20.758  24.994  1.00  0.00     0.202 C 
BRANCH   3   4
ATOM      4  C   UNL A   1      36.385  21.775  24.718  1.00  0.00     0.261 C 
BRANCH   4   5
ATOM      5  O   UNL A   1      35.779  22.297  25.915  1.00  0.00    -0.463 OA
BRANCH   5   6
ATOM      6  C   UNL A   1      35.276  23.550  25.826  1.00  0.00     0.313 C 
ATOM      7  O   UNL A   1      35.772  24.421  25.116  1.00  0.00    -0.252 OA
BRANCH   6   8
ATOM      8  C   UNL A   1      33.951  23.775  26.537  1.00  0.00     0.150 C 
ATOM      9  C   UNL A   1      32.592  24.209  25.954  1.00  0.00     0.129 C 
ATOM     10  C   UNL A   1      31.576  23.472  26.840  1.00  0.00     0.186 C 
ATOM     11  O   UNL A   1      32.262  22.580  27.713  1.00  0.00    -0.378 OA
ATOM     12  C   UNL A   1      33.619  22.494  27.284  1.00  0.00     0.177 C 
BRANCH   9  13
ATOM     13  N   UNL A   1      32.243  24.146  24.511  1.00  0.00    -0.319 N 
BRANCH  13  14
ATOM     14  C   UNL A   1      32.671  22.906  23.833  1.00  0.00     0.118 C 
ATOM     15  C   UNL A   1      33.468  23.150  22.554  1.00  0.00     0.027 C 
ENDBRANCH  13  14
BRANCH  13  16
ATOM     16  C   UNL A   1      31.664  25.238  23.933  1.00  0.00     0.318 C 
ATOM     17  O   UNL A   1      30.448  25.289  23.723  1.00  0.00    -0.249 OA
ATOM     18  N   UNL A   1      32.327  26.329  23.521  1.00  0.00    -0.333 N 
ATOM     19  H   UNL A   1      31.784  26.860  22.895  1.00  0.00     0.165 HD
BRANCH  18  20
ATOM     20  C   UNL A   1      33.633  26.948  23.745  1.00  0.00     0.112 C 
ATOM     21  C   UNL A   1      33.686  27.523  25.145  1.00  0.00     0.056 C 
ATOM     22  C   UNL A   1      33.798  28.232  22.926  1.00  0.00     0.185 C 
ATOM     23  C   UNL A   1      32.879  28.794  24.983  1.00  0.00     0.162 C 
ATOM     24  O   UNL A   1      33.161  29.290  23.666  1.00  0.00    -0.379 OA
ENDBRANCH  18  20
ENDBRANCH  13  16
ENDBRANCH   9  13
ENDBRANCH   6   8
ENDBRANCH   5   6
ENDBRANCH   4   5
ENDBRANCH   3   4
ENDBRANCH   2   3
ENDBRANCH   1   2
BRANCH   1  25
ATOM     25  C   UNL A   1      40.009  22.962  26.895  1.00  0.00     0.188 C 
BRANCH  25  26
ATOM     26  O   UNL A   1      41.106  22.091  27.002  1.00  0.00    -0.376 OA
BRANCH  26  27
ATOM     27  C   UNL A   1      42.389  22.436  26.519  1.00  0.00     0.202 C 
BRANCH  27  28
ATOM     28  C   UNL A   1      42.722  23.573  25.537  1.00  0.00     0.261 C 
BRANCH  28  29
ATOM     29  O   UNL A   1      43.122  24.835  26.060  1.00  0.00    -0.460 OA
BRANCH  29  30
ATOM     30  C   UNL A   1      42.221  25.843  25.934  1.00  0.00     0.338 C 
ATOM     31  O   UNL A   1      41.492  26.061  24.986  1.00  0.00    -0.246 OA
BRANCH  30  32
ATOM     32  C   UNL A   1      42.094  26.473  27.267  1.00  0.00     0.060 A 
ATOM     33  C   UNL A   1      41.040  26.077  28.103  1.00  0.00     0.016 A 
ATOM     34  C   UNL A   1      43.035  27.406  27.704  1.00  0.00     0.016 A 
ATOM     35  C   UNL A   1      40.914  26.628  29.377  1.00  0.00     0.010 A 
ATOM     36  C   UNL A   1      42.892  27.977  28.969  1.00  0.00     0.010 A 
ATOM     37  C   UNL A   1      41.817  27.611  29.799  1.00  0.00    -0.014 A 
BRANCH  37  38
ATOM     38  C   UNL A   1      41.528  28.410  31.012  1.00  0.00     0.031 A 
ATOM     39  C   UNL A   1      40.382  29.383  30.960  1.00  0.00     0.074 A 
ATOM     40  C   UNL A   1      42.263  28.282  32.132  1.00  0.00     0.049 A 
ATOM     41  N   UNL A   1      39.990  30.251  31.854  1.00  0.00    -0.248 NA
ATOM     42  C   UNL A   1      39.576  29.379  29.726  1.00  0.00     0.031 C 
ATOM     43  C   UNL A   1      43.366  27.342  32.323  1.00  0.00     0.029 A 
ATOM     44  N   UNL A   1      42.194  28.968  33.320  1.00  0.00    -0.354 N 
ATOM     45  C   UNL A   1      38.905  30.909  31.287  1.00  0.00     0.074 A 
ATOM     46  C   UNL A   1      38.714  30.356  29.964  1.00  0.00     0.031 C 
ATOM     47  C   UNL A   1      43.882  27.521  33.553  1.00  0.00     0.029 A 
ATOM     48  C   UNL A   1      43.174  28.614  34.217  1.00  0.00     0.049 A 
ATOM     49  H   UNL A   1      41.508  29.648  33.511  1.00  0.00     0.167 HD
ATOM     50  C   UNL A   1      38.136  31.885  31.820  1.00  0.00     0.031 A 
ATOM     51  C   UNL A   1      43.481  29.137  35.423  1.00  0.00     0.031 A 
ATOM     52  C   UNL A   1      38.337  32.440  33.131  1.00  0.00     0.049 A 
ATOM     53  C   UNL A   1      42.655  30.278  35.965  1.00  0.00     0.074 A 
ATOM     54  C   UNL A   1      37.599  33.422  33.770  1.00  0.00     0.029 A 
ATOM     55  N   UNL A   1      39.354  32.074  33.998  1.00  0.00    -0.354 N 
ATOM     56  N   UNL A   1      41.615  30.872  35.430  1.00  0.00    -0.248 NA
ATOM     57  C   UNL A   1      43.043  30.815  37.277  1.00  0.00     0.031 C 
ATOM     58  C   UNL A   1      38.210  33.695  34.997  1.00  0.00     0.029 A 
ATOM     59  C   UNL A   1      39.282  32.831  35.156  1.00  0.00     0.049 A 
ATOM     60  H   UNL A   1      40.027  31.379  33.819  1.00  0.00     0.167 HD
ATOM     61  C   UNL A   1      41.205  31.828  36.357  1.00  0.00     0.074 A 
ATOM     62  C   UNL A   1      42.101  31.722  37.489  1.00  0.00     0.031 C 
ATOM     63  C   UNL A   1      40.177  32.711  36.279  1.00  0.00     0.031 A 
BRANCH  50  64
ATOM     64  C   UNL A   1      37.028  32.446  30.969  1.00  0.00    -0.014 A 
ATOM     65  C   UNL A   1      35.705  31.985  31.093  1.00  0.00     0.010 A 
ATOM     66  C   UNL A   1      37.310  33.484  30.062  1.00  0.00     0.010 A 
ATOM     67  C   UNL A   1      34.689  32.534  30.306  1.00  0.00     0.020 A 
ATOM     68  C   UNL A   1      36.292  34.057  29.296  1.00  0.00     0.020 A 
ATOM     69  C   UNL A   1      34.990  33.569  29.413  1.00  0.00     0.054 A 
BRANCH  69  70
ATOM     70  S   UNL A   1      33.644  34.289  28.435  1.00  0.00     0.124 S 
ATOM     71  O   UNL A   1      34.325  35.384  27.747  1.00  0.00    -0.237 OA
ATOM     72  O   UNL A   1      33.235  33.173  27.587  1.00  0.00    -0.237 OA
ATOM     73  O   UNL A   1      32.666  34.700  29.438  1.00  0.00    -0.744 OA
ENDBRANCH  69  70
ENDBRANCH  50  64
BRANCH  51  74
ATOM     74  C   UNL A   1      44.643  28.611  36.194  1.00  0.00    -0.014 A 
ATOM     75  C   UNL A   1      45.930  29.147  36.015  1.00  0.00     0.010 A 
ATOM     76  C   UNL A   1      44.469  27.549  37.102  1.00  0.00     0.010 A 
ATOM     77  C   UNL A   1      47.024  28.615  36.706  1.00  0.00     0.020 A 
ATOM     78  C   UNL A   1      45.553  27.036  37.819  1.00  0.00     0.020 A 
ATOM     79  C   UNL A   1      46.827  27.564  37.606  1.00  0.00     0.054 A 
BRANCH  79  80
ATOM     80  S   UNL A   1      48.255  26.914  38.517  1.00  0.00     0.124 S 
ATOM     81  O   UNL A   1      47.680  26.640  39.830  1.00  0.00    -0.237 OA
ATOM     82  O   UNL A   1      48.623  25.742  37.729  1.00  0.00    -0.237 OA
ATOM     83  O   UNL A   1      49.218  28.013  38.473  1.00  0.00    -0.744 OA
ENDBRANCH  79  80
ENDBRANCH  51  74
BRANCH  63  84
ATOM     84  C   UNL A   1      39.927  33.605  37.467  1.00  0.00    -0.014 A 
ATOM     85  C   UNL A   1      40.379  34.935  37.497  1.00  0.00     0.010 A 
ATOM     86  C   UNL A   1      39.168  33.117  38.549  1.00  0.00     0.010 A 
ATOM     87  C   UNL A   1      40.105  35.751  38.600  1.00  0.00     0.020 A 
ATOM     88  C   UNL A   1      38.863  33.938  39.637  1.00  0.00     0.020 A 
ATOM     89  C   UNL A   1      39.347  35.247  39.662  1.00  0.00     0.054 A 
BRANCH  89  90
ATOM     90  S   UNL A   1      38.968  36.339  41.059  1.00  0.00     0.124 S 
ATOM     91  O   UNL A   1      40.239  36.366  41.778  1.00  0.00    -0.237 OA
ATOM     92  O   UNL A   1      38.594  37.587  40.397  1.00  0.00    -0.237 OA
ATOM     93  O   UNL A   1      37.876  35.656  41.749  1.00  0.00    -0.744 OA
ENDBRANCH  89  90
ENDBRANCH  63  84
ENDBRANCH  37  38
ENDBRANCH  30  32
ENDBRANCH  29  30
ENDBRANCH  28  29
ENDBRANCH  27  28
ENDBRANCH  26  27
ENDBRANCH  25  26
ENDBRANCH   1  25
TORSDOF 24
ENDMDL
MODEL 3
REMARK VINA RESULT:      -8.8      1.639      8.316
REMARK SMILES CCN(C(=O)N[C@@H]1CCOC1)[C@H]1COC[C@H]1C(=O)OCCOCCOCCOC(=O)c1ccc(-c2c3nc(c(-c4ccc(S(=O)(=O)[O-])cc4)c4ccc([nH]4)c(-c4ccc(S(=O)(=O)[O-])cc4)c4nc(c(-c5ccc(S(=O)(=O)[O-])cc5)c5ccc2[nH]5)C=C4)C=C3)cc1
REMARK SMILES IDX 23 1 22 2 21 3 20 4 19 5 17 6 18 7 16 8 12 9 13 10 14 11
REMARK SMILES IDX 15 12 3 13 2 14 1 15 4 16 5 17 6 18 7 20 8 21 11 22 9 23
REMARK SMILES IDX 10 24 24 25 25 26 26 27 27 28 28 29 29 30 30 31 31 32 32 33
REMARK SMILES IDX 90 34 33 35 89 36 34 37 35 38 36 39 83 40 37 41 88 42 82 43
REMARK SMILES IDX 84 44 38 45 87 46 81 47 80 48 39 50 69 51 50 52 68 53 51 54
REMARK SMILES IDX 54 55 67 56 85 57 52 58 53 59 66 61 86 62 55 63 40 64 41 65
REMARK SMILES IDX 49 66 42 67 48 68 43 69 44 70 45 71 46 72 47 73 70 74 71 75
REMARK SMILES IDX 79 76 72 77 78 78 73 79 74 80 75 81 76 82 77 83 56 84 57 85
REMARK SMILES IDX 65 86 58 87 64 88 59 89 60 90 61 91 62 92 63 93
REMARK H PARENT 6 19 84 49 54 60
REMARK Flexibility Score: inf
ROOT
ATOM      1  C   UNL A   1      38.131  22.332  25.774  1.00  0.00     0.188 C 
ENDROOT
BRANCH   1   2
ATOM      2  O   UNL A   1      37.713  22.019  24.456  1.00  0.00    -0.376 OA
BRANCH   2   3
ATOM      3  C   UNL A   1      36.409  22.421  24.045  1.00  0.00     0.202 C 
BRANCH   3   4
ATOM      4  C   UNL A   1      35.941  23.860  24.305  1.00  0.00     0.261 C 
BRANCH   4   5
ATOM      5  O   UNL A   1      34.910  23.953  25.305  1.00  0.00    -0.463 OA
BRANCH   5   6
ATOM      6  C   UNL A   1      33.803  24.646  24.951  1.00  0.00     0.313 C 
ATOM      7  O   UNL A   1      33.838  25.637  24.226  1.00  0.00    -0.252 OA
BRANCH   6   8
ATOM      8  C   UNL A   1      32.481  24.027  25.373  1.00  0.00     0.150 C 
ATOM      9  C   UNL A   1      31.804  22.735  24.874  1.00  0.00     0.129 C 
ATOM     10  C   UNL A   1      31.080  22.209  26.123  1.00  0.00     0.186 C 
ATOM     11  O   UNL A   1      31.439  23.001  27.252  1.00  0.00    -0.378 OA
ATOM     12  C   UNL A   1      32.535  23.834  26.879  1.00  0.00     0.177 C 
BRANCH   9  13
ATOM     13  N   UNL A   1      32.505  21.659  24.125  1.00  0.00    -0.319 N 
BRANCH  13  14
ATOM     14  C   UNL A   1      32.278  21.684  22.666  1.00  0.00     0.118 C 
ATOM     15  C   UNL A   1      32.949  22.860  21.961  1.00  0.00     0.027 C 
ENDBRANCH  13  14
BRANCH  13  16
ATOM     16  C   UNL A   1      33.196  20.718  24.831  1.00  0.00     0.318 C 
ATOM     17  O   UNL A   1      34.012  21.033  25.702  1.00  0.00    -0.249 OA
ATOM     18  N   UNL A   1      33.090  19.393  24.649  1.00  0.00    -0.333 N 
ATOM     19  H   UNL A   1      33.854  18.917  25.045  1.00  0.00     0.165 HD
BRANCH  18  20
ATOM     20  C   UNL A   1      32.151  18.460  24.026  1.00  0.00     0.112 C 
ATOM     21  C   UNL A   1      32.252  17.112  24.706  1.00  0.00     0.056 C 
ATOM     22  C   UNL A   1      32.592  18.076  22.610  1.00  0.00     0.185 C 
ATOM     23  C   UNL A   1      33.526  16.560  24.100  1.00  0.00     0.162 C 
ATOM     24  O   UNL A   1      33.563  17.021  22.742  1.00  0.00    -0.379 OA
ENDBRANCH  18  20
ENDBRANCH  13  16
ENDBRANCH   9  13
ENDBRANCH   6   8
ENDBRANCH   5   6
ENDBRANCH   4   5
ENDBRANCH   3   4
ENDBRANCH   2   3
ENDBRANCH   1   2
BRANCH   1  25
ATOM     25  C   UNL A   1      39.467  21.764  26.277  1.00  0.00     0.188 C 
BRANCH  25  26
ATOM     26  O   UNL A   1      39.857  20.477  25.871  1.00  0.00    -0.376 OA
BRANCH  26  27
ATOM     27  C   UNL A   1      41.095  19.912  26.252  1.00  0.00     0.202 C 
BRANCH  27  28
ATOM     28  C   UNL A   1      42.493  20.469  25.931  1.00  0.00     0.261 C 
BRANCH  28  29
ATOM     29  O   UNL A   1      42.928  21.651  26.594  1.00  0.00    -0.460 OA
BRANCH  29  30
ATOM     30  C   UNL A   1      42.945  22.783  25.843  1.00  0.00     0.338 C 
ATOM     31  O   UNL A   1      42.974  22.858  24.631  1.00  0.00    -0.246 OA
BRANCH  30  32
ATOM     32  C   UNL A   1      42.648  23.908  26.757  1.00  0.00     0.060 A 
ATOM     33  C   UNL A   1      43.228  25.159  26.498  1.00  0.00     0.016 A 
ATOM     34  C   UNL A   1      41.767  23.741  27.827  1.00  0.00     0.016 A 
ATOM     35  C   UNL A   1      42.940  26.246  27.322  1.00  0.00     0.010 A 
ATOM     36  C   UNL A   1      41.502  24.824  28.667  1.00  0.00     0.010 A 
ATOM     37  C   UNL A   1      42.107  26.072  28.434  1.00  0.00    -0.014 A 
BRANCH  37  38
ATOM     38  C   UNL A   1      42.030  27.125  29.472  1.00  0.00     0.031 A 
ATOM     39  C   UNL A   1      43.023  27.077  30.600  1.00  0.00     0.074 A 
ATOM     40  C   UNL A   1      41.100  28.096  29.424  1.00  0.00     0.049 A 
ATOM     41  N   UNL A   1      43.103  27.827  31.667  1.00  0.00    -0.248 NA
ATOM     42  C   UNL A   1      44.063  26.036  30.514  1.00  0.00     0.031 C 
ATOM     43  C   UNL A   1      40.115  28.278  28.359  1.00  0.00     0.029 A 
ATOM     44  N   UNL A   1      40.829  29.109  30.310  1.00  0.00    -0.354 N 
ATOM     45  C   UNL A   1      44.187  27.340  32.388  1.00  0.00     0.074 A 
ATOM     46  C   UNL A   1      44.720  26.216  31.649  1.00  0.00     0.031 C 
ATOM     47  C   UNL A   1      39.335  29.331  28.664  1.00  0.00     0.029 A 
ATOM     48  C   UNL A   1      39.739  29.870  29.962  1.00  0.00     0.049 A 
ATOM     49  H   UNL A   1      41.365  29.274  31.120  1.00  0.00     0.167 HD
ATOM     50  C   UNL A   1      44.693  27.787  33.559  1.00  0.00     0.031 A 
ATOM     51  C   UNL A   1      39.121  30.866  30.630  1.00  0.00     0.031 A 
ATOM     52  C   UNL A   1      44.152  28.897  34.296  1.00  0.00     0.049 A 
ATOM     53  C   UNL A   1      39.658  31.298  31.973  1.00  0.00     0.074 A 
ATOM     54  C   UNL A   1      44.605  29.440  35.486  1.00  0.00     0.029 A 
ATOM     55  N   UNL A   1      43.033  29.625  33.923  1.00  0.00    -0.354 N 
ATOM     56  N   UNL A   1      40.701  30.846  32.630  1.00  0.00    -0.248 NA
ATOM     57  C   UNL A   1      38.938  32.379  32.661  1.00  0.00     0.031 C 
ATOM     58  C   UNL A   1      43.722  30.454  35.866  1.00  0.00     0.029 A 
ATOM     59  C   UNL A   1      42.763  30.594  34.875  1.00  0.00     0.049 A 
ATOM     60  H   UNL A   1      42.509  29.477  33.103  1.00  0.00     0.167 HD
ATOM     61  C   UNL A   1      40.780  31.613  33.790  1.00  0.00     0.074 A 
ATOM     62  C   UNL A   1      39.689  32.563  33.738  1.00  0.00     0.031 C 
ATOM     63  C   UNL A   1      41.676  31.538  34.806  1.00  0.00     0.031 A 
BRANCH  50  64
ATOM     64  C   UNL A   1      45.872  27.051  34.139  1.00  0.00    -0.014 A 
ATOM     65  C   UNL A   1      45.697  25.947  34.992  1.00  0.00     0.010 A 
ATOM     66  C   UNL A   1      47.176  27.444  33.785  1.00  0.00     0.010 A 
ATOM     67  C   UNL A   1      46.806  25.267  35.503  1.00  0.00     0.020 A 
ATOM     68  C   UNL A   1      48.286  26.748  34.268  1.00  0.00     0.020 A 
ATOM     69  C   UNL A   1      48.094  25.672  35.135  1.00  0.00     0.054 A 
BRANCH  69  70
ATOM     70  S   UNL A   1      49.512  24.744  35.781  1.00  0.00     0.124 S 
ATOM     71  O   UNL A   1      48.939  24.102  36.961  1.00  0.00    -0.237 OA
ATOM     72  O   UNL A   1      49.837  23.848  34.674  1.00  0.00    -0.237 OA
ATOM     73  O   UNL A   1      50.507  25.777  36.058  1.00  0.00    -0.744 OA
ENDBRANCH  69  70
ENDBRANCH  50  64
BRANCH  51  74
ATOM     74  C   UNL A   1      37.903  31.509  30.061  1.00  0.00    -0.014 A 
ATOM     75  C   UNL A   1      36.618  31.086  30.445  1.00  0.00     0.010 A 
ATOM     76  C   UNL A   1      38.024  32.538  29.109  1.00  0.00     0.010 A 
ATOM     77  C   UNL A   1      35.480  31.662  29.870  1.00  0.00     0.020 A 
ATOM     78  C   UNL A   1      36.889  33.138  28.555  1.00  0.00     0.020 A 
ATOM     79  C   UNL A   1      35.624  32.685  28.929  1.00  0.00     0.054 A 
BRANCH  79  80
ATOM     80  S   UNL A   1      34.132  33.440  28.223  1.00  0.00     0.124 S 
ATOM     81  O   UNL A   1      33.505  34.032  29.399  1.00  0.00    -0.237 OA
ATOM     82  O   UNL A   1      34.686  34.383  27.256  1.00  0.00    -0.237 OA
ATOM     83  O   UNL A   1      33.419  32.305  27.638  1.00  0.00    -0.744 OA
ENDBRANCH  79  80
ENDBRANCH  51  74
BRANCH  63  84
ATOM     84  C   UNL A   1      41.553  32.541  35.926  1.00  0.00    -0.014 A 
ATOM     85  C   UNL A   1      42.232  33.772  35.892  1.00  0.00     0.010 A 
ATOM     86  C   UNL A   1      40.688  32.268  37.004  1.00  0.00     0.010 A 
ATOM     87  C   UNL A   1      42.075  34.696  36.929  1.00  0.00     0.020 A 
ATOM     88  C   UNL A   1      40.502  33.203  38.025  1.00  0.00     0.020 A 
ATOM     89  C   UNL A   1      41.209  34.406  37.989  1.00  0.00     0.054 A 
BRANCH  89  90
ATOM     90  S   UNL A   1      40.988  35.640  39.299  1.00  0.00     0.124 S 
ATOM     91  O   UNL A   1      39.539  35.820  39.306  1.00  0.00    -0.237 OA
ATOM     92  O   UNL A   1      41.543  34.966  40.470  1.00  0.00    -0.237 OA
ATOM     93  O   UNL A   1      41.756  36.789  38.827  1.00  0.00    -0.744 OA
ENDBRANCH  89  90
ENDBRANCH  63  84
ENDBRANCH  37  38
ENDBRANCH  30  32
ENDBRANCH  29  30
ENDBRANCH  28  29
ENDBRANCH  27  28
ENDBRANCH  26  27
ENDBRANCH  25  26
ENDBRANCH   1  25
TORSDOF 24
ENDMDL
