MODEL 1
REMARK VINA RESULT:      -9.8      0.000      0.000
REMARK SMILES C[C@H]1SC[C@H](C(=O)OCCOCCOCCOC(=O)c2ccc(-c3c4nc(c(-c5ccc(S(=O)(=O)[O-])cc5)c5ccc([nH]5)c(-c5ccc(S(=O)(=O)[O-])cc5)c5nc(c(-c6ccc(S(=O)(=O)[O-])cc6)c6ccc3[nH]6)C=C5)C=C4)cc2)N1C(=O)[C@@H]1CSc2ccccc21
REMARK SMILES IDX 13 1 12 2 11 3 10 4 9 5 8 6 6 7 7 8 5 9 1 10 2 11 3 12 80 13
REMARK SMILES IDX 4 14 81 15 82 16 83 17 84 18 91 19 85 20 86 21 90 22 87 23
REMARK SMILES IDX 89 24 88 25 14 26 15 27 16 28 17 29 18 30 19 31 20 32 21 33
REMARK SMILES IDX 79 34 22 35 78 36 23 37 24 38 25 39 72 40 26 41 77 42 71 43
REMARK SMILES IDX 73 44 27 45 76 46 70 47 69 48 28 50 58 51 39 52 57 53 40 54
REMARK SMILES IDX 43 55 56 56 74 57 41 58 42 59 55 61 75 62 44 63 29 64 30 65
REMARK SMILES IDX 38 66 31 67 37 68 32 69 33 70 34 71 35 72 36 73 59 74 60 75
REMARK SMILES IDX 68 76 61 77 67 78 62 79 63 80 64 81 65 82 66 83 45 84 46 85
REMARK SMILES IDX 54 86 47 87 53 88 48 89 49 90 50 91 51 92 52 93
REMARK H PARENT 73 49 43 60
REMARK Flexibility Score: inf
ROOT
ATOM      1  C   UNL A   1      38.540  21.864  25.721  1.00  0.00     0.188 C 
ENDROOT
BRANCH   1   2
ATOM      2  C   UNL A   1      37.616  20.804  25.112  1.00  0.00     0.188 C 
BRANCH   2   3
ATOM      3  O   UNL A   1      36.380  21.199  24.529  1.00  0.00    -0.376 OA
BRANCH   3   4
ATOM      4  C   UNL A   1      35.146  20.697  25.023  1.00  0.00     0.202 C 
BRANCH   4   5
ATOM      5  C   UNL A   1      34.362  21.545  26.034  1.00  0.00     0.261 C 
BRANCH   5   6
ATOM      6  O   UNL A   1      33.308  22.358  25.488  1.00  0.00    -0.462 OA
BRANCH   6   7
ATOM      7  C   UNL A   1      33.532  23.704  25.494  1.00  0.00     0.329 C 
ATOM      8  O   UNL A   1      33.754  24.371  26.499  1.00  0.00    -0.250 OA
BRANCH   7   9
ATOM      9  C   UNL A   1      33.454  24.328  24.084  1.00  0.00     0.206 C 
ATOM     10  C   UNL A   1      33.604  26.873  22.325  1.00  0.00     0.043 C 
ATOM     11  C   UNL A   1      32.549  25.772  22.402  1.00  0.00     0.141 C 
ATOM     12  S   UNL A   1      33.076  24.338  21.420  1.00  0.00    -0.135 SA
ATOM     13  N   UNL A   1      32.358  25.252  23.751  1.00  0.00    -0.316 N 
ATOM     14  C   UNL A   1      33.608  23.396  22.875  1.00  0.00     0.109 C 
BRANCH  13  15
ATOM     15  C   UNL A   1      31.193  25.245  24.507  1.00  0.00     0.232 C 
ATOM     16  O   UNL A   1      30.609  24.188  24.768  1.00  0.00    -0.274 OA
BRANCH  15  17
ATOM     17  C   UNL A   1      30.486  26.527  24.942  1.00  0.00     0.120 C 
ATOM     18  C   UNL A   1      29.799  27.134  23.706  1.00  0.00     0.093 C 
ATOM     19  C   UNL A   1      31.350  27.559  25.603  1.00  0.00    -0.021 A 
ATOM     20  S   UNL A   1      30.214  28.904  23.622  1.00  0.00    -0.125 SA
ATOM     21  C   UNL A   1      31.364  28.800  24.960  1.00  0.00     0.011 A 
ATOM     22  C   UNL A   1      32.189  27.309  26.686  1.00  0.00     0.006 A 
ATOM     23  C   UNL A   1      32.322  29.746  25.282  1.00  0.00     0.015 A 
ATOM     24  C   UNL A   1      33.135  28.270  27.033  1.00  0.00     0.000 A 
ATOM     25  C   UNL A   1      33.226  29.467  26.310  1.00  0.00     0.001 A 
ENDBRANCH  15  17
ENDBRANCH  13  15
ENDBRANCH   7   9
ENDBRANCH   6   7
ENDBRANCH   5   6
ENDBRANCH   4   5
ENDBRANCH   3   4
ENDBRANCH   2   3
ENDBRANCH   1   2
BRANCH   1  26
ATOM     26  O   UNL A   1      39.667  21.352  26.391  1.00  0.00    -0.376 OA
BRANCH  26  27
ATOM     27  C   UNL A   1      40.812  22.171  26.481  1.00  0.00     0.202 C 
BRANCH  27  28
ATOM     28  C   UNL A   1      40.860  23.193  27.624  1.00  0.00     0.261 C 
BRANCH  28  29
ATOM     29  O   UNL A   1      40.856  24.584  27.252  1.00  0.00    -0.460 OA
BRANCH  29  30
ATOM     30  C   UNL A   1      39.665  25.225  27.195  1.00  0.00     0.338 C 
ATOM     31  O   UNL A   1      38.685  24.880  26.556  1.00  0.00    -0.246 OA
BRANCH  30  32
ATOM     32  C   UNL A   1      39.675  26.284  28.237  1.00  0.00     0.060 A 
ATOM     33  C   UNL A   1      40.410  27.460  28.018  1.00  0.00     0.016 A 
ATOM     34  C   UNL A   1      38.930  26.136  29.410  1.00  0.00     0.016 A 
ATOM     35  C   UNL A   1      40.412  28.481  28.977  1.00  0.00     0.010 A 
ATOM     36  C   UNL A   1      38.954  27.147  30.377  1.00  0.00     0.010 A 
ATOM     37  C   UNL A   1      39.710  28.317  30.178  1.00  0.00    -0.014 A 
BRANCH  37  38
ATOM     38  C   UNL A   1      39.889  29.266  31.310  1.00  0.00     0.031 A 
ATOM     39  C   UNL A   1      41.037  29.040  32.257  1.00  0.00     0.074 A 
ATOM     40  C   UNL A   1      39.036  30.285  31.528  1.00  0.00     0.049 A 
ATOM     41  N   UNL A   1      41.314  29.637  33.387  1.00  0.00    -0.248 NA
ATOM     42  C   UNL A   1      41.999  27.991  31.877  1.00  0.00     0.031 C 
ATOM     43  C   UNL A   1      37.915  30.654  30.666  1.00  0.00     0.029 A 
ATOM     44  N   UNL A   1      38.972  31.186  32.565  1.00  0.00    -0.354 N 
ATOM     45  C   UNL A   1      42.466  29.023  33.866  1.00  0.00     0.074 A 
ATOM     46  C   UNL A   1      42.827  27.998  32.912  1.00  0.00     0.031 C 
ATOM     47  C   UNL A   1      37.259  31.689  31.224  1.00  0.00     0.029 A 
ATOM     48  C   UNL A   1      37.884  32.024  32.503  1.00  0.00     0.049 A 
ATOM     49  H   UNL A   1      39.641  31.225  33.286  1.00  0.00     0.167 HD
ATOM     50  C   UNL A   1      43.157  29.283  35.001  1.00  0.00     0.031 A 
ATOM     51  C   UNL A   1      37.422  32.931  33.390  1.00  0.00     0.031 A 
ATOM     52  C   UNL A   1      42.790  30.291  35.960  1.00  0.00     0.049 A 
ATOM     53  C   UNL A   1      38.159  33.143  34.691  1.00  0.00     0.074 A 
ATOM     54  C   UNL A   1      43.441  30.640  37.130  1.00  0.00     0.029 A 
ATOM     55  N   UNL A   1      41.669  31.100  35.870  1.00  0.00    -0.354 N 
ATOM     56  N   UNL A   1      39.259  32.572  35.120  1.00  0.00    -0.248 NA
ATOM     57  C   UNL A   1      37.589  34.125  35.627  1.00  0.00     0.031 C 
ATOM     58  C   UNL A   1      42.677  31.612  37.781  1.00  0.00     0.029 A 
ATOM     59  C   UNL A   1      41.589  31.923  36.981  1.00  0.00     0.049 A 
ATOM     60  H   UNL A   1      41.023  31.091  35.127  1.00  0.00     0.167 HD
ATOM     61  C   UNL A   1      39.527  33.146  36.361  1.00  0.00     0.074 A 
ATOM     62  C   UNL A   1      38.484  34.119  36.606  1.00  0.00     0.031 C 
ATOM     63  C   UNL A   1      40.547  32.891  37.218  1.00  0.00     0.031 A 
BRANCH  50  64
ATOM     64  C   UNL A   1      44.363  28.429  35.292  1.00  0.00    -0.014 A 
ATOM     65  C   UNL A   1      44.302  27.361  36.205  1.00  0.00     0.010 A 
ATOM     66  C   UNL A   1      45.568  28.674  34.607  1.00  0.00     0.010 A 
ATOM     67  C   UNL A   1      45.433  26.579  36.455  1.00  0.00     0.020 A 
ATOM     68  C   UNL A   1      46.692  27.876  34.831  1.00  0.00     0.020 A 
ATOM     69  C   UNL A   1      46.621  26.841  35.766  1.00  0.00     0.054 A 
BRANCH  69  70
ATOM     70  S   UNL A   1      48.065  25.794  36.093  1.00  0.00     0.124 S 
ATOM     71  O   UNL A   1      48.522  26.305  37.382  1.00  0.00    -0.237 OA
ATOM     72  O   UNL A   1      47.486  24.452  36.118  1.00  0.00    -0.237 OA
ATOM     73  O   UNL A   1      48.954  26.065  34.965  1.00  0.00    -0.744 OA
ENDBRANCH  69  70
ENDBRANCH  50  64
BRANCH  51  74
ATOM     74  C   UNL A   1      36.168  33.687  33.104  1.00  0.00    -0.014 A 
ATOM     75  C   UNL A   1      34.908  33.103  33.331  1.00  0.00     0.010 A 
ATOM     76  C   UNL A   1      36.227  34.993  32.582  1.00  0.00     0.010 A 
ATOM     77  C   UNL A   1      33.736  33.802  33.028  1.00  0.00     0.020 A 
ATOM     78  C   UNL A   1      35.057  35.707  32.307  1.00  0.00     0.020 A 
ATOM     79  C   UNL A   1      33.818  35.102  32.522  1.00  0.00     0.054 A 
BRANCH  79  80
ATOM     80  S   UNL A   1      32.281  36.007  32.184  1.00  0.00     0.124 S 
ATOM     81  O   UNL A   1      32.373  36.237  30.746  1.00  0.00    -0.237 OA
ATOM     82  O   UNL A   1      31.257  35.056  32.609  1.00  0.00    -0.237 OA
ATOM     83  O   UNL A   1      32.397  37.202  33.017  1.00  0.00    -0.744 OA
ENDBRANCH  79  80
ENDBRANCH  51  74
BRANCH  63  84
ATOM     84  C   UNL A   1      40.620  33.699  38.491  1.00  0.00    -0.014 A 
ATOM     85  C   UNL A   1      41.300  34.929  38.542  1.00  0.00     0.010 A 
ATOM     86  C   UNL A   1      39.932  33.252  39.635  1.00  0.00     0.010 A 
ATOM     87  C   UNL A   1      41.314  35.681  39.720  1.00  0.00     0.020 A 
ATOM     88  C   UNL A   1      39.917  34.017  40.805  1.00  0.00     0.020 A 
ATOM     89  C   UNL A   1      40.620  35.222  40.844  1.00  0.00     0.054 A 
BRANCH  89  90
ATOM     90  S   UNL A   1      40.611  36.243  42.343  1.00  0.00     0.124 S 
ATOM     91  O   UNL A   1      41.689  35.645  43.126  1.00  0.00    -0.237 OA
ATOM     92  O   UNL A   1      40.878  37.580  41.822  1.00  0.00    -0.237 OA
ATOM     93  O   UNL A   1      39.268  36.050  42.887  1.00  0.00    -0.744 OA
ENDBRANCH  89  90
ENDBRANCH  63  84
ENDBRANCH  37  38
ENDBRANCH  30  32
ENDBRANCH  29  30
ENDBRANCH  28  29
ENDBRANCH  27  28
ENDBRANCH  26  27
ENDBRANCH   1  26
TORSDOF 22
ENDMDL
MODEL 2
REMARK VINA RESULT:      -9.7      1.833      8.057
REMARK SMILES C[C@H]1SC[C@H](C(=O)OCCOCCOCCOC(=O)c2ccc(-c3c4nc(c(-c5ccc(S(=O)(=O)[O-])cc5)c5ccc([nH]5)c(-c5ccc(S(=O)(=O)[O-])cc5)c5nc(c(-c6ccc(S(=O)(=O)[O-])cc6)c6ccc3[nH]6)C=C5)C=C4)cc2)N1C(=O)[C@@H]1CSc2ccccc21
REMARK SMILES IDX 13 1 12 2 11 3 10 4 9 5 8 6 6 7 7 8 5 9 1 10 2 11 3 12 80 13
REMARK SMILES IDX 4 14 81 15 82 16 83 17 84 18 91 19 85 20 86 21 90 22 87 23
REMARK SMILES IDX 89 24 88 25 14 26 15 27 16 28 17 29 18 30 19 31 20 32 21 33
REMARK SMILES IDX 79 34 22 35 78 36 23 37 24 38 25 39 72 40 26 41 77 42 71 43
REMARK SMILES IDX 73 44 27 45 76 46 70 47 69 48 28 50 58 51 39 52 57 53 40 54
REMARK SMILES IDX 43 55 56 56 74 57 41 58 42 59 55 61 75 62 44 63 29 64 30 65
REMARK SMILES IDX 38 66 31 67 37 68 32 69 33 70 34 71 35 72 36 73 59 74 60 75
REMARK SMILES IDX 68 76 61 77 67 78 62 79 63 80 64 81 65 82 66 83 45 84 46 85
REMARK SMILES IDX 54 86 47 87 53 88 48 89 49 90 50 91 51 92 52 93
REMARK H PARENT 73 49 43 60
REMARK Flexibility Score: inf
ROOT
ATOM      1  C   UNL A   1      40.078  22.412  27.132  1.00  0.00     0.188 C 
ENDROOT
BRANCH   1   2
ATOM      2  C   UNL A   1      39.200  21.685  26.108  1.00  0.00     0.188 C 
BRANCH   2   3
ATOM      3  O   UNL A   1      38.256  22.423  25.340  1.00  0.00    -0.376 OA
BRANCH   3   4
ATOM      4  C   UNL A   1      36.927  21.953  25.168  1.00  0.00     0.202 C 
BRANCH   4   5
ATOM      5  C   UNL A   1      35.847  22.952  24.729  1.00  0.00     0.261 C 
BRANCH   5   6
ATOM      6  O   UNL A   1      35.855  24.222  25.406  1.00  0.00    -0.462 OA
BRANCH   6   7
ATOM      7  C   UNL A   1      34.641  24.828  25.546  1.00  0.00     0.329 C 
ATOM      8  O   UNL A   1      34.475  25.982  25.927  1.00  0.00    -0.250 OA
BRANCH   7   9
ATOM      9  C   UNL A   1      33.464  23.893  25.194  1.00  0.00     0.206 C 
ATOM     10  C   UNL A   1      32.183  21.929  23.169  1.00  0.00     0.043 C 
ATOM     11  C   UNL A   1      31.606  23.152  23.876  1.00  0.00     0.141 C 
ATOM     12  S   UNL A   1      31.076  22.706  25.555  1.00  0.00    -0.135 SA
ATOM     13  N   UNL A   1      32.580  24.222  24.064  1.00  0.00    -0.316 N 
ATOM     14  C   UNL A   1      32.545  23.431  26.333  1.00  0.00     0.109 C 
BRANCH  13  15
ATOM     15  C   UNL A   1      32.519  25.525  23.589  1.00  0.00     0.232 C 
ATOM     16  O   UNL A   1      33.520  26.080  23.120  1.00  0.00    -0.274 OA
BRANCH  15  17
ATOM     17  C   UNL A   1      31.276  26.399  23.737  1.00  0.00     0.120 C 
ATOM     18  C   UNL A   1      31.019  27.094  22.389  1.00  0.00     0.093 C 
ATOM     19  C   UNL A   1      31.319  27.419  24.835  1.00  0.00    -0.021 A 
ATOM     20  S   UNL A   1      30.742  28.867  22.691  1.00  0.00    -0.125 SA
ATOM     21  C   UNL A   1      31.150  28.738  24.407  1.00  0.00     0.011 A 
ATOM     22  C   UNL A   1      31.635  27.136  26.162  1.00  0.00     0.006 A 
ATOM     23  C   UNL A   1      31.449  29.794  25.251  1.00  0.00     0.015 A 
ATOM     24  C   UNL A   1      31.908  28.196  27.024  1.00  0.00     0.000 A 
ATOM     25  C   UNL A   1      31.851  29.517  26.559  1.00  0.00     0.001 A 
ENDBRANCH  15  17
ENDBRANCH  13  15
ENDBRANCH   7   9
ENDBRANCH   6   7
ENDBRANCH   5   6
ENDBRANCH   4   5
ENDBRANCH   3   4
ENDBRANCH   2   3
ENDBRANCH   1   2
BRANCH   1  26
ATOM     26  O   UNL A   1      41.449  22.102  27.061  1.00  0.00    -0.376 OA
BRANCH  26  27
ATOM     27  C   UNL A   1      42.143  22.439  25.880  1.00  0.00     0.202 C 
BRANCH  27  28
ATOM     28  C   UNL A   1      42.660  23.878  25.752  1.00  0.00     0.261 C 
BRANCH  28  29
ATOM     29  O   UNL A   1      41.684  24.931  25.862  1.00  0.00    -0.460 OA
BRANCH  29  30
ATOM     30  C   UNL A   1      42.118  26.212  25.797  1.00  0.00     0.338 C 
ATOM     31  O   UNL A   1      42.397  26.833  24.786  1.00  0.00    -0.246 OA
BRANCH  30  32
ATOM     32  C   UNL A   1      41.961  26.807  27.149  1.00  0.00     0.060 A 
ATOM     33  C   UNL A   1      40.996  26.285  28.026  1.00  0.00     0.016 A 
ATOM     34  C   UNL A   1      42.789  27.851  27.567  1.00  0.00     0.016 A 
ATOM     35  C   UNL A   1      40.850  26.816  29.314  1.00  0.00     0.010 A 
ATOM     36  C   UNL A   1      42.624  28.396  28.846  1.00  0.00     0.010 A 
ATOM     37  C   UNL A   1      41.641  27.898  29.721  1.00  0.00    -0.014 A 
BRANCH  37  38
ATOM     38  C   UNL A   1      41.346  28.637  30.977  1.00  0.00     0.031 A 
ATOM     39  C   UNL A   1      40.207  29.621  30.977  1.00  0.00     0.074 A 
ATOM     40  C   UNL A   1      42.090  28.478  32.089  1.00  0.00     0.049 A 
ATOM     41  N   UNL A   1      39.850  30.481  31.895  1.00  0.00    -0.248 NA
ATOM     42  C   UNL A   1      39.362  29.640  29.771  1.00  0.00     0.031 C 
ATOM     43  C   UNL A   1      43.186  27.525  32.249  1.00  0.00     0.029 A 
ATOM     44  N   UNL A   1      42.044  29.142  33.293  1.00  0.00    -0.354 N 
ATOM     45  C   UNL A   1      38.755  31.160  31.371  1.00  0.00     0.074 A 
ATOM     46  C   UNL A   1      38.516  30.622  30.050  1.00  0.00     0.031 C 
ATOM     47  C   UNL A   1      43.725  27.684  33.473  1.00  0.00     0.029 A 
ATOM     48  C   UNL A   1      43.044  28.779  34.163  1.00  0.00     0.049 A 
ATOM     49  H   UNL A   1      41.359  29.816  33.510  1.00  0.00     0.167 HD
ATOM     50  C   UNL A   1      38.018  32.146  31.935  1.00  0.00     0.031 A 
ATOM     51  C   UNL A   1      43.397  29.294  35.361  1.00  0.00     0.031 A 
ATOM     52  C   UNL A   1      38.265  32.695  33.242  1.00  0.00     0.049 A 
ATOM     53  C   UNL A   1      42.616  30.453  35.932  1.00  0.00     0.074 A 
ATOM     54  C   UNL A   1      37.559  33.684  33.905  1.00  0.00     0.029 A 
ATOM     55  N   UNL A   1      39.303  32.316  34.078  1.00  0.00    -0.354 N 
ATOM     56  N   UNL A   1      41.569  31.069  35.436  1.00  0.00    -0.248 NA
ATOM     57  C   UNL A   1      43.067  30.987  37.227  1.00  0.00     0.031 C 
ATOM     58  C   UNL A   1      38.210  33.949  35.113  1.00  0.00     0.029 A 
ATOM     59  C   UNL A   1      39.277  33.075  35.237  1.00  0.00     0.049 A 
ATOM     60  H   UNL A   1      39.961  31.611  33.879  1.00  0.00     0.167 HD
ATOM     61  C   UNL A   1      41.221  32.041  36.372  1.00  0.00     0.074 A 
ATOM     62  C   UNL A   1      42.157  31.921  37.468  1.00  0.00     0.031 C 
ATOM     63  C   UNL A   1      40.214  32.949  36.325  1.00  0.00     0.031 A 
BRANCH  50  64
ATOM     64  C   UNL A   1      36.897  32.732  31.117  1.00  0.00    -0.014 A 
ATOM     65  C   UNL A   1      35.557  32.378  31.350  1.00  0.00     0.010 A 
ATOM     66  C   UNL A   1      37.189  33.686  30.124  1.00  0.00     0.010 A 
ATOM     67  C   UNL A   1      34.533  32.939  30.581  1.00  0.00     0.020 A 
ATOM     68  C   UNL A   1      36.167  34.272  29.374  1.00  0.00     0.020 A 
ATOM     69  C   UNL A   1      34.845  33.883  29.598  1.00  0.00     0.054 A 
BRANCH  69  70
ATOM     70  S   UNL A   1      33.494  34.612  28.633  1.00  0.00     0.124 S 
ATOM     71  O   UNL A   1      32.531  34.955  29.676  1.00  0.00    -0.237 OA
ATOM     72  O   UNL A   1      34.144  35.747  27.982  1.00  0.00    -0.237 OA
ATOM     73  O   UNL A   1      33.084  33.533  27.737  1.00  0.00    -0.744 OA
ENDBRANCH  69  70
ENDBRANCH  50  64
BRANCH  51  74
ATOM     74  C   UNL A   1      44.575  28.747  36.093  1.00  0.00    -0.014 A 
ATOM     75  C   UNL A   1      45.865  29.259  35.865  1.00  0.00     0.010 A 
ATOM     76  C   UNL A   1      44.415  27.692  37.013  1.00  0.00     0.010 A 
ATOM     77  C   UNL A   1      46.972  28.718  36.528  1.00  0.00     0.020 A 
ATOM     78  C   UNL A   1      45.515  27.170  37.701  1.00  0.00     0.020 A 
ATOM     79  C   UNL A   1      46.789  27.680  37.445  1.00  0.00     0.054 A 
BRANCH  79  80
ATOM     80  S   UNL A   1      48.234  27.030  38.330  1.00  0.00     0.124 S 
ATOM     81  O   UNL A   1      47.778  27.053  39.717  1.00  0.00    -0.237 OA
ATOM     82  O   UNL A   1      48.394  25.705  37.738  1.00  0.00    -0.237 OA
ATOM     83  O   UNL A   1      49.293  27.983  38.005  1.00  0.00    -0.744 OA
ENDBRANCH  79  80
ENDBRANCH  51  74
BRANCH  63  84
ATOM     84  C   UNL A   1      40.036  33.867  37.510  1.00  0.00    -0.014 A 
ATOM     85  C   UNL A   1      40.704  35.102  37.589  1.00  0.00     0.010 A 
ATOM     86  C   UNL A   1      39.128  33.517  38.528  1.00  0.00     0.010 A 
ATOM     87  C   UNL A   1      40.488  35.955  38.676  1.00  0.00     0.020 A 
ATOM     88  C   UNL A   1      38.886  34.382  39.599  1.00  0.00     0.020 A 
ATOM     89  C   UNL A   1      39.578  35.591  39.672  1.00  0.00     0.054 A 
BRANCH  89  90
ATOM     90  S   UNL A   1      39.276  36.741  41.043  1.00  0.00     0.124 S 
ATOM     91  O   UNL A   1      40.634  37.058  41.478  1.00  0.00    -0.237 OA
ATOM     92  O   UNL A   1      38.552  37.830  40.394  1.00  0.00    -0.237 OA
ATOM     93  O   UNL A   1      38.489  35.954  41.990  1.00  0.00    -0.744 OA
ENDBRANCH  89  90
ENDBRANCH  63  84
ENDBRANCH  37  38
ENDBRANCH  30  32
ENDBRANCH  29  30
ENDBRANCH  28  29
ENDBRANCH  27  28
ENDBRANCH  26  27
ENDBRANCH   1  26
TORSDOF 22
ENDMDL
MODEL 3
REMARK VINA RESULT:      -9.6      6.845      9.087
REMARK SMILES C[C@H]1SC[C@H](C(=O)OCCOCCOCCOC(=O)c2ccc(-c3c4nc(c(-c5ccc(S(=O)(=O)[O-])cc5)c5ccc([nH]5)c(-c5ccc(S(=O)(=O)[O-])cc5)c5nc(c(-c6ccc(S(=O)(=O)[O-])cc6)c6ccc3[nH]6)C=C5)C=C4)cc2)N1C(=O)[C@@H]1CSc2ccccc21
REMARK SMILES IDX 13 1 12 2 11 3 10 4 9 5 8 6 6 7 7 8 5 9 1 10 2 11 3 12 80 13
REMARK SMILES IDX 4 14 81 15 82 16 83 17 84 18 91 19 85 20 86 21 90 22 87 23
REMARK SMILES IDX 89 24 88 25 14 26 15 27 16 28 17 29 18 30 19 31 20 32 21 33
REMARK SMILES IDX 79 34 22 35 78 36 23 37 24 38 25 39 72 40 26 41 77 42 71 43
REMARK SMILES IDX 73 44 27 45 76 46 70 47 69 48 28 50 58 51 39 52 57 53 40 54
REMARK SMILES IDX 43 55 56 56 74 57 41 58 42 59 55 61 75 62 44 63 29 64 30 65
REMARK SMILES IDX 38 66 31 67 37 68 32 69 33 70 34 71 35 72 36 73 59 74 60 75
REMARK SMILES IDX 68 76 61 77 67 78 62 79 63 80 64 81 65 82 66 83 45 84 46 85
REMARK SMILES IDX 54 86 47 87 53 88 48 89 49 90 50 91 51 92 52 93
REMARK H PARENT 73 49 43 60
REMARK Flexibility Score: inf
ROOT
ATOM      1  C   UNL A   1      41.216  22.058  26.373  1.00  0.00     0.188 C 
ENDROOT
BRANCH   1   2
ATOM      2  C   UNL A   1      39.763  22.474  26.622  1.00  0.00     0.188 C 
BRANCH   2   3
ATOM      3  O   UNL A   1      38.704  21.687  26.089  1.00  0.00    -0.376 OA
BRANCH   3   4
ATOM      4  C   UNL A   1      37.613  22.293  25.410  1.00  0.00     0.202 C 
BRANCH   4   5
ATOM      5  C   UNL A   1      37.190  23.710  25.821  1.00  0.00     0.261 C 
BRANCH   5   6
ATOM      6  O   UNL A   1      35.791  24.014  25.677  1.00  0.00    -0.462 OA
BRANCH   6   7
ATOM      7  C   UNL A   1      34.935  23.211  26.372  1.00  0.00     0.329 C 
ATOM      8  O   UNL A   1      34.950  23.060  27.589  1.00  0.00    -0.250 OA
BRANCH   7   9
ATOM      9  C   UNL A   1      33.933  22.473  25.457  1.00  0.00     0.206 C 
ATOM     10  C   UNL A   1      32.274  22.469  22.842  1.00  0.00     0.043 C 
ATOM     11  C   UNL A   1      31.861  22.203  24.287  1.00  0.00     0.141 C 
ATOM     12  S   UNL A   1      32.262  20.490  24.741  1.00  0.00    -0.135 SA
ATOM     13  N   UNL A   1      32.584  23.023  25.253  1.00  0.00    -0.316 N 
ATOM     14  C   UNL A   1      33.751  20.963  25.660  1.00  0.00     0.109 C 
BRANCH  13  15
ATOM     15  C   UNL A   1      32.060  23.929  26.166  1.00  0.00     0.232 C 
ATOM     16  O   UNL A   1      31.770  23.579  27.315  1.00  0.00    -0.274 OA
BRANCH  15  17
ATOM     17  C   UNL A   1      31.680  25.357  25.784  1.00  0.00     0.120 C 
ATOM     18  C   UNL A   1      30.147  25.471  25.834  1.00  0.00     0.093 C 
ATOM     19  C   UNL A   1      32.182  25.836  24.455  1.00  0.00    -0.021 A 
ATOM     20  S   UNL A   1      29.572  26.265  24.301  1.00  0.00    -0.125 SA
ATOM     21  C   UNL A   1      31.181  26.242  23.569  1.00  0.00     0.011 A 
ATOM     22  C   UNL A   1      33.511  25.770  24.043  1.00  0.00     0.006 A 
ATOM     23  C   UNL A   1      31.465  26.432  22.227  1.00  0.00     0.015 A 
ATOM     24  C   UNL A   1      33.807  25.989  22.700  1.00  0.00     0.000 A 
ATOM     25  C   UNL A   1      32.783  26.282  21.790  1.00  0.00     0.001 A 
ENDBRANCH  15  17
ENDBRANCH  13  15
ENDBRANCH   7   9
ENDBRANCH   6   7
ENDBRANCH   5   6
ENDBRANCH   4   5
ENDBRANCH   3   4
ENDBRANCH   2   3
ENDBRANCH   1   2
BRANCH   1  26
ATOM     26  O   UNL A   1      41.670  20.990  27.169  1.00  0.00    -0.376 OA
BRANCH  26  27
ATOM     27  C   UNL A   1      41.438  19.677  26.710  1.00  0.00     0.202 C 
BRANCH  27  28
ATOM     28  C   UNL A   1      42.584  18.976  25.968  1.00  0.00     0.261 C 
BRANCH  28  29
ATOM     29  O   UNL A   1      43.100  19.636  24.797  1.00  0.00    -0.460 OA
BRANCH  29  30
ATOM     30  C   UNL A   1      44.443  19.750  24.670  1.00  0.00     0.338 C 
ATOM     31  O   UNL A   1      45.203  18.910  24.218  1.00  0.00    -0.246 OA
BRANCH  30  32
ATOM     32  C   UNL A   1      44.801  21.165  24.947  1.00  0.00     0.060 A 
ATOM     33  C   UNL A   1      45.212  21.534  26.238  1.00  0.00     0.016 A 
ATOM     34  C   UNL A   1      44.770  22.119  23.927  1.00  0.00     0.016 A 
ATOM     35  C   UNL A   1      45.578  22.858  26.513  1.00  0.00     0.010 A 
ATOM     36  C   UNL A   1      45.112  23.446  24.210  1.00  0.00     0.010 A 
ATOM     37  C   UNL A   1      45.498  23.831  25.508  1.00  0.00    -0.014 A 
BRANCH  37  38
ATOM     38  C   UNL A   1      45.641  25.277  25.824  1.00  0.00     0.031 A 
ATOM     39  C   UNL A   1      47.018  25.884  25.785  1.00  0.00     0.074 A 
ATOM     40  C   UNL A   1      44.587  26.037  26.179  1.00  0.00     0.049 A 
ATOM     41  N   UNL A   1      47.414  27.074  26.157  1.00  0.00    -0.248 NA
ATOM     42  C   UNL A   1      48.094  25.026  25.261  1.00  0.00     0.031 C 
ATOM     43  C   UNL A   1      43.194  25.597  26.209  1.00  0.00     0.029 A 
ATOM     44  N   UNL A   1      44.536  27.342  26.608  1.00  0.00    -0.354 N 
ATOM     45  C   UNL A   1      48.786  27.102  25.934  1.00  0.00     0.074 A 
ATOM     46  C   UNL A   1      49.156  25.805  25.410  1.00  0.00     0.031 C 
ATOM     47  C   UNL A   1      42.428  26.608  26.657  1.00  0.00     0.029 A 
ATOM     48  C   UNL A   1      43.280  27.749  26.991  1.00  0.00     0.049 A 
ATOM     49  H   UNL A   1      45.325  27.930  26.639  1.00  0.00     0.167 HD
ATOM     50  C   UNL A   1      49.662  28.111  26.153  1.00  0.00     0.031 A 
ATOM     51  C   UNL A   1      42.868  28.893  27.578  1.00  0.00     0.031 A 
ATOM     52  C   UNL A   1      49.298  29.395  26.692  1.00  0.00     0.049 A 
ATOM     53  C   UNL A   1      43.875  29.972  27.895  1.00  0.00     0.074 A 
ATOM     54  C   UNL A   1      50.114  30.487  26.931  1.00  0.00     0.029 A 
ATOM     55  N   UNL A   1      48.021  29.756  27.089  1.00  0.00    -0.354 N 
ATOM     56  N   UNL A   1      45.166  29.994  27.658  1.00  0.00    -0.248 NA
ATOM     57  C   UNL A   1      43.368  31.183  28.560  1.00  0.00     0.031 C 
ATOM     58  C   UNL A   1      49.343  31.484  27.535  1.00  0.00     0.029 A 
ATOM     59  C   UNL A   1      48.032  31.042  27.604  1.00  0.00     0.049 A 
ATOM     60  H   UNL A   1      47.223  29.184  27.016  1.00  0.00     0.167 HD
ATOM     61  C   UNL A   1      45.616  31.230  28.118  1.00  0.00     0.074 A 
ATOM     62  C   UNL A   1      44.460  31.932  28.633  1.00  0.00     0.031 C 
ATOM     63  C   UNL A   1      46.875  31.736  28.113  1.00  0.00     0.031 A 
BRANCH  50  64
ATOM     64  C   UNL A   1      51.114  27.850  25.852  1.00  0.00    -0.014 A 
ATOM     65  C   UNL A   1      51.665  28.138  24.591  1.00  0.00     0.010 A 
ATOM     66  C   UNL A   1      51.952  27.347  26.865  1.00  0.00     0.010 A 
ATOM     67  C   UNL A   1      53.018  27.892  24.337  1.00  0.00     0.020 A 
ATOM     68  C   UNL A   1      53.310  27.129  26.625  1.00  0.00     0.020 A 
ATOM     69  C   UNL A   1      53.832  27.389  25.356  1.00  0.00     0.054 A 
BRANCH  69  70
ATOM     70  S   UNL A   1      55.588  27.104  25.005  1.00  0.00     0.124 S 
ATOM     71  O   UNL A   1      55.526  26.330  23.768  1.00  0.00    -0.237 OA
ATOM     72  O   UNL A   1      56.110  28.462  24.870  1.00  0.00    -0.237 OA
ATOM     73  O   UNL A   1      56.062  26.370  26.176  1.00  0.00    -0.744 OA
ENDBRANCH  69  70
ENDBRANCH  50  64
BRANCH  51  74
ATOM     74  C   UNL A   1      41.434  29.071  27.948  1.00  0.00    -0.014 A 
ATOM     75  C   UNL A   1      41.029  29.032  29.295  1.00  0.00     0.010 A 
ATOM     76  C   UNL A   1      40.459  29.260  26.950  1.00  0.00     0.010 A 
ATOM     77  C   UNL A   1      39.678  29.164  29.634  1.00  0.00     0.020 A 
ATOM     78  C   UNL A   1      39.112  29.424  27.288  1.00  0.00     0.020 A 
ATOM     79  C   UNL A   1      38.729  29.363  28.628  1.00  0.00     0.054 A 
BRANCH  79  80
ATOM     80  S   UNL A   1      36.989  29.581  29.099  1.00  0.00     0.124 S 
ATOM     81  O   UNL A   1      36.914  28.826  30.346  1.00  0.00    -0.237 OA
ATOM     82  O   UNL A   1      36.879  31.032  29.229  1.00  0.00    -0.237 OA
ATOM     83  O   UNL A   1      36.255  29.005  27.974  1.00  0.00    -0.744 OA
ENDBRANCH  79  80
ENDBRANCH  51  74
BRANCH  63  84
ATOM     84  C   UNL A   1      47.076  33.135  28.642  1.00  0.00    -0.014 A 
ATOM     85  C   UNL A   1      46.842  34.265  27.838  1.00  0.00     0.010 A 
ATOM     86  C   UNL A   1      47.436  33.321  29.991  1.00  0.00     0.010 A 
ATOM     87  C   UNL A   1      46.991  35.551  28.365  1.00  0.00     0.020 A 
ATOM     88  C   UNL A   1      47.554  34.605  30.529  1.00  0.00     0.020 A 
ATOM     89  C   UNL A   1      47.344  35.714  29.708  1.00  0.00     0.054 A 
BRANCH  89  90
ATOM     90  S   UNL A   1      47.478  37.393  30.380  1.00  0.00     0.124 S 
ATOM     91  O   UNL A   1      47.857  37.137  31.767  1.00  0.00    -0.237 OA
ATOM     92  O   UNL A   1      48.516  37.991  29.544  1.00  0.00    -0.237 OA
ATOM     93  O   UNL A   1      46.140  37.951  30.194  1.00  0.00    -0.744 OA
ENDBRANCH  89  90
ENDBRANCH  63  84
ENDBRANCH  37  38
ENDBRANCH  30  32
ENDBRANCH  29  30
ENDBRANCH  28  29
ENDBRANCH  27  28
ENDBRANCH  26  27
ENDBRANCH   1  26
TORSDOF 22
ENDMDL
