MODEL 1
REMARK VINA RESULT:     -10.2      0.000      0.000
REMARK SMILES C=C(C(=O)OCCOCCOCCOC(=O)c1ccc(-c2c3nc(c(-c4ccc(S(=O)(=O)[O-])cc4)c4ccc([nH]4)c(-c4ccc(S(=O)(=O)[O-])cc4)c4nc(c(-c5ccc(S(=O)(=O)[O-])cc5)c5ccc2[nH]5)C=C4)C=C3)cc1)[C@@H]1CC[C@]2(C)CCCC(=C)[C@H]2[C@H]1O
REMARK SMILES IDX 10 1 9 2 8 3 7 4 6 5 5 6 3 7 4 8 2 9 1 10 77 11 78 12 88 13
REMARK SMILES IDX 79 14 87 15 80 16 85 17 81 18 82 19 84 20 86 21 83 22 89 23
REMARK SMILES IDX 11 25 12 26 13 27 14 28 15 29 16 30 17 31 18 32 76 33 19 34
REMARK SMILES IDX 75 35 20 36 21 37 22 38 69 39 23 40 74 41 68 42 70 43 24 44
REMARK SMILES IDX 73 45 67 46 66 47 25 49 55 50 36 51 54 52 37 53 40 54 53 55
REMARK SMILES IDX 71 56 38 57 39 58 52 60 72 61 41 62 26 63 27 64 35 65 28 66
REMARK SMILES IDX 34 67 29 68 30 69 31 70 32 71 33 72 56 73 57 74 65 75 58 76
REMARK SMILES IDX 64 77 59 78 60 79 61 80 62 81 63 82 42 83 43 84 51 85 44 86
REMARK SMILES IDX 50 87 45 88 46 89 47 90 48 91 49 92
REMARK H PARENT 89 24 70 48 40 59
REMARK Flexibility Score: inf
ROOT
ATOM      1  C   UNL A   1      33.647  35.285  32.001  1.00  0.00     0.188 C 
ENDROOT
BRANCH   1   2
ATOM      2  C   UNL A   1      33.454  35.741  30.542  1.00  0.00     0.188 C 
BRANCH   2   3
ATOM      3  O   UNL A   1      32.493  35.000  29.799  1.00  0.00    -0.376 OA
BRANCH   3   4
ATOM      4  C   UNL A   1      32.909  34.595  28.500  1.00  0.00     0.202 C 
BRANCH   4   5
ATOM      5  C   UNL A   1      34.043  33.569  28.560  1.00  0.00     0.261 C 
BRANCH   5   6
ATOM      6  O   UNL A   1      33.757  32.365  27.828  1.00  0.00    -0.460 OA
BRANCH   6   7
ATOM      7  C   UNL A   1      34.814  31.555  27.569  1.00  0.00     0.333 C 
ATOM      8  O   UNL A   1      35.976  31.899  27.698  1.00  0.00    -0.247 OA
BRANCH   7   9
ATOM      9  C   UNL A   1      34.347  30.185  27.202  1.00  0.00     0.036 C 
ATOM     10  C   UNL A   1      35.113  29.155  27.615  1.00  0.00     0.020 C 
BRANCH   9  11
ATOM     11  C   UNL A   1      33.067  29.929  26.403  1.00  0.00     0.055 C 
ATOM     12  C   UNL A   1      31.885  29.322  27.185  1.00  0.00     0.012 C 
ATOM     13  C   UNL A   1      33.271  29.217  25.045  1.00  0.00     0.129 C 
ATOM     14  C   UNL A   1      31.905  27.801  27.310  1.00  0.00     0.008 C 
ATOM     15  C   UNL A   1      33.284  27.673  25.164  1.00  0.00     0.050 C 
ATOM     16  C   UNL A   1      32.109  27.041  25.977  1.00  0.00    -0.024 C 
ATOM     17  C   UNL A   1      33.594  26.843  23.928  1.00  0.00    -0.071 C 
ATOM     18  C   UNL A   1      30.771  27.005  25.205  1.00  0.00     0.012 C 
ATOM     19  C   UNL A   1      32.502  25.571  26.330  1.00  0.00     0.008 C 
ATOM     20  C   UNL A   1      34.000  25.427  24.276  1.00  0.00     0.031 C 
ATOM     21  C   UNL A   1      33.549  27.268  22.656  1.00  0.00     0.008 C 
ATOM     22  C   UNL A   1      32.927  24.736  25.117  1.00  0.00     0.005 C 
BRANCH  13  23
ATOM     23  O   UNL A   1      32.283  29.716  24.134  1.00  0.00    -0.392 OA
ATOM     24  H   UNL A   1      31.833  28.970  23.706  1.00  0.00     0.211 HD
ENDBRANCH  13  23
ENDBRANCH   9  11
ENDBRANCH   7   9
ENDBRANCH   6   7
ENDBRANCH   5   6
ENDBRANCH   4   5
ENDBRANCH   3   4
ENDBRANCH   2   3
ENDBRANCH   1   2
BRANCH   1  25
ATOM     25  O   UNL A   1      34.023  33.946  32.298  1.00  0.00    -0.376 OA
BRANCH  25  26
ATOM     26  C   UNL A   1      35.327  33.506  31.965  1.00  0.00     0.202 C 
BRANCH  26  27
ATOM     27  C   UNL A   1      35.605  32.003  32.053  1.00  0.00     0.261 C 
BRANCH  27  28
ATOM     28  O   UNL A   1      36.166  31.429  30.860  1.00  0.00    -0.460 OA
BRANCH  28  29
ATOM     29  C   UNL A   1      36.816  30.252  31.041  1.00  0.00     0.338 C 
ATOM     30  O   UNL A   1      36.322  29.191  31.384  1.00  0.00    -0.246 OA
BRANCH  29  31
ATOM     31  C   UNL A   1      38.234  30.362  30.627  1.00  0.00     0.060 A 
ATOM     32  C   UNL A   1      38.504  30.453  29.254  1.00  0.00     0.016 A 
ATOM     33  C   UNL A   1      39.284  30.260  31.542  1.00  0.00     0.016 A 
ATOM     34  C   UNL A   1      39.817  30.376  28.787  1.00  0.00     0.010 A 
ATOM     35  C   UNL A   1      40.602  30.165  31.070  1.00  0.00     0.010 A 
ATOM     36  C   UNL A   1      40.870  30.174  29.690  1.00  0.00    -0.014 A 
BRANCH  36  37
ATOM     37  C   UNL A   1      42.201  29.762  29.171  1.00  0.00     0.031 A 
ATOM     38  C   UNL A   1      42.377  28.349  28.676  1.00  0.00     0.074 A 
ATOM     39  C   UNL A   1      43.228  30.627  29.091  1.00  0.00     0.049 A 
ATOM     40  N   UNL A   1      43.431  27.780  28.150  1.00  0.00    -0.248 NA
ATOM     41  C   UNL A   1      41.205  27.464  28.787  1.00  0.00     0.031 C 
ATOM     42  C   UNL A   1      43.189  32.030  29.492  1.00  0.00     0.029 A 
ATOM     43  N   UNL A   1      44.512  30.440  28.639  1.00  0.00    -0.354 N 
ATOM     44  C   UNL A   1      43.052  26.473  27.865  1.00  0.00     0.074 A 
ATOM     45  C   UNL A   1      41.680  26.327  28.302  1.00  0.00     0.031 C 
ATOM     46  C   UNL A   1      44.396  32.579  29.268  1.00  0.00     0.029 A 
ATOM     47  C   UNL A   1      45.298  31.564  28.728  1.00  0.00     0.049 A 
ATOM     48  H   UNL A   1      44.839  29.582  28.283  1.00  0.00     0.167 HD
ATOM     49  C   UNL A   1      43.773  25.482  27.289  1.00  0.00     0.031 A 
ATOM     50  C   UNL A   1      46.598  31.753  28.422  1.00  0.00     0.031 A 
ATOM     51  C   UNL A   1      45.147  25.605  26.880  1.00  0.00     0.049 A 
ATOM     52  C   UNL A   1      47.407  30.610  27.863  1.00  0.00     0.074 A 
ATOM     53  C   UNL A   1      45.956  24.654  26.285  1.00  0.00     0.029 A 
ATOM     54  N   UNL A   1      45.919  26.745  27.039  1.00  0.00    -0.354 N 
ATOM     55  N   UNL A   1      47.023  29.391  27.570  1.00  0.00    -0.248 NA
ATOM     56  C   UNL A   1      48.828  30.875  27.588  1.00  0.00     0.031 C 
ATOM     57  C   UNL A   1      47.235  25.202  26.131  1.00  0.00     0.029 A 
ATOM     58  C   UNL A   1      47.205  26.512  26.579  1.00  0.00     0.049 A 
ATOM     59  H   UNL A   1      45.602  27.594  27.422  1.00  0.00     0.167 HD
ATOM     60  C   UNL A   1      48.145  28.755  27.047  1.00  0.00     0.074 A 
ATOM     61  C   UNL A   1      49.220  29.724  27.057  1.00  0.00     0.031 C 
ATOM     62  C   UNL A   1      48.271  27.481  26.593  1.00  0.00     0.031 A 
BRANCH  49  63
ATOM     63  C   UNL A   1      43.089  24.155  27.107  1.00  0.00    -0.014 A 
ATOM     64  C   UNL A   1      42.538  23.784  25.867  1.00  0.00     0.010 A 
ATOM     65  C   UNL A   1      43.004  23.261  28.191  1.00  0.00     0.010 A 
ATOM     66  C   UNL A   1      41.872  22.563  25.727  1.00  0.00     0.020 A 
ATOM     67  C   UNL A   1      42.361  22.030  28.048  1.00  0.00     0.020 A 
ATOM     68  C   UNL A   1      41.780  21.697  26.822  1.00  0.00     0.054 A 
BRANCH  68  69
ATOM     69  S   UNL A   1      40.907  20.121  26.617  1.00  0.00     0.124 S 
ATOM     70  O   UNL A   1      40.852  19.628  27.991  1.00  0.00    -0.237 OA
ATOM     71  O   UNL A   1      39.628  20.532  26.046  1.00  0.00    -0.237 OA
ATOM     72  O   UNL A   1      41.772  19.361  25.717  1.00  0.00    -0.744 OA
ENDBRANCH  68  69
ENDBRANCH  49  63
BRANCH  50  73
ATOM     73  C   UNL A   1      47.231  33.082  28.641  1.00  0.00    -0.014 A 
ATOM     74  C   UNL A   1      47.837  33.393  29.871  1.00  0.00     0.010 A 
ATOM     75  C   UNL A   1      47.212  34.053  27.623  1.00  0.00     0.010 A 
ATOM     76  C   UNL A   1      48.397  34.656  30.086  1.00  0.00     0.020 A 
ATOM     77  C   UNL A   1      47.793  35.307  27.824  1.00  0.00     0.020 A 
ATOM     78  C   UNL A   1      48.372  35.606  29.060  1.00  0.00     0.054 A 
BRANCH  78  79
ATOM     79  S   UNL A   1      49.141  37.224  29.342  1.00  0.00     0.124 S 
ATOM     80  O   UNL A   1      48.383  38.083  28.438  1.00  0.00    -0.237 OA
ATOM     81  O   UNL A   1      48.907  37.441  30.768  1.00  0.00    -0.237 OA
ATOM     82  O   UNL A   1      50.538  37.005  28.975  1.00  0.00    -0.744 OA
ENDBRANCH  78  79
ENDBRANCH  50  73
BRANCH  62  83
ATOM     83  C   UNL A   1      49.607  27.069  26.033  1.00  0.00    -0.014 A 
ATOM     84  C   UNL A   1      50.588  26.468  26.841  1.00  0.00     0.010 A 
ATOM     85  C   UNL A   1      49.865  27.245  24.660  1.00  0.00     0.010 A 
ATOM     86  C   UNL A   1      51.815  26.080  26.294  1.00  0.00     0.020 A 
ATOM     87  C   UNL A   1      51.080  26.834  24.104  1.00  0.00     0.020 A 
ATOM     88  C   UNL A   1      52.055  26.268  24.928  1.00  0.00     0.054 A 
BRANCH  88  89
ATOM     89  S   UNL A   1      53.640  25.725  24.232  1.00  0.00     0.124 S 
ATOM     90  O   UNL A   1      54.595  26.543  24.974  1.00  0.00    -0.237 OA
ATOM     91  O   UNL A   1      53.658  24.298  24.546  1.00  0.00    -0.237 OA
ATOM     92  O   UNL A   1      53.520  26.040  22.810  1.00  0.00    -0.744 OA
ENDBRANCH  88  89
ENDBRANCH  62  83
ENDBRANCH  36  37
ENDBRANCH  29  31
ENDBRANCH  28  29
ENDBRANCH  27  28
ENDBRANCH  26  27
ENDBRANCH  25  26
ENDBRANCH   1  25
TORSDOF 22
ENDMDL
MODEL 2
REMARK VINA RESULT:      -9.9      1.393      8.004
REMARK SMILES C=C(C(=O)OCCOCCOCCOC(=O)c1ccc(-c2c3nc(c(-c4ccc(S(=O)(=O)[O-])cc4)c4ccc([nH]4)c(-c4ccc(S(=O)(=O)[O-])cc4)c4nc(c(-c5ccc(S(=O)(=O)[O-])cc5)c5ccc2[nH]5)C=C4)C=C3)cc1)[C@@H]1CC[C@]2(C)CCCC(=C)[C@H]2[C@H]1O
REMARK SMILES IDX 10 1 9 2 8 3 7 4 6 5 5 6 3 7 4 8 2 9 1 10 77 11 78 12 88 13
REMARK SMILES IDX 79 14 87 15 80 16 85 17 81 18 82 19 84 20 86 21 83 22 89 23
REMARK SMILES IDX 11 25 12 26 13 27 14 28 15 29 16 30 17 31 18 32 76 33 19 34
REMARK SMILES IDX 75 35 20 36 21 37 22 38 69 39 23 40 74 41 68 42 70 43 24 44
REMARK SMILES IDX 73 45 67 46 66 47 25 49 55 50 36 51 54 52 37 53 40 54 53 55
REMARK SMILES IDX 71 56 38 57 39 58 52 60 72 61 41 62 26 63 27 64 35 65 28 66
REMARK SMILES IDX 34 67 29 68 30 69 31 70 32 71 33 72 56 73 57 74 65 75 58 76
REMARK SMILES IDX 64 77 59 78 60 79 61 80 62 81 63 82 42 83 43 84 51 85 44 86
REMARK SMILES IDX 50 87 45 88 46 89 47 90 48 91 49 92
REMARK H PARENT 89 24 70 48 40 59
REMARK Flexibility Score: inf
ROOT
ATOM      1  C   UNL A   1      33.967  34.551  31.895  1.00  0.00     0.188 C 
ENDROOT
BRANCH   1   2
ATOM      2  C   UNL A   1      34.025  35.038  30.435  1.00  0.00     0.188 C 
BRANCH   2   3
ATOM      3  O   UNL A   1      32.791  34.979  29.729  1.00  0.00    -0.376 OA
BRANCH   3   4
ATOM      4  C   UNL A   1      32.886  34.567  28.370  1.00  0.00     0.202 C 
BRANCH   4   5
ATOM      5  C   UNL A   1      34.127  33.706  28.123  1.00  0.00     0.261 C 
BRANCH   5   6
ATOM      6  O   UNL A   1      33.813  32.350  27.760  1.00  0.00    -0.460 OA
BRANCH   6   7
ATOM      7  C   UNL A   1      34.861  31.492  27.682  1.00  0.00     0.333 C 
ATOM      8  O   UNL A   1      36.000  31.788  27.996  1.00  0.00    -0.247 OA
BRANCH   7   9
ATOM      9  C   UNL A   1      34.400  30.140  27.251  1.00  0.00     0.036 C 
ATOM     10  C   UNL A   1      35.159  29.092  27.631  1.00  0.00     0.020 C 
BRANCH   9  11
ATOM     11  C   UNL A   1      33.131  29.917  26.424  1.00  0.00     0.055 C 
ATOM     12  C   UNL A   1      31.909  29.362  27.183  1.00  0.00     0.012 C 
ATOM     13  C   UNL A   1      33.344  29.182  25.079  1.00  0.00     0.129 C 
ATOM     14  C   UNL A   1      31.873  27.843  27.326  1.00  0.00     0.008 C 
ATOM     15  C   UNL A   1      33.299  27.639  25.217  1.00  0.00     0.050 C 
ATOM     16  C   UNL A   1      32.083  27.059  26.008  1.00  0.00    -0.024 C 
ATOM     17  C   UNL A   1      33.610  26.784  23.999  1.00  0.00    -0.071 C 
ATOM     18  C   UNL A   1      30.764  27.060  25.203  1.00  0.00     0.012 C 
ATOM     19  C   UNL A   1      32.416  25.581  26.388  1.00  0.00     0.008 C 
ATOM     20  C   UNL A   1      33.958  25.359  24.375  1.00  0.00     0.031 C 
ATOM     21  C   UNL A   1      33.612  27.193  22.722  1.00  0.00     0.008 C 
ATOM     22  C   UNL A   1      32.841  24.716  25.196  1.00  0.00     0.005 C 
BRANCH  13  23
ATOM     23  O   UNL A   1      32.397  29.703  24.138  1.00  0.00    -0.392 OA
ATOM     24  H   UNL A   1      31.946  30.471  24.525  1.00  0.00     0.211 HD
ENDBRANCH  13  23
ENDBRANCH   9  11
ENDBRANCH   7   9
ENDBRANCH   6   7
ENDBRANCH   5   6
ENDBRANCH   4   5
ENDBRANCH   3   4
ENDBRANCH   2   3
ENDBRANCH   1   2
BRANCH   1  25
ATOM     25  O   UNL A   1      34.075  33.167  32.201  1.00  0.00    -0.376 OA
BRANCH  25  26
ATOM     26  C   UNL A   1      34.788  32.318  31.319  1.00  0.00     0.202 C 
BRANCH  26  27
ATOM     27  C   UNL A   1      36.010  31.588  31.882  1.00  0.00     0.261 C 
BRANCH  27  28
ATOM     28  O   UNL A   1      36.519  30.538  31.041  1.00  0.00    -0.460 OA
BRANCH  28  29
ATOM     29  C   UNL A   1      37.171  29.545  31.695  1.00  0.00     0.338 C 
ATOM     30  O   UNL A   1      36.886  29.081  32.787  1.00  0.00    -0.246 OA
BRANCH  29  31
ATOM     31  C   UNL A   1      38.234  28.961  30.844  1.00  0.00     0.060 A 
ATOM     32  C   UNL A   1      39.214  28.182  31.474  1.00  0.00     0.016 A 
ATOM     33  C   UNL A   1      38.342  29.258  29.484  1.00  0.00     0.016 A 
ATOM     34  C   UNL A   1      40.338  27.755  30.766  1.00  0.00     0.010 A 
ATOM     35  C   UNL A   1      39.481  28.844  28.777  1.00  0.00     0.010 A 
ATOM     36  C   UNL A   1      40.506  28.132  29.426  1.00  0.00    -0.014 A 
BRANCH  36  37
ATOM     37  C   UNL A   1      41.837  27.964  28.787  1.00  0.00     0.031 A 
ATOM     38  C   UNL A   1      42.765  29.151  28.729  1.00  0.00     0.074 A 
ATOM     39  C   UNL A   1      42.247  26.777  28.306  1.00  0.00     0.049 A 
ATOM     40  N   UNL A   1      43.982  29.230  28.255  1.00  0.00    -0.248 NA
ATOM     41  C   UNL A   1      42.251  30.414  29.285  1.00  0.00     0.031 C 
ATOM     42  C   UNL A   1      41.474  25.539  28.333  1.00  0.00     0.029 A 
ATOM     43  N   UNL A   1      43.428  26.425  27.697  1.00  0.00    -0.354 N 
ATOM     44  C   UNL A   1      44.381  30.547  28.455  1.00  0.00     0.074 A 
ATOM     45  C   UNL A   1      43.266  31.236  29.069  1.00  0.00     0.031 C 
ATOM     46  C   UNL A   1      42.202  24.560  27.765  1.00  0.00     0.029 A 
ATOM     47  C   UNL A   1      43.482  25.106  27.315  1.00  0.00     0.049 A 
ATOM     48  H   UNL A   1      44.166  27.058  27.548  1.00  0.00     0.167 HD
ATOM     49  C   UNL A   1      45.566  31.134  28.160  1.00  0.00     0.031 A 
ATOM     50  C   UNL A   1      44.445  24.418  26.669  1.00  0.00     0.031 A 
ATOM     51  C   UNL A   1      46.669  30.467  27.521  1.00  0.00     0.049 A 
ATOM     52  C   UNL A   1      45.722  25.113  26.273  1.00  0.00     0.074 A 
ATOM     53  C   UNL A   1      47.909  30.983  27.188  1.00  0.00     0.029 A 
ATOM     54  N   UNL A   1      46.659  29.146  27.105  1.00  0.00    -0.354 N 
ATOM     55  N   UNL A   1      46.094  26.350  26.500  1.00  0.00    -0.248 NA
ATOM     56  C   UNL A   1      46.712  24.313  25.536  1.00  0.00     0.031 C 
ATOM     57  C   UNL A   1      48.632  29.987  26.521  1.00  0.00     0.029 A 
ATOM     58  C   UNL A   1      47.862  28.835  26.491  1.00  0.00     0.049 A 
ATOM     59  H   UNL A   1      45.909  28.520  27.226  1.00  0.00     0.167 HD
ATOM     60  C   UNL A   1      47.373  26.466  25.962  1.00  0.00     0.074 A 
ATOM     61  C   UNL A   1      47.713  25.173  25.406  1.00  0.00     0.031 C 
ATOM     62  C   UNL A   1      48.194  27.547  25.938  1.00  0.00     0.031 A 
BRANCH  49  63
ATOM     63  C   UNL A   1      45.708  32.593  28.495  1.00  0.00    -0.014 A 
ATOM     64  C   UNL A   1      45.476  33.588  27.528  1.00  0.00     0.010 A 
ATOM     65  C   UNL A   1      46.069  32.976  29.800  1.00  0.00     0.010 A 
ATOM     66  C   UNL A   1      45.650  34.938  27.847  1.00  0.00     0.020 A 
ATOM     67  C   UNL A   1      46.220  34.325  30.130  1.00  0.00     0.020 A 
ATOM     68  C   UNL A   1      46.030  35.297  29.145  1.00  0.00     0.054 A 
BRANCH  68  69
ATOM     69  S   UNL A   1      46.254  37.054  29.533  1.00  0.00     0.124 S 
ATOM     70  O   UNL A   1      47.698  37.212  29.380  1.00  0.00    -0.237 OA
ATOM     71  O   UNL A   1      45.439  37.715  28.519  1.00  0.00    -0.237 OA
ATOM     72  O   UNL A   1      45.757  37.172  30.902  1.00  0.00    -0.744 OA
ENDBRANCH  68  69
ENDBRANCH  49  63
BRANCH  50  73
ATOM     73  C   UNL A   1      44.243  22.979  26.345  1.00  0.00    -0.014 A 
ATOM     74  C   UNL A   1      45.315  22.190  25.891  1.00  0.00     0.010 A 
ATOM     75  C   UNL A   1      42.969  22.395  26.471  1.00  0.00     0.010 A 
ATOM     76  C   UNL A   1      45.114  20.849  25.551  1.00  0.00     0.020 A 
ATOM     77  C   UNL A   1      42.769  21.048  26.157  1.00  0.00     0.020 A 
ATOM     78  C   UNL A   1      43.841  20.286  25.687  1.00  0.00     0.054 A 
BRANCH  78  79
ATOM     79  S   UNL A   1      43.608  18.533  25.283  1.00  0.00     0.124 S 
ATOM     80  O   UNL A   1      44.672  17.899  26.056  1.00  0.00    -0.237 OA
ATOM     81  O   UNL A   1      42.248  18.279  25.751  1.00  0.00    -0.237 OA
ATOM     82  O   UNL A   1      43.777  18.493  23.833  1.00  0.00    -0.744 OA
ENDBRANCH  78  79
ENDBRANCH  50  73
BRANCH  62  83
ATOM     83  C   UNL A   1      49.558  27.373  25.325  1.00  0.00    -0.014 A 
ATOM     84  C   UNL A   1      50.682  27.065  26.111  1.00  0.00     0.010 A 
ATOM     85  C   UNL A   1      49.708  27.473  23.928  1.00  0.00     0.010 A 
ATOM     86  C   UNL A   1      51.937  26.893  25.517  1.00  0.00     0.020 A 
ATOM     87  C   UNL A   1      50.954  27.276  23.328  1.00  0.00     0.020 A 
ATOM     88  C   UNL A   1      52.066  27.003  24.128  1.00  0.00     0.054 A 
BRANCH  88  89
ATOM     89  S   UNL A   1      53.695  26.740  23.374  1.00  0.00     0.124 S 
ATOM     90  O   UNL A   1      54.306  28.060  23.502  1.00  0.00    -0.237 OA
ATOM     91  O   UNL A   1      54.275  25.695  24.214  1.00  0.00    -0.237 OA
ATOM     92  O   UNL A   1      53.381  26.328  22.007  1.00  0.00    -0.744 OA
ENDBRANCH  88  89
ENDBRANCH  62  83
ENDBRANCH  36  37
ENDBRANCH  29  31
ENDBRANCH  28  29
ENDBRANCH  27  28
ENDBRANCH  26  27
ENDBRANCH  25  26
ENDBRANCH   1  25
TORSDOF 22
ENDMDL
MODEL 3
REMARK VINA RESULT:      -9.7      2.001      8.331
REMARK SMILES C=C(C(=O)OCCOCCOCCOC(=O)c1ccc(-c2c3nc(c(-c4ccc(S(=O)(=O)[O-])cc4)c4ccc([nH]4)c(-c4ccc(S(=O)(=O)[O-])cc4)c4nc(c(-c5ccc(S(=O)(=O)[O-])cc5)c5ccc2[nH]5)C=C4)C=C3)cc1)[C@@H]1CC[C@]2(C)CCCC(=C)[C@H]2[C@H]1O
REMARK SMILES IDX 10 1 9 2 8 3 7 4 6 5 5 6 3 7 4 8 2 9 1 10 77 11 78 12 88 13
REMARK SMILES IDX 79 14 87 15 80 16 85 17 81 18 82 19 84 20 86 21 83 22 89 23
REMARK SMILES IDX 11 25 12 26 13 27 14 28 15 29 16 30 17 31 18 32 76 33 19 34
REMARK SMILES IDX 75 35 20 36 21 37 22 38 69 39 23 40 74 41 68 42 70 43 24 44
REMARK SMILES IDX 73 45 67 46 66 47 25 49 55 50 36 51 54 52 37 53 40 54 53 55
REMARK SMILES IDX 71 56 38 57 39 58 52 60 72 61 41 62 26 63 27 64 35 65 28 66
REMARK SMILES IDX 34 67 29 68 30 69 31 70 32 71 33 72 56 73 57 74 65 75 58 76
REMARK SMILES IDX 64 77 59 78 60 79 61 80 62 81 63 82 42 83 43 84 51 85 44 86
REMARK SMILES IDX 50 87 45 88 46 89 47 90 48 91 49 92
REMARK H PARENT 89 24 70 48 40 59
REMARK Flexibility Score: inf
ROOT
ATOM      1  C   UNL A   1      35.013  32.698  29.165  1.00  0.00     0.188 C 
ENDROOT
BRANCH   1   2
ATOM      2  C   UNL A   1      33.908  32.179  28.226  1.00  0.00     0.188 C 
BRANCH   2   3
ATOM      3  O   UNL A   1      34.327  31.203  27.280  1.00  0.00    -0.376 OA
BRANCH   3   4
ATOM      4  C   UNL A   1      33.410  30.138  27.058  1.00  0.00     0.202 C 
BRANCH   4   5
ATOM      5  C   UNL A   1      34.024  29.028  26.201  1.00  0.00     0.261 C 
BRANCH   5   6
ATOM      6  O   UNL A   1      33.049  28.097  25.699  1.00  0.00    -0.460 OA
BRANCH   6   7
ATOM      7  C   UNL A   1      32.392  28.467  24.571  1.00  0.00     0.333 C 
ATOM      8  O   UNL A   1      31.483  29.277  24.554  1.00  0.00    -0.247 OA
BRANCH   7   9
ATOM      9  C   UNL A   1      33.000  27.814  23.374  1.00  0.00     0.036 C 
ATOM     10  C   UNL A   1      33.899  28.541  22.679  1.00  0.00     0.020 C 
BRANCH   9  11
ATOM     11  C   UNL A   1      32.645  26.392  22.931  1.00  0.00     0.055 C 
ATOM     12  C   UNL A   1      31.382  25.775  23.564  1.00  0.00     0.012 C 
ATOM     13  C   UNL A   1      33.824  25.391  22.929  1.00  0.00     0.129 C 
ATOM     14  C   UNL A   1      31.598  25.112  24.922  1.00  0.00     0.008 C 
ATOM     15  C   UNL A   1      34.043  24.708  24.303  1.00  0.00     0.050 C 
ATOM     16  C   UNL A   1      32.769  24.102  24.974  1.00  0.00    -0.024 C 
ATOM     17  C   UNL A   1      35.240  23.788  24.484  1.00  0.00    -0.071 C 
ATOM     18  C   UNL A   1      32.314  22.766  24.344  1.00  0.00     0.012 C 
ATOM     19  C   UNL A   1      33.096  23.838  26.479  1.00  0.00     0.008 C 
ATOM     20  C   UNL A   1      35.569  23.558  25.944  1.00  0.00     0.031 C 
ATOM     21  C   UNL A   1      35.969  23.233  23.504  1.00  0.00     0.008 C 
ATOM     22  C   UNL A   1      34.362  23.004  26.701  1.00  0.00     0.005 C 
BRANCH  13  23
ATOM     23  O   UNL A   1      33.615  24.467  21.854  1.00  0.00    -0.392 OA
ATOM     24  H   UNL A   1      33.034  23.749  22.154  1.00  0.00     0.211 HD
ENDBRANCH  13  23
ENDBRANCH   9  11
ENDBRANCH   7   9
ENDBRANCH   6   7
ENDBRANCH   5   6
ENDBRANCH   4   5
ENDBRANCH   3   4
ENDBRANCH   2   3
ENDBRANCH   1   2
BRANCH   1  25
ATOM     25  O   UNL A   1      34.953  32.445  30.563  1.00  0.00    -0.376 OA
BRANCH  25  26
ATOM     26  C   UNL A   1      36.143  32.514  31.328  1.00  0.00     0.202 C 
BRANCH  26  27
ATOM     27  C   UNL A   1      37.363  31.754  30.800  1.00  0.00     0.261 C 
BRANCH  27  28
ATOM     28  O   UNL A   1      37.331  30.336  31.035  1.00  0.00    -0.460 OA
BRANCH  28  29
ATOM     29  C   UNL A   1      37.013  29.583  29.952  1.00  0.00     0.338 C 
ATOM     30  O   UNL A   1      35.904  29.439  29.464  1.00  0.00    -0.246 OA
BRANCH  29  31
ATOM     31  C   UNL A   1      38.232  29.038  29.310  1.00  0.00     0.060 A 
ATOM     32  C   UNL A   1      39.120  28.313  30.115  1.00  0.00     0.016 A 
ATOM     33  C   UNL A   1      38.562  29.324  27.983  1.00  0.00     0.016 A 
ATOM     34  C   UNL A   1      40.368  27.930  29.621  1.00  0.00     0.010 A 
ATOM     35  C   UNL A   1      39.824  28.954  27.493  1.00  0.00     0.010 A 
ATOM     36  C   UNL A   1      40.750  28.298  28.323  1.00  0.00    -0.014 A 
BRANCH  36  37
ATOM     37  C   UNL A   1      42.178  28.184  27.928  1.00  0.00     0.031 A 
ATOM     38  C   UNL A   1      43.084  29.368  28.147  1.00  0.00     0.074 A 
ATOM     39  C   UNL A   1      42.685  27.044  27.426  1.00  0.00     0.049 A 
ATOM     40  N   UNL A   1      44.367  29.485  27.914  1.00  0.00    -0.248 NA
ATOM     41  C   UNL A   1      42.460  30.578  28.710  1.00  0.00     0.031 C 
ATOM     42  C   UNL A   1      41.936  25.811  27.199  1.00  0.00     0.029 A 
ATOM     43  N   UNL A   1      43.961  26.745  27.015  1.00  0.00    -0.354 N 
ATOM     44  C   UNL A   1      44.704  30.778  28.302  1.00  0.00     0.074 A 
ATOM     45  C   UNL A   1      43.487  31.413  28.759  1.00  0.00     0.031 C 
ATOM     46  C   UNL A   1      42.769  24.886  26.690  1.00  0.00     0.029 A 
ATOM     47  C   UNL A   1      44.102  25.465  26.534  1.00  0.00     0.049 A 
ATOM     48  H   UNL A   1      44.706  27.386  27.063  1.00  0.00     0.167 HD
ATOM     49  C   UNL A   1      45.915  31.385  28.284  1.00  0.00     0.031 A 
ATOM     50  C   UNL A   1      45.177  24.835  26.017  1.00  0.00     0.031 A 
ATOM     51  C   UNL A   1      47.126  30.775  27.802  1.00  0.00     0.049 A 
ATOM     52  C   UNL A   1      46.495  25.559  25.927  1.00  0.00     0.074 A 
ATOM     53  C   UNL A   1      48.399  31.314  27.750  1.00  0.00     0.029 A 
ATOM     54  N   UNL A   1      47.211  29.496  27.274  1.00  0.00    -0.354 N 
ATOM     55  N   UNL A   1      46.803  26.769  26.328  1.00  0.00    -0.248 NA
ATOM     56  C   UNL A   1      47.615  24.825  25.316  1.00  0.00     0.031 C 
ATOM     57  C   UNL A   1      49.245  30.380  27.142  1.00  0.00     0.029 A 
ATOM     58  C   UNL A   1      48.510  29.238  26.867  1.00  0.00     0.049 A 
ATOM     59  H   UNL A   1      46.460  28.865  27.199  1.00  0.00     0.167 HD
ATOM     60  C   UNL A   1      48.157  26.929  26.048  1.00  0.00     0.074 A 
ATOM     61  C   UNL A   1      48.611  25.690  25.450  1.00  0.00     0.031 C 
ATOM     62  C   UNL A   1      48.954  28.004  26.272  1.00  0.00     0.031 A 
BRANCH  49  63
ATOM     63  C   UNL A   1      45.974  32.808  28.769  1.00  0.00    -0.014 A 
ATOM     64  C   UNL A   1      46.234  33.106  30.119  1.00  0.00     0.010 A 
ATOM     65  C   UNL A   1      45.776  33.861  27.858  1.00  0.00     0.010 A 
ATOM     66  C   UNL A   1      46.247  34.433  30.558  1.00  0.00     0.020 A 
ATOM     67  C   UNL A   1      45.813  35.190  28.289  1.00  0.00     0.020 A 
ATOM     68  C   UNL A   1      46.027  35.466  29.641  1.00  0.00     0.054 A 
BRANCH  68  69
ATOM     69  S   UNL A   1      46.044  37.179  30.236  1.00  0.00     0.124 S 
ATOM     70  O   UNL A   1      47.476  37.460  30.299  1.00  0.00    -0.237 OA
ATOM     71  O   UNL A   1      45.310  37.891  29.193  1.00  0.00    -0.237 OA
ATOM     72  O   UNL A   1      45.367  37.103  31.529  1.00  0.00    -0.744 OA
ENDBRANCH  68  69
ENDBRANCH  49  63
BRANCH  50  73
ATOM     73  C   UNL A   1      45.057  23.432  25.534  1.00  0.00    -0.014 A 
ATOM     74  C   UNL A   1      44.564  23.158  24.246  1.00  0.00     0.010 A 
ATOM     75  C   UNL A   1      45.418  22.360  26.371  1.00  0.00     0.010 A 
ATOM     76  C   UNL A   1      44.419  21.838  23.809  1.00  0.00     0.020 A 
ATOM     77  C   UNL A   1      45.298  21.040  25.928  1.00  0.00     0.020 A 
ATOM     78  C   UNL A   1      44.787  20.786  24.654  1.00  0.00     0.054 A 
BRANCH  78  79
ATOM     79  S   UNL A   1      44.631  19.082  24.054  1.00  0.00     0.124 S 
ATOM     80  O   UNL A   1      44.537  19.275  22.610  1.00  0.00    -0.237 OA
ATOM     81  O   UNL A   1      45.865  18.464  24.532  1.00  0.00    -0.237 OA
ATOM     82  O   UNL A   1      43.413  18.603  24.702  1.00  0.00    -0.744 OA
ENDBRANCH  78  79
ENDBRANCH  50  73
BRANCH  62  83
ATOM     83  C   UNL A   1      50.410  27.882  25.907  1.00  0.00    -0.014 A 
ATOM     84  C   UNL A   1      50.874  28.206  24.619  1.00  0.00     0.010 A 
ATOM     85  C   UNL A   1      51.338  27.480  26.887  1.00  0.00     0.010 A 
ATOM     86  C   UNL A   1      52.234  28.099  24.309  1.00  0.00     0.020 A 
ATOM     87  C   UNL A   1      52.701  27.396  26.587  1.00  0.00     0.020 A 
ATOM     88  C   UNL A   1      53.139  27.692  25.295  1.00  0.00     0.054 A 
BRANCH  88  89
ATOM     89  S   UNL A   1      54.902  27.594  24.880  1.00  0.00     0.124 S 
ATOM     90  O   UNL A   1      55.266  29.003  24.763  1.00  0.00    -0.237 OA
ATOM     91  O   UNL A   1      55.466  26.894  26.032  1.00  0.00    -0.237 OA
ATOM     92  O   UNL A   1      54.923  26.838  23.629  1.00  0.00    -0.744 OA
ENDBRANCH  88  89
ENDBRANCH  62  83
ENDBRANCH  36  37
ENDBRANCH  29  31
ENDBRANCH  28  29
ENDBRANCH  27  28
ENDBRANCH  26  27
ENDBRANCH  25  26
ENDBRANCH   1  25
TORSDOF 22
ENDMDL
