MODEL 1
REMARK VINA RESULT:     -10.4      0.000      0.000
REMARK SMILES O=C(OCCOCCOCCOC(=O)c1ccccc1/N=C/c1coc2ccccc2c1=O)c1ccc(-c2c3nc(c(-c4ccc(S(=O)(=O)[O-])cc4)c4ccc([nH]4)c(-c4ccc(S(=O)(=O)[O-])cc4)c4nc(c(-c5ccc(S(=O)(=O)[O-])cc5)c5ccc2[nH]5)C=C4)C=C3)cc1
REMARK SMILES IDX 7 1 6 2 5 3 4 4 3 5 2 6 1 7 34 8 35 9 93 10 36 11 92 12
REMARK SMILES IDX 37 13 38 14 39 15 86 16 40 17 91 18 85 19 87 20 41 21 90 22
REMARK SMILES IDX 84 23 83 24 42 26 72 27 53 28 71 29 54 30 57 31 70 32 88 33
REMARK SMILES IDX 55 34 56 35 69 37 89 38 58 39 43 40 44 41 52 42 45 43 51 44
REMARK SMILES IDX 46 45 47 46 48 47 49 48 50 49 73 50 74 51 82 52 75 53 81 54
REMARK SMILES IDX 76 55 77 56 78 57 79 58 80 59 59 60 60 61 68 62 61 63 67 64
REMARK SMILES IDX 62 65 63 66 64 67 65 68 66 69 8 70 9 71 10 72 11 73 12 74
REMARK SMILES IDX 13 75 14 76 15 77 16 78 20 79 17 80 19 81 18 82 21 83 22 84
REMARK SMILES IDX 23 85 24 86 32 87 25 88 31 89 33 90 26 91 30 92 27 93 29 94
REMARK SMILES IDX 28 95
REMARK H PARENT 87 25 57 36
REMARK Flexibility Score: inf
ROOT
ATOM      1  C   UNL A   1      41.989  20.684  26.649  1.00  0.00     0.188 C 
ENDROOT
BRANCH   1   2
ATOM      2  O   UNL A   1      42.576  21.003  25.377  1.00  0.00    -0.376 OA
BRANCH   2   3
ATOM      3  C   UNL A   1      43.491  22.097  25.432  1.00  0.00     0.202 C 
BRANCH   3   4
ATOM      4  C   UNL A   1      43.062  23.215  26.388  1.00  0.00     0.261 C 
BRANCH   4   5
ATOM      5  O   UNL A   1      42.193  24.164  25.744  1.00  0.00    -0.460 OA
BRANCH   5   6
ATOM      6  C   UNL A   1      42.293  25.518  25.811  1.00  0.00     0.338 C 
ATOM      7  O   UNL A   1      42.432  26.174  24.783  1.00  0.00    -0.246 OA
BRANCH   6   8
ATOM      8  C   UNL A   1      42.084  26.239  27.095  1.00  0.00     0.060 A 
ATOM      9  C   UNL A   1      41.221  25.797  28.098  1.00  0.00     0.016 A 
ATOM     10  C   UNL A   1      42.847  27.395  27.318  1.00  0.00     0.016 A 
ATOM     11  C   UNL A   1      40.995  26.586  29.228  1.00  0.00     0.010 A 
ATOM     12  C   UNL A   1      42.682  28.142  28.491  1.00  0.00     0.010 A 
ATOM     13  C   UNL A   1      41.713  27.772  29.436  1.00  0.00    -0.014 A 
BRANCH  13  14
ATOM     14  C   UNL A   1      41.410  28.629  30.615  1.00  0.00     0.031 A 
ATOM     15  C   UNL A   1      42.283  28.583  31.838  1.00  0.00     0.074 A 
ATOM     16  C   UNL A   1      40.393  29.512  30.577  1.00  0.00     0.049 A 
ATOM     17  N   UNL A   1      42.163  29.255  32.956  1.00  0.00    -0.248 NA
ATOM     18  C   UNL A   1      43.438  27.674  31.803  1.00  0.00     0.031 C 
ATOM     19  C   UNL A   1      39.477  29.687  29.452  1.00  0.00     0.029 A 
ATOM     20  N   UNL A   1      39.979  30.449  31.493  1.00  0.00    -0.354 N 
ATOM     21  C   UNL A   1      43.217  28.844  33.760  1.00  0.00     0.074 A 
ATOM     22  C   UNL A   1      43.952  27.844  33.012  1.00  0.00     0.031 C 
ATOM     23  C   UNL A   1      38.649  30.703  29.731  1.00  0.00     0.029 A 
ATOM     24  C   UNL A   1      38.926  31.214  31.056  1.00  0.00     0.049 A 
ATOM     25  H   UNL A   1      40.397  30.561  32.377  1.00  0.00     0.167 HD
ATOM     26  C   UNL A   1      43.553  29.264  35.003  1.00  0.00     0.031 A 
ATOM     27  C   UNL A   1      38.231  32.210  31.633  1.00  0.00     0.031 A 
ATOM     28  C   UNL A   1      42.831  30.252  35.758  1.00  0.00     0.049 A 
ATOM     29  C   UNL A   1      38.599  32.638  33.014  1.00  0.00     0.074 A 
ATOM     30  C   UNL A   1      43.066  30.695  37.049  1.00  0.00     0.029 A 
ATOM     31  N   UNL A   1      41.738  30.963  35.287  1.00  0.00    -0.354 N 
ATOM     32  N   UNL A   1      39.554  32.174  33.781  1.00  0.00    -0.248 NA
ATOM     33  C   UNL A   1      37.795  33.711  33.609  1.00  0.00     0.031 C 
ATOM     34  C   UNL A   1      42.104  31.664  37.364  1.00  0.00     0.029 A 
ATOM     35  C   UNL A   1      41.289  31.843  36.259  1.00  0.00     0.049 A 
ATOM     36  H   UNL A   1      41.340  30.859  34.393  1.00  0.00     0.167 HD
ATOM     37  C   UNL A   1      39.454  32.887  34.964  1.00  0.00     0.074 A 
ATOM     38  C   UNL A   1      38.370  33.838  34.797  1.00  0.00     0.031 C 
ATOM     39  C   UNL A   1      40.189  32.754  36.092  1.00  0.00     0.031 A 
BRANCH  26  40
ATOM     40  C   UNL A   1      44.758  28.617  35.622  1.00  0.00    -0.014 A 
ATOM     41  C   UNL A   1      46.041  29.162  35.434  1.00  0.00     0.010 A 
ATOM     42  C   UNL A   1      44.611  27.437  36.371  1.00  0.00     0.010 A 
ATOM     43  C   UNL A   1      47.164  28.511  35.949  1.00  0.00     0.020 A 
ATOM     44  C   UNL A   1      45.731  26.793  36.901  1.00  0.00     0.020 A 
ATOM     45  C   UNL A   1      47.003  27.324  36.668  1.00  0.00     0.054 A 
BRANCH  45  46
ATOM     46  S   UNL A   1      48.476  26.483  37.311  1.00  0.00     0.124 S 
ATOM     47  O   UNL A   1      48.956  27.441  38.304  1.00  0.00    -0.237 OA
ATOM     48  O   UNL A   1      47.930  25.240  37.851  1.00  0.00    -0.237 OA
ATOM     49  O   UNL A   1      49.325  26.326  36.134  1.00  0.00    -0.744 OA
ENDBRANCH  45  46
ENDBRANCH  26  40
BRANCH  27  50
ATOM     50  C   UNL A   1      37.074  32.829  30.931  1.00  0.00    -0.014 A 
ATOM     51  C   UNL A   1      37.255  33.908  30.047  1.00  0.00     0.010 A 
ATOM     52  C   UNL A   1      35.780  32.321  31.140  1.00  0.00     0.010 A 
ATOM     53  C   UNL A   1      36.157  34.476  29.392  1.00  0.00     0.020 A 
ATOM     54  C   UNL A   1      34.683  32.883  30.481  1.00  0.00     0.020 A 
ATOM     55  C   UNL A   1      34.876  33.963  29.617  1.00  0.00     0.054 A 
BRANCH  55  56
ATOM     56  S   UNL A   1      33.452  34.625  28.704  1.00  0.00     0.124 S 
ATOM     57  O   UNL A   1      34.042  35.746  27.983  1.00  0.00    -0.237 OA
ATOM     58  O   UNL A   1      33.025  33.495  27.880  1.00  0.00    -0.237 OA
ATOM     59  O   UNL A   1      32.520  34.981  29.773  1.00  0.00    -0.744 OA
ENDBRANCH  55  56
ENDBRANCH  27  50
BRANCH  39  60
ATOM     60  C   UNL A   1      39.815  33.657  37.229  1.00  0.00    -0.014 A 
ATOM     61  C   UNL A   1      40.428  34.915  37.368  1.00  0.00     0.010 A 
ATOM     62  C   UNL A   1      38.884  33.225  38.186  1.00  0.00     0.010 A 
ATOM     63  C   UNL A   1      40.143  35.714  38.476  1.00  0.00     0.020 A 
ATOM     64  C   UNL A   1      38.586  34.030  39.288  1.00  0.00     0.020 A 
ATOM     65  C   UNL A   1      39.234  35.260  39.436  1.00  0.00     0.054 A 
BRANCH  65  66
ATOM     66  S   UNL A   1      38.878  36.305  40.874  1.00  0.00     0.124 S 
ATOM     67  O   UNL A   1      38.488  37.563  40.244  1.00  0.00    -0.237 OA
ATOM     68  O   UNL A   1      37.804  35.580  41.548  1.00  0.00    -0.237 OA
ATOM     69  O   UNL A   1      40.148  36.334  41.596  1.00  0.00    -0.744 OA
ENDBRANCH  65  66
ENDBRANCH  39  60
ENDBRANCH  13  14
ENDBRANCH   6   8
ENDBRANCH   5   6
ENDBRANCH   4   5
ENDBRANCH   3   4
ENDBRANCH   2   3
ENDBRANCH   1   2
BRANCH   1  70
ATOM     70  C   UNL A   1      40.484  20.466  26.482  1.00  0.00     0.188 C 
BRANCH  70  71
ATOM     71  O   UNL A   1      39.709  21.668  26.553  1.00  0.00    -0.376 OA
BRANCH  71  72
ATOM     72  C   UNL A   1      38.558  21.723  25.716  1.00  0.00     0.202 C 
BRANCH  72  73
ATOM     73  C   UNL A   1      37.732  23.005  25.780  1.00  0.00     0.261 C 
BRANCH  73  74
ATOM     74  O   UNL A   1      36.771  23.177  24.730  1.00  0.00    -0.460 OA
BRANCH  74  75
ATOM     75  C   UNL A   1      35.482  23.039  25.129  1.00  0.00     0.340 C 
ATOM     76  O   UNL A   1      35.061  22.401  26.080  1.00  0.00    -0.246 OA
BRANCH  75  77
ATOM     77  C   UNL A   1      34.596  23.649  24.138  1.00  0.00     0.085 A 
ATOM     78  C   UNL A   1      34.029  22.811  23.161  1.00  0.00     0.018 A 
ATOM     79  C   UNL A   1      34.364  25.034  24.138  1.00  0.00     0.077 A 
ATOM     80  C   UNL A   1      33.235  23.347  22.149  1.00  0.00     0.001 A 
ATOM     81  C   UNL A   1      33.604  25.547  23.070  1.00  0.00     0.029 A 
ATOM     82  C   UNL A   1      33.042  24.722  22.089  1.00  0.00     0.002 A 
BRANCH  79  83
ATOM     83  N   UNL A   1      34.493  25.942  25.209  1.00  0.00    -0.255 NA
ATOM     84  C   UNL A   1      33.631  26.125  26.157  1.00  0.00     0.127 C 
BRANCH  84  85
ATOM     85  C   UNL A   1      33.187  27.538  26.335  1.00  0.00     0.076 A 
ATOM     86  C   UNL A   1      33.779  28.417  25.509  1.00  0.00     0.209 A 
ATOM     87  C   UNL A   1      31.702  27.699  26.426  1.00  0.00     0.201 A 
ATOM     88  O   UNL A   1      33.040  29.252  24.671  1.00  0.00    -0.463 OA
ATOM     89  C   UNL A   1      31.126  27.862  25.082  1.00  0.00     0.065 A 
ATOM     90  O   UNL A   1      31.061  27.515  27.444  1.00  0.00    -0.288 OA
ATOM     91  C   UNL A   1      31.898  28.622  24.201  1.00  0.00     0.137 A 
ATOM     92  C   UNL A   1      30.131  27.002  24.628  1.00  0.00     0.016 A 
ATOM     93  C   UNL A   1      31.656  28.558  22.841  1.00  0.00     0.048 A 
ATOM     94  C   UNL A   1      29.924  26.900  23.251  1.00  0.00     0.001 A 
ATOM     95  C   UNL A   1      30.673  27.683  22.365  1.00  0.00     0.004 A 
ENDBRANCH  84  85
ENDBRANCH  79  83
ENDBRANCH  75  77
ENDBRANCH  74  75
ENDBRANCH  73  74
ENDBRANCH  72  73
ENDBRANCH  71  72
ENDBRANCH  70  71
ENDBRANCH   1  70
TORSDOF 22
ENDMDL
MODEL 2
REMARK VINA RESULT:     -10.1      1.600      2.483
REMARK SMILES O=C(OCCOCCOCCOC(=O)c1ccccc1/N=C/c1coc2ccccc2c1=O)c1ccc(-c2c3nc(c(-c4ccc(S(=O)(=O)[O-])cc4)c4ccc([nH]4)c(-c4ccc(S(=O)(=O)[O-])cc4)c4nc(c(-c5ccc(S(=O)(=O)[O-])cc5)c5ccc2[nH]5)C=C4)C=C3)cc1
REMARK SMILES IDX 7 1 6 2 5 3 4 4 3 5 2 6 1 7 34 8 35 9 93 10 36 11 92 12
REMARK SMILES IDX 37 13 38 14 39 15 86 16 40 17 91 18 85 19 87 20 41 21 90 22
REMARK SMILES IDX 84 23 83 24 42 26 72 27 53 28 71 29 54 30 57 31 70 32 88 33
REMARK SMILES IDX 55 34 56 35 69 37 89 38 58 39 43 40 44 41 52 42 45 43 51 44
REMARK SMILES IDX 46 45 47 46 48 47 49 48 50 49 73 50 74 51 82 52 75 53 81 54
REMARK SMILES IDX 76 55 77 56 78 57 79 58 80 59 59 60 60 61 68 62 61 63 67 64
REMARK SMILES IDX 62 65 63 66 64 67 65 68 66 69 8 70 9 71 10 72 11 73 12 74
REMARK SMILES IDX 13 75 14 76 15 77 16 78 20 79 17 80 19 81 18 82 21 83 22 84
REMARK SMILES IDX 23 85 24 86 32 87 25 88 31 89 33 90 26 91 30 92 27 93 29 94
REMARK SMILES IDX 28 95
REMARK H PARENT 87 25 57 36
REMARK Flexibility Score: inf
ROOT
ATOM      1  C   UNL A   1      42.144  20.785  26.718  1.00  0.00     0.188 C 
ENDROOT
BRANCH   1   2
ATOM      2  O   UNL A   1      42.427  21.270  25.396  1.00  0.00    -0.376 OA
BRANCH   2   3
ATOM      3  C   UNL A   1      43.667  21.972  25.303  1.00  0.00     0.202 C 
BRANCH   3   4
ATOM      4  C   UNL A   1      43.520  23.433  24.863  1.00  0.00     0.261 C 
BRANCH   4   5
ATOM      5  O   UNL A   1      43.306  24.310  25.984  1.00  0.00    -0.460 OA
BRANCH   5   6
ATOM      6  C   UNL A   1      42.450  25.364  26.025  1.00  0.00     0.338 C 
ATOM      7  O   UNL A   1      41.758  25.633  25.047  1.00  0.00    -0.246 OA
BRANCH   6   8
ATOM      8  C   UNL A   1      42.218  26.113  27.289  1.00  0.00     0.060 A 
ATOM      9  C   UNL A   1      41.324  25.703  28.278  1.00  0.00     0.016 A 
ATOM     10  C   UNL A   1      42.991  27.263  27.510  1.00  0.00     0.016 A 
ATOM     11  C   UNL A   1      41.080  26.517  29.387  1.00  0.00     0.010 A 
ATOM     12  C   UNL A   1      42.806  28.035  28.664  1.00  0.00     0.010 A 
ATOM     13  C   UNL A   1      41.809  27.697  29.590  1.00  0.00    -0.014 A 
BRANCH  13  14
ATOM     14  C   UNL A   1      41.488  28.580  30.744  1.00  0.00     0.031 A 
ATOM     15  C   UNL A   1      42.359  28.585  31.970  1.00  0.00     0.074 A 
ATOM     16  C   UNL A   1      40.455  29.442  30.681  1.00  0.00     0.049 A 
ATOM     17  N   UNL A   1      42.225  29.285  33.069  1.00  0.00    -0.248 NA
ATOM     18  C   UNL A   1      43.532  27.697  31.961  1.00  0.00     0.031 C 
ATOM     19  C   UNL A   1      39.538  29.568  29.551  1.00  0.00     0.029 A 
ATOM     20  N   UNL A   1      40.021  30.396  31.570  1.00  0.00    -0.354 N 
ATOM     21  C   UNL A   1      43.285  28.917  33.885  1.00  0.00     0.074 A 
ATOM     22  C   UNL A   1      44.040  27.910  33.166  1.00  0.00     0.031 C 
ATOM     23  C   UNL A   1      38.690  30.576  29.799  1.00  0.00     0.029 A 
ATOM     24  C   UNL A   1      38.955  31.129  31.111  1.00  0.00     0.049 A 
ATOM     25  H   UNL A   1      40.436  30.541  32.451  1.00  0.00     0.167 HD
ATOM     26  C   UNL A   1      43.612  29.378  35.116  1.00  0.00     0.031 A 
ATOM     27  C   UNL A   1      38.240  32.128  31.659  1.00  0.00     0.031 A 
ATOM     28  C   UNL A   1      42.869  30.373  35.842  1.00  0.00     0.049 A 
ATOM     29  C   UNL A   1      38.598  32.600  33.028  1.00  0.00     0.074 A 
ATOM     30  C   UNL A   1      43.094  30.855  37.120  1.00  0.00     0.029 A 
ATOM     31  N   UNL A   1      41.764  31.050  35.350  1.00  0.00    -0.354 N 
ATOM     32  N   UNL A   1      39.561  32.177  33.808  1.00  0.00    -0.248 NA
ATOM     33  C   UNL A   1      37.773  33.675  33.591  1.00  0.00     0.031 C 
ATOM     34  C   UNL A   1      42.114  31.815  37.407  1.00  0.00     0.029 A 
ATOM     35  C   UNL A   1      41.297  31.948  36.296  1.00  0.00     0.049 A 
ATOM     36  H   UNL A   1      41.370  30.913  34.459  1.00  0.00     0.167 HD
ATOM     37  C   UNL A   1      39.445  32.921  34.970  1.00  0.00     0.074 A 
ATOM     38  C   UNL A   1      38.344  33.845  34.776  1.00  0.00     0.031 C 
ATOM     39  C   UNL A   1      40.181  32.833  36.103  1.00  0.00     0.031 A 
BRANCH  26  40
ATOM     40  C   UNL A   1      44.827  28.772  35.753  1.00  0.00    -0.014 A 
ATOM     41  C   UNL A   1      44.717  27.631  36.569  1.00  0.00     0.010 A 
ATOM     42  C   UNL A   1      46.087  29.365  35.561  1.00  0.00     0.010 A 
ATOM     43  C   UNL A   1      45.842  27.119  37.220  1.00  0.00     0.020 A 
ATOM     44  C   UNL A   1      47.217  28.845  36.198  1.00  0.00     0.020 A 
ATOM     45  C   UNL A   1      47.082  27.738  37.040  1.00  0.00     0.054 A 
BRANCH  45  46
ATOM     46  S   UNL A   1      48.528  27.071  37.910  1.00  0.00     0.124 S 
ATOM     47  O   UNL A   1      49.388  28.248  38.006  1.00  0.00    -0.237 OA
ATOM     48  O   UNL A   1      47.960  26.603  39.172  1.00  0.00    -0.237 OA
ATOM     49  O   UNL A   1      49.009  26.018  37.019  1.00  0.00    -0.744 OA
ENDBRANCH  45  46
ENDBRANCH  26  40
BRANCH  27  50
ATOM     50  C   UNL A   1      37.073  32.705  30.938  1.00  0.00    -0.014 A 
ATOM     51  C   UNL A   1      35.785  32.161  31.090  1.00  0.00     0.010 A 
ATOM     52  C   UNL A   1      37.255  33.820  30.101  1.00  0.00     0.010 A 
ATOM     53  C   UNL A   1      34.698  32.719  30.408  1.00  0.00     0.020 A 
ATOM     54  C   UNL A   1      36.169  34.382  29.424  1.00  0.00     0.020 A 
ATOM     55  C   UNL A   1      34.898  33.823  29.574  1.00  0.00     0.054 A 
BRANCH  55  56
ATOM     56  S   UNL A   1      33.485  34.618  28.755  1.00  0.00     0.124 S 
ATOM     57  O   UNL A   1      32.984  33.551  27.899  1.00  0.00    -0.237 OA
ATOM     58  O   UNL A   1      32.618  34.997  29.869  1.00  0.00    -0.237 OA
ATOM     59  O   UNL A   1      34.107  35.746  28.062  1.00  0.00    -0.744 OA
ENDBRANCH  55  56
ENDBRANCH  27  50
BRANCH  39  60
ATOM     60  C   UNL A   1      39.788  33.760  37.213  1.00  0.00    -0.014 A 
ATOM     61  C   UNL A   1      40.350  35.046  37.298  1.00  0.00     0.010 A 
ATOM     62  C   UNL A   1      38.890  33.326  38.201  1.00  0.00     0.010 A 
ATOM     63  C   UNL A   1      40.050  35.872  38.382  1.00  0.00     0.020 A 
ATOM     64  C   UNL A   1      38.577  34.156  39.279  1.00  0.00     0.020 A 
ATOM     65  C   UNL A   1      39.176  35.416  39.373  1.00  0.00     0.054 A 
BRANCH  65  66
ATOM     66  S   UNL A   1      38.800  36.497  40.779  1.00  0.00     0.124 S 
ATOM     67  O   UNL A   1      38.261  37.680  40.116  1.00  0.00    -0.237 OA
ATOM     68  O   UNL A   1      37.837  35.712  41.547  1.00  0.00    -0.237 OA
ATOM     69  O   UNL A   1      40.099  36.678  41.424  1.00  0.00    -0.744 OA
ENDBRANCH  65  66
ENDBRANCH  39  60
ENDBRANCH  13  14
ENDBRANCH   6   8
ENDBRANCH   5   6
ENDBRANCH   4   5
ENDBRANCH   3   4
ENDBRANCH   2   3
ENDBRANCH   1   2
BRANCH   1  70
ATOM     70  C   UNL A   1      40.645  20.903  26.999  1.00  0.00     0.188 C 
BRANCH  70  71
ATOM     71  O   UNL A   1      39.859  21.227  25.846  1.00  0.00    -0.376 OA
BRANCH  71  72
ATOM     72  C   UNL A   1      38.661  21.959  26.089  1.00  0.00     0.202 C 
BRANCH  72  73
ATOM     73  C   UNL A   1      37.591  21.892  25.001  1.00  0.00     0.261 C 
BRANCH  73  74
ATOM     74  O   UNL A   1      36.689  20.782  25.086  1.00  0.00    -0.460 OA
BRANCH  74  75
ATOM     75  C   UNL A   1      35.495  21.079  25.659  1.00  0.00     0.340 C 
ATOM     76  O   UNL A   1      35.285  21.842  26.587  1.00  0.00    -0.246 OA
BRANCH  75  77
ATOM     77  C   UNL A   1      34.458  20.210  25.105  1.00  0.00     0.085 A 
ATOM     78  C   UNL A   1      34.854  18.961  24.590  1.00  0.00     0.018 A 
ATOM     79  C   UNL A   1      33.121  20.634  25.046  1.00  0.00     0.077 A 
ATOM     80  C   UNL A   1      33.921  18.122  23.985  1.00  0.00     0.001 A 
ATOM     81  C   UNL A   1      32.217  19.785  24.379  1.00  0.00     0.029 A 
ATOM     82  C   UNL A   1      32.603  18.545  23.858  1.00  0.00     0.002 A 
BRANCH  79  83
ATOM     83  N   UNL A   1      32.480  21.613  25.833  1.00  0.00    -0.255 NA
ATOM     84  C   UNL A   1      31.227  21.932  25.776  1.00  0.00     0.127 C 
BRANCH  84  85
ATOM     85  C   UNL A   1      30.959  23.383  25.552  1.00  0.00     0.076 A 
ATOM     86  C   UNL A   1      31.487  24.198  26.481  1.00  0.00     0.209 A 
ATOM     87  C   UNL A   1      31.201  23.832  24.145  1.00  0.00     0.201 A 
ATOM     88  O   UNL A   1      32.348  25.241  26.141  1.00  0.00    -0.463 OA
ATOM     89  C   UNL A   1      32.605  24.235  23.975  1.00  0.00     0.065 A 
ATOM     90  O   UNL A   1      30.400  23.686  23.240  1.00  0.00    -0.288 OA
ATOM     91  C   UNL A   1      33.161  24.903  25.069  1.00  0.00     0.137 A 
ATOM     92  C   UNL A   1      33.400  23.642  23.000  1.00  0.00     0.016 A 
ATOM     93  C   UNL A   1      34.534  25.019  25.181  1.00  0.00     0.048 A 
ATOM     94  C   UNL A   1      34.787  23.715  23.142  1.00  0.00     0.001 A 
ATOM     95  C   UNL A   1      35.348  24.410  24.219  1.00  0.00     0.004 A 
ENDBRANCH  84  85
ENDBRANCH  79  83
ENDBRANCH  75  77
ENDBRANCH  74  75
ENDBRANCH  73  74
ENDBRANCH  72  73
ENDBRANCH  71  72
ENDBRANCH  70  71
ENDBRANCH   1  70
TORSDOF 22
ENDMDL
MODEL 3
REMARK VINA RESULT:     -10.1      1.136      8.027
REMARK SMILES O=C(OCCOCCOCCOC(=O)c1ccccc1/N=C/c1coc2ccccc2c1=O)c1ccc(-c2c3nc(c(-c4ccc(S(=O)(=O)[O-])cc4)c4ccc([nH]4)c(-c4ccc(S(=O)(=O)[O-])cc4)c4nc(c(-c5ccc(S(=O)(=O)[O-])cc5)c5ccc2[nH]5)C=C4)C=C3)cc1
REMARK SMILES IDX 7 1 6 2 5 3 4 4 3 5 2 6 1 7 34 8 35 9 93 10 36 11 92 12
REMARK SMILES IDX 37 13 38 14 39 15 86 16 40 17 91 18 85 19 87 20 41 21 90 22
REMARK SMILES IDX 84 23 83 24 42 26 72 27 53 28 71 29 54 30 57 31 70 32 88 33
REMARK SMILES IDX 55 34 56 35 69 37 89 38 58 39 43 40 44 41 52 42 45 43 51 44
REMARK SMILES IDX 46 45 47 46 48 47 49 48 50 49 73 50 74 51 82 52 75 53 81 54
REMARK SMILES IDX 76 55 77 56 78 57 79 58 80 59 59 60 60 61 68 62 61 63 67 64
REMARK SMILES IDX 62 65 63 66 64 67 65 68 66 69 8 70 9 71 10 72 11 73 12 74
REMARK SMILES IDX 13 75 14 76 15 77 16 78 20 79 17 80 19 81 18 82 21 83 22 84
REMARK SMILES IDX 23 85 24 86 32 87 25 88 31 89 33 90 26 91 30 92 27 93 29 94
REMARK SMILES IDX 28 95
REMARK H PARENT 87 25 57 36
REMARK Flexibility Score: inf
ROOT
ATOM      1  C   UNL A   1      41.868  20.126  26.445  1.00  0.00     0.188 C 
ENDROOT
BRANCH   1   2
ATOM      2  O   UNL A   1      42.519  20.859  25.395  1.00  0.00    -0.376 OA
BRANCH   2   3
ATOM      3  C   UNL A   1      43.350  21.917  25.873  1.00  0.00     0.202 C 
BRANCH   3   4
ATOM      4  C   UNL A   1      43.115  23.256  25.167  1.00  0.00     0.261 C 
BRANCH   4   5
ATOM      5  O   UNL A   1      42.323  24.151  25.967  1.00  0.00    -0.460 OA
BRANCH   5   6
ATOM      6  C   UNL A   1      42.399  25.508  25.969  1.00  0.00     0.338 C 
ATOM      7  O   UNL A   1      42.473  26.119  24.907  1.00  0.00    -0.246 OA
BRANCH   6   8
ATOM      8  C   UNL A   1      42.240  26.282  27.229  1.00  0.00     0.060 A 
ATOM      9  C   UNL A   1      41.550  25.809  28.344  1.00  0.00     0.016 A 
ATOM     10  C   UNL A   1      42.872  27.532  27.303  1.00  0.00     0.016 A 
ATOM     11  C   UNL A   1      41.349  26.639  29.450  1.00  0.00     0.010 A 
ATOM     12  C   UNL A   1      42.741  28.330  28.446  1.00  0.00     0.010 A 
ATOM     13  C   UNL A   1      41.932  27.912  29.513  1.00  0.00    -0.014 A 
BRANCH  13  14
ATOM     14  C   UNL A   1      41.652  28.803  30.672  1.00  0.00     0.031 A 
ATOM     15  C   UNL A   1      40.483  29.748  30.645  1.00  0.00     0.074 A 
ATOM     16  C   UNL A   1      42.396  28.724  31.792  1.00  0.00     0.049 A 
ATOM     17  N   UNL A   1      40.095  30.599  31.563  1.00  0.00    -0.248 NA
ATOM     18  C   UNL A   1      39.640  29.736  29.440  1.00  0.00     0.031 C 
ATOM     19  C   UNL A   1      43.544  27.839  31.975  1.00  0.00     0.029 A 
ATOM     20  N   UNL A   1      42.280  29.372  32.999  1.00  0.00    -0.354 N 
ATOM     21  C   UNL A   1      38.973  31.229  31.045  1.00  0.00     0.074 A 
ATOM     22  C   UNL A   1      38.757  30.683  29.720  1.00  0.00     0.031 C 
ATOM     23  C   UNL A   1      43.986  27.967  33.233  1.00  0.00     0.029 A 
ATOM     24  C   UNL A   1      43.206  28.969  33.928  1.00  0.00     0.049 A 
ATOM     25  H   UNL A   1      41.597  30.058  33.179  1.00  0.00     0.167 HD
ATOM     26  C   UNL A   1      38.184  32.170  31.619  1.00  0.00     0.031 A 
ATOM     27  C   UNL A   1      43.439  29.349  35.197  1.00  0.00     0.031 A 
ATOM     28  C   UNL A   1      38.390  32.723  32.930  1.00  0.00     0.049 A 
ATOM     29  C   UNL A   1      42.576  30.408  35.800  1.00  0.00     0.074 A 
ATOM     30  C   UNL A   1      37.675  33.723  33.567  1.00  0.00     0.029 A 
ATOM     31  N   UNL A   1      39.376  32.315  33.815  1.00  0.00    -0.354 N 
ATOM     32  N   UNL A   1      41.569  31.043  35.256  1.00  0.00    -0.248 NA
ATOM     33  C   UNL A   1      42.886  30.805  37.178  1.00  0.00     0.031 C 
ATOM     34  C   UNL A   1      38.240  33.930  34.833  1.00  0.00     0.029 A 
ATOM     35  C   UNL A   1      39.288  33.040  34.992  1.00  0.00     0.049 A 
ATOM     36  H   UNL A   1      40.041  31.613  33.632  1.00  0.00     0.167 HD
ATOM     37  C   UNL A   1      41.133  31.935  36.221  1.00  0.00     0.074 A 
ATOM     38  C   UNL A   1      41.963  31.732  37.394  1.00  0.00     0.031 C 
ATOM     39  C   UNL A   1      40.141  32.852  36.134  1.00  0.00     0.031 A 
BRANCH  26  40
ATOM     40  C   UNL A   1      37.035  32.668  30.793  1.00  0.00    -0.014 A 
ATOM     41  C   UNL A   1      37.233  33.647  29.802  1.00  0.00     0.010 A 
ATOM     42  C   UNL A   1      35.739  32.178  31.031  1.00  0.00     0.010 A 
ATOM     43  C   UNL A   1      36.146  34.160  29.092  1.00  0.00     0.020 A 
ATOM     44  C   UNL A   1      34.651  32.678  30.311  1.00  0.00     0.020 A 
ATOM     45  C   UNL A   1      34.860  33.682  29.361  1.00  0.00     0.054 A 
BRANCH  45  46
ATOM     46  S   UNL A   1      33.458  34.376  28.442  1.00  0.00     0.124 S 
ATOM     47  O   UNL A   1      32.576  34.806  29.524  1.00  0.00    -0.237 OA
ATOM     48  O   UNL A   1      34.076  35.451  27.670  1.00  0.00    -0.237 OA
ATOM     49  O   UNL A   1      32.972  33.247  27.652  1.00  0.00    -0.744 OA
ENDBRANCH  45  46
ENDBRANCH  26  40
BRANCH  27  50
ATOM     50  C   UNL A   1      44.576  28.771  35.962  1.00  0.00    -0.014 A 
ATOM     51  C   UNL A   1      45.851  29.362  35.924  1.00  0.00     0.010 A 
ATOM     52  C   UNL A   1      44.373  27.622  36.748  1.00  0.00     0.010 A 
ATOM     53  C   UNL A   1      46.909  28.807  36.653  1.00  0.00     0.020 A 
ATOM     54  C   UNL A   1      45.427  27.071  37.481  1.00  0.00     0.020 A 
ATOM     55  C   UNL A   1      46.692  27.661  37.423  1.00  0.00     0.054 A 
BRANCH  55  56
ATOM     56  S   UNL A   1      48.028  26.982  38.450  1.00  0.00     0.124 S 
ATOM     57  O   UNL A   1      49.189  27.726  37.977  1.00  0.00    -0.237 OA
ATOM     58  O   UNL A   1      47.593  27.283  39.813  1.00  0.00    -0.237 OA
ATOM     59  O   UNL A   1      48.006  25.559  38.108  1.00  0.00    -0.744 OA
ENDBRANCH  55  56
ENDBRANCH  27  50
BRANCH  39  60
ATOM     60  C   UNL A   1      39.928  33.705  37.348  1.00  0.00    -0.014 A 
ATOM     61  C   UNL A   1      39.206  33.208  38.448  1.00  0.00     0.010 A 
ATOM     62  C   UNL A   1      40.411  35.023  37.369  1.00  0.00     0.010 A 
ATOM     63  C   UNL A   1      38.933  34.035  39.538  1.00  0.00     0.020 A 
ATOM     64  C   UNL A   1      40.152  35.847  38.465  1.00  0.00     0.020 A 
ATOM     65  C   UNL A   1      39.397  35.354  39.534  1.00  0.00     0.054 A 
BRANCH  65  66
ATOM     66  S   UNL A   1      39.029  36.420  40.954  1.00  0.00     0.124 S 
ATOM     67  O   UNL A   1      40.293  36.395  41.685  1.00  0.00    -0.237 OA
ATOM     68  O   UNL A   1      38.691  37.695  40.327  1.00  0.00    -0.237 OA
ATOM     69  O   UNL A   1      37.914  35.740  41.609  1.00  0.00    -0.744 OA
ENDBRANCH  65  66
ENDBRANCH  39  60
ENDBRANCH  13  14
ENDBRANCH   6   8
ENDBRANCH   5   6
ENDBRANCH   4   5
ENDBRANCH   3   4
ENDBRANCH   2   3
ENDBRANCH   1   2
BRANCH   1  70
ATOM     70  C   UNL A   1      40.698  20.944  26.995  1.00  0.00     0.188 C 
BRANCH  70  71
ATOM     71  O   UNL A   1      39.924  21.605  25.988  1.00  0.00    -0.376 OA
BRANCH  71  72
ATOM     72  C   UNL A   1      38.613  21.094  25.768  1.00  0.00     0.202 C 
BRANCH  72  73
ATOM     73  C   UNL A   1      37.692  21.938  24.890  1.00  0.00     0.261 C 
BRANCH  73  74
ATOM     74  O   UNL A   1      36.307  21.938  25.263  1.00  0.00    -0.460 OA
BRANCH  74  75
ATOM     75  C   UNL A   1      35.844  23.143  25.679  1.00  0.00     0.340 C 
ATOM     76  O   UNL A   1      36.497  24.136  25.957  1.00  0.00    -0.246 OA
BRANCH  75  77
ATOM     77  C   UNL A   1      34.405  23.056  25.922  1.00  0.00     0.085 A 
ATOM     78  C   UNL A   1      33.973  22.866  27.248  1.00  0.00     0.018 A 
ATOM     79  C   UNL A   1      33.493  23.108  24.856  1.00  0.00     0.077 A 
ATOM     80  C   UNL A   1      32.618  22.704  27.530  1.00  0.00     0.001 A 
ATOM     81  C   UNL A   1      32.139  22.885  25.172  1.00  0.00     0.029 A 
ATOM     82  C   UNL A   1      31.701  22.689  26.486  1.00  0.00     0.002 A 
BRANCH  79  83
ATOM     83  N   UNL A   1      33.675  23.673  23.577  1.00  0.00    -0.255 NA
ATOM     84  C   UNL A   1      34.343  24.749  23.311  1.00  0.00     0.127 C 
BRANCH  84  85
ATOM     85  C   UNL A   1      33.584  25.786  22.553  1.00  0.00     0.076 A 
ATOM     86  C   UNL A   1      32.514  25.319  21.887  1.00  0.00     0.209 A 
ATOM     87  C   UNL A   1      33.311  27.030  23.339  1.00  0.00     0.201 A 
ATOM     88  O   UNL A   1      31.236  25.840  22.088  1.00  0.00    -0.463 OA
ATOM     89  C   UNL A   1      32.052  26.893  24.087  1.00  0.00     0.065 A 
ATOM     90  O   UNL A   1      34.119  27.929  23.488  1.00  0.00    -0.288 OA
ATOM     91  C   UNL A   1      31.038  26.211  23.410  1.00  0.00     0.137 A 
ATOM     92  C   UNL A   1      32.026  27.058  25.468  1.00  0.00     0.016 A 
ATOM     93  C   UNL A   1      29.955  25.712  24.111  1.00  0.00     0.048 A 
ATOM     94  C   UNL A   1      30.958  26.509  26.180  1.00  0.00     0.001 A 
ATOM     95  C   UNL A   1      29.924  25.852  25.503  1.00  0.00     0.004 A 
ENDBRANCH  84  85
ENDBRANCH  79  83
ENDBRANCH  75  77
ENDBRANCH  74  75
ENDBRANCH  73  74
ENDBRANCH  72  73
ENDBRANCH  71  72
ENDBRANCH  70  71
ENDBRANCH   1  70
TORSDOF 22
ENDMDL
