MODEL 1
REMARK VINA RESULT:     -11.0      0.000      0.000
REMARK SMILES Cc1ccccc1[C@@H](Cc1ncnn1C(C)C)C(=O)OCCOCCOCCOC(=O)c1ccc(-c2c3nc(c(-c4ccc(S(=O)(=O)[O-])cc4)c4ccc([nH]4)c(-c4ccc(S(=O)(=O)[O-])cc4)c4nc(c(-c5ccc(S(=O)(=O)[O-])cc5)c5ccc2[nH]5)C=C4)C=C3)cc1
REMARK SMILES IDX 24 1 23 2 22 3 21 4 20 5 18 6 19 7 8 8 7 9 1 10 2 11 3 12
REMARK SMILES IDX 4 13 6 14 5 15 9 16 10 17 11 18 14 19 12 20 13 21 15 22
REMARK SMILES IDX 16 23 17 24 25 25 26 26 27 27 28 28 29 29 30 30 31 31 32 32
REMARK SMILES IDX 33 33 91 34 34 35 90 36 35 37 36 38 37 39 84 40 38 41 89 42
REMARK SMILES IDX 83 43 85 44 39 45 88 46 82 47 81 48 40 50 70 51 51 52 69 53
REMARK SMILES IDX 52 54 55 55 68 56 86 57 53 58 54 59 67 61 87 62 56 63 41 64
REMARK SMILES IDX 42 65 50 66 43 67 49 68 44 69 45 70 46 71 47 72 48 73 71 74
REMARK SMILES IDX 72 75 80 76 73 77 79 78 74 79 75 80 76 81 77 82 78 83 57 84
REMARK SMILES IDX 58 85 66 86 59 87 65 88 60 89 61 90 62 91 63 92 64 93
REMARK H PARENT 85 49 55 60
REMARK Flexibility Score: inf
ROOT
ATOM      1  C   UNL A   1      36.285  21.128  24.573  1.00  0.00     0.188 C 
ENDROOT
BRANCH   1   2
ATOM      2  O   UNL A   1      35.287  20.254  25.166  1.00  0.00    -0.376 OA
BRANCH   2   3
ATOM      3  C   UNL A   1      33.894  20.027  24.786  1.00  0.00     0.202 C 
BRANCH   3   4
ATOM      4  C   UNL A   1      32.318  20.798  25.243  1.00  0.00     0.261 C 
BRANCH   4   5
ATOM      5  O   UNL A   1      31.747  21.970  26.588  1.00  0.00    -0.463 OA
BRANCH   5   6
ATOM      6  C   UNL A   1      30.942  23.372  26.776  1.00  0.00     0.313 C 
ATOM      7  O   UNL A   1      29.787  23.575  27.239  1.00  0.00    -0.252 OA
BRANCH   6   8
ATOM      8  C   UNL A   1      31.284  24.615  26.044  1.00  0.00     0.137 C 
BRANCH   8   9
ATOM      9  C   UNL A   1      32.384  24.387  25.088  1.00  0.00    -0.030 A 
ATOM     10  C   UNL A   1      30.781  23.528  23.203  1.00  0.00     0.044 C 
ATOM     11  C   UNL A   1      32.118  24.019  23.736  1.00  0.00    -0.047 A 
ATOM     12  C   UNL A   1      33.162  24.124  22.819  1.00  0.00     0.004 A 
ATOM     13  C   UNL A   1      34.402  24.623  23.215  1.00  0.00     0.000 A 
ATOM     14  C   UNL A   1      33.639  24.845  25.482  1.00  0.00     0.005 A 
ATOM     15  C   UNL A   1      34.639  24.981  24.540  1.00  0.00     0.000 A 
ENDBRANCH   8   9
BRANCH   8  16
ATOM     16  C   UNL A   1      29.973  25.406  25.963  1.00  0.00     0.097 C 
BRANCH  16  17
ATOM     17  C   UNL A   1      30.175  26.478  24.960  1.00  0.00     0.128 A 
ATOM     18  N   UNL A   1      28.988  26.855  23.618  1.00  0.00    -0.220 NA
ATOM     19  N   UNL A   1      31.201  28.102  25.243  1.00  0.00    -0.248 N 
ATOM     20  C   UNL A   1      29.330  28.700  22.905  1.00  0.00     0.246 A 
ATOM     21  N   UNL A   1      30.507  29.530  24.073  1.00  0.00    -0.159 NA
BRANCH  19  22
ATOM     22  C   UNL A   1      32.479  28.057  25.956  1.00  0.00     0.103 C 
ATOM     23  C   UNL A   1      33.685  28.658  25.218  1.00  0.00     0.033 C 
ATOM     24  C   UNL A   1      32.286  28.598  27.345  1.00  0.00     0.033 C 
ENDBRANCH  19  22
ENDBRANCH  16  17
ENDBRANCH   8  16
ENDBRANCH   6   8
ENDBRANCH   5   6
ENDBRANCH   4   5
ENDBRANCH   3   4
ENDBRANCH   2   3
ENDBRANCH   1   2
BRANCH   1  25
ATOM     25  C   UNL A   1      37.463  21.585  25.379  1.00  0.00     0.188 C 
BRANCH  25  26
ATOM     26  O   UNL A   1      37.457  22.977  25.273  1.00  0.00    -0.376 OA
BRANCH  26  27
ATOM     27  C   UNL A   1      38.202  23.735  26.161  1.00  0.00     0.202 C 
BRANCH  27  28
ATOM     28  C   UNL A   1      39.413  22.974  26.674  1.00  0.00     0.261 C 
BRANCH  28  29
ATOM     29  O   UNL A   1      40.190  23.579  27.768  1.00  0.00    -0.460 OA
BRANCH  29  30
ATOM     30  C   UNL A   1      41.576  23.743  27.857  1.00  0.00     0.338 C 
ATOM     31  O   UNL A   1      42.327  23.019  27.217  1.00  0.00    -0.246 OA
BRANCH  30  32
ATOM     32  C   UNL A   1      42.009  25.084  28.368  1.00  0.00     0.060 A 
ATOM     33  C   UNL A   1      42.958  25.551  29.304  1.00  0.00     0.016 A 
ATOM     34  C   UNL A   1      41.331  26.057  27.768  1.00  0.00     0.016 A 
ATOM     35  C   UNL A   1      42.958  26.930  29.925  1.00  0.00     0.010 A 
ATOM     36  C   UNL A   1      41.254  27.249  28.462  1.00  0.00     0.010 A 
ATOM     37  C   UNL A   1      41.993  27.924  29.627  1.00  0.00    -0.014 A 
BRANCH  37  38
ATOM     38  C   UNL A   1      41.929  29.806  30.134  1.00  0.00     0.031 A 
ATOM     39  C   UNL A   1      40.353  30.678  30.974  1.00  0.00     0.074 A 
ATOM     40  C   UNL A   1      43.225  30.184  29.953  1.00  0.00     0.049 A 
ATOM     41  N   UNL A   1      39.966  32.273  31.631  1.00  0.00    -0.248 NA
ATOM     42  C   UNL A   1      38.894  32.007  31.754  1.00  0.00     0.031 C 
ATOM     43  C   UNL A   1      44.125  31.014  30.746  1.00  0.00     0.029 A 
ATOM     44  N   UNL A   1      44.094  29.575  29.054  1.00  0.00    -0.354 N 
ATOM     45  C   UNL A   1      40.202  33.515  32.166  1.00  0.00     0.074 A 
ATOM     46  C   UNL A   1      38.840  33.300  32.260  1.00  0.00     0.031 C 
ATOM     47  C   UNL A   1      45.366  30.956  30.228  1.00  0.00     0.029 A 
ATOM     48  C   UNL A   1      45.283  30.271  28.954  1.00  0.00     0.049 A 
ATOM     49  H   UNL A   1      43.887  28.753  28.553  1.00  0.00     0.167 HD
ATOM     50  C   UNL A   1      41.094  33.959  33.090  1.00  0.00     0.031 A 
ATOM     51  C   UNL A   1      45.636  30.711  27.721  1.00  0.00     0.031 A 
ATOM     52  C   UNL A   1      42.434  34.202  32.543  1.00  0.00     0.049 A 
ATOM     53  C   UNL A   1      45.464  32.228  27.721  1.00  0.00     0.074 A 
ATOM     54  C   UNL A   1      43.724  33.906  32.936  1.00  0.00     0.029 A 
ATOM     55  N   UNL A   1      42.573  34.688  31.239  1.00  0.00    -0.354 N 
ATOM     56  N   UNL A   1      45.114  32.924  28.785  1.00  0.00    -0.248 NA
ATOM     57  C   UNL A   1      45.727  33.109  26.595  1.00  0.00     0.031 C 
ATOM     58  C   UNL A   1      44.606  34.156  31.818  1.00  0.00     0.029 A 
ATOM     59  C   UNL A   1      43.877  34.646  30.739  1.00  0.00     0.049 A 
ATOM     60  H   UNL A   1      41.813  35.031  30.716  1.00  0.00     0.167 HD
ATOM     61  C   UNL A   1      44.911  34.235  28.498  1.00  0.00     0.074 A 
ATOM     62  C   UNL A   1      45.473  34.312  27.149  1.00  0.00     0.031 C 
ATOM     63  C   UNL A   1      44.179  35.077  29.322  1.00  0.00     0.031 A 
BRANCH  50  64
ATOM     64  C   UNL A   1      40.575  34.201  34.524  1.00  0.00    -0.014 A 
ATOM     65  C   UNL A   1      40.362  33.141  35.419  1.00  0.00     0.010 A 
ATOM     66  C   UNL A   1      40.367  35.507  35.064  1.00  0.00     0.010 A 
ATOM     67  C   UNL A   1      40.050  33.369  36.783  1.00  0.00     0.020 A 
ATOM     68  C   UNL A   1      40.090  35.749  36.426  1.00  0.00     0.020 A 
ATOM     69  C   UNL A   1      39.937  34.671  37.286  1.00  0.00     0.054 A 
BRANCH  69  70
ATOM     70  S   UNL A   1      39.633  34.937  39.066  1.00  0.00     0.124 S 
ATOM     71  O   UNL A   1      39.096  36.295  39.091  1.00  0.00    -0.237 OA
ATOM     72  O   UNL A   1      38.680  33.880  39.396  1.00  0.00    -0.237 OA
ATOM     73  O   UNL A   1      40.952  34.784  39.677  1.00  0.00    -0.744 OA
ENDBRANCH  69  70
ENDBRANCH  50  64
BRANCH  51  74
ATOM     74  C   UNL A   1      45.490  29.586  26.690  1.00  0.00    -0.014 A 
ATOM     75  C   UNL A   1      46.684  29.250  25.986  1.00  0.00     0.010 A 
ATOM     76  C   UNL A   1      44.509  28.567  26.725  1.00  0.00     0.010 A 
ATOM     77  C   UNL A   1      46.943  27.959  25.473  1.00  0.00     0.020 A 
ATOM     78  C   UNL A   1      44.751  27.266  26.175  1.00  0.00     0.020 A 
ATOM     79  C   UNL A   1      45.989  26.957  25.601  1.00  0.00     0.054 A 
BRANCH  79  80
ATOM     80  S   UNL A   1      46.495  25.236  25.198  1.00  0.00     0.124 S 
ATOM     81  O   UNL A   1      47.547  25.430  24.206  1.00  0.00    -0.237 OA
ATOM     82  O   UNL A   1      46.954  24.739  26.497  1.00  0.00    -0.237 OA
ATOM     83  O   UNL A   1      45.274  24.622  24.687  1.00  0.00    -0.744 OA
ENDBRANCH  79  80
ENDBRANCH  51  74
BRANCH  63  84
ATOM     84  C   UNL A   1      43.549  36.363  28.763  1.00  0.00    -0.014 A 
ATOM     85  C   UNL A   1      43.963  37.655  29.138  1.00  0.00     0.010 A 
ATOM     86  C   UNL A   1      42.575  36.324  27.738  1.00  0.00     0.010 A 
ATOM     87  C   UNL A   1      43.382  38.821  28.636  1.00  0.00     0.020 A 
ATOM     88  C   UNL A   1      42.048  37.488  27.149  1.00  0.00     0.020 A 
ATOM     89  C   UNL A   1      42.421  38.730  27.644  1.00  0.00     0.054 A 
BRANCH  89  90
ATOM     90  S   UNL A   1      41.685  40.263  27.041  1.00  0.00     0.124 S 
ATOM     91  O   UNL A   1      41.052  40.783  28.251  1.00  0.00    -0.237 OA
ATOM     92  O   UNL A   1      42.850  41.012  26.574  1.00  0.00    -0.237 OA
ATOM     93  O   UNL A   1      40.771  39.821  25.993  1.00  0.00    -0.744 OA
ENDBRANCH  89  90
ENDBRANCH  63  84
ENDBRANCH  37  38
ENDBRANCH  30  32
ENDBRANCH  29  30
ENDBRANCH  28  29
ENDBRANCH  27  28
ENDBRANCH  26  27
ENDBRANCH  25  26
ENDBRANCH   1  25
TORSDOF 24
ENDMDL
MODEL 2
REMARK VINA RESULT:     -10.6      1.089      2.057
REMARK SMILES Cc1ccccc1[C@@H](Cc1ncnn1C(C)C)C(=O)OCCOCCOCCOC(=O)c1ccc(-c2c3nc(c(-c4ccc(S(=O)(=O)[O-])cc4)c4ccc([nH]4)c(-c4ccc(S(=O)(=O)[O-])cc4)c4nc(c(-c5ccc(S(=O)(=O)[O-])cc5)c5ccc2[nH]5)C=C4)C=C3)cc1
REMARK SMILES IDX 24 1 23 2 22 3 21 4 20 5 18 6 19 7 8 8 7 9 1 10 2 11 3 12
REMARK SMILES IDX 4 13 6 14 5 15 9 16 10 17 11 18 14 19 12 20 13 21 15 22
REMARK SMILES IDX 16 23 17 24 25 25 26 26 27 27 28 28 29 29 30 30 31 31 32 32
REMARK SMILES IDX 33 33 91 34 34 35 90 36 35 37 36 38 37 39 84 40 38 41 89 42
REMARK SMILES IDX 83 43 85 44 39 45 88 46 82 47 81 48 40 50 70 51 51 52 69 53
REMARK SMILES IDX 52 54 55 55 68 56 86 57 53 58 54 59 67 61 87 62 56 63 41 64
REMARK SMILES IDX 42 65 50 66 43 67 49 68 44 69 45 70 46 71 47 72 48 73 71 74
REMARK SMILES IDX 72 75 80 76 73 77 79 78 74 79 75 80 76 81 77 82 78 83 57 84
REMARK SMILES IDX 58 85 66 86 59 87 65 88 60 89 61 90 62 91 63 92 64 93
REMARK H PARENT 85 49 55 60
REMARK Flexibility Score: inf
ROOT
ATOM      1  C   UNL A   1      36.633  20.899  24.618  1.00  0.00     0.188 C 
ENDROOT
BRANCH   1   2
ATOM      2  O   UNL A   1      35.375  20.720  25.323  1.00  0.00    -0.376 OA
BRANCH   2   3
ATOM      3  C   UNL A   1      34.077  20.268  24.826  1.00  0.00     0.202 C 
BRANCH   3   4
ATOM      4  C   UNL A   1      32.857  20.953  23.674  1.00  0.00     0.261 C 
BRANCH   4   5
ATOM      5  O   UNL A   1      32.864  22.294  22.366  1.00  0.00    -0.463 OA
BRANCH   5   6
ATOM      6  C   UNL A   1      32.880  23.916  22.228  1.00  0.00     0.313 C 
ATOM      7  O   UNL A   1      33.572  24.646  21.469  1.00  0.00    -0.252 OA
BRANCH   6   8
ATOM      8  C   UNL A   1      32.367  24.830  23.276  1.00  0.00     0.137 C 
BRANCH   8   9
ATOM      9  C   UNL A   1      32.274  24.149  24.581  1.00  0.00    -0.030 A 
ATOM     10  C   UNL A   1      34.848  24.331  25.039  1.00  0.00     0.044 C 
ATOM     11  C   UNL A   1      33.407  24.054  25.442  1.00  0.00    -0.047 A 
ATOM     12  C   UNL A   1      33.185  23.686  26.768  1.00  0.00     0.004 A 
ATOM     13  C   UNL A   1      31.887  23.472  27.233  1.00  0.00     0.000 A 
ATOM     14  C   UNL A   1      30.987  23.892  25.045  1.00  0.00     0.005 A 
ATOM     15  C   UNL A   1      30.794  23.575  26.375  1.00  0.00     0.000 A 
ENDBRANCH   8   9
BRANCH   8  16
ATOM     16  C   UNL A   1      32.839  26.227  22.854  1.00  0.00     0.097 C 
BRANCH  16  17
ATOM     17  C   UNL A   1      32.352  27.177  23.882  1.00  0.00     0.128 A 
ATOM     18  N   UNL A   1      33.433  27.974  25.126  1.00  0.00    -0.220 NA
ATOM     19  N   UNL A   1      30.798  28.327  23.703  1.00  0.00    -0.248 N 
ATOM     20  C   UNL A   1      32.518  29.592  25.886  1.00  0.00     0.246 A 
ATOM     21  N   UNL A   1      31.033  29.929  24.828  1.00  0.00    -0.159 NA
BRANCH  19  22
ATOM     22  C   UNL A   1      29.566  27.819  23.098  1.00  0.00     0.103 C 
ATOM     23  C   UNL A   1      28.840  26.710  23.875  1.00  0.00     0.033 C 
ATOM     24  C   UNL A   1      28.684  28.979  22.729  1.00  0.00     0.033 C 
ENDBRANCH  19  22
ENDBRANCH  16  17
ENDBRANCH   8  16
ENDBRANCH   6   8
ENDBRANCH   5   6
ENDBRANCH   4   5
ENDBRANCH   3   4
ENDBRANCH   2   3
ENDBRANCH   1   2
BRANCH   1  25
ATOM     25  C   UNL A   1      37.875  21.266  25.372  1.00  0.00     0.188 C 
BRANCH  25  26
ATOM     26  O   UNL A   1      37.933  22.661  25.319  1.00  0.00    -0.376 OA
BRANCH  26  27
ATOM     27  C   UNL A   1      38.324  23.373  26.441  1.00  0.00     0.202 C 
BRANCH  27  28
ATOM     28  C   UNL A   1      39.760  23.063  26.833  1.00  0.00     0.261 C 
BRANCH  28  29
ATOM     29  O   UNL A   1      40.395  23.924  27.843  1.00  0.00    -0.460 OA
BRANCH  29  30
ATOM     30  C   UNL A   1      41.755  24.042  28.148  1.00  0.00     0.338 C 
ATOM     31  O   UNL A   1      42.562  23.245  27.692  1.00  0.00    -0.246 OA
BRANCH  30  32
ATOM     32  C   UNL A   1      42.165  25.400  28.633  1.00  0.00     0.060 A 
ATOM     33  C   UNL A   1      43.061  25.899  29.605  1.00  0.00     0.016 A 
ATOM     34  C   UNL A   1      41.530  26.352  27.957  1.00  0.00     0.016 A 
ATOM     35  C   UNL A   1      43.032  27.301  30.172  1.00  0.00     0.010 A 
ATOM     36  C   UNL A   1      41.420  27.570  28.599  1.00  0.00     0.010 A 
ATOM     37  C   UNL A   1      42.093  28.286  29.779  1.00  0.00    -0.014 A 
BRANCH  37  38
ATOM     38  C   UNL A   1      42.010  30.187  30.209  1.00  0.00     0.031 A 
ATOM     39  C   UNL A   1      40.424  31.078  31.007  1.00  0.00     0.074 A 
ATOM     40  C   UNL A   1      43.305  30.568  30.018  1.00  0.00     0.049 A 
ATOM     41  N   UNL A   1      40.020  32.696  31.597  1.00  0.00    -0.248 NA
ATOM     42  C   UNL A   1      38.951  32.425  31.727  1.00  0.00     0.031 C 
ATOM     43  C   UNL A   1      44.194  31.438  30.781  1.00  0.00     0.029 A 
ATOM     44  N   UNL A   1      44.182  29.931  29.148  1.00  0.00    -0.354 N 
ATOM     45  C   UNL A   1      40.244  33.961  32.083  1.00  0.00     0.074 A 
ATOM     46  C   UNL A   1      38.884  33.738  32.180  1.00  0.00     0.031 C 
ATOM     47  C   UNL A   1      45.437  31.369  30.271  1.00  0.00     0.029 A 
ATOM     48  C   UNL A   1      45.366  30.632  29.025  1.00  0.00     0.049 A 
ATOM     49  H   UNL A   1      43.985  29.088  28.680  1.00  0.00     0.167 HD
ATOM     50  C   UNL A   1      41.128  34.449  32.991  1.00  0.00     0.031 A 
ATOM     51  C   UNL A   1      45.721  31.025  27.777  1.00  0.00     0.031 A 
ATOM     52  C   UNL A   1      42.468  34.681  32.440  1.00  0.00     0.049 A 
ATOM     53  C   UNL A   1      45.536  32.539  27.714  1.00  0.00     0.074 A 
ATOM     54  C   UNL A   1      43.760  34.412  32.850  1.00  0.00     0.029 A 
ATOM     55  N   UNL A   1      42.609  35.115  31.117  1.00  0.00    -0.354 N 
ATOM     56  N   UNL A   1      45.176  33.275  28.748  1.00  0.00    -0.248 NA
ATOM     57  C   UNL A   1      45.796  33.376  26.554  1.00  0.00     0.031 C 
ATOM     58  C   UNL A   1      44.644  34.624  31.726  1.00  0.00     0.029 A 
ATOM     59  C   UNL A   1      43.915  35.064  30.625  1.00  0.00     0.049 A 
ATOM     60  H   UNL A   1      41.849  35.430  30.578  1.00  0.00     0.167 HD
ATOM     61  C   UNL A   1      44.963  34.571  28.407  1.00  0.00     0.074 A 
ATOM     62  C   UNL A   1      45.530  34.599  27.058  1.00  0.00     0.031 C 
ATOM     63  C   UNL A   1      44.220  35.440  29.193  1.00  0.00     0.031 A 
BRANCH  50  64
ATOM     64  C   UNL A   1      40.601  34.745  34.412  1.00  0.00    -0.014 A 
ATOM     65  C   UNL A   1      39.804  33.823  35.108  1.00  0.00     0.010 A 
ATOM     66  C   UNL A   1      40.958  35.918  35.143  1.00  0.00     0.010 A 
ATOM     67  C   UNL A   1      39.460  34.015  36.470  1.00  0.00     0.020 A 
ATOM     68  C   UNL A   1      40.651  36.106  36.508  1.00  0.00     0.020 A 
ATOM     69  C   UNL A   1      39.903  35.143  37.170  1.00  0.00     0.054 A 
BRANCH  69  70
ATOM     70  S   UNL A   1      39.529  35.317  38.949  1.00  0.00     0.124 S 
ATOM     71  O   UNL A   1      38.568  34.241  39.173  1.00  0.00    -0.237 OA
ATOM     72  O   UNL A   1      40.836  35.133  39.576  1.00  0.00    -0.237 OA
ATOM     73  O   UNL A   1      38.980  36.667  39.064  1.00  0.00    -0.744 OA
ENDBRANCH  69  70
ENDBRANCH  50  64
BRANCH  51  74
ATOM     74  C   UNL A   1      45.589  29.858  26.791  1.00  0.00    -0.014 A 
ATOM     75  C   UNL A   1      46.822  29.326  26.314  1.00  0.00     0.010 A 
ATOM     76  C   UNL A   1      44.485  28.976  26.711  1.00  0.00     0.010 A 
ATOM     77  C   UNL A   1      46.982  27.979  25.914  1.00  0.00     0.020 A 
ATOM     78  C   UNL A   1      44.632  27.620  26.274  1.00  0.00     0.020 A 
ATOM     79  C   UNL A   1      45.891  27.117  25.929  1.00  0.00     0.054 A 
BRANCH  79  80
ATOM     80  S   UNL A   1      46.216  25.323  25.700  1.00  0.00     0.124 S 
ATOM     81  O   UNL A   1      47.640  25.287  25.384  1.00  0.00    -0.237 OA
ATOM     82  O   UNL A   1      45.860  24.776  27.011  1.00  0.00    -0.237 OA
ATOM     83  O   UNL A   1      45.332  24.944  24.603  1.00  0.00    -0.744 OA
ENDBRANCH  79  80
ENDBRANCH  51  74
BRANCH  63  84
ATOM     84  C   UNL A   1      43.582  36.697  28.580  1.00  0.00    -0.014 A 
ATOM     85  C   UNL A   1      44.105  37.993  28.749  1.00  0.00     0.010 A 
ATOM     86  C   UNL A   1      42.476  36.611  27.702  1.00  0.00     0.010 A 
ATOM     87  C   UNL A   1      43.517  39.133  28.200  1.00  0.00     0.020 A 
ATOM     88  C   UNL A   1      41.930  37.737  27.060  1.00  0.00     0.020 A 
ATOM     89  C   UNL A   1      42.426  38.999  27.359  1.00  0.00     0.054 A 
BRANCH  89  90
ATOM     90  S   UNL A   1      41.689  40.503  26.688  1.00  0.00     0.124 S 
ATOM     91  O   UNL A   1      40.976  41.026  27.851  1.00  0.00    -0.237 OA
ATOM     92  O   UNL A   1      42.860  41.273  26.274  1.00  0.00    -0.237 OA
ATOM     93  O   UNL A   1      40.846  40.021  25.598  1.00  0.00    -0.744 OA
ENDBRANCH  89  90
ENDBRANCH  63  84
ENDBRANCH  37  38
ENDBRANCH  30  32
ENDBRANCH  29  30
ENDBRANCH  28  29
ENDBRANCH  27  28
ENDBRANCH  26  27
ENDBRANCH  25  26
ENDBRANCH   1  25
TORSDOF 24
ENDMDL
MODEL 3
REMARK VINA RESULT:     -10.1      5.071      9.613
REMARK SMILES Cc1ccccc1[C@@H](Cc1ncnn1C(C)C)C(=O)OCCOCCOCCOC(=O)c1ccc(-c2c3nc(c(-c4ccc(S(=O)(=O)[O-])cc4)c4ccc([nH]4)c(-c4ccc(S(=O)(=O)[O-])cc4)c4nc(c(-c5ccc(S(=O)(=O)[O-])cc5)c5ccc2[nH]5)C=C4)C=C3)cc1
REMARK SMILES IDX 24 1 23 2 22 3 21 4 20 5 18 6 19 7 8 8 7 9 1 10 2 11 3 12
REMARK SMILES IDX 4 13 6 14 5 15 9 16 10 17 11 18 14 19 12 20 13 21 15 22
REMARK SMILES IDX 16 23 17 24 25 25 26 26 27 27 28 28 29 29 30 30 31 31 32 32
REMARK SMILES IDX 33 33 91 34 34 35 90 36 35 37 36 38 37 39 84 40 38 41 89 42
REMARK SMILES IDX 83 43 85 44 39 45 88 46 82 47 81 48 40 50 70 51 51 52 69 53
REMARK SMILES IDX 52 54 55 55 68 56 86 57 53 58 54 59 67 61 87 62 56 63 41 64
REMARK SMILES IDX 42 65 50 66 43 67 49 68 44 69 45 70 46 71 47 72 48 73 71 74
REMARK SMILES IDX 72 75 80 76 73 77 79 78 74 79 75 80 76 81 77 82 78 83 57 84
REMARK SMILES IDX 58 85 66 86 59 87 65 88 60 89 61 90 62 91 63 92 64 93
REMARK H PARENT 85 49 55 60
REMARK Flexibility Score: inf
ROOT
ATOM      1  C   UNL A   1      36.089  21.124  24.436  1.00  0.00     0.188 C 
ENDROOT
BRANCH   1   2
ATOM      2  O   UNL A   1      34.738  21.083  24.969  1.00  0.00    -0.376 OA
BRANCH   2   3
ATOM      3  C   UNL A   1      33.461  20.920  24.278  1.00  0.00     0.202 C 
BRANCH   3   4
ATOM      4  C   UNL A   1      32.588  21.862  22.998  1.00  0.00     0.261 C 
BRANCH   4   5
ATOM      5  O   UNL A   1      32.955  23.395  21.987  1.00  0.00    -0.463 OA
BRANCH   5   6
ATOM      6  C   UNL A   1      32.957  25.018  22.119  1.00  0.00     0.313 C 
ATOM      7  O   UNL A   1      33.626  25.871  21.477  1.00  0.00    -0.252 OA
BRANCH   6   8
ATOM      8  C   UNL A   1      32.462  25.740  23.315  1.00  0.00     0.137 C 
BRANCH   8   9
ATOM      9  C   UNL A   1      32.287  24.826  24.459  1.00  0.00    -0.030 A 
ATOM     10  C   UNL A   1      34.841  24.812  25.042  1.00  0.00     0.044 C 
ATOM     11  C   UNL A   1      33.376  24.521  25.328  1.00  0.00    -0.047 A 
ATOM     12  C   UNL A   1      33.081  23.915  26.548  1.00  0.00     0.004 A 
ATOM     13  C   UNL A   1      31.758  23.668  26.912  1.00  0.00     0.000 A 
ATOM     14  C   UNL A   1      30.972  24.537  24.814  1.00  0.00     0.005 A 
ATOM     15  C   UNL A   1      30.709  23.978  26.049  1.00  0.00     0.000 A 
ENDBRANCH   8   9
BRANCH   8  16
ATOM     16  C   UNL A   1      33.025  27.161  23.186  1.00  0.00     0.097 C 
BRANCH  16  17
ATOM     17  C   UNL A   1      32.540  27.927  24.358  1.00  0.00     0.128 A 
ATOM     18  N   UNL A   1      33.523  28.196  25.878  1.00  0.00    -0.220 NA
ATOM     19  N   UNL A   1      31.238  29.367  24.298  1.00  0.00    -0.248 N 
ATOM     20  C   UNL A   1      32.771  29.743  26.912  1.00  0.00     0.246 A 
ATOM     21  N   UNL A   1      31.546  30.594  25.811  1.00  0.00    -0.159 NA
BRANCH  19  22
ATOM     22  C   UNL A   1      30.052  29.259  23.447  1.00  0.00     0.103 C 
ATOM     23  C   UNL A   1      30.239  29.663  21.976  1.00  0.00     0.033 C 
ATOM     24  C   UNL A   1      29.438  27.899  23.629  1.00  0.00     0.033 C 
ENDBRANCH  19  22
ENDBRANCH  16  17
ENDBRANCH   8  16
ENDBRANCH   6   8
ENDBRANCH   5   6
ENDBRANCH   4   5
ENDBRANCH   3   4
ENDBRANCH   2   3
ENDBRANCH   1   2
BRANCH   1  25
ATOM     25  C   UNL A   1      37.256  21.340  25.351  1.00  0.00     0.188 C 
BRANCH  25  26
ATOM     26  O   UNL A   1      37.416  22.726  25.413  1.00  0.00    -0.376 OA
BRANCH  26  27
ATOM     27  C   UNL A   1      38.364  23.269  26.265  1.00  0.00     0.202 C 
BRANCH  27  28
ATOM     28  C   UNL A   1      39.610  22.401  26.348  1.00  0.00     0.261 C 
BRANCH  28  29
ATOM     29  O   UNL A   1      40.490  22.575  27.515  1.00  0.00    -0.460 OA
BRANCH  29  30
ATOM     30  C   UNL A   1      41.550  21.763  27.927  1.00  0.00     0.338 C 
ATOM     31  O   UNL A   1      41.591  20.585  27.599  1.00  0.00    -0.246 OA
BRANCH  30  32
ATOM     32  C   UNL A   1      42.777  22.514  28.350  1.00  0.00     0.060 A 
ATOM     33  C   UNL A   1      43.246  23.092  29.550  1.00  0.00     0.016 A 
ATOM     34  C   UNL A   1      43.624  22.640  27.334  1.00  0.00     0.016 A 
ATOM     35  C   UNL A   1      44.349  24.123  29.644  1.00  0.00     0.010 A 
ATOM     36  C   UNL A   1      44.514  23.692  27.423  1.00  0.00     0.010 A 
ATOM     37  C   UNL A   1      45.050  24.624  28.520  1.00  0.00    -0.014 A 
BRANCH  37  38
ATOM     38  C   UNL A   1      46.627  25.769  28.430  1.00  0.00     0.031 A 
ATOM     39  C   UNL A   1      48.363  25.340  29.295  1.00  0.00     0.074 A 
ATOM     40  C   UNL A   1      46.240  26.697  27.509  1.00  0.00     0.049 A 
ATOM     41  N   UNL A   1      49.979  26.057  29.358  1.00  0.00    -0.248 NA
ATOM     42  C   UNL A   1      50.311  25.337  30.137  1.00  0.00     0.031 C 
ATOM     43  C   UNL A   1      46.937  27.315  26.386  1.00  0.00     0.029 A 
ATOM     44  N   UNL A   1      44.917  27.053  27.274  1.00  0.00    -0.354 N 
ATOM     45  C   UNL A   1      51.039  26.831  28.956  1.00  0.00     0.074 A 
ATOM     46  C   UNL A   1      51.501  26.041  29.992  1.00  0.00     0.031 C 
ATOM     47  C   UNL A   1      46.071  28.057  25.672  1.00  0.00     0.029 A 
ATOM     48  C   UNL A   1      44.831  28.135  26.420  1.00  0.00     0.049 A 
ATOM     49  H   UNL A   1      44.140  26.592  27.665  1.00  0.00     0.167 HD
ATOM     50  C   UNL A   1      51.572  27.089  27.733  1.00  0.00     0.031 A 
ATOM     51  C   UNL A   1      44.177  29.230  26.879  1.00  0.00     0.031 A 
ATOM     52  C   UNL A   1      50.844  28.115  26.979  1.00  0.00     0.049 A 
ATOM     53  C   UNL A   1      45.230  30.305  27.140  1.00  0.00     0.074 A 
ATOM     54  C   UNL A   1      50.394  28.245  25.679  1.00  0.00     0.029 A 
ATOM     55  N   UNL A   1      50.257  29.189  27.657  1.00  0.00    -0.354 N 
ATOM     56  N   UNL A   1      46.511  30.154  26.866  1.00  0.00    -0.248 NA
ATOM     57  C   UNL A   1      44.967  31.642  27.646  1.00  0.00     0.031 C 
ATOM     58  C   UNL A   1      49.481  29.365  25.628  1.00  0.00     0.029 A 
ATOM     59  C   UNL A   1      49.388  29.961  26.882  1.00  0.00     0.049 A 
ATOM     60  H   UNL A   1      50.442  29.384  28.604  1.00  0.00     0.167 HD
ATOM     61  C   UNL A   1      47.256  31.202  27.301  1.00  0.00     0.074 A 
ATOM     62  C   UNL A   1      46.208  32.169  27.629  1.00  0.00     0.031 C 
ATOM     63  C   UNL A   1      48.628  31.118  27.488  1.00  0.00     0.031 A 
BRANCH  50  64
ATOM     64  C   UNL A   1      52.866  26.339  27.347  1.00  0.00    -0.014 A 
ATOM     65  C   UNL A   1      54.052  26.494  28.081  1.00  0.00     0.010 A 
ATOM     66  C   UNL A   1      52.922  25.381  26.290  1.00  0.00     0.010 A 
ATOM     67  C   UNL A   1      55.191  25.685  27.836  1.00  0.00     0.020 A 
ATOM     68  C   UNL A   1      54.036  24.546  26.058  1.00  0.00     0.020 A 
ATOM     69  C   UNL A   1      55.170  24.699  26.841  1.00  0.00     0.054 A 
BRANCH  69  70
ATOM     70  S   UNL A   1      56.613  23.605  26.613  1.00  0.00     0.124 S 
ATOM     71  O   UNL A   1      56.869  23.720  25.180  1.00  0.00    -0.237 OA
ATOM     72  O   UNL A   1      57.622  24.210  27.480  1.00  0.00    -0.237 OA
ATOM     73  O   UNL A   1      56.136  22.294  27.050  1.00  0.00    -0.744 OA
ENDBRANCH  69  70
ENDBRANCH  50  64
BRANCH  51  74
ATOM     74  C   UNL A   1      42.835  28.829  27.503  1.00  0.00    -0.014 A 
ATOM     75  C   UNL A   1      42.660  29.216  28.864  1.00  0.00     0.010 A 
ATOM     76  C   UNL A   1      41.637  28.599  26.786  1.00  0.00     0.010 A 
ATOM     77  C   UNL A   1      41.396  29.487  29.436  1.00  0.00     0.020 A 
ATOM     78  C   UNL A   1      40.350  28.838  27.370  1.00  0.00     0.020 A 
ATOM     79  C   UNL A   1      40.243  29.332  28.674  1.00  0.00     0.054 A 
BRANCH  79  80
ATOM     80  S   UNL A   1      38.669  29.988  29.362  1.00  0.00     0.124 S 
ATOM     81  O   UNL A   1      37.850  30.186  28.171  1.00  0.00    -0.237 OA
ATOM     82  O   UNL A   1      38.236  28.895  30.235  1.00  0.00    -0.237 OA
ATOM     83  O   UNL A   1      39.069  31.214  30.045  1.00  0.00    -0.744 OA
ENDBRANCH  79  80
ENDBRANCH  51  74
BRANCH  63  84
ATOM     84  C   UNL A   1      49.350  32.101  28.425  1.00  0.00    -0.014 A 
ATOM     85  C   UNL A   1      48.863  32.460  29.695  1.00  0.00     0.010 A 
ATOM     86  C   UNL A   1      50.624  32.625  28.105  1.00  0.00     0.010 A 
ATOM     87  C   UNL A   1      49.515  33.361  30.538  1.00  0.00     0.020 A 
ATOM     88  C   UNL A   1      51.343  33.456  28.984  1.00  0.00     0.020 A 
ATOM     89  C   UNL A   1      50.754  33.859  30.175  1.00  0.00     0.054 A 
BRANCH  89  90
ATOM     90  S   UNL A   1      51.550  35.035  31.289  1.00  0.00     0.124 S 
ATOM     91  O   UNL A   1      52.809  34.355  31.585  1.00  0.00    -0.237 OA
ATOM     92  O   UNL A   1      51.665  36.231  30.457  1.00  0.00    -0.237 OA
ATOM     93  O   UNL A   1      50.615  35.142  32.405  1.00  0.00    -0.744 OA
ENDBRANCH  89  90
ENDBRANCH  63  84
ENDBRANCH  37  38
ENDBRANCH  30  32
ENDBRANCH  29  30
ENDBRANCH  28  29
ENDBRANCH  27  28
ENDBRANCH  26  27
ENDBRANCH  25  26
ENDBRANCH   1  25
TORSDOF 24
ENDMDL
