MODEL 1
REMARK VINA RESULT:     -10.7      0.000      0.000
REMARK SMILES CC[C@@](C)(NC(=O)N1CCC[C@H]1C1CCCC1)C(=O)OCCOCCOCCOC(=O)c1ccc(-c2c3nc(c(-c4ccc(S(=O)(=O)[O-])cc4)c4ccc([nH]4)c(-c4ccc(S(=O)(=O)[O-])cc4)c4nc(c(-c5ccc(S(=O)(=O)[O-])cc5)c5ccc2[nH]5)C=C4)C=C3)cc1
REMARK SMILES IDX 24 1 23 2 22 3 21 4 20 5 18 6 19 7 3 8 4 9 2 10 1 11 5 12
REMARK SMILES IDX 6 13 7 15 8 16 9 17 12 18 10 19 11 20 13 21 14 22 17 23
REMARK SMILES IDX 15 24 16 25 25 26 26 27 27 28 28 29 29 30 30 31 31 32 32 33
REMARK SMILES IDX 33 34 91 35 34 36 90 37 35 38 36 39 37 40 84 41 38 42 89 43
REMARK SMILES IDX 83 44 85 45 39 46 88 47 82 48 81 49 40 51 70 52 51 53 69 54
REMARK SMILES IDX 52 55 55 56 68 57 86 58 53 59 54 60 67 62 87 63 56 64 41 65
REMARK SMILES IDX 42 66 50 67 43 68 49 69 44 70 45 71 46 72 47 73 48 74 71 75
REMARK SMILES IDX 72 76 80 77 73 78 79 79 74 80 75 81 76 82 77 83 78 84 57 85
REMARK SMILES IDX 58 86 66 87 59 88 65 89 60 90 61 91 62 92 63 93 64 94
REMARK H PARENT 5 14 85 50 55 61
REMARK Flexibility Score: inf
ROOT
ATOM      1  C   UNL A   1      37.158  21.951  25.465  1.00  0.00     0.188 C 
ENDROOT
BRANCH   1   2
ATOM      2  O   UNL A   1      36.576  22.034  24.137  1.00  0.00    -0.376 OA
BRANCH   2   3
ATOM      3  C   UNL A   1      36.195  23.223  23.424  1.00  0.00     0.202 C 
BRANCH   3   4
ATOM      4  C   UNL A   1      34.655  23.328  23.127  1.00  0.00     0.261 C 
BRANCH   4   5
ATOM      5  O   UNL A   1      34.224  24.628  22.735  1.00  0.00    -0.462 OA
BRANCH   5   6
ATOM      6  C   UNL A   1      32.897  24.655  22.522  1.00  0.00     0.331 C 
ATOM      7  O   UNL A   1      32.166  23.697  22.835  1.00  0.00    -0.249 OA
BRANCH   6   8
ATOM      8  C   UNL A   1      32.406  25.992  21.947  1.00  0.00     0.136 C 
ATOM      9  C   UNL A   1      33.671  26.902  21.975  1.00  0.00     0.047 C 
BRANCH   8  10
ATOM     10  C   UNL A   1      32.050  25.942  20.405  1.00  0.00     0.037 C 
ATOM     11  C   UNL A   1      32.766  24.877  19.564  1.00  0.00     0.007 C 
ENDBRANCH   8  10
BRANCH   8  12
ATOM     12  N   UNL A   1      31.416  26.700  22.893  1.00  0.00    -0.322 N 
ATOM     13  C   UNL A   1      31.255  27.518  23.973  1.00  0.00     0.318 C 
ATOM     14  H   UNL A   1      30.512  26.458  22.586  1.00  0.00     0.166 HD
ATOM     15  O   UNL A   1      30.102  27.991  23.982  1.00  0.00    -0.249 OA
BRANCH  13  16
ATOM     16  N   UNL A   1      32.247  27.856  24.988  1.00  0.00    -0.322 N 
ATOM     17  C   UNL A   1      31.535  28.814  25.802  1.00  0.00     0.122 C 
ATOM     18  C   UNL A   1      33.422  26.889  26.088  1.00  0.00     0.090 C 
ATOM     19  C   UNL A   1      32.468  29.324  26.845  1.00  0.00     0.024 C 
ATOM     20  C   UNL A   1      33.618  28.321  27.008  1.00  0.00     0.027 C 
BRANCH  18  21
ATOM     21  C   UNL A   1      33.259  24.900  26.616  1.00  0.00     0.012 C 
ATOM     22  C   UNL A   1      31.825  23.846  26.231  1.00  0.00     0.006 C 
ATOM     23  C   UNL A   1      34.138  23.511  26.540  1.00  0.00     0.006 C 
ATOM     24  C   UNL A   1      31.815  22.770  27.268  1.00  0.00     0.000 C 
ATOM     25  C   UNL A   1      33.268  22.355  27.248  1.00  0.00     0.000 C 
ENDBRANCH  18  21
ENDBRANCH  13  16
ENDBRANCH   8  12
ENDBRANCH   6   8
ENDBRANCH   5   6
ENDBRANCH   4   5
ENDBRANCH   3   4
ENDBRANCH   2   3
ENDBRANCH   1   2
BRANCH   1  26
ATOM     26  C   UNL A   1      38.576  22.962  26.065  1.00  0.00     0.188 C 
BRANCH  26  27
ATOM     27  O   UNL A   1      40.222  22.447  26.703  1.00  0.00    -0.376 OA
BRANCH  27  28
ATOM     28  C   UNL A   1      41.823  22.069  25.915  1.00  0.00     0.202 C 
BRANCH  28  29
ATOM     29  C   UNL A   1      43.096  23.176  25.086  1.00  0.00     0.261 C 
BRANCH  29  30
ATOM     30  O   UNL A   1      43.784  24.418  25.920  1.00  0.00    -0.460 OA
BRANCH  30  31
ATOM     31  C   UNL A   1      43.452  25.772  25.961  1.00  0.00     0.338 C 
ATOM     32  O   UNL A   1      43.357  26.454  24.943  1.00  0.00    -0.246 OA
BRANCH  31  33
ATOM     33  C   UNL A   1      43.053  26.410  27.346  1.00  0.00     0.060 A 
ATOM     34  C   UNL A   1      42.061  25.856  28.191  1.00  0.00     0.016 A 
ATOM     35  C   UNL A   1      43.448  27.698  27.729  1.00  0.00     0.016 A 
ATOM     36  C   UNL A   1      41.607  26.472  29.424  1.00  0.00     0.010 A 
ATOM     37  C   UNL A   1      42.956  28.344  28.931  1.00  0.00     0.010 A 
ATOM     38  C   UNL A   1      42.043  27.744  29.826  1.00  0.00    -0.014 A 
BRANCH  38  39
ATOM     39  C   UNL A   1      41.548  28.481  31.085  1.00  0.00     0.031 A 
ATOM     40  C   UNL A   1      40.357  29.440  31.037  1.00  0.00     0.074 A 
ATOM     41  C   UNL A   1      42.148  28.379  32.301  1.00  0.00     0.049 A 
ATOM     42  N   UNL A   1      39.941  30.314  31.930  1.00  0.00    -0.248 NA
ATOM     43  C   UNL A   1      39.522  29.389  29.832  1.00  0.00     0.031 C 
ATOM     44  C   UNL A   1      43.216  27.446  32.644  1.00  0.00     0.029 A 
ATOM     45  N   UNL A   1      41.951  29.091  33.481  1.00  0.00    -0.354 N 
ATOM     46  C   UNL A   1      38.823  30.947  31.382  1.00  0.00     0.074 A 
ATOM     47  C   UNL A   1      38.617  30.329  30.084  1.00  0.00     0.031 C 
ATOM     48  C   UNL A   1      43.610  27.671  33.915  1.00  0.00     0.029 A 
ATOM     49  C   UNL A   1      42.866  28.802  34.478  1.00  0.00     0.049 A 
ATOM     50  H   UNL A   1      41.224  29.745  33.596  1.00  0.00     0.167 HD
ATOM     51  C   UNL A   1      38.049  31.951  31.879  1.00  0.00     0.031 A 
ATOM     52  C   UNL A   1      43.129  29.385  35.676  1.00  0.00     0.031 A 
ATOM     53  C   UNL A   1      38.210  32.595  33.164  1.00  0.00     0.049 A 
ATOM     54  C   UNL A   1      42.346  30.594  36.158  1.00  0.00     0.074 A 
ATOM     55  C   UNL A   1      37.444  33.616  33.713  1.00  0.00     0.029 A 
ATOM     56  N   UNL A   1      39.193  32.306  34.092  1.00  0.00    -0.354 N 
ATOM     57  N   UNL A   1      41.315  31.184  35.606  1.00  0.00    -0.248 NA
ATOM     58  C   UNL A   1      42.778  31.226  37.422  1.00  0.00     0.031 C 
ATOM     59  C   UNL A   1      38.010  33.992  34.938  1.00  0.00     0.029 A 
ATOM     60  C   UNL A   1      39.085  33.159  35.184  1.00  0.00     0.049 A 
ATOM     61  H   UNL A   1      39.871  31.600  33.993  1.00  0.00     0.167 HD
ATOM     62  C   UNL A   1      40.967  32.232  36.460  1.00  0.00     0.074 A 
ATOM     63  C   UNL A   1      41.882  32.193  37.578  1.00  0.00     0.031 C 
ATOM     64  C   UNL A   1      39.973  33.143  36.318  1.00  0.00     0.031 A 
BRANCH  51  65
ATOM     65  C   UNL A   1      36.956  32.504  30.990  1.00  0.00    -0.014 A 
ATOM     66  C   UNL A   1      37.222  33.453  29.989  1.00  0.00     0.010 A 
ATOM     67  C   UNL A   1      35.649  31.988  31.108  1.00  0.00     0.010 A 
ATOM     68  C   UNL A   1      36.195  33.908  29.154  1.00  0.00     0.020 A 
ATOM     69  C   UNL A   1      34.626  32.421  30.260  1.00  0.00     0.020 A 
ATOM     70  C   UNL A   1      34.901  33.395  29.300  1.00  0.00     0.054 A 
BRANCH  70  71
ATOM     71  S   UNL A   1      33.589  34.000  28.203  1.00  0.00     0.124 S 
ATOM     72  O   UNL A   1      34.334  34.876  27.300  1.00  0.00    -0.237 OA
ATOM     73  O   UNL A   1      33.077  32.771  27.603  1.00  0.00    -0.237 OA
ATOM     74  O   UNL A   1      32.665  34.682  29.105  1.00  0.00    -0.744 OA
ENDBRANCH  70  71
ENDBRANCH  51  65
BRANCH  52  75
ATOM     75  C   UNL A   1      44.280  28.909  36.514  1.00  0.00    -0.014 A 
ATOM     76  C   UNL A   1      44.141  27.835  37.415  1.00  0.00     0.010 A 
ATOM     77  C   UNL A   1      45.509  29.593  36.470  1.00  0.00     0.010 A 
ATOM     78  C   UNL A   1      45.200  27.464  38.254  1.00  0.00     0.020 A 
ATOM     79  C   UNL A   1      46.580  29.206  37.284  1.00  0.00     0.020 A 
ATOM     80  C   UNL A   1      46.415  28.151  38.181  1.00  0.00     0.054 A 
BRANCH  80  81
ATOM     81  S   UNL A   1      47.796  27.627  39.239  1.00  0.00     0.124 S 
ATOM     82  O   UNL A   1      47.643  26.174  39.244  1.00  0.00    -0.237 OA
ATOM     83  O   UNL A   1      48.960  28.137  38.517  1.00  0.00    -0.237 OA
ATOM     84  O   UNL A   1      47.521  28.290  40.510  1.00  0.00    -0.744 OA
ENDBRANCH  80  81
ENDBRANCH  52  75
BRANCH  64  85
ATOM     85  C   UNL A   1      39.770  34.179  37.402  1.00  0.00    -0.014 A 
ATOM     86  C   UNL A   1      39.052  33.884  38.575  1.00  0.00     0.010 A 
ATOM     87  C   UNL A   1      40.385  35.442  37.288  1.00  0.00     0.010 A 
ATOM     88  C   UNL A   1      38.944  34.829  39.605  1.00  0.00     0.020 A 
ATOM     89  C   UNL A   1      40.299  36.382  38.324  1.00  0.00     0.020 A 
ATOM     90  C   UNL A   1      39.573  36.071  39.475  1.00  0.00     0.054 A 
BRANCH  90  91
ATOM     91  S   UNL A   1      39.480  37.251  40.854  1.00  0.00     0.124 S 
ATOM     92  O   UNL A   1      38.937  36.426  41.929  1.00  0.00    -0.237 OA
ATOM     93  O   UNL A   1      40.873  37.661  41.021  1.00  0.00    -0.237 OA
ATOM     94  O   UNL A   1      38.586  38.296  40.359  1.00  0.00    -0.744 OA
ENDBRANCH  90  91
ENDBRANCH  64  85
ENDBRANCH  38  39
ENDBRANCH  31  33
ENDBRANCH  30  31
ENDBRANCH  29  30
ENDBRANCH  28  29
ENDBRANCH  27  28
ENDBRANCH  26  27
ENDBRANCH   1  26
TORSDOF 24
ENDMDL
MODEL 2
REMARK VINA RESULT:     -10.0      1.473      2.975
REMARK SMILES CC[C@@](C)(NC(=O)N1CCC[C@H]1C1CCCC1)C(=O)OCCOCCOCCOC(=O)c1ccc(-c2c3nc(c(-c4ccc(S(=O)(=O)[O-])cc4)c4ccc([nH]4)c(-c4ccc(S(=O)(=O)[O-])cc4)c4nc(c(-c5ccc(S(=O)(=O)[O-])cc5)c5ccc2[nH]5)C=C4)C=C3)cc1
REMARK SMILES IDX 24 1 23 2 22 3 21 4 20 5 18 6 19 7 3 8 4 9 2 10 1 11 5 12
REMARK SMILES IDX 6 13 7 15 8 16 9 17 12 18 10 19 11 20 13 21 14 22 17 23
REMARK SMILES IDX 15 24 16 25 25 26 26 27 27 28 28 29 29 30 30 31 31 32 32 33
REMARK SMILES IDX 33 34 91 35 34 36 90 37 35 38 36 39 37 40 84 41 38 42 89 43
REMARK SMILES IDX 83 44 85 45 39 46 88 47 82 48 81 49 40 51 70 52 51 53 69 54
REMARK SMILES IDX 52 55 55 56 68 57 86 58 53 59 54 60 67 62 87 63 56 64 41 65
REMARK SMILES IDX 42 66 50 67 43 68 49 69 44 70 45 71 46 72 47 73 48 74 71 75
REMARK SMILES IDX 72 76 80 77 73 78 79 79 74 80 75 81 76 82 77 83 78 84 57 85
REMARK SMILES IDX 58 86 66 87 59 88 65 89 60 90 61 91 62 92 63 93 64 94
REMARK H PARENT 5 14 85 50 55 61
REMARK Flexibility Score: inf
ROOT
ATOM      1  C   UNL A   1      37.359  23.471  25.307  1.00  0.00     0.188 C 
ENDROOT
BRANCH   1   2
ATOM      2  O   UNL A   1      35.938  23.747  25.182  1.00  0.00    -0.376 OA
BRANCH   2   3
ATOM      3  C   UNL A   1      35.153  24.652  25.976  1.00  0.00     0.202 C 
BRANCH   3   4
ATOM      4  C   UNL A   1      34.033  23.951  26.829  1.00  0.00     0.261 C 
BRANCH   4   5
ATOM      5  O   UNL A   1      33.011  23.332  26.053  1.00  0.00    -0.462 OA
BRANCH   5   6
ATOM      6  C   UNL A   1      33.262  22.022  25.880  1.00  0.00     0.331 C 
ATOM      7  O   UNL A   1      33.900  21.362  26.720  1.00  0.00    -0.249 OA
BRANCH   6   8
ATOM      8  C   UNL A   1      32.616  21.449  24.609  1.00  0.00     0.136 C 
ATOM      9  C   UNL A   1      33.753  21.514  23.545  1.00  0.00     0.047 C 
BRANCH   8  10
ATOM     10  C   UNL A   1      32.303  19.898  24.685  1.00  0.00     0.037 C 
ATOM     11  C   UNL A   1      33.375  18.948  24.133  1.00  0.00     0.007 C 
ENDBRANCH   8  10
BRANCH   8  12
ATOM     12  N   UNL A   1      31.523  22.378  24.045  1.00  0.00    -0.322 N 
ATOM     13  C   UNL A   1      31.206  23.626  23.596  1.00  0.00     0.318 C 
ATOM     14  H   UNL A   1      30.701  21.839  23.984  1.00  0.00     0.166 HD
ATOM     15  O   UNL A   1      30.160  23.584  22.919  1.00  0.00    -0.249 OA
BRANCH  13  16
ATOM     16  N   UNL A   1      31.949  24.864  23.811  1.00  0.00    -0.322 N 
ATOM     17  C   UNL A   1      32.904  24.837  22.728  1.00  0.00     0.122 C 
ATOM     18  C   UNL A   1      31.499  26.650  24.171  1.00  0.00     0.090 C 
ATOM     19  C   UNL A   1      33.806  26.014  22.874  1.00  0.00     0.024 C 
ATOM     20  C   UNL A   1      33.109  27.060  23.753  1.00  0.00     0.027 C 
BRANCH  18  21
ATOM     21  C   UNL A   1      29.684  27.562  23.802  1.00  0.00     0.012 C 
ATOM     22  C   UNL A   1      29.379  28.737  22.444  1.00  0.00     0.006 C 
ATOM     23  C   UNL A   1      28.095  27.165  23.645  1.00  0.00     0.006 C 
ATOM     24  C   UNL A   1      28.236  29.591  22.888  1.00  0.00     0.000 C 
ATOM     25  C   UNL A   1      27.283  28.534  23.395  1.00  0.00     0.000 C 
ENDBRANCH  18  21
ENDBRANCH  13  16
ENDBRANCH   8  12
ENDBRANCH   6   8
ENDBRANCH   5   6
ENDBRANCH   4   5
ENDBRANCH   3   4
ENDBRANCH   2   3
ENDBRANCH   1   2
BRANCH   1  26
ATOM     26  C   UNL A   1      38.408  23.943  26.746  1.00  0.00     0.188 C 
BRANCH  26  27
ATOM     27  O   UNL A   1      40.174  23.577  27.105  1.00  0.00    -0.376 OA
BRANCH  27  28
ATOM     28  C   UNL A   1      41.479  22.656  26.223  1.00  0.00     0.202 C 
BRANCH  28  29
ATOM     29  C   UNL A   1      42.930  23.241  25.182  1.00  0.00     0.261 C 
BRANCH  29  30
ATOM     30  O   UNL A   1      43.261  24.848  25.049  1.00  0.00    -0.460 OA
BRANCH  30  31
ATOM     31  C   UNL A   1      44.047  25.678  25.849  1.00  0.00     0.338 C 
ATOM     32  O   UNL A   1      45.223  25.918  25.585  1.00  0.00    -0.246 OA
BRANCH  31  33
ATOM     33  C   UNL A   1      43.364  26.436  27.050  1.00  0.00     0.060 A 
ATOM     34  C   UNL A   1      43.570  27.813  27.308  1.00  0.00     0.016 A 
ATOM     35  C   UNL A   1      42.718  25.767  28.099  1.00  0.00     0.016 A 
ATOM     36  C   UNL A   1      43.031  28.513  28.459  1.00  0.00     0.010 A 
ATOM     37  C   UNL A   1      42.226  26.452  29.279  1.00  0.00     0.010 A 
ATOM     38  C   UNL A   1      42.344  27.845  29.484  1.00  0.00    -0.014 A 
BRANCH  38  39
ATOM     39  C   UNL A   1      41.809  28.518  30.762  1.00  0.00     0.031 A 
ATOM     40  C   UNL A   1      40.579  29.427  30.735  1.00  0.00     0.074 A 
ATOM     41  C   UNL A   1      42.405  28.402  31.978  1.00  0.00     0.049 A 
ATOM     42  N   UNL A   1      40.121  30.253  31.654  1.00  0.00    -0.248 NA
ATOM     43  C   UNL A   1      39.755  29.381  29.523  1.00  0.00     0.031 C 
ATOM     44  C   UNL A   1      43.510  27.504  32.300  1.00  0.00     0.029 A 
ATOM     45  N   UNL A   1      42.170  29.065  33.179  1.00  0.00    -0.354 N 
ATOM     46  C   UNL A   1      38.981  30.856  31.117  1.00  0.00     0.074 A 
ATOM     47  C   UNL A   1      38.809  30.273  29.799  1.00  0.00     0.031 C 
ATOM     48  C   UNL A   1      43.886  27.704  33.580  1.00  0.00     0.029 A 
ATOM     49  C   UNL A   1      43.090  28.783  34.174  1.00  0.00     0.049 A 
ATOM     50  H   UNL A   1      41.416  29.684  33.310  1.00  0.00     0.167 HD
ATOM     51  C   UNL A   1      38.161  31.809  31.641  1.00  0.00     0.031 A 
ATOM     52  C   UNL A   1      43.320  29.337  35.392  1.00  0.00     0.031 A 
ATOM     53  C   UNL A   1      38.286  32.417  32.947  1.00  0.00     0.049 A 
ATOM     54  C   UNL A   1      42.484  30.495  35.907  1.00  0.00     0.074 A 
ATOM     55  C   UNL A   1      37.474  33.387  33.524  1.00  0.00     0.029 A 
ATOM     56  N   UNL A   1      39.275  32.139  33.873  1.00  0.00    -0.354 N 
ATOM     57  N   UNL A   1      41.432  31.058  35.367  1.00  0.00    -0.248 NA
ATOM     58  C   UNL A   1      42.880  31.102  37.195  1.00  0.00     0.031 C 
ATOM     59  C   UNL A   1      38.015  33.745  34.764  1.00  0.00     0.029 A 
ATOM     60  C   UNL A   1      39.123  32.950  34.992  1.00  0.00     0.049 A 
ATOM     61  H   UNL A   1      39.983  31.466  33.757  1.00  0.00     0.167 HD
ATOM     62  C   UNL A   1      41.035  32.062  36.252  1.00  0.00     0.074 A 
ATOM     63  C   UNL A   1      41.943  32.025  37.375  1.00  0.00     0.031 C 
ATOM     64  C   UNL A   1      40.004  32.935  36.132  1.00  0.00     0.031 A 
BRANCH  51  65
ATOM     65  C   UNL A   1      37.051  32.345  30.762  1.00  0.00    -0.014 A 
ATOM     66  C   UNL A   1      35.792  31.726  30.696  1.00  0.00     0.010 A 
ATOM     67  C   UNL A   1      37.255  33.551  30.060  1.00  0.00     0.010 A 
ATOM     68  C   UNL A   1      34.773  32.277  29.909  1.00  0.00     0.020 A 
ATOM     69  C   UNL A   1      36.233  34.117  29.294  1.00  0.00     0.020 A 
ATOM     70  C   UNL A   1      35.003  33.465  29.206  1.00  0.00     0.054 A 
BRANCH  70  71
ATOM     71  S   UNL A   1      33.664  34.159  28.196  1.00  0.00     0.124 S 
ATOM     72  O   UNL A   1      32.988  32.951  27.726  1.00  0.00    -0.237 OA
ATOM     73  O   UNL A   1      32.916  34.961  29.159  1.00  0.00    -0.237 OA
ATOM     74  O   UNL A   1      34.363  34.920  27.164  1.00  0.00    -0.744 OA
ENDBRANCH  70  71
ENDBRANCH  51  65
BRANCH  52  75
ATOM     75  C   UNL A   1      44.485  28.882  36.224  1.00  0.00    -0.014 A 
ATOM     76  C   UNL A   1      45.770  29.435  36.058  1.00  0.00     0.010 A 
ATOM     77  C   UNL A   1      44.322  27.824  37.138  1.00  0.00     0.010 A 
ATOM     78  C   UNL A   1      46.862  28.934  36.778  1.00  0.00     0.020 A 
ATOM     79  C   UNL A   1      45.405  27.342  37.883  1.00  0.00     0.020 A 
ATOM     80  C   UNL A   1      46.671  27.892  37.690  1.00  0.00     0.054 A 
BRANCH  80  81
ATOM     81  S   UNL A   1      48.087  27.287  38.654  1.00  0.00     0.124 S 
ATOM     82  O   UNL A   1      48.262  25.936  38.127  1.00  0.00    -0.237 OA
ATOM     83  O   UNL A   1      49.138  28.242  38.307  1.00  0.00    -0.237 OA
ATOM     84  O   UNL A   1      47.618  27.364  40.035  1.00  0.00    -0.744 OA
ENDBRANCH  80  81
ENDBRANCH  52  75
BRANCH  64  85
ATOM     85  C   UNL A   1      39.750  33.925  37.247  1.00  0.00    -0.014 A 
ATOM     86  C   UNL A   1      38.873  33.630  38.306  1.00  0.00     0.010 A 
ATOM     87  C   UNL A   1      40.470  35.136  37.287  1.00  0.00     0.010 A 
ATOM     88  C   UNL A   1      38.712  34.524  39.373  1.00  0.00     0.020 A 
ATOM     89  C   UNL A   1      40.331  36.023  38.363  1.00  0.00     0.020 A 
ATOM     90  C   UNL A   1      39.447  35.714  39.398  1.00  0.00     0.054 A 
BRANCH  90  91
ATOM     91  S   UNL A   1      39.277  36.822  40.828  1.00  0.00     0.124 S 
ATOM     92  O   UNL A   1      38.471  36.021  41.744  1.00  0.00    -0.237 OA
ATOM     93  O   UNL A   1      40.663  37.037  41.235  1.00  0.00    -0.237 OA
ATOM     94  O   UNL A   1      38.607  38.000  40.278  1.00  0.00    -0.744 OA
ENDBRANCH  90  91
ENDBRANCH  64  85
ENDBRANCH  38  39
ENDBRANCH  31  33
ENDBRANCH  30  31
ENDBRANCH  29  30
ENDBRANCH  28  29
ENDBRANCH  27  28
ENDBRANCH  26  27
ENDBRANCH   1  26
TORSDOF 24
ENDMDL
MODEL 3
REMARK VINA RESULT:     -10.0      3.198      9.311
REMARK SMILES CC[C@@](C)(NC(=O)N1CCC[C@H]1C1CCCC1)C(=O)OCCOCCOCCOC(=O)c1ccc(-c2c3nc(c(-c4ccc(S(=O)(=O)[O-])cc4)c4ccc([nH]4)c(-c4ccc(S(=O)(=O)[O-])cc4)c4nc(c(-c5ccc(S(=O)(=O)[O-])cc5)c5ccc2[nH]5)C=C4)C=C3)cc1
REMARK SMILES IDX 24 1 23 2 22 3 21 4 20 5 18 6 19 7 3 8 4 9 2 10 1 11 5 12
REMARK SMILES IDX 6 13 7 15 8 16 9 17 12 18 10 19 11 20 13 21 14 22 17 23
REMARK SMILES IDX 15 24 16 25 25 26 26 27 27 28 28 29 29 30 30 31 31 32 32 33
REMARK SMILES IDX 33 34 91 35 34 36 90 37 35 38 36 39 37 40 84 41 38 42 89 43
REMARK SMILES IDX 83 44 85 45 39 46 88 47 82 48 81 49 40 51 70 52 51 53 69 54
REMARK SMILES IDX 52 55 55 56 68 57 86 58 53 59 54 60 67 62 87 63 56 64 41 65
REMARK SMILES IDX 42 66 50 67 43 68 49 69 44 70 45 71 46 72 47 73 48 74 71 75
REMARK SMILES IDX 72 76 80 77 73 78 79 79 74 80 75 81 76 82 77 83 78 84 57 85
REMARK SMILES IDX 58 86 66 87 59 88 65 89 60 90 61 91 62 92 63 93 64 94
REMARK H PARENT 5 14 85 50 55 61
REMARK Flexibility Score: inf
ROOT
ATOM      1  C   UNL A   1      34.353  30.403  27.417  1.00  0.00     0.188 C 
ENDROOT
BRANCH   1   2
ATOM      2  O   UNL A   1      33.057  31.002  27.149  1.00  0.00    -0.376 OA
BRANCH   2   3
ATOM      3  C   UNL A   1      31.836  30.324  26.811  1.00  0.00     0.202 C 
BRANCH   3   4
ATOM      4  C   UNL A   1      31.660  30.047  25.273  1.00  0.00     0.261 C 
BRANCH   4   5
ATOM      5  O   UNL A   1      31.011  28.816  24.972  1.00  0.00    -0.462 OA
BRANCH   5   6
ATOM      6  C   UNL A   1      31.905  27.858  24.671  1.00  0.00     0.331 C 
ATOM      7  O   UNL A   1      32.659  27.374  25.534  1.00  0.00    -0.249 OA
BRANCH   6   8
ATOM      8  C   UNL A   1      31.823  27.396  23.208  1.00  0.00     0.136 C 
ATOM      9  C   UNL A   1      30.628  28.207  22.622  1.00  0.00     0.047 C 
BRANCH   8  10
ATOM     10  C   UNL A   1      33.036  27.873  22.310  1.00  0.00     0.037 C 
ATOM     11  C   UNL A   1      34.069  28.794  22.974  1.00  0.00     0.007 C 
ENDBRANCH   8  10
BRANCH   8  12
ATOM     12  N   UNL A   1      31.372  25.927  23.089  1.00  0.00    -0.322 N 
ATOM     13  C   UNL A   1      31.116  24.756  23.739  1.00  0.00     0.318 C 
ATOM     14  H   UNL A   1      31.192  25.765  22.134  1.00  0.00     0.166 HD
ATOM     15  O   UNL A   1      30.400  24.022  23.030  1.00  0.00    -0.249 OA
BRANCH  13  16
ATOM     16  N   UNL A   1      31.556  24.364  25.074  1.00  0.00    -0.322 N 
ATOM     17  C   UNL A   1      30.561  23.385  25.447  1.00  0.00     0.122 C 
ATOM     18  C   UNL A   1      33.193  23.887  25.859  1.00  0.00     0.090 C 
ATOM     19  C   UNL A   1      30.833  22.956  26.848  1.00  0.00     0.024 C 
ATOM     20  C   UNL A   1      32.294  23.284  27.186  1.00  0.00     0.027 C 
BRANCH  18  21
ATOM     21  C   UNL A   1      34.874  23.195  24.879  1.00  0.00     0.012 C 
ATOM     22  C   UNL A   1      35.533  21.505  25.034  1.00  0.00     0.006 C 
ATOM     23  C   UNL A   1      35.515  23.169  23.364  1.00  0.00     0.006 C 
ATOM     24  C   UNL A   1      36.991  21.603  24.721  1.00  0.00     0.000 C 
ATOM     25  C   UNL A   1      36.947  22.440  23.464  1.00  0.00     0.000 C 
ENDBRANCH  18  21
ENDBRANCH  13  16
ENDBRANCH   8  12
ENDBRANCH   6   8
ENDBRANCH   5   6
ENDBRANCH   4   5
ENDBRANCH   3   4
ENDBRANCH   2   3
ENDBRANCH   1   2
BRANCH   1  26
ATOM     26  C   UNL A   1      35.902  31.338  27.761  1.00  0.00     0.188 C 
BRANCH  26  27
ATOM     27  O   UNL A   1      36.179  32.861  28.754  1.00  0.00    -0.376 OA
BRANCH  27  28
ATOM     28  C   UNL A   1      35.089  34.194  29.356  1.00  0.00     0.202 C 
BRANCH  28  29
ATOM     29  C   UNL A   1      33.227  34.426  29.247  1.00  0.00     0.261 C 
BRANCH  29  30
ATOM     30  O   UNL A   1      32.440  35.355  30.355  1.00  0.00    -0.460 OA
BRANCH  30  31
ATOM     31  C   UNL A   1      32.457  35.307  31.749  1.00  0.00     0.338 C 
ATOM     32  O   UNL A   1      31.457  35.543  32.424  1.00  0.00    -0.246 OA
BRANCH  31  33
ATOM     33  C   UNL A   1      33.763  34.801  32.471  1.00  0.00     0.060 A 
ATOM     34  C   UNL A   1      34.917  35.607  32.626  1.00  0.00     0.016 A 
ATOM     35  C   UNL A   1      33.985  33.452  32.778  1.00  0.00     0.016 A 
ATOM     36  C   UNL A   1      36.164  35.137  33.200  1.00  0.00     0.010 A 
ATOM     37  C   UNL A   1      35.248  32.965  33.300  1.00  0.00     0.010 A 
ATOM     38  C   UNL A   1      36.365  33.793  33.550  1.00  0.00    -0.014 A 
BRANCH  38  39
ATOM     39  C   UNL A   1      37.686  33.219  34.098  1.00  0.00     0.031 A 
ATOM     40  C   UNL A   1      37.997  33.212  35.596  1.00  0.00     0.074 A 
ATOM     41  C   UNL A   1      38.678  32.731  33.307  1.00  0.00     0.049 A 
ATOM     42  N   UNL A   1      39.135  32.984  36.219  1.00  0.00    -0.248 NA
ATOM     43  C   UNL A   1      36.875  33.480  36.501  1.00  0.00     0.031 C 
ATOM     44  C   UNL A   1      38.586  32.512  31.867  1.00  0.00     0.029 A 
ATOM     45  N   UNL A   1      39.981  32.345  33.608  1.00  0.00    -0.354 N 
ATOM     46  C   UNL A   1      38.878  33.121  37.585  1.00  0.00     0.074 A 
ATOM     47  C   UNL A   1      37.463  33.427  37.692  1.00  0.00     0.031 C 
ATOM     48  C   UNL A   1      39.778  32.082  31.407  1.00  0.00     0.029 A 
ATOM     49  C   UNL A   1      40.753  32.039  32.501  1.00  0.00     0.049 A 
ATOM     50  H   UNL A   1      40.325  32.294  34.529  1.00  0.00     0.167 HD
ATOM     51  C   UNL A   1      39.719  33.025  38.652  1.00  0.00     0.031 A 
ATOM     52  C   UNL A   1      42.082  31.802  32.349  1.00  0.00     0.031 A 
ATOM     53  C   UNL A   1      41.132  32.719  38.600  1.00  0.00     0.049 A 
ATOM     54  C   UNL A   1      43.034  31.836  33.532  1.00  0.00     0.074 A 
ATOM     55  C   UNL A   1      42.025  32.608  39.658  1.00  0.00     0.029 A 
ATOM     56  N   UNL A   1      41.864  32.491  37.449  1.00  0.00    -0.354 N 
ATOM     57  N   UNL A   1      42.764  31.993  34.804  1.00  0.00    -0.248 NA
ATOM     58  C   UNL A   1      44.475  31.674  33.252  1.00  0.00     0.031 C 
ATOM     59  C   UNL A   1      43.307  32.385  39.141  1.00  0.00     0.029 A 
ATOM     60  C   UNL A   1      43.201  32.289  37.766  1.00  0.00     0.049 A 
ATOM     61  H   UNL A   1      41.491  32.475  36.538  1.00  0.00     0.167 HD
ATOM     62  C   UNL A   1      43.991  31.929  35.468  1.00  0.00     0.074 A 
ATOM     63  C   UNL A   1      45.007  31.701  34.468  1.00  0.00     0.031 C 
ATOM     64  C   UNL A   1      44.240  32.051  36.796  1.00  0.00     0.031 A 
BRANCH  51  65
ATOM     65  C   UNL A   1      39.156  33.333  40.023  1.00  0.00    -0.014 A 
ATOM     66  C   UNL A   1      39.093  34.645  40.522  1.00  0.00     0.010 A 
ATOM     67  C   UNL A   1      38.596  32.287  40.784  1.00  0.00     0.010 A 
ATOM     68  C   UNL A   1      38.523  34.898  41.776  1.00  0.00     0.020 A 
ATOM     69  C   UNL A   1      38.003  32.539  42.024  1.00  0.00     0.020 A 
ATOM     70  C   UNL A   1      37.989  33.842  42.523  1.00  0.00     0.054 A 
BRANCH  70  71
ATOM     71  S   UNL A   1      37.253  34.199  44.143  1.00  0.00     0.124 S 
ATOM     72  O   UNL A   1      38.243  33.626  45.054  1.00  0.00    -0.237 OA
ATOM     73  O   UNL A   1      37.170  35.657  44.145  1.00  0.00    -0.237 OA
ATOM     74  O   UNL A   1      35.969  33.504  44.105  1.00  0.00    -0.744 OA
ENDBRANCH  70  71
ENDBRANCH  51  65
BRANCH  52  75
ATOM     75  C   UNL A   1      42.664  31.601  30.980  1.00  0.00    -0.014 A 
ATOM     76  C   UNL A   1      42.877  30.314  30.451  1.00  0.00     0.010 A 
ATOM     77  C   UNL A   1      43.086  32.715  30.228  1.00  0.00     0.010 A 
ATOM     78  C   UNL A   1      43.505  30.145  29.209  1.00  0.00     0.020 A 
ATOM     79  C   UNL A   1      43.686  32.552  28.974  1.00  0.00     0.020 A 
ATOM     80  C   UNL A   1      43.902  31.267  28.476  1.00  0.00     0.054 A 
BRANCH  80  81
ATOM     81  S   UNL A   1      44.670  31.036  26.846  1.00  0.00     0.124 S 
ATOM     82  O   UNL A   1      44.305  29.657  26.530  1.00  0.00    -0.237 OA
ATOM     83  O   UNL A   1      44.014  32.063  26.039  1.00  0.00    -0.237 OA
ATOM     84  O   UNL A   1      46.089  31.265  27.101  1.00  0.00    -0.744 OA
ENDBRANCH  80  81
ENDBRANCH  52  75
BRANCH  64  85
ATOM     85  C   UNL A   1      45.663  31.915  37.288  1.00  0.00    -0.014 A 
ATOM     86  C   UNL A   1      46.544  33.012  37.301  1.00  0.00     0.010 A 
ATOM     87  C   UNL A   1      46.103  30.693  37.835  1.00  0.00     0.010 A 
ATOM     88  C   UNL A   1      47.834  32.889  37.837  1.00  0.00     0.020 A 
ATOM     89  C   UNL A   1      47.382  30.570  38.393  1.00  0.00     0.020 A 
ATOM     90  C   UNL A   1      48.243  31.669  38.385  1.00  0.00     0.054 A 
BRANCH  90  91
ATOM     91  S   UNL A   1      49.892  31.555  39.141  1.00  0.00     0.124 S 
ATOM     92  O   UNL A   1      50.227  30.149  38.939  1.00  0.00    -0.237 OA
ATOM     93  O   UNL A   1      50.673  32.505  38.353  1.00  0.00    -0.237 OA
ATOM     94  O   UNL A   1      49.666  31.948  40.531  1.00  0.00    -0.744 OA
ENDBRANCH  90  91
ENDBRANCH  64  85
ENDBRANCH  38  39
ENDBRANCH  31  33
ENDBRANCH  30  31
ENDBRANCH  29  30
ENDBRANCH  28  29
ENDBRANCH  27  28
ENDBRANCH  26  27
ENDBRANCH   1  26
TORSDOF 24
ENDMDL
