MODEL 1
REMARK VINA RESULT:      -6.1      0.000      0.000
REMARK SMILES O=C(COc1cc(-c2ccccc2)nc(Nc2ccccc2Br)n1)OCCOCCOCCOC(=O)c1ccc(-c2c3nc(c(-c4ccc(S(=O)(=O)[O-])cc4)c4ccc([nH]4)c(-c4ccc(S(=O)(=O)[O-])cc4)c4nc(c(-c5ccc(S(=O)(=O)[O-])cc5)c5ccc2[nH]5)C=C4)C=C3)cc1
REMARK SMILES IDX 29 1 28 2 27 3 26 4 25 5 2 6 1 7 3 8 4 9 5 10 6 11 24 12
REMARK SMILES IDX 7 13 15 14 14 15 8 16 9 17 13 18 10 19 12 20 11 21 16 22
REMARK SMILES IDX 17 24 18 25 22 26 19 27 21 28 23 29 20 30 30 31 31 32 32 33
REMARK SMILES IDX 33 34 34 35 35 36 36 37 37 38 38 39 96 40 39 41 95 42 40 43
REMARK SMILES IDX 41 44 42 45 89 46 43 47 94 48 88 49 90 50 44 51 93 52 87 53
REMARK SMILES IDX 86 54 45 56 75 57 56 58 74 59 57 60 60 61 73 62 91 63 58 64
REMARK SMILES IDX 59 65 72 67 92 68 61 69 46 70 47 71 55 72 48 73 54 74 49 75
REMARK SMILES IDX 50 76 51 77 52 78 53 79 76 80 77 81 85 82 78 83 84 84 79 85
REMARK SMILES IDX 80 86 81 87 82 88 83 89 62 90 63 91 71 92 64 93 70 94 65 95
REMARK SMILES IDX 66 96 67 97 68 98 69 99
REMARK H PARENT 16 23 90 55 60 66
REMARK Flexibility Score: inf
ROOT
ATOM      1  C   UNL A   1      47.072  29.443  26.253  1.00  0.00     0.188 C 
ENDROOT
BRANCH   1   2
ATOM      2  O   UNL A   1      46.245  30.469  25.730  1.00  0.00    -0.376 OA
BRANCH   2   3
ATOM      3  C   UNL A   1      46.300  31.723  26.375  1.00  0.00     0.202 C 
BRANCH   3   4
ATOM      4  C   UNL A   1      45.020  32.530  26.176  1.00  0.00     0.261 C 
BRANCH   4   5
ATOM      5  O   UNL A   1      44.918  33.773  26.921  1.00  0.00    -0.461 OA
BRANCH   5   6
ATOM      6  C   UNL A   1      44.416  33.976  28.163  1.00  0.00     0.344 C 
ATOM      7  O   UNL A   1      43.224  34.241  28.297  1.00  0.00    -0.248 OA
BRANCH   6   8
ATOM      8  C   UNL A   1      45.347  33.897  29.362  1.00  0.00     0.353 C 
BRANCH   8   9
ATOM      9  O   UNL A   1      46.062  32.672  29.432  1.00  0.00    -0.466 OA
BRANCH   9  10
ATOM     10  C   UNL A   1      45.962  32.171  30.692  1.00  0.00     0.219 A 
ATOM     11  C   UNL A   1      46.879  31.303  31.197  1.00  0.00     0.097 A 
ATOM     12  N   UNL A   1      44.861  32.524  31.317  1.00  0.00    -0.177 NA
ATOM     13  C   UNL A   1      46.530  30.676  32.368  1.00  0.00     0.080 A 
ATOM     14  C   UNL A   1      44.576  31.898  32.461  1.00  0.00     0.231 A 
ATOM     15  N   UNL A   1      45.374  30.959  33.018  1.00  0.00    -0.212 NA
BRANCH  13  16
ATOM     16  C   UNL A   1      47.402  29.581  32.832  1.00  0.00     0.000 A 
ATOM     17  C   UNL A   1      48.643  29.837  33.428  1.00  0.00     0.010 A 
ATOM     18  C   UNL A   1      46.915  28.254  32.871  1.00  0.00     0.010 A 
ATOM     19  C   UNL A   1      49.352  28.813  34.069  1.00  0.00     0.001 A 
ATOM     20  C   UNL A   1      47.617  27.236  33.517  1.00  0.00     0.001 A 
ATOM     21  C   UNL A   1      48.835  27.519  34.121  1.00  0.00     0.000 A 
ENDBRANCH  13  16
BRANCH  14  22
ATOM     22  N   UNL A   1      43.388  32.275  33.077  1.00  0.00    -0.323 N 
ATOM     23  H   UNL A   1      42.644  31.630  33.072  1.00  0.00     0.170 HD
BRANCH  22  24
ATOM     24  C   UNL A   1      43.178  33.518  33.707  1.00  0.00     0.055 A 
ATOM     25  C   UNL A   1      43.893  33.805  34.881  1.00  0.00     0.027 A 
ATOM     26  C   UNL A   1      42.337  34.521  33.179  1.00  0.00     0.041 A 
ATOM     27  C   UNL A   1      43.805  35.061  35.489  1.00  0.00     0.002 A 
ATOM     28  C   UNL A   1      42.247  35.773  33.796  1.00  0.00     0.018 A 
ATOM     29  Br  UNL A   1      41.265  34.243  31.629  1.00  0.00    -0.049 Br
ATOM     30  C   UNL A   1      42.983  36.044  34.947  1.00  0.00     0.001 A 
ENDBRANCH  22  24
ENDBRANCH  14  22
ENDBRANCH   9  10
ENDBRANCH   8   9
ENDBRANCH   6   8
ENDBRANCH   5   6
ENDBRANCH   4   5
ENDBRANCH   3   4
ENDBRANCH   2   3
ENDBRANCH   1   2
BRANCH   1  31
ATOM     31  C   UNL A   1      46.633  28.032  25.827  1.00  0.00     0.188 C 
BRANCH  31  32
ATOM     32  O   UNL A   1      45.713  27.866  24.755  1.00  0.00    -0.376 OA
BRANCH  32  33
ATOM     33  C   UNL A   1      44.478  27.217  24.997  1.00  0.00     0.202 C 
BRANCH  33  34
ATOM     34  C   UNL A   1      44.504  25.698  25.243  1.00  0.00     0.261 C 
BRANCH  34  35
ATOM     35  O   UNL A   1      44.143  25.255  26.568  1.00  0.00    -0.460 OA
BRANCH  35  36
ATOM     36  C   UNL A   1      42.816  25.093  26.818  1.00  0.00     0.338 C 
ATOM     37  O   UNL A   1      42.097  24.221  26.368  1.00  0.00    -0.246 OA
BRANCH  36  38
ATOM     38  C   UNL A   1      42.357  26.046  27.871  1.00  0.00     0.060 A 
ATOM     39  C   UNL A   1      43.189  27.121  28.222  1.00  0.00     0.016 A 
ATOM     40  C   UNL A   1      41.156  25.859  28.556  1.00  0.00     0.016 A 
ATOM     41  C   UNL A   1      42.833  27.995  29.260  1.00  0.00     0.010 A 
ATOM     42  C   UNL A   1      40.815  26.720  29.615  1.00  0.00     0.010 A 
ATOM     43  C   UNL A   1      41.659  27.784  29.991  1.00  0.00    -0.014 A 
BRANCH  43  44
ATOM     44  C   UNL A   1      41.363  28.584  31.216  1.00  0.00     0.031 A 
ATOM     45  C   UNL A   1      40.242  29.595  31.185  1.00  0.00     0.074 A 
ATOM     46  C   UNL A   1      42.085  28.441  32.346  1.00  0.00     0.049 A 
ATOM     47  N   UNL A   1      39.892  30.475  32.090  1.00  0.00    -0.248 NA
ATOM     48  C   UNL A   1      39.407  29.618  29.972  1.00  0.00     0.031 C 
ATOM     49  C   UNL A   1      43.162  27.473  32.548  1.00  0.00     0.029 A 
ATOM     50  N   UNL A   1      42.031  29.133  33.535  1.00  0.00    -0.354 N 
ATOM     51  C   UNL A   1      38.813  31.169  31.551  1.00  0.00     0.074 A 
ATOM     52  C   UNL A   1      38.570  30.612  30.237  1.00  0.00     0.031 C 
ATOM     53  C   UNL A   1      43.687  27.653  33.773  1.00  0.00     0.029 A 
ATOM     54  C   UNL A   1      43.013  28.772  34.430  1.00  0.00     0.049 A 
ATOM     55  H   UNL A   1      41.355  29.821  33.727  1.00  0.00     0.167 HD
ATOM     56  C   UNL A   1      38.092  32.180  32.095  1.00  0.00     0.031 A 
ATOM     57  C   UNL A   1      43.360  29.306  35.622  1.00  0.00     0.031 A 
ATOM     58  C   UNL A   1      38.327  32.741  33.401  1.00  0.00     0.049 A 
ATOM     59  C   UNL A   1      42.598  30.491  36.166  1.00  0.00     0.074 A 
ATOM     60  C   UNL A   1      37.618  33.743  34.043  1.00  0.00     0.029 A 
ATOM     61  N   UNL A   1      39.349  32.368  34.258  1.00  0.00    -0.354 N 
ATOM     62  N   UNL A   1      41.558  31.108  35.660  1.00  0.00    -0.248 NA
ATOM     63  C   UNL A   1      43.063  31.053  37.445  1.00  0.00     0.031 C 
ATOM     64  C   UNL A   1      38.255  34.026  35.255  1.00  0.00     0.029 A 
ATOM     65  C   UNL A   1      39.319  33.151  35.400  1.00  0.00     0.049 A 
ATOM     66  H   UNL A   1      40.002  31.651  34.080  1.00  0.00     0.167 HD
ATOM     67  C   UNL A   1      41.235  32.116  36.566  1.00  0.00     0.074 A 
ATOM     68  C   UNL A   1      42.172  32.012  37.663  1.00  0.00     0.031 C 
ATOM     69  C   UNL A   1      40.253  33.048  36.491  1.00  0.00     0.031 A 
BRANCH  56  70
ATOM     70  C   UNL A   1      36.988  32.788  31.271  1.00  0.00    -0.014 A 
ATOM     71  C   UNL A   1      37.249  33.797  30.327  1.00  0.00     0.010 A 
ATOM     72  C   UNL A   1      35.685  32.264  31.369  1.00  0.00     0.010 A 
ATOM     73  C   UNL A   1      36.224  34.280  29.508  1.00  0.00     0.020 A 
ATOM     74  C   UNL A   1      34.663  32.726  30.535  1.00  0.00     0.020 A 
ATOM     75  C   UNL A   1      34.939  33.737  29.613  1.00  0.00     0.054 A 
BRANCH  75  76
ATOM     76  S   UNL A   1      33.646  34.337  28.490  1.00  0.00     0.124 S 
ATOM     77  O   UNL A   1      33.279  33.118  27.773  1.00  0.00    -0.237 OA
ATOM     78  O   UNL A   1      32.636  34.851  29.412  1.00  0.00    -0.237 OA
ATOM     79  O   UNL A   1      34.325  35.350  27.688  1.00  0.00    -0.744 OA
ENDBRANCH  75  76
ENDBRANCH  56  70
BRANCH  57  80
ATOM     80  C   UNL A   1      44.542  28.783  36.368  1.00  0.00    -0.014 A 
ATOM     81  C   UNL A   1      44.417  27.710  37.269  1.00  0.00     0.010 A 
ATOM     82  C   UNL A   1      45.794  29.409  36.226  1.00  0.00     0.010 A 
ATOM     83  C   UNL A   1      45.512  27.294  38.034  1.00  0.00     0.020 A 
ATOM     84  C   UNL A   1      46.896  28.981  36.970  1.00  0.00     0.020 A 
ATOM     85  C   UNL A   1      46.745  27.933  37.880  1.00  0.00     0.054 A 
BRANCH  85  86
ATOM     86  S   UNL A   1      48.160  27.376  38.869  1.00  0.00     0.124 S 
ATOM     87  O   UNL A   1      47.527  26.461  39.815  1.00  0.00    -0.237 OA
ATOM     88  O   UNL A   1      49.023  26.753  37.869  1.00  0.00    -0.237 OA
ATOM     89  O   UNL A   1      48.676  28.614  39.450  1.00  0.00    -0.744 OA
ENDBRANCH  85  86
ENDBRANCH  57  80
BRANCH  69  90
ATOM     90  C   UNL A   1      40.116  34.023  37.634  1.00  0.00    -0.014 A 
ATOM     91  C   UNL A   1      39.251  33.763  38.713  1.00  0.00     0.010 A 
ATOM     92  C   UNL A   1      40.909  35.185  37.661  1.00  0.00     0.010 A 
ATOM     93  C   UNL A   1      39.165  34.660  39.783  1.00  0.00     0.020 A 
ATOM     94  C   UNL A   1      40.848  36.068  38.744  1.00  0.00     0.020 A 
ATOM     95  C   UNL A   1      39.965  35.807  39.793  1.00  0.00     0.054 A 
BRANCH  95  96
ATOM     96  S   UNL A   1      39.870  36.926  41.218  1.00  0.00     0.124 S 
ATOM     97  O   UNL A   1      38.781  37.819  40.831  1.00  0.00    -0.237 OA
ATOM     98  O   UNL A   1      39.572  36.016  42.321  1.00  0.00    -0.237 OA
ATOM     99  O   UNL A   1      41.193  37.542  41.266  1.00  0.00    -0.744 OA
ENDBRANCH  95  96
ENDBRANCH  69  90
ENDBRANCH  43  44
ENDBRANCH  36  38
ENDBRANCH  35  36
ENDBRANCH  34  35
ENDBRANCH  33  34
ENDBRANCH  32  33
ENDBRANCH  31  32
ENDBRANCH   1  31
TORSDOF 25
ENDMDL
MODEL 2
REMARK VINA RESULT:      -6.0      2.992      5.435
REMARK SMILES O=C(COc1cc(-c2ccccc2)nc(Nc2ccccc2Br)n1)OCCOCCOCCOC(=O)c1ccc(-c2c3nc(c(-c4ccc(S(=O)(=O)[O-])cc4)c4ccc([nH]4)c(-c4ccc(S(=O)(=O)[O-])cc4)c4nc(c(-c5ccc(S(=O)(=O)[O-])cc5)c5ccc2[nH]5)C=C4)C=C3)cc1
REMARK SMILES IDX 29 1 28 2 27 3 26 4 25 5 2 6 1 7 3 8 4 9 5 10 6 11 24 12
REMARK SMILES IDX 7 13 15 14 14 15 8 16 9 17 13 18 10 19 12 20 11 21 16 22
REMARK SMILES IDX 17 24 18 25 22 26 19 27 21 28 23 29 20 30 30 31 31 32 32 33
REMARK SMILES IDX 33 34 34 35 35 36 36 37 37 38 38 39 96 40 39 41 95 42 40 43
REMARK SMILES IDX 41 44 42 45 89 46 43 47 94 48 88 49 90 50 44 51 93 52 87 53
REMARK SMILES IDX 86 54 45 56 75 57 56 58 74 59 57 60 60 61 73 62 91 63 58 64
REMARK SMILES IDX 59 65 72 67 92 68 61 69 46 70 47 71 55 72 48 73 54 74 49 75
REMARK SMILES IDX 50 76 51 77 52 78 53 79 76 80 77 81 85 82 78 83 84 84 79 85
REMARK SMILES IDX 80 86 81 87 82 88 83 89 62 90 63 91 71 92 64 93 70 94 65 95
REMARK SMILES IDX 66 96 67 97 68 98 69 99
REMARK H PARENT 16 23 90 55 60 66
REMARK Flexibility Score: inf
ROOT
ATOM      1  C   UNL A   1      46.831  24.205  24.781  1.00  0.00     0.188 C 
ENDROOT
BRANCH   1   2
ATOM      2  O   UNL A   1      47.211  25.567  24.880  1.00  0.00    -0.376 OA
BRANCH   2   3
ATOM      3  C   UNL A   1      48.489  25.834  25.416  1.00  0.00     0.202 C 
BRANCH   3   4
ATOM      4  C   UNL A   1      48.510  25.719  26.937  1.00  0.00     0.261 C 
BRANCH   4   5
ATOM      5  O   UNL A   1      48.015  26.866  27.679  1.00  0.00    -0.461 OA
BRANCH   5   6
ATOM      6  C   UNL A   1      46.816  27.024  28.291  1.00  0.00     0.344 C 
ATOM      7  O   UNL A   1      45.831  27.327  27.622  1.00  0.00    -0.248 OA
BRANCH   6   8
ATOM      8  C   UNL A   1      46.724  26.849  29.798  1.00  0.00     0.353 C 
BRANCH   8   9
ATOM      9  O   UNL A   1      47.993  26.801  30.433  1.00  0.00    -0.466 OA
BRANCH   9  10
ATOM     10  C   UNL A   1      47.907  26.020  31.542  1.00  0.00     0.219 A 
ATOM     11  C   UNL A   1      46.715  25.577  32.021  1.00  0.00     0.097 A 
ATOM     12  N   UNL A   1      49.059  25.828  32.146  1.00  0.00    -0.177 NA
ATOM     13  C   UNL A   1      46.741  25.023  33.277  1.00  0.00     0.080 A 
ATOM     14  C   UNL A   1      49.033  25.268  33.357  1.00  0.00     0.231 A 
ATOM     15  N   UNL A   1      47.897  24.862  33.967  1.00  0.00    -0.212 NA
BRANCH  13  16
ATOM     16  C   UNL A   1      45.443  24.724  33.909  1.00  0.00     0.000 A 
ATOM     17  C   UNL A   1      44.466  23.967  33.251  1.00  0.00     0.010 A 
ATOM     18  C   UNL A   1      45.233  25.022  35.276  1.00  0.00     0.010 A 
ATOM     19  C   UNL A   1      43.341  23.496  33.941  1.00  0.00     0.001 A 
ATOM     20  C   UNL A   1      44.118  24.547  35.966  1.00  0.00     0.001 A 
ATOM     21  C   UNL A   1      43.173  23.778  35.297  1.00  0.00     0.000 A 
ENDBRANCH  13  16
BRANCH  14  22
ATOM     22  N   UNL A   1      50.267  25.110  33.976  1.00  0.00    -0.323 N 
ATOM     23  H   UNL A   1      50.628  25.875  34.481  1.00  0.00     0.170 HD
BRANCH  22  24
ATOM     24  C   UNL A   1      51.036  23.931  33.930  1.00  0.00     0.055 A 
ATOM     25  C   UNL A   1      51.362  23.390  32.676  1.00  0.00     0.027 A 
ATOM     26  C   UNL A   1      51.558  23.300  35.080  1.00  0.00     0.041 A 
ATOM     27  C   UNL A   1      52.211  22.284  32.565  1.00  0.00     0.002 A 
ATOM     28  C   UNL A   1      52.400  22.189  34.965  1.00  0.00     0.018 A 
ATOM     29  Br  UNL A   1      51.146  23.892  36.843  1.00  0.00    -0.049 Br
ATOM     30  C   UNL A   1      52.729  21.684  33.709  1.00  0.00     0.001 A 
ENDBRANCH  22  24
ENDBRANCH  14  22
ENDBRANCH   9  10
ENDBRANCH   8   9
ENDBRANCH   6   8
ENDBRANCH   5   6
ENDBRANCH   4   5
ENDBRANCH   3   4
ENDBRANCH   2   3
ENDBRANCH   1   2
BRANCH   1  31
ATOM     31  C   UNL A   1      45.328  23.974  25.009  1.00  0.00     0.188 C 
BRANCH  31  32
ATOM     32  O   UNL A   1      44.852  22.678  25.352  1.00  0.00    -0.376 OA
BRANCH  32  33
ATOM     33  C   UNL A   1      43.530  22.534  25.840  1.00  0.00     0.202 C 
BRANCH  33  34
ATOM     34  C   UNL A   1      42.477  23.551  25.368  1.00  0.00     0.261 C 
BRANCH  34  35
ATOM     35  O   UNL A   1      41.769  24.270  26.399  1.00  0.00    -0.460 OA
BRANCH  35  36
ATOM     36  C   UNL A   1      41.637  25.613  26.228  1.00  0.00     0.338 C 
ATOM     37  O   UNL A   1      41.455  26.192  25.173  1.00  0.00    -0.246 OA
BRANCH  36  38
ATOM     38  C   UNL A   1      41.579  26.311  27.545  1.00  0.00     0.060 A 
ATOM     39  C   UNL A   1      40.555  25.976  28.445  1.00  0.00     0.016 A 
ATOM     40  C   UNL A   1      42.476  27.327  27.877  1.00  0.00     0.016 A 
ATOM     41  C   UNL A   1      40.416  26.661  29.661  1.00  0.00     0.010 A 
ATOM     42  C   UNL A   1      42.317  28.031  29.084  1.00  0.00     0.010 A 
ATOM     43  C   UNL A   1      41.274  27.720  29.979  1.00  0.00    -0.014 A 
BRANCH  43  44
ATOM     44  C   UNL A   1      41.023  28.581  31.172  1.00  0.00     0.031 A 
ATOM     45  C   UNL A   1      39.915  29.606  31.122  1.00  0.00     0.074 A 
ATOM     46  C   UNL A   1      41.774  28.481  32.287  1.00  0.00     0.049 A 
ATOM     47  N   UNL A   1      39.603  30.533  31.993  1.00  0.00    -0.248 NA
ATOM     48  C   UNL A   1      39.049  29.584  29.933  1.00  0.00     0.031 C 
ATOM     49  C   UNL A   1      42.843  27.508  32.507  1.00  0.00     0.029 A 
ATOM     50  N   UNL A   1      41.762  29.230  33.444  1.00  0.00    -0.354 N 
ATOM     51  C   UNL A   1      38.518  31.217  31.451  1.00  0.00     0.074 A 
ATOM     52  C   UNL A   1      38.233  30.602  30.172  1.00  0.00     0.031 C 
ATOM     53  C   UNL A   1      43.403  27.738  33.708  1.00  0.00     0.029 A 
ATOM     54  C   UNL A   1      42.763  28.897  34.329  1.00  0.00     0.049 A 
ATOM     55  H   UNL A   1      41.100  29.936  33.620  1.00  0.00     0.167 HD
ATOM     56  C   UNL A   1      37.827  32.263  31.965  1.00  0.00     0.031 A 
ATOM     57  C   UNL A   1      43.149  29.481  35.484  1.00  0.00     0.031 A 
ATOM     58  C   UNL A   1      38.105  32.881  33.236  1.00  0.00     0.049 A 
ATOM     59  C   UNL A   1      42.418  30.701  35.991  1.00  0.00     0.074 A 
ATOM     60  C   UNL A   1      37.427  33.923  33.848  1.00  0.00     0.029 A 
ATOM     61  N   UNL A   1      39.145  32.534  34.082  1.00  0.00    -0.354 N 
ATOM     62  N   UNL A   1      41.373  31.310  35.483  1.00  0.00    -0.248 NA
ATOM     63  C   UNL A   1      42.926  31.317  37.228  1.00  0.00     0.031 C 
ATOM     64  C   UNL A   1      38.101  34.254  35.028  1.00  0.00     0.029 A 
ATOM     65  C   UNL A   1      39.157  33.371  35.186  1.00  0.00     0.049 A 
ATOM     66  H   UNL A   1      39.782  31.801  33.922  1.00  0.00     0.167 HD
ATOM     67  C   UNL A   1      41.089  32.364  36.348  1.00  0.00     0.074 A 
ATOM     68  C   UNL A   1      42.054  32.298  37.424  1.00  0.00     0.031 C 
ATOM     69  C   UNL A   1      40.118  33.306  36.256  1.00  0.00     0.031 A 
BRANCH  56  70
ATOM     70  C   UNL A   1      36.709  32.848  31.143  1.00  0.00    -0.014 A 
ATOM     71  C   UNL A   1      35.371  32.780  31.570  1.00  0.00     0.010 A 
ATOM     72  C   UNL A   1      37.018  33.572  29.975  1.00  0.00     0.010 A 
ATOM     73  C   UNL A   1      34.362  33.413  30.837  1.00  0.00     0.020 A 
ATOM     74  C   UNL A   1      36.016  34.227  29.253  1.00  0.00     0.020 A 
ATOM     75  C   UNL A   1      34.693  34.137  29.686  1.00  0.00     0.054 A 
BRANCH  75  76
ATOM     76  S   UNL A   1      33.371  35.002  28.793  1.00  0.00     0.124 S 
ATOM     77  O   UNL A   1      34.029  36.249  28.413  1.00  0.00    -0.237 OA
ATOM     78  O   UNL A   1      33.076  34.087  27.694  1.00  0.00    -0.237 OA
ATOM     79  O   UNL A   1      32.310  35.136  29.788  1.00  0.00    -0.744 OA
ENDBRANCH  75  76
ENDBRANCH  56  70
BRANCH  57  80
ATOM     80  C   UNL A   1      44.344  28.976  36.222  1.00  0.00    -0.014 A 
ATOM     81  C   UNL A   1      45.646  29.338  35.832  1.00  0.00     0.010 A 
ATOM     82  C   UNL A   1      44.179  28.069  37.285  1.00  0.00     0.010 A 
ATOM     83  C   UNL A   1      46.759  28.780  36.471  1.00  0.00     0.020 A 
ATOM     84  C   UNL A   1      45.288  27.529  37.941  1.00  0.00     0.020 A 
ATOM     85  C   UNL A   1      46.573  27.877  37.521  1.00  0.00     0.054 A 
BRANCH  85  86
ATOM     86  S   UNL A   1      48.024  27.171  38.348  1.00  0.00     0.124 S 
ATOM     87  O   UNL A   1      47.519  26.932  39.696  1.00  0.00    -0.237 OA
ATOM     88  O   UNL A   1      48.294  25.975  37.552  1.00  0.00    -0.237 OA
ATOM     89  O   UNL A   1      49.026  28.229  38.235  1.00  0.00    -0.744 OA
ENDBRANCH  85  86
ENDBRANCH  57  80
BRANCH  69  90
ATOM     90  C   UNL A   1      40.026  34.336  37.354  1.00  0.00    -0.014 A 
ATOM     91  C   UNL A   1      39.336  34.065  38.550  1.00  0.00     0.010 A 
ATOM     92  C   UNL A   1      40.690  35.568  37.215  1.00  0.00     0.010 A 
ATOM     93  C   UNL A   1      39.293  35.017  39.574  1.00  0.00     0.020 A 
ATOM     94  C   UNL A   1      40.674  36.511  38.248  1.00  0.00     0.020 A 
ATOM     95  C   UNL A   1      39.964  36.234  39.418  1.00  0.00     0.054 A 
BRANCH  95  96
ATOM     96  S   UNL A   1      39.933  37.430  40.782  1.00  0.00     0.124 S 
ATOM     97  O   UNL A   1      39.531  38.658  40.102  1.00  0.00    -0.237 OA
ATOM     98  O   UNL A   1      38.937  36.859  41.685  1.00  0.00    -0.237 OA
ATOM     99  O   UNL A   1      41.303  37.417  41.287  1.00  0.00    -0.744 OA
ENDBRANCH  95  96
ENDBRANCH  69  90
ENDBRANCH  43  44
ENDBRANCH  36  38
ENDBRANCH  35  36
ENDBRANCH  34  35
ENDBRANCH  33  34
ENDBRANCH  32  33
ENDBRANCH  31  32
ENDBRANCH   1  31
TORSDOF 25
ENDMDL
MODEL 3
REMARK VINA RESULT:      -6.0      4.810     10.004
REMARK SMILES O=C(COc1cc(-c2ccccc2)nc(Nc2ccccc2Br)n1)OCCOCCOCCOC(=O)c1ccc(-c2c3nc(c(-c4ccc(S(=O)(=O)[O-])cc4)c4ccc([nH]4)c(-c4ccc(S(=O)(=O)[O-])cc4)c4nc(c(-c5ccc(S(=O)(=O)[O-])cc5)c5ccc2[nH]5)C=C4)C=C3)cc1
REMARK SMILES IDX 29 1 28 2 27 3 26 4 25 5 2 6 1 7 3 8 4 9 5 10 6 11 24 12
REMARK SMILES IDX 7 13 15 14 14 15 8 16 9 17 13 18 10 19 12 20 11 21 16 22
REMARK SMILES IDX 17 24 18 25 22 26 19 27 21 28 23 29 20 30 30 31 31 32 32 33
REMARK SMILES IDX 33 34 34 35 35 36 36 37 37 38 38 39 96 40 39 41 95 42 40 43
REMARK SMILES IDX 41 44 42 45 89 46 43 47 94 48 88 49 90 50 44 51 93 52 87 53
REMARK SMILES IDX 86 54 45 56 75 57 56 58 74 59 57 60 60 61 73 62 91 63 58 64
REMARK SMILES IDX 59 65 72 67 92 68 61 69 46 70 47 71 55 72 48 73 54 74 49 75
REMARK SMILES IDX 50 76 51 77 52 78 53 79 76 80 77 81 85 82 78 83 84 84 79 85
REMARK SMILES IDX 80 86 81 87 82 88 83 89 62 90 63 91 71 92 64 93 70 94 65 95
REMARK SMILES IDX 66 96 67 97 68 98 69 99
REMARK H PARENT 16 23 90 55 60 66
REMARK Flexibility Score: inf
ROOT
ATOM      1  C   UNL A   1      48.587  26.560  24.444  1.00  0.00     0.188 C 
ENDROOT
BRANCH   1   2
ATOM      2  O   UNL A   1      47.708  25.495  24.125  1.00  0.00    -0.376 OA
BRANCH   2   3
ATOM      3  C   UNL A   1      46.608  25.298  24.987  1.00  0.00     0.202 C 
BRANCH   3   4
ATOM      4  C   UNL A   1      46.601  23.902  25.602  1.00  0.00     0.261 C 
BRANCH   4   5
ATOM      5  O   UNL A   1      45.304  23.260  25.735  1.00  0.00    -0.461 OA
BRANCH   5   6
ATOM      6  C   UNL A   1      44.999  21.943  25.647  1.00  0.00     0.344 C 
ATOM      7  O   UNL A   1      45.890  21.106  25.772  1.00  0.00    -0.248 OA
BRANCH   6   8
ATOM      8  C   UNL A   1      43.562  21.532  25.369  1.00  0.00     0.353 C 
BRANCH   8   9
ATOM      9  O   UNL A   1      42.895  21.027  26.516  1.00  0.00    -0.466 OA
BRANCH   9  10
ATOM     10  C   UNL A   1      41.848  21.841  26.815  1.00  0.00     0.219 A 
ATOM     11  C   UNL A   1      40.584  21.574  26.392  1.00  0.00     0.097 A 
ATOM     12  N   UNL A   1      42.194  22.939  27.451  1.00  0.00    -0.177 NA
ATOM     13  C   UNL A   1      39.675  22.593  26.535  1.00  0.00     0.080 A 
ATOM     14  C   UNL A   1      41.269  23.892  27.580  1.00  0.00     0.231 A 
ATOM     15  N   UNL A   1      40.001  23.769  27.127  1.00  0.00    -0.212 NA
BRANCH  13  16
ATOM     16  C   UNL A   1      38.356  22.414  25.901  1.00  0.00     0.000 A 
ATOM     17  C   UNL A   1      37.518  23.504  25.635  1.00  0.00     0.010 A 
ATOM     18  C   UNL A   1      37.992  21.159  25.361  1.00  0.00     0.010 A 
ATOM     19  C   UNL A   1      36.381  23.353  24.830  1.00  0.00     0.001 A 
ATOM     20  C   UNL A   1      36.865  21.008  24.553  1.00  0.00     0.001 A 
ATOM     21  C   UNL A   1      36.062  22.110  24.284  1.00  0.00     0.000 A 
ENDBRANCH  13  16
BRANCH  14  22
ATOM     22  N   UNL A   1      41.681  25.049  28.230  1.00  0.00    -0.323 N 
ATOM     23  H   UNL A   1      42.276  24.950  29.009  1.00  0.00     0.170 HD
BRANCH  22  24
ATOM     24  C   UNL A   1      41.307  26.353  27.850  1.00  0.00     0.055 A 
ATOM     25  C   UNL A   1      40.496  27.100  28.720  1.00  0.00     0.027 A 
ATOM     26  C   UNL A   1      41.764  26.977  26.669  1.00  0.00     0.041 A 
ATOM     27  C   UNL A   1      40.182  28.435  28.446  1.00  0.00     0.002 A 
ATOM     28  C   UNL A   1      41.441  28.310  26.396  1.00  0.00     0.018 A 
ATOM     29  Br  UNL A   1      42.818  26.061  25.374  1.00  0.00    -0.049 Br
ATOM     30  C   UNL A   1      40.654  29.039  27.284  1.00  0.00     0.001 A 
ENDBRANCH  22  24
ENDBRANCH  14  22
ENDBRANCH   9  10
ENDBRANCH   8   9
ENDBRANCH   6   8
ENDBRANCH   5   6
ENDBRANCH   4   5
ENDBRANCH   3   4
ENDBRANCH   2   3
ENDBRANCH   1   2
BRANCH   1  31
ATOM     31  C   UNL A   1      48.768  26.768  25.958  1.00  0.00     0.188 C 
BRANCH  31  32
ATOM     32  O   UNL A   1      49.472  25.802  26.729  1.00  0.00    -0.376 OA
BRANCH  32  33
ATOM     33  C   UNL A   1      48.890  25.313  27.924  1.00  0.00     0.202 C 
BRANCH  33  34
ATOM     34  C   UNL A   1      47.794  26.166  28.588  1.00  0.00     0.261 C 
BRANCH  34  35
ATOM     35  O   UNL A   1      46.889  25.475  29.473  1.00  0.00    -0.460 OA
BRANCH  35  36
ATOM     36  C   UNL A   1      45.561  25.690  29.279  1.00  0.00     0.338 C 
ATOM     37  O   UNL A   1      44.745  24.873  28.896  1.00  0.00    -0.246 OA
BRANCH  36  38
ATOM     38  C   UNL A   1      45.169  27.048  29.758  1.00  0.00     0.060 A 
ATOM     39  C   UNL A   1      44.248  27.793  29.004  1.00  0.00     0.016 A 
ATOM     40  C   UNL A   1      45.740  27.617  30.897  1.00  0.00     0.016 A 
ATOM     41  C   UNL A   1      43.911  29.104  29.374  1.00  0.00     0.010 A 
ATOM     42  C   UNL A   1      45.422  28.941  31.250  1.00  0.00     0.010 A 
ATOM     43  C   UNL A   1      44.521  29.704  30.481  1.00  0.00    -0.014 A 
BRANCH  43  44
ATOM     44  C   UNL A   1      44.321  31.155  30.775  1.00  0.00     0.031 A 
ATOM     45  C   UNL A   1      45.165  32.178  30.053  1.00  0.00     0.074 A 
ATOM     46  C   UNL A   1      43.419  31.575  31.685  1.00  0.00     0.049 A 
ATOM     47  N   UNL A   1      45.241  33.472  30.239  1.00  0.00    -0.248 NA
ATOM     48  C   UNL A   1      46.039  31.673  28.981  1.00  0.00     0.031 C 
ATOM     49  C   UNL A   1      42.497  30.715  32.425  1.00  0.00     0.029 A 
ATOM     50  N   UNL A   1      43.147  32.840  32.158  1.00  0.00    -0.354 N 
ATOM     51  C   UNL A   1      46.183  33.935  29.324  1.00  0.00     0.074 A 
ATOM     52  C   UNL A   1      46.656  32.781  28.590  1.00  0.00     0.031 C 
ATOM     53  C   UNL A   1      41.783  31.471  33.279  1.00  0.00     0.029 A 
ATOM     54  C   UNL A   1      42.223  32.862  33.178  1.00  0.00     0.049 A 
ATOM     55  H   UNL A   1      43.575  33.650  31.800  1.00  0.00     0.167 HD
ATOM     56  C   UNL A   1      46.619  35.201  29.118  1.00  0.00     0.031 A 
ATOM     57  C   UNL A   1      41.807  33.875  33.969  1.00  0.00     0.031 A 
ATOM     58  C   UNL A   1      46.155  36.355  29.844  1.00  0.00     0.049 A 
ATOM     59  C   UNL A   1      42.375  35.262  33.777  1.00  0.00     0.074 A 
ATOM     60  C   UNL A   1      46.519  37.680  29.671  1.00  0.00     0.029 A 
ATOM     61  N   UNL A   1      45.244  36.327  30.887  1.00  0.00    -0.354 N 
ATOM     62  N   UNL A   1      43.236  35.686  32.884  1.00  0.00    -0.248 NA
ATOM     63  C   UNL A   1      41.916  36.305  34.708  1.00  0.00     0.031 C 
ATOM     64  C   UNL A   1      45.885  38.443  30.656  1.00  0.00     0.029 A 
ATOM     65  C   UNL A   1      45.071  37.604  31.398  1.00  0.00     0.049 A 
ATOM     66  H   UNL A   1      44.788  35.520  31.217  1.00  0.00     0.167 HD
ATOM     67  C   UNL A   1      43.406  37.046  33.134  1.00  0.00     0.074 A 
ATOM     68  C   UNL A   1      42.540  37.380  34.244  1.00  0.00     0.031 C 
ATOM     69  C   UNL A   1      44.210  37.936  32.504  1.00  0.00     0.031 A 
BRANCH  56  70
ATOM     70  C   UNL A   1      47.689  35.423  28.081  1.00  0.00    -0.014 A 
ATOM     71  C   UNL A   1      49.001  34.955  28.271  1.00  0.00     0.010 A 
ATOM     72  C   UNL A   1      47.345  36.016  26.851  1.00  0.00     0.010 A 
ATOM     73  C   UNL A   1      49.952  35.090  27.254  1.00  0.00     0.020 A 
ATOM     74  C   UNL A   1      48.285  36.129  25.823  1.00  0.00     0.020 A 
ATOM     75  C   UNL A   1      49.587  35.671  26.035  1.00  0.00     0.054 A 
BRANCH  75  76
ATOM     76  S   UNL A   1      50.825  35.771  24.713  1.00  0.00     0.124 S 
ATOM     77  O   UNL A   1      50.109  36.522  23.684  1.00  0.00    -0.237 OA
ATOM     78  O   UNL A   1      51.924  36.483  25.358  1.00  0.00    -0.237 OA
ATOM     79  O   UNL A   1      51.099  34.374  24.387  1.00  0.00    -0.744 OA
ENDBRANCH  75  76
ENDBRANCH  56  70
BRANCH  57  80
ATOM     80  C   UNL A   1      40.848  33.618  35.083  1.00  0.00    -0.014 A 
ATOM     81  C   UNL A   1      39.483  33.932  34.954  1.00  0.00     0.010 A 
ATOM     82  C   UNL A   1      41.318  33.116  36.310  1.00  0.00     0.010 A 
ATOM     83  C   UNL A   1      38.614  33.778  36.040  1.00  0.00     0.020 A 
ATOM     84  C   UNL A   1      40.449  32.937  37.389  1.00  0.00     0.020 A 
ATOM     85  C   UNL A   1      39.103  33.281  37.252  1.00  0.00     0.054 A 
BRANCH  85  86
ATOM     86  S   UNL A   1      37.963  33.074  38.647  1.00  0.00     0.124 S 
ATOM     87  O   UNL A   1      36.684  32.887  37.969  1.00  0.00    -0.237 OA
ATOM     88  O   UNL A   1      38.498  31.896  39.325  1.00  0.00    -0.237 OA
ATOM     89  O   UNL A   1      38.099  34.328  39.385  1.00  0.00    -0.744 OA
ENDBRANCH  85  86
ENDBRANCH  57  80
BRANCH  69  90
ATOM     90  C   UNL A   1      44.186  39.369  32.975  1.00  0.00    -0.014 A 
ATOM     91  C   UNL A   1      45.028  39.808  34.013  1.00  0.00     0.010 A 
ATOM     92  C   UNL A   1      43.356  40.304  32.329  1.00  0.00     0.010 A 
ATOM     93  C   UNL A   1      45.020  41.148  34.412  1.00  0.00     0.020 A 
ATOM     94  C   UNL A   1      43.367  41.651  32.705  1.00  0.00     0.020 A 
ATOM     95  C   UNL A   1      44.191  42.063  33.754  1.00  0.00     0.054 A 
BRANCH  95  96
ATOM     96  S   UNL A   1      44.239  43.805  34.259  1.00  0.00     0.124 S 
ATOM     97  O   UNL A   1      45.250  43.789  35.313  1.00  0.00    -0.237 OA
ATOM     98  O   UNL A   1      44.630  44.485  33.026  1.00  0.00    -0.237 OA
ATOM     99  O   UNL A   1      42.876  44.075  34.708  1.00  0.00    -0.744 OA
ENDBRANCH  95  96
ENDBRANCH  69  90
ENDBRANCH  43  44
ENDBRANCH  36  38
ENDBRANCH  35  36
ENDBRANCH  34  35
ENDBRANCH  33  34
ENDBRANCH  32  33
ENDBRANCH  31  32
ENDBRANCH   1  31
TORSDOF 25
ENDMDL
