MODEL 1
REMARK VINA RESULT:     -10.3      0.000      0.000
REMARK SMILES C[C@H]1CC[C@@](NC(=O)N[C@H]2CCOC2)(C(=O)OCCOCCOCCOC(=O)c2ccc(-c3c4nc(c(-c5ccc(S(=O)(=O)[O-])cc5)c5ccc([nH]5)c(-c5ccc(S(=O)(=O)[O-])cc5)c5nc(c(-c6ccc(S(=O)(=O)[O-])cc6)c6ccc3[nH]6)C=C5)C=C4)cc2)CC1
REMARK SMILES IDX 22 1 21 2 20 3 19 4 18 5 17 6 15 7 16 8 5 9 1 10 2 11 90 12
REMARK SMILES IDX 3 13 89 14 4 15 6 16 7 17 8 19 9 20 10 22 11 23 14 24 12 25
REMARK SMILES IDX 13 26 23 27 24 28 25 29 26 30 27 31 28 32 29 33 30 34 88 35
REMARK SMILES IDX 31 36 87 37 32 38 33 39 34 40 81 41 35 42 86 43 80 44 82 45
REMARK SMILES IDX 36 46 85 47 79 48 78 49 37 51 67 52 48 53 66 54 49 55 52 56
REMARK SMILES IDX 65 57 83 58 50 59 51 60 64 62 84 63 53 64 38 65 39 66 47 67
REMARK SMILES IDX 40 68 46 69 41 70 42 71 43 72 44 73 45 74 68 75 69 76 77 77
REMARK SMILES IDX 70 78 76 79 71 80 72 81 73 82 74 83 75 84 54 85 55 86 63 87
REMARK SMILES IDX 56 88 62 89 57 90 58 91 59 92 60 93 61 94
REMARK H PARENT 6 18 9 21 82 50 52 61
REMARK Flexibility Score: inf
ROOT
ATOM      1  C   UNL A   1      33.154  28.713  26.958  1.00  0.00     0.188 C 
ENDROOT
BRANCH   1   2
ATOM      2  C   UNL A   1      31.779  28.572  27.638  1.00  0.00     0.188 C 
BRANCH   2   3
ATOM      3  O   UNL A   1      31.021  27.494  27.093  1.00  0.00    -0.376 OA
BRANCH   3   4
ATOM      4  C   UNL A   1      31.805  26.481  26.471  1.00  0.00     0.202 C 
BRANCH   4   5
ATOM      5  C   UNL A   1      30.964  25.480  25.673  1.00  0.00     0.261 C 
BRANCH   5   6
ATOM      6  O   UNL A   1      31.596  24.367  24.990  1.00  0.00    -0.461 OA
BRANCH   6   7
ATOM      7  C   UNL A   1      31.481  24.051  23.674  1.00  0.00     0.331 C 
ATOM      8  O   UNL A   1      30.431  23.886  23.067  1.00  0.00    -0.249 OA
BRANCH   7   9
ATOM      9  C   UNL A   1      32.858  23.910  23.023  1.00  0.00     0.139 C 
ATOM     10  C   UNL A   1      34.510  21.937  26.618  1.00  0.00     0.007 C 
ATOM     11  C   UNL A   1      34.474  22.498  25.193  1.00  0.00    -0.014 C 
ATOM     12  C   UNL A   1      34.249  24.017  25.199  1.00  0.00     0.006 C 
ATOM     13  C   UNL A   1      33.410  21.766  24.372  1.00  0.00     0.006 C 
ATOM     14  C   UNL A   1      33.993  24.606  23.799  1.00  0.00     0.041 C 
ATOM     15  C   UNL A   1      33.191  22.387  22.991  1.00  0.00     0.041 C 
BRANCH   9  16
ATOM     16  N   UNL A   1      32.767  24.388  21.614  1.00  0.00    -0.322 N 
ATOM     17  C   UNL A   1      32.704  25.535  20.937  1.00  0.00     0.316 C 
ATOM     18  H   UNL A   1      32.747  23.623  20.993  1.00  0.00     0.166 HD
ATOM     19  O   UNL A   1      32.928  25.456  19.723  1.00  0.00    -0.249 OA
ATOM     20  N   UNL A   1      32.383  26.744  21.398  1.00  0.00    -0.333 N 
ATOM     21  H   UNL A   1      32.547  27.441  20.722  1.00  0.00     0.165 HD
BRANCH  20  22
ATOM     22  C   UNL A   1      31.858  27.310  22.623  1.00  0.00     0.112 C 
ATOM     23  C   UNL A   1      32.248  28.739  22.900  1.00  0.00     0.056 C 
ATOM     24  C   UNL A   1      30.334  27.402  22.716  1.00  0.00     0.185 C 
ATOM     25  C   UNL A   1      31.263  29.119  23.988  1.00  0.00     0.162 C 
ATOM     26  O   UNL A   1      30.049  28.394  23.719  1.00  0.00    -0.379 OA
ENDBRANCH  20  22
ENDBRANCH   9  16
ENDBRANCH   7   9
ENDBRANCH   6   7
ENDBRANCH   5   6
ENDBRANCH   4   5
ENDBRANCH   3   4
ENDBRANCH   2   3
ENDBRANCH   1   2
BRANCH   1  27
ATOM     27  O   UNL A   1      33.561  30.025  26.577  1.00  0.00    -0.376 OA
BRANCH  27  28
ATOM     28  C   UNL A   1      33.647  30.966  27.636  1.00  0.00     0.202 C 
BRANCH  28  29
ATOM     29  C   UNL A   1      35.013  31.061  28.339  1.00  0.00     0.261 C 
BRANCH  29  30
ATOM     30  O   UNL A   1      35.692  29.791  28.486  1.00  0.00    -0.460 OA
BRANCH  30  31
ATOM     31  C   UNL A   1      36.713  29.770  29.378  1.00  0.00     0.338 C 
ATOM     32  O   UNL A   1      36.705  30.243  30.503  1.00  0.00    -0.246 OA
BRANCH  31  33
ATOM     33  C   UNL A   1      37.890  29.033  28.863  1.00  0.00     0.060 A 
ATOM     34  C   UNL A   1      38.650  28.249  29.736  1.00  0.00     0.016 A 
ATOM     35  C   UNL A   1      38.406  29.355  27.608  1.00  0.00     0.016 A 
ATOM     36  C   UNL A   1      39.954  27.872  29.408  1.00  0.00     0.010 A 
ATOM     37  C   UNL A   1      39.704  28.944  27.264  1.00  0.00     0.010 A 
ATOM     38  C   UNL A   1      40.516  28.259  28.188  1.00  0.00    -0.014 A 
BRANCH  38  39
ATOM     39  C   UNL A   1      41.989  28.133  27.977  1.00  0.00     0.031 A 
ATOM     40  C   UNL A   1      42.889  29.266  28.417  1.00  0.00     0.074 A 
ATOM     41  C   UNL A   1      42.553  27.009  27.494  1.00  0.00     0.049 A 
ATOM     42  N   UNL A   1      44.160  29.460  28.174  1.00  0.00    -0.248 NA
ATOM     43  C   UNL A   1      42.268  30.320  29.238  1.00  0.00     0.031 C 
ATOM     44  C   UNL A   1      41.843  25.779  27.146  1.00  0.00     0.029 A 
ATOM     45  N   UNL A   1      43.871  26.720  27.224  1.00  0.00    -0.354 N 
ATOM     46  C   UNL A   1      44.473  30.687  28.753  1.00  0.00     0.074 A 
ATOM     47  C   UNL A   1      43.261  31.187  29.365  1.00  0.00     0.031 C 
ATOM     48  C   UNL A   1      42.733  24.862  26.727  1.00  0.00     0.029 A 
ATOM     49  C   UNL A   1      44.064  25.465  26.698  1.00  0.00     0.049 A 
ATOM     50  H   UNL A   1      44.606  27.353  27.392  1.00  0.00     0.167 HD
ATOM     51  C   UNL A   1      45.659  31.343  28.767  1.00  0.00     0.031 A 
ATOM     52  C   UNL A   1      45.173  24.878  26.202  1.00  0.00     0.031 A 
ATOM     53  C   UNL A   1      46.878  30.827  28.204  1.00  0.00     0.049 A 
ATOM     54  C   UNL A   1      46.467  25.650  26.163  1.00  0.00     0.074 A 
ATOM     55  C   UNL A   1      48.126  31.427  28.153  1.00  0.00     0.029 A 
ATOM     56  N   UNL A   1      47.012  29.579  27.618  1.00  0.00    -0.354 N 
ATOM     57  N   UNL A   1      46.722  26.856  26.609  1.00  0.00    -0.248 NA
ATOM     58  C   UNL A   1      47.615  24.983  25.533  1.00  0.00     0.031 C 
ATOM     59  C   UNL A   1      49.004  30.557  27.495  1.00  0.00     0.029 A 
ATOM     60  C   UNL A   1      48.315  29.395  27.186  1.00  0.00     0.049 A 
ATOM     61  H   UNL A   1      46.287  28.920  27.521  1.00  0.00     0.167 HD
ATOM     62  C   UNL A   1      48.063  27.090  26.317  1.00  0.00     0.074 A 
ATOM     63  C   UNL A   1      48.571  25.890  25.685  1.00  0.00     0.031 C 
ATOM     64  C   UNL A   1      48.805  28.202  26.546  1.00  0.00     0.031 A 
BRANCH  51  65
ATOM     65  C   UNL A   1      45.675  32.730  29.354  1.00  0.00    -0.014 A 
ATOM     66  C   UNL A   1      45.442  33.872  28.569  1.00  0.00     0.010 A 
ATOM     67  C   UNL A   1      45.909  32.883  30.734  1.00  0.00     0.010 A 
ATOM     68  C   UNL A   1      45.484  35.145  29.148  1.00  0.00     0.020 A 
ATOM     69  C   UNL A   1      45.924  34.150  31.319  1.00  0.00     0.020 A 
ATOM     70  C   UNL A   1      45.730  35.276  30.518  1.00  0.00     0.054 A 
BRANCH  70  71
ATOM     71  S   UNL A   1      45.764  36.937  31.249  1.00  0.00     0.124 S 
ATOM     72  O   UNL A   1      45.974  37.777  30.073  1.00  0.00    -0.237 OA
ATOM     73  O   UNL A   1      44.446  37.043  31.869  1.00  0.00    -0.237 OA
ATOM     74  O   UNL A   1      46.886  36.882  32.183  1.00  0.00    -0.744 OA
ENDBRANCH  70  71
ENDBRANCH  51  65
BRANCH  52  75
ATOM     75  C   UNL A   1      45.095  23.507  25.624  1.00  0.00    -0.014 A 
ATOM     76  C   UNL A   1      44.818  23.313  24.259  1.00  0.00     0.010 A 
ATOM     77  C   UNL A   1      45.293  22.383  26.448  1.00  0.00     0.010 A 
ATOM     78  C   UNL A   1      44.736  22.019  23.732  1.00  0.00     0.020 A 
ATOM     79  C   UNL A   1      45.243  21.092  25.918  1.00  0.00     0.020 A 
ATOM     80  C   UNL A   1      44.954  20.918  24.563  1.00  0.00     0.054 A 
BRANCH  80  81
ATOM     81  S   UNL A   1      44.919  19.251  23.847  1.00  0.00     0.124 S 
ATOM     82  O   UNL A   1      44.357  19.501  22.524  1.00  0.00    -0.237 OA
ATOM     83  O   UNL A   1      46.327  18.863  23.876  1.00  0.00    -0.237 OA
ATOM     84  O   UNL A   1      44.059  18.506  24.765  1.00  0.00    -0.744 OA
ENDBRANCH  80  81
ENDBRANCH  52  75
BRANCH  64  85
ATOM     85  C   UNL A   1      50.252  28.161  26.127  1.00  0.00    -0.014 A 
ATOM     86  C   UNL A   1      51.262  27.804  27.038  1.00  0.00     0.010 A 
ATOM     87  C   UNL A   1      50.603  28.469  24.801  1.00  0.00     0.010 A 
ATOM     88  C   UNL A   1      52.603  27.805  26.643  1.00  0.00     0.020 A 
ATOM     89  C   UNL A   1      51.940  28.446  24.395  1.00  0.00     0.020 A 
ATOM     90  C   UNL A   1      52.933  28.136  25.325  1.00  0.00     0.054 A 
BRANCH  90  91
ATOM     91  S   UNL A   1      54.679  28.129  24.831  1.00  0.00     0.124 S 
ATOM     92  O   UNL A   1      55.291  28.950  25.873  1.00  0.00    -0.237 OA
ATOM     93  O   UNL A   1      55.022  26.710  24.868  1.00  0.00    -0.237 OA
ATOM     94  O   UNL A   1      54.664  28.726  23.497  1.00  0.00    -0.744 OA
ENDBRANCH  90  91
ENDBRANCH  64  85
ENDBRANCH  38  39
ENDBRANCH  31  33
ENDBRANCH  30  31
ENDBRANCH  29  30
ENDBRANCH  28  29
ENDBRANCH  27  28
ENDBRANCH   1  27
TORSDOF 22
ENDMDL
MODEL 2
REMARK VINA RESULT:      -9.9      1.632      2.266
REMARK SMILES C[C@H]1CC[C@@](NC(=O)N[C@H]2CCOC2)(C(=O)OCCOCCOCCOC(=O)c2ccc(-c3c4nc(c(-c5ccc(S(=O)(=O)[O-])cc5)c5ccc([nH]5)c(-c5ccc(S(=O)(=O)[O-])cc5)c5nc(c(-c6ccc(S(=O)(=O)[O-])cc6)c6ccc3[nH]6)C=C5)C=C4)cc2)CC1
REMARK SMILES IDX 22 1 21 2 20 3 19 4 18 5 17 6 15 7 16 8 5 9 1 10 2 11 90 12
REMARK SMILES IDX 3 13 89 14 4 15 6 16 7 17 8 19 9 20 10 22 11 23 14 24 12 25
REMARK SMILES IDX 13 26 23 27 24 28 25 29 26 30 27 31 28 32 29 33 30 34 88 35
REMARK SMILES IDX 31 36 87 37 32 38 33 39 34 40 81 41 35 42 86 43 80 44 82 45
REMARK SMILES IDX 36 46 85 47 79 48 78 49 37 51 67 52 48 53 66 54 49 55 52 56
REMARK SMILES IDX 65 57 83 58 50 59 51 60 64 62 84 63 53 64 38 65 39 66 47 67
REMARK SMILES IDX 40 68 46 69 41 70 42 71 43 72 44 73 45 74 68 75 69 76 77 77
REMARK SMILES IDX 70 78 76 79 71 80 72 81 73 82 74 83 75 84 54 85 55 86 63 87
REMARK SMILES IDX 56 88 62 89 57 90 58 91 59 92 60 93 61 94
REMARK H PARENT 6 18 9 21 82 50 52 61
REMARK Flexibility Score: inf
ROOT
ATOM      1  C   UNL A   1      33.462  28.832  27.255  1.00  0.00     0.188 C 
ENDROOT
BRANCH   1   2
ATOM      2  C   UNL A   1      31.929  28.908  27.384  1.00  0.00     0.188 C 
BRANCH   2   3
ATOM      3  O   UNL A   1      31.324  27.616  27.353  1.00  0.00    -0.376 OA
BRANCH   3   4
ATOM      4  C   UNL A   1      32.139  26.602  26.776  1.00  0.00     0.202 C 
BRANCH   4   5
ATOM      5  C   UNL A   1      31.609  26.105  25.427  1.00  0.00     0.261 C 
BRANCH   5   6
ATOM      6  O   UNL A   1      32.144  24.898  24.825  1.00  0.00    -0.461 OA
BRANCH   6   7
ATOM      7  C   UNL A   1      31.744  24.325  23.660  1.00  0.00     0.331 C 
ATOM      8  O   UNL A   1      30.584  24.155  23.308  1.00  0.00    -0.249 OA
BRANCH   7   9
ATOM      9  C   UNL A   1      32.948  23.894  22.820  1.00  0.00     0.139 C 
ATOM     10  C   UNL A   1      34.702  21.677  26.219  1.00  0.00     0.007 C 
ATOM     11  C   UNL A   1      34.561  22.213  24.791  1.00  0.00    -0.014 C 
ATOM     12  C   UNL A   1      34.649  23.745  24.761  1.00  0.00     0.006 C 
ATOM     13  C   UNL A   1      33.258  21.703  24.170  1.00  0.00     0.006 C 
ATOM     14  C   UNL A   1      34.305  24.353  23.388  1.00  0.00     0.041 C 
ATOM     15  C   UNL A   1      32.958  22.335  22.810  1.00  0.00     0.041 C 
BRANCH   9  16
ATOM     16  N   UNL A   1      32.739  24.360  21.419  1.00  0.00    -0.322 N 
ATOM     17  C   UNL A   1      32.829  25.480  20.702  1.00  0.00     0.316 C 
ATOM     18  H   UNL A   1      32.446  23.611  20.850  1.00  0.00     0.166 HD
ATOM     19  O   UNL A   1      32.828  25.334  19.474  1.00  0.00    -0.249 OA
ATOM     20  N   UNL A   1      32.869  26.737  21.144  1.00  0.00    -0.333 N 
ATOM     21  H   UNL A   1      33.075  27.368  20.416  1.00  0.00     0.165 HD
BRANCH  20  22
ATOM     22  C   UNL A   1      32.692  27.427  22.405  1.00  0.00     0.112 C 
ATOM     23  C   UNL A   1      33.674  28.537  22.684  1.00  0.00     0.056 C 
ATOM     24  C   UNL A   1      31.364  28.164  22.583  1.00  0.00     0.185 C 
ATOM     25  C   UNL A   1      32.997  29.262  23.830  1.00  0.00     0.162 C 
ATOM     26  O   UNL A   1      31.579  29.143  23.616  1.00  0.00    -0.379 OA
ENDBRANCH  20  22
ENDBRANCH   9  16
ENDBRANCH   7   9
ENDBRANCH   6   7
ENDBRANCH   5   6
ENDBRANCH   4   5
ENDBRANCH   3   4
ENDBRANCH   2   3
ENDBRANCH   1   2
BRANCH   1  27
ATOM     27  O   UNL A   1      34.145  30.030  26.896  1.00  0.00    -0.376 OA
BRANCH  27  28
ATOM     28  C   UNL A   1      33.451  31.235  27.180  1.00  0.00     0.202 C 
BRANCH  28  29
ATOM     29  C   UNL A   1      34.181  32.229  28.098  1.00  0.00     0.261 C 
BRANCH  29  30
ATOM     30  O   UNL A   1      34.705  31.639  29.312  1.00  0.00    -0.460 OA
BRANCH  30  31
ATOM     31  C   UNL A   1      35.946  32.046  29.676  1.00  0.00     0.338 C 
ATOM     32  O   UNL A   1      36.250  33.137  30.130  1.00  0.00    -0.246 OA
BRANCH  31  33
ATOM     33  C   UNL A   1      36.954  30.972  29.518  1.00  0.00     0.060 A 
ATOM     34  C   UNL A   1      37.646  30.505  30.640  1.00  0.00     0.016 A 
ATOM     35  C   UNL A   1      37.420  30.650  28.244  1.00  0.00     0.016 A 
ATOM     36  C   UNL A   1      38.848  29.808  30.500  1.00  0.00     0.010 A 
ATOM     37  C   UNL A   1      38.610  29.918  28.103  1.00  0.00     0.010 A 
ATOM     38  C   UNL A   1      39.372  29.550  29.229  1.00  0.00    -0.014 A 
BRANCH  38  39
ATOM     39  C   UNL A   1      40.788  29.099  29.089  1.00  0.00     0.031 A 
ATOM     40  C   UNL A   1      41.900  30.069  29.414  1.00  0.00     0.074 A 
ATOM     41  C   UNL A   1      41.110  27.829  28.771  1.00  0.00     0.049 A 
ATOM     42  N   UNL A   1      43.186  29.965  29.195  1.00  0.00    -0.248 NA
ATOM     43  C   UNL A   1      41.506  31.326  30.074  1.00  0.00     0.031 C 
ATOM     44  C   UNL A   1      40.162  26.737  28.555  1.00  0.00     0.029 A 
ATOM     45  N   UNL A   1      42.340  27.243  28.587  1.00  0.00    -0.354 N 
ATOM     46  C   UNL A   1      43.743  31.166  29.626  1.00  0.00     0.074 A 
ATOM     47  C   UNL A   1      42.657  31.979  30.126  1.00  0.00     0.031 C 
ATOM     48  C   UNL A   1      40.845  25.610  28.287  1.00  0.00     0.029 A 
ATOM     49  C   UNL A   1      42.273  25.917  28.231  1.00  0.00     0.049 A 
ATOM     50  H   UNL A   1      43.190  27.727  28.701  1.00  0.00     0.167 HD
ATOM     51  C   UNL A   1      45.039  31.560  29.600  1.00  0.00     0.031 A 
ATOM     52  C   UNL A   1      43.239  25.056  27.852  1.00  0.00     0.031 A 
ATOM     53  C   UNL A   1      46.129  30.736  29.150  1.00  0.00     0.049 A 
ATOM     54  C   UNL A   1      44.666  25.533  27.763  1.00  0.00     0.074 A 
ATOM     55  C   UNL A   1      47.475  31.055  29.069  1.00  0.00     0.029 A 
ATOM     56  N   UNL A   1      46.005  29.421  28.731  1.00  0.00    -0.354 N 
ATOM     57  N   UNL A   1      45.163  26.708  28.062  1.00  0.00    -0.248 NA
ATOM     58  C   UNL A   1      45.656  24.568  27.264  1.00  0.00     0.031 C 
ATOM     59  C   UNL A   1      48.158  29.944  28.558  1.00  0.00     0.029 A 
ATOM     60  C   UNL A   1      47.245  28.919  28.373  1.00  0.00     0.049 A 
ATOM     61  H   UNL A   1      45.160  28.919  28.691  1.00  0.00     0.167 HD
ATOM     62  C   UNL A   1      46.526  26.622  27.792  1.00  0.00     0.074 A 
ATOM     63  C   UNL A   1      46.778  25.271  27.335  1.00  0.00     0.031 C 
ATOM     64  C   UNL A   1      47.482  27.578  27.905  1.00  0.00     0.031 A 
BRANCH  51  65
ATOM     65  C   UNL A   1      45.339  32.979  30.008  1.00  0.00    -0.014 A 
ATOM     66  C   UNL A   1      45.378  34.028  29.074  1.00  0.00     0.010 A 
ATOM     67  C   UNL A   1      45.564  33.263  31.368  1.00  0.00     0.010 A 
ATOM     68  C   UNL A   1      45.678  35.330  29.490  1.00  0.00     0.020 A 
ATOM     69  C   UNL A   1      45.838  34.566  31.790  1.00  0.00     0.020 A 
ATOM     70  C   UNL A   1      45.912  35.589  30.845  1.00  0.00     0.054 A 
BRANCH  70  71
ATOM     71  S   UNL A   1      46.284  37.288  31.361  1.00  0.00     0.124 S 
ATOM     72  O   UNL A   1      46.043  37.223  32.801  1.00  0.00    -0.237 OA
ATOM     73  O   UNL A   1      47.681  37.447  30.965  1.00  0.00    -0.237 OA
ATOM     74  O   UNL A   1      45.329  38.097  30.607  1.00  0.00    -0.744 OA
ENDBRANCH  70  71
ENDBRANCH  51  65
BRANCH  52  75
ATOM     75  C   UNL A   1      42.882  23.666  27.448  1.00  0.00    -0.014 A 
ATOM     76  C   UNL A   1      42.834  22.629  28.395  1.00  0.00     0.010 A 
ATOM     77  C   UNL A   1      42.592  23.377  26.102  1.00  0.00     0.010 A 
ATOM     78  C   UNL A   1      42.509  21.326  28.001  1.00  0.00     0.020 A 
ATOM     79  C   UNL A   1      42.236  22.084  25.710  1.00  0.00     0.020 A 
ATOM     80  C   UNL A   1      42.207  21.064  26.662  1.00  0.00     0.054 A 
BRANCH  80  81
ATOM     81  S   UNL A   1      41.713  19.385  26.181  1.00  0.00     0.124 S 
ATOM     82  O   UNL A   1      40.288  19.552  25.915  1.00  0.00    -0.237 OA
ATOM     83  O   UNL A   1      42.551  19.131  25.012  1.00  0.00    -0.237 OA
ATOM     84  O   UNL A   1      42.044  18.585  27.358  1.00  0.00    -0.744 OA
ENDBRANCH  80  81
ENDBRANCH  52  75
BRANCH  64  85
ATOM     85  C   UNL A   1      48.891  27.186  27.547  1.00  0.00    -0.014 A 
ATOM     86  C   UNL A   1      49.293  27.063  26.204  1.00  0.00     0.010 A 
ATOM     87  C   UNL A   1      49.830  26.951  28.567  1.00  0.00     0.010 A 
ATOM     88  C   UNL A   1      50.595  26.664  25.889  1.00  0.00     0.020 A 
ATOM     89  C   UNL A   1      51.140  26.577  28.256  1.00  0.00     0.020 A 
ATOM     90  C   UNL A   1      51.507  26.414  26.919  1.00  0.00     0.054 A 
BRANCH  90  91
ATOM     91  S   UNL A   1      53.193  25.898  26.489  1.00  0.00     0.124 S 
ATOM     92  O   UNL A   1      52.970  24.564  25.938  1.00  0.00    -0.237 OA
ATOM     93  O   UNL A   1      53.608  26.915  25.526  1.00  0.00    -0.237 OA
ATOM     94  O   UNL A   1      53.902  25.933  27.767  1.00  0.00    -0.744 OA
ENDBRANCH  90  91
ENDBRANCH  64  85
ENDBRANCH  38  39
ENDBRANCH  31  33
ENDBRANCH  30  31
ENDBRANCH  29  30
ENDBRANCH  28  29
ENDBRANCH  27  28
ENDBRANCH   1  27
TORSDOF 22
ENDMDL
MODEL 3
REMARK VINA RESULT:      -9.9      6.548     11.690
REMARK SMILES C[C@H]1CC[C@@](NC(=O)N[C@H]2CCOC2)(C(=O)OCCOCCOCCOC(=O)c2ccc(-c3c4nc(c(-c5ccc(S(=O)(=O)[O-])cc5)c5ccc([nH]5)c(-c5ccc(S(=O)(=O)[O-])cc5)c5nc(c(-c6ccc(S(=O)(=O)[O-])cc6)c6ccc3[nH]6)C=C5)C=C4)cc2)CC1
REMARK SMILES IDX 22 1 21 2 20 3 19 4 18 5 17 6 15 7 16 8 5 9 1 10 2 11 90 12
REMARK SMILES IDX 3 13 89 14 4 15 6 16 7 17 8 19 9 20 10 22 11 23 14 24 12 25
REMARK SMILES IDX 13 26 23 27 24 28 25 29 26 30 27 31 28 32 29 33 30 34 88 35
REMARK SMILES IDX 31 36 87 37 32 38 33 39 34 40 81 41 35 42 86 43 80 44 82 45
REMARK SMILES IDX 36 46 85 47 79 48 78 49 37 51 67 52 48 53 66 54 49 55 52 56
REMARK SMILES IDX 65 57 83 58 50 59 51 60 64 62 84 63 53 64 38 65 39 66 47 67
REMARK SMILES IDX 40 68 46 69 41 70 42 71 43 72 44 73 45 74 68 75 69 76 77 77
REMARK SMILES IDX 70 78 76 79 71 80 72 81 73 82 74 83 75 84 54 85 55 86 63 87
REMARK SMILES IDX 56 88 62 89 57 90 58 91 59 92 60 93 61 94
REMARK H PARENT 6 18 9 21 82 50 52 61
REMARK Flexibility Score: inf
ROOT
ATOM      1  C   UNL A   1      36.575  22.353  24.595  1.00  0.00     0.188 C 
ENDROOT
BRANCH   1   2
ATOM      2  C   UNL A   1      35.501  21.263  24.771  1.00  0.00     0.188 C 
BRANCH   2   3
ATOM      3  O   UNL A   1      34.351  21.750  25.461  1.00  0.00    -0.376 OA
BRANCH   3   4
ATOM      4  C   UNL A   1      34.457  21.705  26.880  1.00  0.00     0.202 C 
BRANCH   4   5
ATOM      5  C   UNL A   1      33.186  22.182  27.589  1.00  0.00     0.261 C 
BRANCH   5   6
ATOM      6  O   UNL A   1      31.907  22.158  26.902  1.00  0.00    -0.461 OA
BRANCH   6   7
ATOM      7  C   UNL A   1      31.088  23.218  26.675  1.00  0.00     0.331 C 
ATOM      8  O   UNL A   1      30.213  23.620  27.430  1.00  0.00    -0.249 OA
BRANCH   7   9
ATOM      9  C   UNL A   1      31.390  23.862  25.320  1.00  0.00     0.139 C 
ATOM     10  C   UNL A   1      31.609  27.891  27.126  1.00  0.00     0.007 C 
ATOM     11  C   UNL A   1      31.681  26.813  26.040  1.00  0.00    -0.014 C 
ATOM     12  C   UNL A   1      30.311  26.158  25.814  1.00  0.00     0.006 C 
ATOM     13  C   UNL A   1      32.754  25.783  26.401  1.00  0.00     0.006 C 
ATOM     14  C   UNL A   1      30.363  24.927  24.890  1.00  0.00     0.041 C 
ATOM     15  C   UNL A   1      32.767  24.580  25.456  1.00  0.00     0.041 C 
BRANCH   9  16
ATOM     16  N   UNL A   1      31.536  22.781  24.304  1.00  0.00    -0.322 N 
ATOM     17  C   UNL A   1      32.133  22.571  23.130  1.00  0.00     0.316 C 
ATOM     18  H   UNL A   1      31.040  21.977  24.584  1.00  0.00     0.166 HD
ATOM     19  O   UNL A   1      32.212  21.390  22.771  1.00  0.00    -0.249 OA
ATOM     20  N   UNL A   1      32.610  23.477  22.277  1.00  0.00    -0.333 N 
ATOM     21  H   UNL A   1      33.124  23.053  21.552  1.00  0.00     0.165 HD
BRANCH  20  22
ATOM     22  C   UNL A   1      32.576  24.917  22.127  1.00  0.00     0.112 C 
ATOM     23  C   UNL A   1      33.706  25.667  22.786  1.00  0.00     0.056 C 
ATOM     24  C   UNL A   1      32.676  25.442  20.694  1.00  0.00     0.185 C 
ATOM     25  C   UNL A   1      33.588  27.031  22.134  1.00  0.00     0.162 C 
ATOM     26  O   UNL A   1      33.114  26.810  20.794  1.00  0.00    -0.379 OA
ENDBRANCH  20  22
ENDBRANCH   9  16
ENDBRANCH   7   9
ENDBRANCH   6   7
ENDBRANCH   5   6
ENDBRANCH   4   5
ENDBRANCH   3   4
ENDBRANCH   2   3
ENDBRANCH   1   2
BRANCH   1  27
ATOM     27  O   UNL A   1      37.938  21.947  24.686  1.00  0.00    -0.376 OA
BRANCH  27  28
ATOM     28  C   UNL A   1      38.462  21.869  26.003  1.00  0.00     0.202 C 
BRANCH  28  29
ATOM     29  C   UNL A   1      39.562  22.888  26.347  1.00  0.00     0.261 C 
BRANCH  29  30
ATOM     30  O   UNL A   1      39.114  24.265  26.349  1.00  0.00    -0.460 OA
BRANCH  30  31
ATOM     31  C   UNL A   1      40.093  25.202  26.308  1.00  0.00     0.338 C 
ATOM     32  O   UNL A   1      40.678  25.598  25.313  1.00  0.00    -0.246 OA
BRANCH  31  33
ATOM     33  C   UNL A   1      40.374  25.777  27.643  1.00  0.00     0.060 A 
ATOM     34  C   UNL A   1      39.365  25.801  28.611  1.00  0.00     0.016 A 
ATOM     35  C   UNL A   1      41.520  26.550  27.831  1.00  0.00     0.016 A 
ATOM     36  C   UNL A   1      39.445  26.663  29.707  1.00  0.00     0.010 A 
ATOM     37  C   UNL A   1      41.616  27.390  28.952  1.00  0.00     0.010 A 
ATOM     38  C   UNL A   1      40.549  27.506  29.864  1.00  0.00    -0.014 A 
BRANCH  38  39
ATOM     39  C   UNL A   1      40.488  28.635  30.840  1.00  0.00     0.031 A 
ATOM     40  C   UNL A   1      41.504  28.690  31.958  1.00  0.00     0.074 A 
ATOM     41  C   UNL A   1      39.618  29.655  30.706  1.00  0.00     0.049 A 
ATOM     42  N   UNL A   1      41.536  29.460  33.015  1.00  0.00    -0.248 NA
ATOM     43  C   UNL A   1      42.632  27.747  31.869  1.00  0.00     0.031 C 
ATOM     44  C   UNL A   1      38.661  29.823  29.612  1.00  0.00     0.029 A 
ATOM     45  N   UNL A   1      39.410  30.758  31.501  1.00  0.00    -0.354 N 
ATOM     46  C   UNL A   1      42.645  29.050  33.749  1.00  0.00     0.074 A 
ATOM     47  C   UNL A   1      43.263  27.969  33.013  1.00  0.00     0.031 C 
ATOM     48  C   UNL A   1      37.983  30.969  29.795  1.00  0.00     0.029 A 
ATOM     49  C   UNL A   1      38.397  31.575  31.059  1.00  0.00     0.049 A 
ATOM     50  H   UNL A   1      39.939  30.944  32.310  1.00  0.00     0.167 HD
ATOM     51  C   UNL A   1      43.104  29.523  34.933  1.00  0.00     0.031 A 
ATOM     52  C   UNL A   1      37.829  32.659  31.625  1.00  0.00     0.031 A 
ATOM     53  C   UNL A   1      42.523  30.630  35.644  1.00  0.00     0.049 A 
ATOM     54  C   UNL A   1      38.307  33.128  32.975  1.00  0.00     0.074 A 
ATOM     55  C   UNL A   1      42.906  31.170  36.861  1.00  0.00     0.029 A 
ATOM     56  N   UNL A   1      41.453  31.385  35.193  1.00  0.00    -0.354 N 
ATOM     57  N   UNL A   1      39.283  32.658  33.714  1.00  0.00    -0.248 NA
ATOM     58  C   UNL A   1      37.590  34.263  33.573  1.00  0.00     0.031 C 
ATOM     59  C   UNL A   1      42.038  32.225  37.165  1.00  0.00     0.029 A 
ATOM     60  C   UNL A   1      41.150  32.375  36.113  1.00  0.00     0.049 A 
ATOM     61  H   UNL A   1      40.976  31.238  34.344  1.00  0.00     0.167 HD
ATOM     62  C   UNL A   1      39.299  33.445  34.863  1.00  0.00     0.074 A 
ATOM     63  C   UNL A   1      38.256  34.438  34.706  1.00  0.00     0.031 C 
ATOM     64  C   UNL A   1      40.101  33.348  35.953  1.00  0.00     0.031 A 
BRANCH  51  65
ATOM     65  C   UNL A   1      44.258  28.792  35.570  1.00  0.00    -0.014 A 
ATOM     66  C   UNL A   1      45.592  29.066  35.225  1.00  0.00     0.010 A 
ATOM     67  C   UNL A   1      43.989  27.823  36.555  1.00  0.00     0.010 A 
ATOM     68  C   UNL A   1      46.635  28.353  35.826  1.00  0.00     0.020 A 
ATOM     69  C   UNL A   1      45.029  27.128  37.176  1.00  0.00     0.020 A 
ATOM     70  C   UNL A   1      46.347  27.385  36.794  1.00  0.00     0.054 A 
BRANCH  70  71
ATOM     71  S   UNL A   1      47.717  26.485  37.570  1.00  0.00     0.124 S 
ATOM     72  O   UNL A   1      48.454  27.564  38.222  1.00  0.00    -0.237 OA
ATOM     73  O   UNL A   1      47.029  25.562  38.469  1.00  0.00    -0.237 OA
ATOM     74  O   UNL A   1      48.402  25.856  36.443  1.00  0.00    -0.744 OA
ENDBRANCH  70  71
ENDBRANCH  51  65
BRANCH  52  75
ATOM     75  C   UNL A   1      36.683  33.335  30.954  1.00  0.00    -0.014 A 
ATOM     76  C   UNL A   1      35.394  33.297  31.513  1.00  0.00     0.010 A 
ATOM     77  C   UNL A   1      36.882  34.019  29.741  1.00  0.00     0.010 A 
ATOM     78  C   UNL A   1      34.324  33.926  30.866  1.00  0.00     0.020 A 
ATOM     79  C   UNL A   1      35.823  34.675  29.109  1.00  0.00     0.020 A 
ATOM     80  C   UNL A   1      34.547  34.616  29.672  1.00  0.00     0.054 A 
BRANCH  80  81
ATOM     81  S   UNL A   1      33.165  35.490  28.886  1.00  0.00     0.124 S 
ATOM     82  O   UNL A   1      32.458  36.039  30.039  1.00  0.00    -0.237 OA
ATOM     83  O   UNL A   1      33.846  36.463  28.037  1.00  0.00    -0.237 OA
ATOM     84  O   UNL A   1      32.462  34.432  28.164  1.00  0.00    -0.744 OA
ENDBRANCH  80  81
ENDBRANCH  52  75
BRANCH  64  85
ATOM     85  C   UNL A   1      39.891  34.358  37.051  1.00  0.00    -0.014 A 
ATOM     86  C   UNL A   1      39.127  34.046  38.190  1.00  0.00     0.010 A 
ATOM     87  C   UNL A   1      40.479  35.632  36.948  1.00  0.00     0.010 A 
ATOM     88  C   UNL A   1      38.914  35.006  39.183  1.00  0.00     0.020 A 
ATOM     89  C   UNL A   1      40.289  36.586  37.951  1.00  0.00     0.020 A 
ATOM     90  C   UNL A   1      39.489  36.274  39.051  1.00  0.00     0.054 A 
BRANCH  90  91
ATOM     91  S   UNL A   1      39.200  37.506  40.352  1.00  0.00     0.124 S 
ATOM     92  O   UNL A   1      38.277  38.428  39.696  1.00  0.00    -0.237 OA
ATOM     93  O   UNL A   1      38.630  36.708  41.434  1.00  0.00    -0.237 OA
ATOM     94  O   UNL A   1      40.533  38.044  40.619  1.00  0.00    -0.744 OA
ENDBRANCH  90  91
ENDBRANCH  64  85
ENDBRANCH  38  39
ENDBRANCH  31  33
ENDBRANCH  30  31
ENDBRANCH  29  30
ENDBRANCH  28  29
ENDBRANCH  27  28
ENDBRANCH   1  27
TORSDOF 22
ENDMDL
