MODEL 1
REMARK VINA RESULT:      -9.9      0.000      0.000
REMARK SMILES CS(=O)(=O)c1ccc(C2=NN(c3ccc(C(=O)OCCOCCOCCOC(=O)c4ccc(-c5c6nc(c(-c7ccc(S(=O)(=O)[O-])cc7)c7ccc([nH]7)c(-c7ccc(S(=O)(=O)[O-])cc7)c7nc(c(-c8ccc(S(=O)(=O)[O-])cc8)c8ccc5[nH]8)C=C7)C=C6)cc4)cc3)[C@H](c3ccc(Cl)cc3)C2)cc1
REMARK SMILES IDX 22 1 21 2 20 3 19 4 18 5 16 6 17 7 15 8 12 9 13 10 91 11
REMARK SMILES IDX 14 12 90 13 11 14 9 15 10 16 100 17 92 18 8 19 5 20 6 21
REMARK SMILES IDX 102 22 7 23 101 24 2 25 1 26 3 27 4 28 93 29 94 30 99 31
REMARK SMILES IDX 95 32 98 33 96 34 97 35 23 36 24 37 25 38 26 39 27 40 28 41
REMARK SMILES IDX 29 42 30 43 31 44 89 45 32 46 88 47 33 48 34 49 35 50 82 51
REMARK SMILES IDX 36 52 87 53 81 54 83 55 37 56 86 57 80 58 79 59 38 61 68 62
REMARK SMILES IDX 49 63 67 64 50 65 53 66 66 67 84 68 51 69 52 70 65 72 85 73
REMARK SMILES IDX 54 74 39 75 40 76 48 77 41 78 47 79 42 80 43 81 44 82 45 83
REMARK SMILES IDX 46 84 69 85 70 86 78 87 71 88 77 89 72 90 73 91 74 92 75 93
REMARK SMILES IDX 76 94 55 95 56 96 64 97 57 98 63 99 58 100 59 101 60 102
REMARK SMILES IDX 61 103 62 104
REMARK H PARENT 83 60 53 71
REMARK Flexibility Score: inf
ROOT
ATOM      1  C   UNL A   1      31.082  29.472  24.437  1.00  0.00     0.188 C 
ENDROOT
BRANCH   1   2
ATOM      2  O   UNL A   1      32.205  28.620  24.270  1.00  0.00    -0.376 OA
BRANCH   2   3
ATOM      3  C   UNL A   1      32.341  27.469  25.090  1.00  0.00     0.202 C 
BRANCH   3   4
ATOM      4  C   UNL A   1      31.206  27.070  26.037  1.00  0.00     0.261 C 
BRANCH   4   5
ATOM      5  O   UNL A   1      30.300  26.122  25.454  1.00  0.00    -0.460 OA
BRANCH   5   6
ATOM      6  C   UNL A   1      30.053  25.019  26.205  1.00  0.00     0.338 C 
ATOM      7  O   UNL A   1      29.046  24.789  26.851  1.00  0.00    -0.246 OA
BRANCH   6   8
ATOM      8  C   UNL A   1      31.149  24.033  26.054  1.00  0.00     0.060 A 
ATOM      9  C   UNL A   1      33.358  22.310  25.889  1.00  0.00     0.060 A 
ATOM     10  C   UNL A   1      32.792  22.612  27.131  1.00  0.00     0.029 A 
ATOM     11  C   UNL A   1      32.737  22.793  24.728  1.00  0.00     0.029 A 
ATOM     12  C   UNL A   1      31.697  23.475  27.216  1.00  0.00     0.018 A 
ATOM     13  C   UNL A   1      31.647  23.663  24.803  1.00  0.00     0.018 A 
BRANCH   9  14
ATOM     14  N   UNL A   1      34.615  21.705  25.790  1.00  0.00    -0.257 N 
ATOM     15  C   UNL A   1      36.732  21.882  25.630  1.00  0.00     0.071 C 
ATOM     16  N   UNL A   1      35.715  22.291  26.326  1.00  0.00    -0.176 NA
ATOM     17  C   UNL A   1      36.397  21.058  24.415  1.00  0.00     0.091 C 
ATOM     18  C   UNL A   1      34.893  20.859  24.621  1.00  0.00     0.144 C 
BRANCH  15  19
ATOM     19  C   UNL A   1      38.132  22.193  25.987  1.00  0.00    -0.002 A 
ATOM     20  C   UNL A   1      40.747  22.854  26.704  1.00  0.00     0.067 A 
ATOM     21  C   UNL A   1      39.733  23.805  26.840  1.00  0.00     0.021 A 
ATOM     22  C   UNL A   1      40.467  21.579  26.200  1.00  0.00     0.021 A 
ATOM     23  C   UNL A   1      38.426  23.473  26.472  1.00  0.00     0.011 A 
ATOM     24  C   UNL A   1      39.152  21.243  25.853  1.00  0.00     0.011 A 
BRANCH  20  25
ATOM     25  S   UNL A   1      42.425  23.285  27.109  1.00  0.00     0.175 S 
ATOM     26  C   UNL A   1      42.448  23.329  28.880  1.00  0.00     0.163 C 
ATOM     27  O   UNL A   1      42.660  24.641  26.647  1.00  0.00    -0.224 OA
ATOM     28  O   UNL A   1      43.263  22.185  26.680  1.00  0.00    -0.224 OA
ENDBRANCH  20  25
ENDBRANCH  15  19
BRANCH  18  29
ATOM     29  C   UNL A   1      34.382  19.448  24.894  1.00  0.00    -0.023 A 
ATOM     30  C   UNL A   1      33.076  19.164  25.315  1.00  0.00     0.007 A 
ATOM     31  C   UNL A   1      35.230  18.361  24.586  1.00  0.00     0.007 A 
ATOM     32  C   UNL A   1      32.630  17.840  25.416  1.00  0.00     0.021 A 
ATOM     33  C   UNL A   1      34.774  17.044  24.649  1.00  0.00     0.021 A 
ATOM     34  C   UNL A   1      33.474  16.788  25.065  1.00  0.00     0.041 A 
ATOM     35  Cl  UNL A   1      32.897  15.169  25.124  1.00  0.00    -0.084 Cl
ENDBRANCH  18  29
ENDBRANCH   9  14
ENDBRANCH   6   8
ENDBRANCH   5   6
ENDBRANCH   4   5
ENDBRANCH   3   4
ENDBRANCH   2   3
ENDBRANCH   1   2
BRANCH   1  36
ATOM     36  C   UNL A   1      31.157  30.676  25.397  1.00  0.00     0.188 C 
BRANCH  36  37
ATOM     37  O   UNL A   1      31.580  30.481  26.727  1.00  0.00    -0.376 OA
BRANCH  37  38
ATOM     38  C   UNL A   1      32.903  30.778  27.132  1.00  0.00     0.202 C 
BRANCH  38  39
ATOM     39  C   UNL A   1      33.345  31.982  27.981  1.00  0.00     0.261 C 
BRANCH  39  40
ATOM     40  O   UNL A   1      34.493  31.830  28.812  1.00  0.00    -0.460 OA
BRANCH  40  41
ATOM     41  C   UNL A   1      34.699  32.838  29.696  1.00  0.00     0.338 C 
ATOM     42  O   UNL A   1      33.865  33.390  30.395  1.00  0.00    -0.246 OA
BRANCH  41  43
ATOM     43  C   UNL A   1      36.147  33.073  29.812  1.00  0.00     0.060 A 
ATOM     44  C   UNL A   1      37.010  32.396  28.942  1.00  0.00     0.016 A 
ATOM     45  C   UNL A   1      36.648  33.928  30.795  1.00  0.00     0.016 A 
ATOM     46  C   UNL A   1      38.388  32.555  29.070  1.00  0.00     0.010 A 
ATOM     47  C   UNL A   1      38.031  34.071  30.934  1.00  0.00     0.010 A 
ATOM     48  C   UNL A   1      38.906  33.364  30.091  1.00  0.00    -0.014 A 
BRANCH  48  49
ATOM     49  C   UNL A   1      40.357  33.341  30.389  1.00  0.00     0.031 A 
ATOM     50  C   UNL A   1      40.884  32.283  31.320  1.00  0.00     0.074 A 
ATOM     51  C   UNL A   1      41.193  34.242  29.843  1.00  0.00     0.049 A 
ATOM     52  N   UNL A   1      42.099  32.102  31.764  1.00  0.00    -0.248 NA
ATOM     53  C   UNL A   1      39.905  31.303  31.819  1.00  0.00     0.031 C 
ATOM     54  C   UNL A   1      40.811  35.291  28.899  1.00  0.00     0.029 A 
ATOM     55  N   UNL A   1      42.543  34.422  30.020  1.00  0.00    -0.354 N 
ATOM     56  C   UNL A   1      42.033  30.993  32.598  1.00  0.00     0.074 A 
ATOM     57  C   UNL A   1      40.654  30.557  32.619  1.00  0.00     0.031 C 
ATOM     58  C   UNL A   1      41.902  36.014  28.589  1.00  0.00     0.029 A 
ATOM     59  C   UNL A   1      43.049  35.501  29.336  1.00  0.00     0.049 A 
ATOM     60  H   UNL A   1      43.095  33.834  30.584  1.00  0.00     0.167 HD
ATOM     61  C   UNL A   1      43.032  30.387  33.284  1.00  0.00     0.031 A 
ATOM     62  C   UNL A   1      44.290  36.026  29.331  1.00  0.00     0.031 A 
ATOM     63  C   UNL A   1      44.399  30.832  33.278  1.00  0.00     0.049 A 
ATOM     64  C   UNL A   1      45.371  35.378  30.159  1.00  0.00     0.074 A 
ATOM     65  C   UNL A   1      45.486  30.279  33.932  1.00  0.00     0.029 A 
ATOM     66  N   UNL A   1      44.867  31.943  32.592  1.00  0.00    -0.354 N 
ATOM     67  N   UNL A   1      45.300  34.313  30.923  1.00  0.00    -0.248 NA
ATOM     68  C   UNL A   1      46.702  36.000  30.118  1.00  0.00     0.031 C 
ATOM     69  C   UNL A   1      46.600  31.087  33.685  1.00  0.00     0.029 A 
ATOM     70  C   UNL A   1      46.221  32.108  32.829  1.00  0.00     0.049 A 
ATOM     71  H   UNL A   1      44.317  32.528  32.023  1.00  0.00     0.167 HD
ATOM     72  C   UNL A   1      46.582  34.122  31.429  1.00  0.00     0.074 A 
ATOM     73  C   UNL A   1      47.410  35.174  30.877  1.00  0.00     0.031 C 
ATOM     74  C   UNL A   1      47.033  33.161  32.272  1.00  0.00     0.031 A 
BRANCH  61  75
ATOM     75  C   UNL A   1      42.668  29.196  34.128  1.00  0.00    -0.014 A 
ATOM     76  C   UNL A   1      42.764  27.887  33.622  1.00  0.00     0.010 A 
ATOM     77  C   UNL A   1      42.253  29.389  35.458  1.00  0.00     0.010 A 
ATOM     78  C   UNL A   1      42.415  26.793  34.420  1.00  0.00     0.020 A 
ATOM     79  C   UNL A   1      41.928  28.297  36.268  1.00  0.00     0.020 A 
ATOM     80  C   UNL A   1      41.996  27.006  35.737  1.00  0.00     0.054 A 
BRANCH  80  81
ATOM     81  S   UNL A   1      41.568  25.570  36.758  1.00  0.00     0.124 S 
ATOM     82  O   UNL A   1      40.475  26.093  37.573  1.00  0.00    -0.237 OA
ATOM     83  O   UNL A   1      41.187  24.570  35.763  1.00  0.00    -0.237 OA
ATOM     84  O   UNL A   1      42.803  25.280  37.485  1.00  0.00    -0.744 OA
ENDBRANCH  80  81
ENDBRANCH  61  75
BRANCH  62  85
ATOM     85  C   UNL A   1      44.578  37.247  28.528  1.00  0.00    -0.014 A 
ATOM     86  C   UNL A   1      45.010  37.143  27.195  1.00  0.00     0.010 A 
ATOM     87  C   UNL A   1      44.424  38.523  29.100  1.00  0.00     0.010 A 
ATOM     88  C   UNL A   1      45.298  38.293  26.453  1.00  0.00     0.020 A 
ATOM     89  C   UNL A   1      44.684  39.675  28.354  1.00  0.00     0.020 A 
ATOM     90  C   UNL A   1      45.132  39.552  27.037  1.00  0.00     0.054 A 
BRANCH  90  91
ATOM     91  S   UNL A   1      45.461  41.031  26.038  1.00  0.00     0.124 S 
ATOM     92  O   UNL A   1      44.118  41.568  25.838  1.00  0.00    -0.237 OA
ATOM     93  O   UNL A   1      46.332  41.814  26.909  1.00  0.00    -0.237 OA
ATOM     94  O   UNL A   1      46.106  40.497  24.840  1.00  0.00    -0.744 OA
ENDBRANCH  90  91
ENDBRANCH  62  85
BRANCH  74  95
ATOM     95  C   UNL A   1      48.498  33.171  32.624  1.00  0.00    -0.014 A 
ATOM     96  C   UNL A   1      48.971  33.846  33.764  1.00  0.00     0.010 A 
ATOM     97  C   UNL A   1      49.406  32.440  31.835  1.00  0.00     0.010 A 
ATOM     98  C   UNL A   1      50.331  33.813  34.091  1.00  0.00     0.020 A 
ATOM     99  C   UNL A   1      50.760  32.384  32.173  1.00  0.00     0.020 A 
ATOM    100  C   UNL A   1      51.217  33.083  33.291  1.00  0.00     0.054 A 
BRANCH 100 101
ATOM    101  S   UNL A   1      52.968  33.019  33.761  1.00  0.00     0.124 S 
ATOM    102  O   UNL A   1      53.598  33.786  32.690  1.00  0.00    -0.237 OA
ATOM    103  O   UNL A   1      52.973  33.656  35.076  1.00  0.00    -0.237 OA
ATOM    104  O   UNL A   1      53.274  31.590  33.768  1.00  0.00    -0.744 OA
ENDBRANCH 100 101
ENDBRANCH  74  95
ENDBRANCH  48  49
ENDBRANCH  41  43
ENDBRANCH  40  41
ENDBRANCH  39  40
ENDBRANCH  38  39
ENDBRANCH  37  38
ENDBRANCH  36  37
ENDBRANCH   1  36
TORSDOF 24
ENDMDL
MODEL 2
REMARK VINA RESULT:      -9.7      1.434      7.541
REMARK SMILES CS(=O)(=O)c1ccc(C2=NN(c3ccc(C(=O)OCCOCCOCCOC(=O)c4ccc(-c5c6nc(c(-c7ccc(S(=O)(=O)[O-])cc7)c7ccc([nH]7)c(-c7ccc(S(=O)(=O)[O-])cc7)c7nc(c(-c8ccc(S(=O)(=O)[O-])cc8)c8ccc5[nH]8)C=C7)C=C6)cc4)cc3)[C@H](c3ccc(Cl)cc3)C2)cc1
REMARK SMILES IDX 22 1 21 2 20 3 19 4 18 5 16 6 17 7 15 8 12 9 13 10 91 11
REMARK SMILES IDX 14 12 90 13 11 14 9 15 10 16 100 17 92 18 8 19 5 20 6 21
REMARK SMILES IDX 102 22 7 23 101 24 2 25 1 26 3 27 4 28 93 29 94 30 99 31
REMARK SMILES IDX 95 32 98 33 96 34 97 35 23 36 24 37 25 38 26 39 27 40 28 41
REMARK SMILES IDX 29 42 30 43 31 44 89 45 32 46 88 47 33 48 34 49 35 50 82 51
REMARK SMILES IDX 36 52 87 53 81 54 83 55 37 56 86 57 80 58 79 59 38 61 68 62
REMARK SMILES IDX 49 63 67 64 50 65 53 66 66 67 84 68 51 69 52 70 65 72 85 73
REMARK SMILES IDX 54 74 39 75 40 76 48 77 41 78 47 79 42 80 43 81 44 82 45 83
REMARK SMILES IDX 46 84 69 85 70 86 78 87 71 88 77 89 72 90 73 91 74 92 75 93
REMARK SMILES IDX 76 94 55 95 56 96 64 97 57 98 63 99 58 100 59 101 60 102
REMARK SMILES IDX 61 103 62 104
REMARK H PARENT 83 60 53 71
REMARK Flexibility Score: inf
ROOT
ATOM      1  C   UNL A   1      31.042  29.513  24.419  1.00  0.00     0.188 C 
ENDROOT
BRANCH   1   2
ATOM      2  O   UNL A   1      32.107  28.602  24.200  1.00  0.00    -0.376 OA
BRANCH   2   3
ATOM      3  C   UNL A   1      32.241  27.463  25.038  1.00  0.00     0.202 C 
BRANCH   3   4
ATOM      4  C   UNL A   1      31.145  27.134  26.056  1.00  0.00     0.261 C 
BRANCH   4   5
ATOM      5  O   UNL A   1      30.171  26.210  25.548  1.00  0.00    -0.460 OA
BRANCH   5   6
ATOM      6  C   UNL A   1      29.969  25.105  26.310  1.00  0.00     0.338 C 
ATOM      7  O   UNL A   1      28.986  24.858  26.986  1.00  0.00    -0.246 OA
BRANCH   6   8
ATOM      8  C   UNL A   1      31.080  24.141  26.131  1.00  0.00     0.060 A 
ATOM      9  C   UNL A   1      33.315  22.456  25.918  1.00  0.00     0.060 A 
ATOM     10  C   UNL A   1      32.738  22.706  27.167  1.00  0.00     0.029 A 
ATOM     11  C   UNL A   1      32.693  22.972  24.771  1.00  0.00     0.029 A 
ATOM     12  C   UNL A   1      31.629  23.550  27.276  1.00  0.00     0.018 A 
ATOM     13  C   UNL A   1      31.590  23.823  24.870  1.00  0.00     0.018 A 
BRANCH   9  14
ATOM     14  N   UNL A   1      34.580  21.873  25.805  1.00  0.00    -0.257 N 
ATOM     15  C   UNL A   1      36.694  22.087  25.636  1.00  0.00     0.071 C 
ATOM     16  N   UNL A   1      35.674  22.471  26.342  1.00  0.00    -0.176 NA
ATOM     17  C   UNL A   1      36.366  21.272  24.413  1.00  0.00     0.091 C 
ATOM     18  C   UNL A   1      34.866  21.046  24.625  1.00  0.00     0.144 C 
BRANCH  15  19
ATOM     19  C   UNL A   1      38.090  22.416  25.989  1.00  0.00    -0.002 A 
ATOM     20  C   UNL A   1      40.699  23.116  26.694  1.00  0.00     0.067 A 
ATOM     21  C   UNL A   1      39.690  24.082  26.737  1.00  0.00     0.021 A 
ATOM     22  C   UNL A   1      40.417  21.807  26.288  1.00  0.00     0.021 A 
ATOM     23  C   UNL A   1      38.387  23.730  26.376  1.00  0.00     0.011 A 
ATOM     24  C   UNL A   1      39.105  21.453  25.948  1.00  0.00     0.011 A 
BRANCH  20  25
ATOM     25  S   UNL A   1      42.374  23.568  27.089  1.00  0.00     0.175 S 
ATOM     26  C   UNL A   1      42.770  22.574  28.502  1.00  0.00     0.163 C 
ATOM     27  O   UNL A   1      42.370  24.950  27.530  1.00  0.00    -0.224 OA
ATOM     28  O   UNL A   1      43.205  23.127  25.988  1.00  0.00    -0.224 OA
ENDBRANCH  20  25
ENDBRANCH  15  19
BRANCH  18  29
ATOM     29  C   UNL A   1      34.380  19.624  24.882  1.00  0.00    -0.023 A 
ATOM     30  C   UNL A   1      33.083  19.314  25.316  1.00  0.00     0.007 A 
ATOM     31  C   UNL A   1      35.240  18.554  24.549  1.00  0.00     0.007 A 
ATOM     32  C   UNL A   1      32.659  17.982  25.403  1.00  0.00     0.021 A 
ATOM     33  C   UNL A   1      34.805  17.230  24.598  1.00  0.00     0.021 A 
ATOM     34  C   UNL A   1      33.514  16.949  25.026  1.00  0.00     0.041 A 
ATOM     35  Cl  UNL A   1      32.961  15.320  25.068  1.00  0.00    -0.084 Cl
ENDBRANCH  18  29
ENDBRANCH   9  14
ENDBRANCH   6   8
ENDBRANCH   5   6
ENDBRANCH   4   5
ENDBRANCH   3   4
ENDBRANCH   2   3
ENDBRANCH   1   2
BRANCH   1  36
ATOM     36  C   UNL A   1      31.223  30.702  25.384  1.00  0.00     0.188 C 
BRANCH  36  37
ATOM     37  O   UNL A   1      31.806  30.489  26.649  1.00  0.00    -0.376 OA
BRANCH  37  38
ATOM     38  C   UNL A   1      33.160  30.814  26.904  1.00  0.00     0.202 C 
BRANCH  38  39
ATOM     39  C   UNL A   1      33.676  31.764  27.998  1.00  0.00     0.261 C 
BRANCH  39  40
ATOM     40  O   UNL A   1      34.940  31.477  28.591  1.00  0.00    -0.460 OA
BRANCH  40  41
ATOM     41  C   UNL A   1      35.179  32.112  29.766  1.00  0.00     0.338 C 
ATOM     42  O   UNL A   1      34.362  32.641  30.500  1.00  0.00    -0.246 OA
BRANCH  41  43
ATOM     43  C   UNL A   1      36.596  31.927  30.120  1.00  0.00     0.060 A 
ATOM     44  C   UNL A   1      37.113  32.632  31.214  1.00  0.00     0.016 A 
ATOM     45  C   UNL A   1      37.414  31.093  29.356  1.00  0.00     0.016 A 
ATOM     46  C   UNL A   1      38.464  32.521  31.534  1.00  0.00     0.010 A 
ATOM     47  C   UNL A   1      38.772  30.999  29.666  1.00  0.00     0.010 A 
ATOM     48  C   UNL A   1      39.308  31.734  30.739  1.00  0.00    -0.014 A 
BRANCH  48  49
ATOM     49  C   UNL A   1      40.777  31.808  30.920  1.00  0.00     0.031 A 
ATOM     50  C   UNL A   1      41.502  33.028  30.419  1.00  0.00     0.074 A 
ATOM     51  C   UNL A   1      41.455  30.812  31.516  1.00  0.00     0.049 A 
ATOM     52  N   UNL A   1      42.782  33.288  30.421  1.00  0.00    -0.248 NA
ATOM     53  C   UNL A   1      40.669  34.093  29.837  1.00  0.00     0.031 C 
ATOM     54  C   UNL A   1      40.862  29.598  32.075  1.00  0.00     0.029 A 
ATOM     55  N   UNL A   1      42.802  30.664  31.738  1.00  0.00    -0.354 N 
ATOM     56  C   UNL A   1      42.912  34.542  29.836  1.00  0.00     0.074 A 
ATOM     57  C   UNL A   1      41.583  34.979  29.469  1.00  0.00     0.031 C 
ATOM     58  C   UNL A   1      41.845  28.822  32.566  1.00  0.00     0.029 A 
ATOM     59  C   UNL A   1      43.134  29.468  32.327  1.00  0.00     0.049 A 
ATOM     60  H   UNL A   1      43.466  31.350  31.499  1.00  0.00     0.167 HD
ATOM     61  C   UNL A   1      44.036  35.267  29.626  1.00  0.00     0.031 A 
ATOM     62  C   UNL A   1      44.342  28.946  32.620  1.00  0.00     0.031 A 
ATOM     63  C   UNL A   1      45.359  34.822  29.974  1.00  0.00     0.049 A 
ATOM     64  C   UNL A   1      45.585  29.740  32.310  1.00  0.00     0.074 A 
ATOM     65  C   UNL A   1      46.561  35.490  29.810  1.00  0.00     0.029 A 
ATOM     66  N   UNL A   1      45.657  33.595  30.545  1.00  0.00    -0.354 N 
ATOM     67  N   UNL A   1      45.692  30.937  31.781  1.00  0.00    -0.248 NA
ATOM     68  C   UNL A   1      46.874  29.116  32.646  1.00  0.00     0.031 C 
ATOM     69  C   UNL A   1      47.590  34.642  30.234  1.00  0.00     0.029 A 
ATOM     70  C   UNL A   1      47.025  33.473  30.717  1.00  0.00     0.049 A 
ATOM     71  H   UNL A   1      44.993  32.910  30.792  1.00  0.00     0.167 HD
ATOM     72  C   UNL A   1      47.054  31.218  31.747  1.00  0.00     0.074 A 
ATOM     73  C   UNL A   1      47.732  30.073  32.318  1.00  0.00     0.031 C 
ATOM     74  C   UNL A   1      47.686  32.326  31.288  1.00  0.00     0.031 A 
BRANCH  61  75
ATOM     75  C   UNL A   1      43.882  36.604  28.954  1.00  0.00    -0.014 A 
ATOM     76  C   UNL A   1      43.793  37.791  29.704  1.00  0.00     0.010 A 
ATOM     77  C   UNL A   1      43.854  36.677  27.550  1.00  0.00     0.010 A 
ATOM     78  C   UNL A   1      43.644  39.023  29.063  1.00  0.00     0.020 A 
ATOM     79  C   UNL A   1      43.730  37.910  26.903  1.00  0.00     0.020 A 
ATOM     80  C   UNL A   1      43.609  39.074  27.665  1.00  0.00     0.054 A 
BRANCH  80  81
ATOM     81  S   UNL A   1      43.434  40.687  26.856  1.00  0.00     0.124 S 
ATOM     82  O   UNL A   1      41.989  40.770  26.657  1.00  0.00    -0.237 OA
ATOM     83  O   UNL A   1      43.985  41.607  27.849  1.00  0.00    -0.237 OA
ATOM     84  O   UNL A   1      44.224  40.550  25.634  1.00  0.00    -0.744 OA
ENDBRANCH  80  81
ENDBRANCH  61  75
BRANCH  62  85
ATOM     85  C   UNL A   1      44.440  27.588  33.223  1.00  0.00    -0.014 A 
ATOM     86  C   UNL A   1      44.481  27.424  34.618  1.00  0.00     0.010 A 
ATOM     87  C   UNL A   1      44.496  26.449  32.399  1.00  0.00     0.010 A 
ATOM     88  C   UNL A   1      44.593  26.148  35.178  1.00  0.00     0.020 A 
ATOM     89  C   UNL A   1      44.579  25.170  32.955  1.00  0.00     0.020 A 
ATOM     90  C   UNL A   1      44.639  25.028  34.342  1.00  0.00     0.054 A 
BRANCH  90  91
ATOM     91  S   UNL A   1      44.731  23.379  35.093  1.00  0.00     0.124 S 
ATOM     92  O   UNL A   1      43.483  22.769  34.641  1.00  0.00    -0.237 OA
ATOM     93  O   UNL A   1      45.951  22.832  34.507  1.00  0.00    -0.237 OA
ATOM     94  O   UNL A   1      44.808  23.659  36.526  1.00  0.00    -0.744 OA
ENDBRANCH  90  91
ENDBRANCH  62  85
BRANCH  74  95
ATOM     95  C   UNL A   1      49.187  32.379  31.415  1.00  0.00    -0.014 A 
ATOM     96  C   UNL A   1      49.805  32.893  32.568  1.00  0.00     0.010 A 
ATOM     97  C   UNL A   1      49.988  31.845  30.388  1.00  0.00     0.010 A 
ATOM     98  C   UNL A   1      51.199  32.900  32.679  1.00  0.00     0.020 A 
ATOM     99  C   UNL A   1      51.380  31.826  30.507  1.00  0.00     0.020 A 
ATOM    100  C   UNL A   1      51.978  32.367  31.646  1.00  0.00     0.054 A 
BRANCH 100 101
ATOM    101  S   UNL A   1      53.782  32.347  31.833  1.00  0.00     0.124 S 
ATOM    102  O   UNL A   1      54.212  33.190  30.720  1.00  0.00    -0.237 OA
ATOM    103  O   UNL A   1      53.976  32.916  33.164  1.00  0.00    -0.237 OA
ATOM    104  O   UNL A   1      54.128  30.932  31.712  1.00  0.00    -0.744 OA
ENDBRANCH 100 101
ENDBRANCH  74  95
ENDBRANCH  48  49
ENDBRANCH  41  43
ENDBRANCH  40  41
ENDBRANCH  39  40
ENDBRANCH  38  39
ENDBRANCH  37  38
ENDBRANCH  36  37
ENDBRANCH   1  36
TORSDOF 24
ENDMDL
MODEL 3
REMARK VINA RESULT:      -9.4      4.461      8.199
REMARK SMILES CS(=O)(=O)c1ccc(C2=NN(c3ccc(C(=O)OCCOCCOCCOC(=O)c4ccc(-c5c6nc(c(-c7ccc(S(=O)(=O)[O-])cc7)c7ccc([nH]7)c(-c7ccc(S(=O)(=O)[O-])cc7)c7nc(c(-c8ccc(S(=O)(=O)[O-])cc8)c8ccc5[nH]8)C=C7)C=C6)cc4)cc3)[C@H](c3ccc(Cl)cc3)C2)cc1
REMARK SMILES IDX 22 1 21 2 20 3 19 4 18 5 16 6 17 7 15 8 12 9 13 10 91 11
REMARK SMILES IDX 14 12 90 13 11 14 9 15 10 16 100 17 92 18 8 19 5 20 6 21
REMARK SMILES IDX 102 22 7 23 101 24 2 25 1 26 3 27 4 28 93 29 94 30 99 31
REMARK SMILES IDX 95 32 98 33 96 34 97 35 23 36 24 37 25 38 26 39 27 40 28 41
REMARK SMILES IDX 29 42 30 43 31 44 89 45 32 46 88 47 33 48 34 49 35 50 82 51
REMARK SMILES IDX 36 52 87 53 81 54 83 55 37 56 86 57 80 58 79 59 38 61 68 62
REMARK SMILES IDX 49 63 67 64 50 65 53 66 66 67 84 68 51 69 52 70 65 72 85 73
REMARK SMILES IDX 54 74 39 75 40 76 48 77 41 78 47 79 42 80 43 81 44 82 45 83
REMARK SMILES IDX 46 84 69 85 70 86 78 87 71 88 77 89 72 90 73 91 74 92 75 93
REMARK SMILES IDX 76 94 55 95 56 96 64 97 57 98 63 99 58 100 59 101 60 102
REMARK SMILES IDX 61 103 62 104
REMARK H PARENT 83 60 53 71
REMARK Flexibility Score: inf
ROOT
ATOM      1  C   UNL A   1      31.357  29.956  25.306  1.00  0.00     0.188 C 
ENDROOT
BRANCH   1   2
ATOM      2  O   UNL A   1      32.691  29.474  25.336  1.00  0.00    -0.376 OA
BRANCH   2   3
ATOM      3  C   UNL A   1      33.091  28.577  26.362  1.00  0.00     0.202 C 
BRANCH   3   4
ATOM      4  C   UNL A   1      32.100  27.536  26.892  1.00  0.00     0.261 C 
BRANCH   4   5
ATOM      5  O   UNL A   1      31.197  27.061  25.884  1.00  0.00    -0.460 OA
BRANCH   5   6
ATOM      6  C   UNL A   1      30.685  25.824  26.103  1.00  0.00     0.338 C 
ATOM      7  O   UNL A   1      29.520  25.548  26.332  1.00  0.00    -0.246 OA
BRANCH   6   8
ATOM      8  C   UNL A   1      31.729  24.789  25.912  1.00  0.00     0.060 A 
ATOM      9  C   UNL A   1      33.824  22.931  25.722  1.00  0.00     0.060 A 
ATOM     10  C   UNL A   1      33.063  23.017  26.892  1.00  0.00     0.029 A 
ATOM     11  C   UNL A   1      33.451  23.708  24.615  1.00  0.00     0.029 A 
ATOM     12  C   UNL A   1      32.024  23.947  26.992  1.00  0.00     0.018 A 
ATOM     13  C   UNL A   1      32.420  24.645  24.707  1.00  0.00     0.018 A 
BRANCH   9  14
ATOM     14  N   UNL A   1      35.039  22.241  25.693  1.00  0.00    -0.257 N 
ATOM     15  C   UNL A   1      37.170  22.270  25.669  1.00  0.00     0.071 C 
ATOM     16  N   UNL A   1      36.141  22.743  26.306  1.00  0.00    -0.176 NA
ATOM     17  C   UNL A   1      36.856  21.484  24.424  1.00  0.00     0.091 C 
ATOM     18  C   UNL A   1      35.332  21.389  24.532  1.00  0.00     0.144 C 
BRANCH  15  19
ATOM     19  C   UNL A   1      38.562  22.478  26.119  1.00  0.00    -0.002 A 
ATOM     20  C   UNL A   1      41.164  22.944  27.013  1.00  0.00     0.067 A 
ATOM     21  C   UNL A   1      40.198  23.944  27.151  1.00  0.00     0.021 A 
ATOM     22  C   UNL A   1      40.843  21.719  26.419  1.00  0.00     0.021 A 
ATOM     23  C   UNL A   1      38.898  23.710  26.695  1.00  0.00     0.011 A 
ATOM     24  C   UNL A   1      39.534  21.480  25.984  1.00  0.00     0.011 A 
BRANCH  20  25
ATOM     25  S   UNL A   1      42.838  23.254  27.531  1.00  0.00     0.175 S 
ATOM     26  C   UNL A   1      43.823  22.286  26.421  1.00  0.00     0.163 C 
ATOM     27  O   UNL A   1      43.006  22.684  28.855  1.00  0.00    -0.224 OA
ATOM     28  O   UNL A   1      43.114  24.651  27.269  1.00  0.00    -0.224 OA
ENDBRANCH  20  25
ENDBRANCH  15  19
BRANCH  18  29
ATOM     29  C   UNL A   1      34.708  20.015  24.751  1.00  0.00    -0.023 A 
ATOM     30  C   UNL A   1      33.336  19.808  24.948  1.00  0.00     0.007 A 
ATOM     31  C   UNL A   1      35.537  18.878  24.625  1.00  0.00     0.007 A 
ATOM     32  C   UNL A   1      32.810  18.512  25.007  1.00  0.00     0.021 A 
ATOM     33  C   UNL A   1      35.008  17.587  24.644  1.00  0.00     0.021 A 
ATOM     34  C   UNL A   1      33.644  17.409  24.836  1.00  0.00     0.041 A 
ATOM     35  Cl  UNL A   1      32.980  15.822  24.839  1.00  0.00    -0.084 Cl
ENDBRANCH  18  29
ENDBRANCH   9  14
ENDBRANCH   6   8
ENDBRANCH   5   6
ENDBRANCH   4   5
ENDBRANCH   3   4
ENDBRANCH   2   3
ENDBRANCH   1   2
BRANCH   1  36
ATOM     36  C   UNL A   1      31.054  31.424  25.668  1.00  0.00     0.188 C 
BRANCH  36  37
ATOM     37  O   UNL A   1      31.415  31.917  26.937  1.00  0.00    -0.376 OA
BRANCH  37  38
ATOM     38  C   UNL A   1      32.672  32.529  27.161  1.00  0.00     0.202 C 
BRANCH  38  39
ATOM     39  C   UNL A   1      32.931  33.794  27.998  1.00  0.00     0.261 C 
BRANCH  39  40
ATOM     40  O   UNL A   1      33.825  33.694  29.103  1.00  0.00    -0.460 OA
BRANCH  40  41
ATOM     41  C   UNL A   1      33.542  34.515  30.145  1.00  0.00     0.338 C 
ATOM     42  O   UNL A   1      32.554  35.216  30.287  1.00  0.00    -0.246 OA
BRANCH  41  43
ATOM     43  C   UNL A   1      34.557  34.313  31.191  1.00  0.00     0.060 A 
ATOM     44  C   UNL A   1      34.842  35.370  32.064  1.00  0.00     0.016 A 
ATOM     45  C   UNL A   1      35.246  33.102  31.285  1.00  0.00     0.016 A 
ATOM     46  C   UNL A   1      35.841  35.225  33.025  1.00  0.00     0.010 A 
ATOM     47  C   UNL A   1      36.260  32.967  32.236  1.00  0.00     0.010 A 
ATOM     48  C   UNL A   1      36.580  34.037  33.091  1.00  0.00    -0.014 A 
BRANCH  48  49
ATOM     49  C   UNL A   1      37.797  33.967  33.933  1.00  0.00     0.031 A 
ATOM     50  C   UNL A   1      39.141  34.077  33.265  1.00  0.00     0.074 A 
ATOM     51  C   UNL A   1      37.712  33.810  35.265  1.00  0.00     0.049 A 
ATOM     52  N   UNL A   1      40.335  33.992  33.790  1.00  0.00    -0.248 NA
ATOM     53  C   UNL A   1      39.134  34.311  31.812  1.00  0.00     0.031 C 
ATOM     54  C   UNL A   1      36.470  33.728  36.033  1.00  0.00     0.029 A 
ATOM     55  N   UNL A   1      38.701  33.677  36.209  1.00  0.00    -0.354 N 
ATOM     56  C   UNL A   1      41.222  34.155  32.732  1.00  0.00     0.074 A 
ATOM     57  C   UNL A   1      40.429  34.320  31.533  1.00  0.00     0.031 C 
ATOM     58  C   UNL A   1      36.773  33.547  37.330  1.00  0.00     0.029 A 
ATOM     59  C   UNL A   1      38.225  33.467  37.480  1.00  0.00     0.049 A 
ATOM     60  H   UNL A   1      39.661  33.729  35.994  1.00  0.00     0.167 HD
ATOM     61  C   UNL A   1      42.576  34.171  32.757  1.00  0.00     0.031 A 
ATOM     62  C   UNL A   1      38.885  33.218  38.629  1.00  0.00     0.031 A 
ATOM     63  C   UNL A   1      43.363  33.988  33.946  1.00  0.00     0.049 A 
ATOM     64  C   UNL A   1      40.392  33.167  38.619  1.00  0.00     0.074 A 
ATOM     65  C   UNL A   1      44.741  33.998  34.075  1.00  0.00     0.029 A 
ATOM     66  N   UNL A   1      42.844  33.753  35.211  1.00  0.00    -0.354 N 
ATOM     67  N   UNL A   1      41.219  33.350  37.617  1.00  0.00    -0.248 NA
ATOM     68  C   UNL A   1      41.056  32.885  39.901  1.00  0.00     0.031 C 
ATOM     69  C   UNL A   1      45.056  33.715  35.408  1.00  0.00     0.029 A 
ATOM     70  C   UNL A   1      43.874  33.589  36.121  1.00  0.00     0.049 A 
ATOM     71  H   UNL A   1      41.885  33.708  35.428  1.00  0.00     0.167 HD
ATOM     72  C   UNL A   1      42.498  33.232  38.152  1.00  0.00     0.074 A 
ATOM     73  C   UNL A   1      42.337  32.974  39.568  1.00  0.00     0.031 C 
ATOM     74  C   UNL A   1      43.698  33.333  37.528  1.00  0.00     0.031 A 
BRANCH  61  75
ATOM     75  C   UNL A   1      43.290  34.357  31.445  1.00  0.00    -0.014 A 
ATOM     76  C   UNL A   1      43.548  35.640  30.932  1.00  0.00     0.010 A 
ATOM     77  C   UNL A   1      43.734  33.229  30.731  1.00  0.00     0.010 A 
ATOM     78  C   UNL A   1      44.207  35.793  29.708  1.00  0.00     0.020 A 
ATOM     79  C   UNL A   1      44.415  33.378  29.520  1.00  0.00     0.020 A 
ATOM     80  C   UNL A   1      44.633  34.659  29.008  1.00  0.00     0.054 A 
BRANCH  80  81
ATOM     81  S   UNL A   1      45.503  34.884  27.433  1.00  0.00     0.124 S 
ATOM     82  O   UNL A   1      44.396  34.942  26.482  1.00  0.00    -0.237 OA
ATOM     83  O   UNL A   1      46.222  36.140  27.639  1.00  0.00    -0.237 OA
ATOM     84  O   UNL A   1      46.349  33.697  27.331  1.00  0.00    -0.744 OA
ENDBRANCH  80  81
ENDBRANCH  61  75
BRANCH  62  85
ATOM     85  C   UNL A   1      38.126  32.974  39.886  1.00  0.00    -0.014 A 
ATOM     86  C   UNL A   1      37.605  31.701  40.175  1.00  0.00     0.010 A 
ATOM     87  C   UNL A   1      37.917  34.023  40.801  1.00  0.00     0.010 A 
ATOM     88  C   UNL A   1      36.876  31.484  41.348  1.00  0.00     0.020 A 
ATOM     89  C   UNL A   1      37.213  33.803  41.988  1.00  0.00     0.020 A 
ATOM     90  C   UNL A   1      36.686  32.537  42.249  1.00  0.00     0.054 A 
BRANCH  90  91
ATOM     91  S   UNL A   1      35.782  32.218  43.789  1.00  0.00     0.124 S 
ATOM     92  O   UNL A   1      34.456  32.746  43.478  1.00  0.00    -0.237 OA
ATOM     93  O   UNL A   1      35.872  30.767  43.914  1.00  0.00    -0.237 OA
ATOM     94  O   UNL A   1      36.536  32.971  44.790  1.00  0.00    -0.744 OA
ENDBRANCH  90  91
ENDBRANCH  62  85
BRANCH  74  95
ATOM     95  C   UNL A   1      44.938  33.202  38.374  1.00  0.00    -0.014 A 
ATOM     96  C   UNL A   1      45.631  34.335  38.835  1.00  0.00     0.010 A 
ATOM     97  C   UNL A   1      45.379  31.923  38.763  1.00  0.00     0.010 A 
ATOM     98  C   UNL A   1      46.761  34.190  39.648  1.00  0.00     0.020 A 
ATOM     99  C   UNL A   1      46.491  31.776  39.597  1.00  0.00     0.020 A 
ATOM    100  C   UNL A   1      47.184  32.910  40.022  1.00  0.00     0.054 A 
BRANCH 100 101
ATOM    101  S   UNL A   1      48.625  32.750  41.112  1.00  0.00     0.124 S 
ATOM    102  O   UNL A   1      49.006  31.355  40.910  1.00  0.00    -0.237 OA
ATOM    103  O   UNL A   1      49.553  33.739  40.568  1.00  0.00    -0.237 OA
ATOM    104  O   UNL A   1      48.094  33.066  42.437  1.00  0.00    -0.744 OA
ENDBRANCH 100 101
ENDBRANCH  74  95
ENDBRANCH  48  49
ENDBRANCH  41  43
ENDBRANCH  40  41
ENDBRANCH  39  40
ENDBRANCH  38  39
ENDBRANCH  37  38
ENDBRANCH  36  37
ENDBRANCH   1  36
TORSDOF 24
ENDMDL
