MODEL 1
REMARK VINA RESULT:      -6.8      0.000      0.000
REMARK SMILES C#CC[N@@H+](CC(=O)OCCOCCOCCOC(=O)c1ccc(-c2c3nc(c(-c4ccc(S(=O)(=O)[O-])cc4)c4ccc([nH]4)c(-c4ccc(S(=O)(=O)[O-])cc4)c4nc(c(-c5ccc(S(=O)(=O)[O-])cc5)c5ccc2[nH]5)C=C4)C=C3)cc1)[C@@H](C)Cc1ccco1
REMARK SMILES IDX 12 1 11 2 10 3 9 4 8 5 6 6 7 7 5 8 4 9 3 11 2 12 1 13 80 14
REMARK SMILES IDX 81 15 82 16 83 17 84 18 87 19 85 20 86 21 13 22 14 23 15 24
REMARK SMILES IDX 16 25 17 26 18 27 19 28 20 29 21 30 79 31 22 32 78 33 23 34
REMARK SMILES IDX 24 35 25 36 72 37 26 38 77 39 71 40 73 41 27 42 76 43 70 44
REMARK SMILES IDX 69 45 28 47 58 48 39 49 57 50 40 51 43 52 56 53 74 54 41 55
REMARK SMILES IDX 42 56 55 58 75 59 44 60 29 61 30 62 38 63 31 64 37 65 32 66
REMARK SMILES IDX 33 67 34 68 35 69 36 70 59 71 60 72 68 73 61 74 67 75 62 76
REMARK SMILES IDX 63 77 64 78 65 79 66 80 45 81 46 82 54 83 47 84 53 85 48 86
REMARK SMILES IDX 49 87 50 88 51 89 52 90
REMARK H PARENT 4 10 73 46 43 57
REMARK Flexibility Score: inf
ROOT
ATOM      1  C   UNL A   1      38.672  30.787  30.261  1.00  0.00     0.188 C 
ENDROOT
BRANCH   1   2
ATOM      2  O   UNL A   1      38.077  30.997  28.984  1.00  0.00    -0.376 OA
BRANCH   2   3
ATOM      3  C   UNL A   1      37.510  29.848  28.361  1.00  0.00     0.202 C 
BRANCH   3   4
ATOM      4  C   UNL A   1      35.974  29.757  28.372  1.00  0.00     0.261 C 
BRANCH   4   5
ATOM      5  O   UNL A   1      35.378  29.116  27.216  1.00  0.00    -0.459 OA
BRANCH   5   6
ATOM      6  C   UNL A   1      34.151  29.577  26.849  1.00  0.00     0.361 C 
ATOM      7  O   UNL A   1      33.342  30.030  27.659  1.00  0.00    -0.245 OA
BRANCH   6   8
ATOM      8  C   UNL A   1      33.741  29.439  25.375  1.00  0.00     0.387 C 
BRANCH   8   9
ATOM      9  N   UNL A   1      32.934  28.303  24.862  1.00  0.00    -0.313 N 
ATOM     10  H   UNL A   1      32.055  28.317  25.380  1.00  0.00     0.349 HD
BRANCH   9  11
ATOM     11  C   UNL A   1      33.480  27.001  25.222  1.00  0.00     0.354 C 
BRANCH  11  12
ATOM     12  C   UNL A   1      32.441  26.150  25.933  1.00  0.00    -0.047 C 
ATOM     13  C   UNL A   1      31.550  25.420  26.542  1.00  0.00     0.010 C 
ENDBRANCH  11  12
ENDBRANCH   9  11
BRANCH   9  14
ATOM     14  C   UNL A   1      32.432  28.478  23.486  1.00  0.00     0.189 C 
ATOM     15  C   UNL A   1      33.537  28.044  22.538  1.00  0.00     0.076 C 
BRANCH  14  16
ATOM     16  C   UNL A   1      31.114  27.780  23.025  1.00  0.00     0.140 C 
BRANCH  16  17
ATOM     17  C   UNL A   1      29.985  28.612  22.526  1.00  0.00     0.109 A 
ATOM     18  C   UNL A   1      28.632  28.569  22.810  1.00  0.00     0.046 A 
ATOM     19  O   UNL A   1      30.266  29.723  21.791  1.00  0.00    -0.469 OA
ATOM     20  C   UNL A   1      28.059  29.721  22.222  1.00  0.00     0.042 A 
ATOM     21  C   UNL A   1      29.093  30.385  21.609  1.00  0.00     0.195 A 
ENDBRANCH  16  17
ENDBRANCH  14  16
ENDBRANCH   9  14
ENDBRANCH   8   9
ENDBRANCH   6   8
ENDBRANCH   5   6
ENDBRANCH   4   5
ENDBRANCH   3   4
ENDBRANCH   2   3
ENDBRANCH   1   2
BRANCH   1  22
ATOM     22  C   UNL A   1      38.357  31.867  31.312  1.00  0.00     0.188 C 
BRANCH  22  23
ATOM     23  O   UNL A   1      37.008  31.793  31.757  1.00  0.00    -0.376 OA
BRANCH  23  24
ATOM     24  C   UNL A   1      36.381  32.937  32.337  1.00  0.00     0.202 C 
BRANCH  24  25
ATOM     25  C   UNL A   1      35.642  32.850  33.678  1.00  0.00     0.261 C 
BRANCH  25  26
ATOM     26  O   UNL A   1      36.492  32.705  34.825  1.00  0.00    -0.460 OA
BRANCH  26  27
ATOM     27  C   UNL A   1      37.502  33.591  35.000  1.00  0.00     0.338 C 
ATOM     28  O   UNL A   1      37.401  34.758  35.334  1.00  0.00    -0.246 OA
BRANCH  27  29
ATOM     29  C   UNL A   1      38.770  32.813  34.934  1.00  0.00     0.060 A 
ATOM     30  C   UNL A   1      38.745  31.434  35.175  1.00  0.00     0.016 A 
ATOM     31  C   UNL A   1      39.963  33.416  34.537  1.00  0.00     0.016 A 
ATOM     32  C   UNL A   1      39.858  30.638  34.934  1.00  0.00     0.010 A 
ATOM     33  C   UNL A   1      41.106  32.633  34.362  1.00  0.00     0.010 A 
ATOM     34  C   UNL A   1      41.051  31.241  34.547  1.00  0.00    -0.014 A 
BRANCH  34  35
ATOM     35  C   UNL A   1      42.285  30.435  34.516  1.00  0.00     0.031 A 
ATOM     36  C   UNL A   1      42.627  29.726  33.243  1.00  0.00     0.074 A 
ATOM     37  C   UNL A   1      43.094  30.363  35.588  1.00  0.00     0.049 A 
ATOM     38  N   UNL A   1      43.554  28.837  33.017  1.00  0.00    -0.248 NA
ATOM     39  C   UNL A   1      41.815  30.074  32.062  1.00  0.00     0.031 C 
ATOM     40  C   UNL A   1      42.926  31.114  36.832  1.00  0.00     0.029 A 
ATOM     41  N   UNL A   1      44.217  29.607  35.797  1.00  0.00    -0.354 N 
ATOM     42  C   UNL A   1      43.420  28.494  31.678  1.00  0.00     0.074 A 
ATOM     43  C   UNL A   1      42.328  29.274  31.140  1.00  0.00     0.031 C 
ATOM     44  C   UNL A   1      43.898  30.756  37.689  1.00  0.00     0.029 A 
ATOM     45  C   UNL A   1      44.715  29.712  37.074  1.00  0.00     0.049 A 
ATOM     46  H   UNL A   1      44.627  29.043  35.102  1.00  0.00     0.167 HD
ATOM     47  C   UNL A   1      44.137  27.594  30.970  1.00  0.00     0.031 A 
ATOM     48  C   UNL A   1      45.682  29.001  37.687  1.00  0.00     0.031 A 
ATOM     49  C   UNL A   1      45.206  26.813  31.528  1.00  0.00     0.049 A 
ATOM     50  C   UNL A   1      46.378  27.907  36.919  1.00  0.00     0.074 A 
ATOM     51  C   UNL A   1      45.989  25.857  30.906  1.00  0.00     0.029 A 
ATOM     52  N   UNL A   1      45.635  26.891  32.845  1.00  0.00    -0.354 N 
ATOM     53  N   UNL A   1      46.225  27.558  35.662  1.00  0.00    -0.248 NA
ATOM     54  C   UNL A   1      47.359  27.097  37.654  1.00  0.00     0.031 C 
ATOM     55  C   UNL A   1      46.850  25.314  31.865  1.00  0.00     0.029 A 
ATOM     56  C   UNL A   1      46.646  25.974  33.067  1.00  0.00     0.049 A 
ATOM     57  H   UNL A   1      45.274  27.510  33.521  1.00  0.00     0.167 HD
ATOM     58  C   UNL A   1      47.100  26.497  35.453  1.00  0.00     0.074 A 
ATOM     59  C   UNL A   1      47.793  26.274  36.707  1.00  0.00     0.031 C 
ATOM     60  C   UNL A   1      47.312  25.768  34.329  1.00  0.00     0.031 A 
BRANCH  47  61
ATOM     61  C   UNL A   1      43.732  27.357  29.543  1.00  0.00    -0.014 A 
ATOM     62  C   UNL A   1      44.335  28.054  28.482  1.00  0.00     0.010 A 
ATOM     63  C   UNL A   1      42.736  26.404  29.263  1.00  0.00     0.010 A 
ATOM     64  C   UNL A   1      43.926  27.822  27.165  1.00  0.00     0.020 A 
ATOM     65  C   UNL A   1      42.341  26.153  27.947  1.00  0.00     0.020 A 
ATOM     66  C   UNL A   1      42.929  26.875  26.907  1.00  0.00     0.054 A 
BRANCH  66  67
ATOM     67  S   UNL A   1      42.433  26.579  25.189  1.00  0.00     0.124 S 
ATOM     68  O   UNL A   1      43.386  25.551  24.775  1.00  0.00    -0.237 OA
ATOM     69  O   UNL A   1      41.050  26.133  25.327  1.00  0.00    -0.237 OA
ATOM     70  O   UNL A   1      42.605  27.881  24.549  1.00  0.00    -0.744 OA
ENDBRANCH  66  67
ENDBRANCH  47  61
BRANCH  48  71
ATOM     71  C   UNL A   1      45.990  29.241  39.125  1.00  0.00    -0.014 A 
ATOM     72  C   UNL A   1      46.980  30.161  39.508  1.00  0.00     0.010 A 
ATOM     73  C   UNL A   1      45.293  28.534  40.124  1.00  0.00     0.010 A 
ATOM     74  C   UNL A   1      47.275  30.361  40.861  1.00  0.00     0.020 A 
ATOM     75  C   UNL A   1      45.564  28.753  41.477  1.00  0.00     0.020 A 
ATOM     76  C   UNL A   1      46.563  29.657  41.837  1.00  0.00     0.054 A 
BRANCH  76  77
ATOM     77  S   UNL A   1      46.932  29.965  43.587  1.00  0.00     0.124 S 
ATOM     78  O   UNL A   1      48.301  30.465  43.525  1.00  0.00    -0.237 OA
ATOM     79  O   UNL A   1      45.915  30.948  43.956  1.00  0.00    -0.237 OA
ATOM     80  O   UNL A   1      46.771  28.652  44.206  1.00  0.00    -0.744 OA
ENDBRANCH  76  77
ENDBRANCH  48  71
BRANCH  60  81
ATOM     81  C   UNL A   1      48.338  24.670  34.395  1.00  0.00    -0.014 A 
ATOM     82  C   UNL A   1      47.973  23.361  34.754  1.00  0.00     0.010 A 
ATOM     83  C   UNL A   1      49.667  24.935  34.018  1.00  0.00     0.010 A 
ATOM     84  C   UNL A   1      48.925  22.337  34.750  1.00  0.00     0.020 A 
ATOM     85  C   UNL A   1      50.615  23.910  33.986  1.00  0.00     0.020 A 
ATOM     86  C   UNL A   1      50.239  22.619  34.362  1.00  0.00     0.054 A 
BRANCH  86  87
ATOM     87  S   UNL A   1      51.440  21.260  34.303  1.00  0.00     0.124 S 
ATOM     88  O   UNL A   1      52.616  21.868  34.918  1.00  0.00    -0.237 OA
ATOM     89  O   UNL A   1      50.784  20.219  35.092  1.00  0.00    -0.237 OA
ATOM     90  O   UNL A   1      51.564  20.967  32.876  1.00  0.00    -0.744 OA
ENDBRANCH  86  87
ENDBRANCH  60  81
ENDBRANCH  34  35
ENDBRANCH  27  29
ENDBRANCH  26  27
ENDBRANCH  25  26
ENDBRANCH  24  25
ENDBRANCH  23  24
ENDBRANCH  22  23
ENDBRANCH   1  22
TORSDOF 26
ENDMDL
MODEL 2
REMARK VINA RESULT:      -6.8      5.720      9.130
REMARK SMILES C#CC[N@@H+](CC(=O)OCCOCCOCCOC(=O)c1ccc(-c2c3nc(c(-c4ccc(S(=O)(=O)[O-])cc4)c4ccc([nH]4)c(-c4ccc(S(=O)(=O)[O-])cc4)c4nc(c(-c5ccc(S(=O)(=O)[O-])cc5)c5ccc2[nH]5)C=C4)C=C3)cc1)[C@@H](C)Cc1ccco1
REMARK SMILES IDX 12 1 11 2 10 3 9 4 8 5 6 6 7 7 5 8 4 9 3 11 2 12 1 13 80 14
REMARK SMILES IDX 81 15 82 16 83 17 84 18 87 19 85 20 86 21 13 22 14 23 15 24
REMARK SMILES IDX 16 25 17 26 18 27 19 28 20 29 21 30 79 31 22 32 78 33 23 34
REMARK SMILES IDX 24 35 25 36 72 37 26 38 77 39 71 40 73 41 27 42 76 43 70 44
REMARK SMILES IDX 69 45 28 47 58 48 39 49 57 50 40 51 43 52 56 53 74 54 41 55
REMARK SMILES IDX 42 56 55 58 75 59 44 60 29 61 30 62 38 63 31 64 37 65 32 66
REMARK SMILES IDX 33 67 34 68 35 69 36 70 59 71 60 72 68 73 61 74 67 75 62 76
REMARK SMILES IDX 63 77 64 78 65 79 66 80 45 81 46 82 54 83 47 84 53 85 48 86
REMARK SMILES IDX 49 87 50 88 51 89 52 90
REMARK H PARENT 4 10 73 46 43 57
REMARK Flexibility Score: inf
ROOT
ATOM      1  C   UNL A   1      35.360  32.932  28.867  1.00  0.00     0.188 C 
ENDROOT
BRANCH   1   2
ATOM      2  O   UNL A   1      34.400  31.880  28.887  1.00  0.00    -0.376 OA
BRANCH   2   3
ATOM      3  C   UNL A   1      33.855  31.506  27.623  1.00  0.00     0.202 C 
BRANCH   3   4
ATOM      4  C   UNL A   1      34.072  30.046  27.194  1.00  0.00     0.261 C 
BRANCH   4   5
ATOM      5  O   UNL A   1      33.155  29.546  26.188  1.00  0.00    -0.459 OA
BRANCH   5   6
ATOM      6  C   UNL A   1      33.575  28.455  25.491  1.00  0.00     0.361 C 
ATOM      7  O   UNL A   1      34.099  28.538  24.380  1.00  0.00    -0.245 OA
BRANCH   6   8
ATOM      8  C   UNL A   1      33.298  27.068  26.090  1.00  0.00     0.387 C 
BRANCH   8   9
ATOM      9  N   UNL A   1      32.531  26.017  25.376  1.00  0.00    -0.313 N 
ATOM     10  H   UNL A   1      32.117  26.467  24.559  1.00  0.00     0.349 HD
BRANCH   9  11
ATOM     11  C   UNL A   1      31.352  25.569  26.106  1.00  0.00     0.354 C 
BRANCH  11  12
ATOM     12  C   UNL A   1      31.405  24.071  26.363  1.00  0.00    -0.047 C 
ATOM     13  C   UNL A   1      31.450  22.788  26.583  1.00  0.00     0.010 C 
ENDBRANCH  11  12
ENDBRANCH   9  11
BRANCH   9  14
ATOM     14  C   UNL A   1      33.360  24.989  24.719  1.00  0.00     0.189 C 
ATOM     15  C   UNL A   1      33.340  25.271  23.227  1.00  0.00     0.076 C 
BRANCH  14  16
ATOM     16  C   UNL A   1      34.849  24.779  25.140  1.00  0.00     0.140 C 
BRANCH  16  17
ATOM     17  C   UNL A   1      35.517  23.484  24.836  1.00  0.00     0.109 A 
ATOM     18  C   UNL A   1      36.370  23.121  23.810  1.00  0.00     0.046 A 
ATOM     19  O   UNL A   1      35.460  22.487  25.762  1.00  0.00    -0.469 OA
ATOM     20  C   UNL A   1      36.865  21.836  24.131  1.00  0.00     0.042 A 
ATOM     21  C   UNL A   1      36.277  21.492  25.323  1.00  0.00     0.195 A 
ENDBRANCH  16  17
ENDBRANCH  14  16
ENDBRANCH   9  14
ENDBRANCH   8   9
ENDBRANCH   6   8
ENDBRANCH   5   6
ENDBRANCH   4   5
ENDBRANCH   3   4
ENDBRANCH   2   3
ENDBRANCH   1   2
BRANCH   1  22
ATOM     22  C   UNL A   1      34.866  34.275  29.436  1.00  0.00     0.188 C 
BRANCH  22  23
ATOM     23  O   UNL A   1      33.997  34.090  30.547  1.00  0.00    -0.376 OA
BRANCH  23  24
ATOM     24  C   UNL A   1      34.535  33.955  31.863  1.00  0.00     0.202 C 
BRANCH  24  25
ATOM     25  C   UNL A   1      35.936  34.471  32.210  1.00  0.00     0.261 C 
BRANCH  25  26
ATOM     26  O   UNL A   1      37.000  33.541  31.957  1.00  0.00    -0.460 OA
BRANCH  26  27
ATOM     27  C   UNL A   1      37.338  32.661  32.931  1.00  0.00     0.338 C 
ATOM     28  O   UNL A   1      36.647  32.313  33.872  1.00  0.00    -0.246 OA
BRANCH  27  29
ATOM     29  C   UNL A   1      38.617  32.027  32.510  1.00  0.00     0.060 A 
ATOM     30  C   UNL A   1      39.034  32.134  31.178  1.00  0.00     0.016 A 
ATOM     31  C   UNL A   1      39.455  31.414  33.441  1.00  0.00     0.016 A 
ATOM     32  C   UNL A   1      40.303  31.732  30.783  1.00  0.00     0.010 A 
ATOM     33  C   UNL A   1      40.705  30.941  33.037  1.00  0.00     0.010 A 
ATOM     34  C   UNL A   1      41.137  31.112  31.710  1.00  0.00    -0.014 A 
BRANCH  34  35
ATOM     35  C   UNL A   1      42.383  30.479  31.243  1.00  0.00     0.031 A 
ATOM     36  C   UNL A   1      43.656  31.257  31.374  1.00  0.00     0.074 A 
ATOM     37  C   UNL A   1      42.383  29.231  30.743  1.00  0.00     0.049 A 
ATOM     38  N   UNL A   1      44.838  30.992  30.894  1.00  0.00    -0.248 NA
ATOM     39  C   UNL A   1      43.583  32.501  32.161  1.00  0.00     0.031 C 
ATOM     40  C   UNL A   1      41.227  28.337  30.690  1.00  0.00     0.029 A 
ATOM     41  N   UNL A   1      43.398  28.507  30.175  1.00  0.00    -0.354 N 
ATOM     42  C   UNL A   1      45.646  32.048  31.292  1.00  0.00     0.074 A 
ATOM     43  C   UNL A   1      44.823  32.956  32.059  1.00  0.00     0.031 C 
ATOM     44  C   UNL A   1      41.593  27.190  30.090  1.00  0.00     0.029 A 
ATOM     45  C   UNL A   1      42.987  27.297  29.667  1.00  0.00     0.049 A 
ATOM     46  H   UNL A   1      44.330  28.822  30.133  1.00  0.00     0.167 HD
ATOM     47  C   UNL A   1      46.956  32.247  31.023  1.00  0.00     0.031 A 
ATOM     48  C   UNL A   1      43.651  26.411  28.899  1.00  0.00     0.031 A 
ATOM     49  C   UNL A   1      47.753  31.343  30.242  1.00  0.00     0.049 A 
ATOM     50  C   UNL A   1      45.071  26.718  28.497  1.00  0.00     0.074 A 
ATOM     51  C   UNL A   1      49.086  31.455  29.892  1.00  0.00     0.029 A 
ATOM     52  N   UNL A   1      47.285  30.164  29.680  1.00  0.00    -0.354 N 
ATOM     53  N   UNL A   1      45.824  27.736  28.844  1.00  0.00    -0.248 NA
ATOM     54  C   UNL A   1      45.724  25.769  27.585  1.00  0.00     0.031 C 
ATOM     55  C   UNL A   1      49.408  30.372  29.065  1.00  0.00     0.029 A 
ATOM     56  C   UNL A   1      48.293  29.557  28.952  1.00  0.00     0.049 A 
ATOM     57  H   UNL A   1      46.372  29.811  29.785  1.00  0.00     0.167 HD
ATOM     58  C   UNL A   1      47.043  27.544  28.202  1.00  0.00     0.074 A 
ATOM     59  C   UNL A   1      46.934  26.302  27.463  1.00  0.00     0.031 C 
ATOM     60  C   UNL A   1      48.153  28.324  28.218  1.00  0.00     0.031 A 
BRANCH  47  61
ATOM     61  C   UNL A   1      47.575  33.524  31.514  1.00  0.00    -0.014 A 
ATOM     62  C   UNL A   1      48.216  33.598  32.763  1.00  0.00     0.010 A 
ATOM     63  C   UNL A   1      47.525  34.668  30.697  1.00  0.00     0.010 A 
ATOM     64  C   UNL A   1      48.771  34.805  33.199  1.00  0.00     0.020 A 
ATOM     65  C   UNL A   1      48.098  35.870  31.120  1.00  0.00     0.020 A 
ATOM     66  C   UNL A   1      48.705  35.934  32.375  1.00  0.00     0.054 A 
BRANCH  66  67
ATOM     67  S   UNL A   1      49.451  37.480  32.956  1.00  0.00     0.124 S 
ATOM     68  O   UNL A   1      50.421  37.761  31.900  1.00  0.00    -0.237 OA
ATOM     69  O   UNL A   1      48.307  38.386  33.015  1.00  0.00    -0.237 OA
ATOM     70  O   UNL A   1      50.027  37.123  34.251  1.00  0.00    -0.744 OA
ENDBRANCH  66  67
ENDBRANCH  47  61
BRANCH  48  71
ATOM     71  C   UNL A   1      42.957  25.195  28.390  1.00  0.00    -0.014 A 
ATOM     72  C   UNL A   1      42.171  25.246  27.227  1.00  0.00     0.010 A 
ATOM     73  C   UNL A   1      43.075  23.973  29.079  1.00  0.00     0.010 A 
ATOM     74  C   UNL A   1      41.507  24.102  26.770  1.00  0.00     0.020 A 
ATOM     75  C   UNL A   1      42.437  22.822  28.611  1.00  0.00     0.020 A 
ATOM     76  C   UNL A   1      41.646  22.897  27.464  1.00  0.00     0.054 A 
BRANCH  76  77
ATOM     77  S   UNL A   1      40.811  21.416  26.829  1.00  0.00     0.124 S 
ATOM     78  O   UNL A   1      39.530  21.957  26.388  1.00  0.00    -0.237 OA
ATOM     79  O   UNL A   1      41.713  20.976  25.766  1.00  0.00    -0.237 OA
ATOM     80  O   UNL A   1      40.752  20.533  27.991  1.00  0.00    -0.744 OA
ENDBRANCH  76  77
ENDBRANCH  48  71
BRANCH  60  81
ATOM     81  C   UNL A   1      49.342  27.856  27.424  1.00  0.00    -0.014 A 
ATOM     82  C   UNL A   1      50.205  26.867  27.929  1.00  0.00     0.010 A 
ATOM     83  C   UNL A   1      49.551  28.354  26.125  1.00  0.00     0.010 A 
ATOM     84  C   UNL A   1      51.267  26.396  27.153  1.00  0.00     0.020 A 
ATOM     85  C   UNL A   1      50.596  27.866  25.336  1.00  0.00     0.020 A 
ATOM     86  C   UNL A   1      51.454  26.897  25.860  1.00  0.00     0.054 A 
BRANCH  86  87
ATOM     87  S   UNL A   1      52.802  26.222  24.851  1.00  0.00     0.124 S 
ATOM     88  O   UNL A   1      53.945  27.004  25.311  1.00  0.00    -0.237 OA
ATOM     89  O   UNL A   1      52.810  24.811  25.230  1.00  0.00    -0.237 OA
ATOM     90  O   UNL A   1      52.375  26.490  23.479  1.00  0.00    -0.744 OA
ENDBRANCH  86  87
ENDBRANCH  60  81
ENDBRANCH  34  35
ENDBRANCH  27  29
ENDBRANCH  26  27
ENDBRANCH  25  26
ENDBRANCH  24  25
ENDBRANCH  23  24
ENDBRANCH  22  23
ENDBRANCH   1  22
TORSDOF 26
ENDMDL
MODEL 3
REMARK VINA RESULT:      -6.7      7.076     14.785
REMARK SMILES C#CC[N@@H+](CC(=O)OCCOCCOCCOC(=O)c1ccc(-c2c3nc(c(-c4ccc(S(=O)(=O)[O-])cc4)c4ccc([nH]4)c(-c4ccc(S(=O)(=O)[O-])cc4)c4nc(c(-c5ccc(S(=O)(=O)[O-])cc5)c5ccc2[nH]5)C=C4)C=C3)cc1)[C@@H](C)Cc1ccco1
REMARK SMILES IDX 12 1 11 2 10 3 9 4 8 5 6 6 7 7 5 8 4 9 3 11 2 12 1 13 80 14
REMARK SMILES IDX 81 15 82 16 83 17 84 18 87 19 85 20 86 21 13 22 14 23 15 24
REMARK SMILES IDX 16 25 17 26 18 27 19 28 20 29 21 30 79 31 22 32 78 33 23 34
REMARK SMILES IDX 24 35 25 36 72 37 26 38 77 39 71 40 73 41 27 42 76 43 70 44
REMARK SMILES IDX 69 45 28 47 58 48 39 49 57 50 40 51 43 52 56 53 74 54 41 55
REMARK SMILES IDX 42 56 55 58 75 59 44 60 29 61 30 62 38 63 31 64 37 65 32 66
REMARK SMILES IDX 33 67 34 68 35 69 36 70 59 71 60 72 68 73 61 74 67 75 62 76
REMARK SMILES IDX 63 77 64 78 65 79 66 80 45 81 46 82 54 83 47 84 53 85 48 86
REMARK SMILES IDX 49 87 50 88 51 89 52 90
REMARK H PARENT 4 10 73 46 43 57
REMARK Flexibility Score: inf
ROOT
ATOM      1  C   UNL A   1      50.093  20.228  37.119  1.00  0.00     0.188 C 
ENDROOT
BRANCH   1   2
ATOM      2  O   UNL A   1      50.523  21.230  38.034  1.00  0.00    -0.376 OA
BRANCH   2   3
ATOM      3  C   UNL A   1      49.711  21.409  39.192  1.00  0.00     0.202 C 
BRANCH   3   4
ATOM      4  C   UNL A   1      48.217  21.085  39.032  1.00  0.00     0.261 C 
BRANCH   4   5
ATOM      5  O   UNL A   1      47.620  20.332  40.118  1.00  0.00    -0.459 OA
BRANCH   5   6
ATOM      6  C   UNL A   1      46.512  19.609  39.800  1.00  0.00     0.361 C 
ATOM      7  O   UNL A   1      45.971  19.672  38.696  1.00  0.00    -0.245 OA
BRANCH   6   8
ATOM      8  C   UNL A   1      45.872  18.750  40.902  1.00  0.00     0.387 C 
BRANCH   8   9
ATOM      9  N   UNL A   1      46.256  17.339  41.154  1.00  0.00    -0.313 N 
ATOM     10  H   UNL A   1      47.226  17.357  41.471  1.00  0.00     0.349 HD
BRANCH   9  11
ATOM     11  C   UNL A   1      46.347  16.541  39.938  1.00  0.00     0.354 C 
BRANCH  11  12
ATOM     12  C   UNL A   1      44.984  16.384  39.284  1.00  0.00    -0.047 C 
ATOM     13  C   UNL A   1      43.816  16.249  38.724  1.00  0.00     0.010 C 
ENDBRANCH  11  12
ENDBRANCH   9  11
BRANCH   9  14
ATOM     14  C   UNL A   1      45.607  16.725  42.327  1.00  0.00     0.189 C 
ATOM     15  C   UNL A   1      46.330  17.227  43.565  1.00  0.00     0.076 C 
BRANCH  14  16
ATOM     16  C   UNL A   1      44.075  16.900  42.572  1.00  0.00     0.140 C 
BRANCH  16  17
ATOM     17  C   UNL A   1      43.212  15.693  42.689  1.00  0.00     0.109 A 
ATOM     18  C   UNL A   1      42.271  15.163  41.825  1.00  0.00     0.046 A 
ATOM     19  O   UNL A   1      43.441  14.821  43.710  1.00  0.00    -0.469 OA
ATOM     20  C   UNL A   1      41.913  13.898  42.344  1.00  0.00     0.042 A 
ATOM     21  C   UNL A   1      42.647  13.740  43.494  1.00  0.00     0.195 A 
ENDBRANCH  16  17
ENDBRANCH  14  16
ENDBRANCH   9  14
ENDBRANCH   8   9
ENDBRANCH   6   8
ENDBRANCH   5   6
ENDBRANCH   4   5
ENDBRANCH   3   4
ENDBRANCH   2   3
ENDBRANCH   1   2
BRANCH   1  22
ATOM     22  C   UNL A   1      50.740  20.299  35.723  1.00  0.00     0.188 C 
BRANCH  22  23
ATOM     23  O   UNL A   1      49.946  21.049  34.812  1.00  0.00    -0.376 OA
BRANCH  23  24
ATOM     24  C   UNL A   1      48.910  20.407  34.068  1.00  0.00     0.202 C 
BRANCH  24  25
ATOM     25  C   UNL A   1      47.438  20.523  34.482  1.00  0.00     0.261 C 
BRANCH  25  26
ATOM     26  O   UNL A   1      46.886  21.844  34.376  1.00  0.00    -0.460 OA
BRANCH  26  27
ATOM     27  C   UNL A   1      45.598  22.041  34.751  1.00  0.00     0.338 C 
ATOM     28  O   UNL A   1      44.989  21.435  35.615  1.00  0.00    -0.246 OA
BRANCH  27  29
ATOM     29  C   UNL A   1      45.141  23.286  34.076  1.00  0.00     0.060 A 
ATOM     30  C   UNL A   1      45.800  24.493  34.335  1.00  0.00     0.016 A 
ATOM     31  C   UNL A   1      44.132  23.251  33.114  1.00  0.00     0.016 A 
ATOM     32  C   UNL A   1      45.539  25.634  33.588  1.00  0.00     0.010 A 
ATOM     33  C   UNL A   1      43.813  24.412  32.407  1.00  0.00     0.010 A 
ATOM     34  C   UNL A   1      44.527  25.602  32.633  1.00  0.00    -0.014 A 
BRANCH  34  35
ATOM     35  C   UNL A   1      44.092  26.863  32.005  1.00  0.00     0.031 A 
ATOM     36  C   UNL A   1      44.644  27.199  30.655  1.00  0.00     0.074 A 
ATOM     37  C   UNL A   1      43.206  27.671  32.612  1.00  0.00     0.049 A 
ATOM     38  N   UNL A   1      44.548  28.309  29.977  1.00  0.00    -0.248 NA
ATOM     39  C   UNL A   1      45.402  26.134  29.974  1.00  0.00     0.031 C 
ATOM     40  C   UNL A   1      42.509  27.380  33.865  1.00  0.00     0.029 A 
ATOM     41  N   UNL A   1      42.751  28.913  32.252  1.00  0.00    -0.354 N 
ATOM     42  C   UNL A   1      45.257  28.090  28.804  1.00  0.00     0.074 A 
ATOM     43  C   UNL A   1      45.773  26.741  28.858  1.00  0.00     0.031 C 
ATOM     44  C   UNL A   1      41.734  28.432  34.184  1.00  0.00     0.029 A 
ATOM     45  C   UNL A   1      41.930  29.487  33.193  1.00  0.00     0.049 A 
ATOM     46  H   UNL A   1      42.991  29.351  31.404  1.00  0.00     0.167 HD
ATOM     47  C   UNL A   1      45.470  28.950  27.783  1.00  0.00     0.031 A 
ATOM     48  C   UNL A   1      41.443  30.742  33.266  1.00  0.00     0.031 A 
ATOM     49  C   UNL A   1      44.966  30.295  27.757  1.00  0.00     0.049 A 
ATOM     50  C   UNL A   1      41.805  31.726  32.184  1.00  0.00     0.074 A 
ATOM     51  C   UNL A   1      45.136  31.259  26.781  1.00  0.00     0.029 A 
ATOM     52  N   UNL A   1      44.199  30.868  28.761  1.00  0.00    -0.354 N 
ATOM     53  N   UNL A   1      42.508  31.529  31.092  1.00  0.00    -0.248 NA
ATOM     54  C   UNL A   1      41.329  33.106  32.353  1.00  0.00     0.031 C 
ATOM     55  C   UNL A   1      44.523  32.436  27.225  1.00  0.00     0.029 A 
ATOM     56  C   UNL A   1      43.920  32.186  28.447  1.00  0.00     0.049 A 
ATOM     57  H   UNL A   1      43.897  30.405  29.576  1.00  0.00     0.167 HD
ATOM     58  C   UNL A   1      42.546  32.756  30.438  1.00  0.00     0.074 A 
ATOM     59  C   UNL A   1      41.780  33.684  31.247  1.00  0.00     0.031 C 
ATOM     60  C   UNL A   1      43.162  33.090  29.276  1.00  0.00     0.031 A 
BRANCH  47  61
ATOM     61  C   UNL A   1      46.346  28.481  26.657  1.00  0.00    -0.014 A 
ATOM     62  C   UNL A   1      45.803  27.991  25.457  1.00  0.00     0.010 A 
ATOM     63  C   UNL A   1      47.744  28.547  26.803  1.00  0.00     0.010 A 
ATOM     64  C   UNL A   1      46.644  27.548  24.432  1.00  0.00     0.020 A 
ATOM     65  C   UNL A   1      48.587  28.127  25.773  1.00  0.00     0.020 A 
ATOM     66  C   UNL A   1      48.031  27.616  24.599  1.00  0.00     0.054 A 
BRANCH  66  67
ATOM     67  S   UNL A   1      49.099  27.055  23.245  1.00  0.00     0.124 S 
ATOM     68  O   UNL A   1      50.345  26.760  23.949  1.00  0.00    -0.237 OA
ATOM     69  O   UNL A   1      48.379  25.893  22.730  1.00  0.00    -0.237 OA
ATOM     70  O   UNL A   1      49.150  28.204  22.344  1.00  0.00    -0.744 OA
ENDBRANCH  66  67
ENDBRANCH  47  61
BRANCH  48  71
ATOM     71  C   UNL A   1      40.634  31.163  34.444  1.00  0.00    -0.014 A 
ATOM     72  C   UNL A   1      41.221  31.868  35.508  1.00  0.00     0.010 A 
ATOM     73  C   UNL A   1      39.264  30.847  34.510  1.00  0.00     0.010 A 
ATOM     74  C   UNL A   1      40.456  32.240  36.619  1.00  0.00     0.020 A 
ATOM     75  C   UNL A   1      38.490  31.242  35.605  1.00  0.00     0.020 A 
ATOM     76  C   UNL A   1      39.094  31.926  36.659  1.00  0.00     0.054 A 
BRANCH  76  77
ATOM     77  S   UNL A   1      38.112  32.455  38.090  1.00  0.00     0.124 S 
ATOM     78  O   UNL A   1      37.683  33.790  37.685  1.00  0.00    -0.237 OA
ATOM     79  O   UNL A   1      37.061  31.441  38.144  1.00  0.00    -0.237 OA
ATOM     80  O   UNL A   1      39.067  32.412  39.194  1.00  0.00    -0.744 OA
ENDBRANCH  76  77
ENDBRANCH  48  71
BRANCH  60  81
ATOM     81  C   UNL A   1      43.026  34.510  28.801  1.00  0.00    -0.014 A 
ATOM     82  C   UNL A   1      44.157  35.327  28.629  1.00  0.00     0.010 A 
ATOM     83  C   UNL A   1      41.759  35.008  28.447  1.00  0.00     0.010 A 
ATOM     84  C   UNL A   1      44.022  36.624  28.126  1.00  0.00     0.020 A 
ATOM     85  C   UNL A   1      41.622  36.294  27.918  1.00  0.00     0.020 A 
ATOM     86  C   UNL A   1      42.754  37.097  27.771  1.00  0.00     0.054 A 
BRANCH  86  87
ATOM     87  S   UNL A   1      42.613  38.760  27.060  1.00  0.00     0.124 S 
ATOM     88  O   UNL A   1      43.992  39.042  26.672  1.00  0.00    -0.237 OA
ATOM     89  O   UNL A   1      41.678  38.558  25.957  1.00  0.00    -0.237 OA
ATOM     90  O   UNL A   1      42.100  39.568  28.165  1.00  0.00    -0.744 OA
ENDBRANCH  86  87
ENDBRANCH  60  81
ENDBRANCH  34  35
ENDBRANCH  27  29
ENDBRANCH  26  27
ENDBRANCH  25  26
ENDBRANCH  24  25
ENDBRANCH  23  24
ENDBRANCH  22  23
ENDBRANCH   1  22
TORSDOF 26
ENDMDL
