MODEL 1
REMARK VINA RESULT:      -8.1      0.000      0.000
REMARK SMILES COc1cc(S(=O)(=O)Nc2cccc(C(=O)OCCOCCOCCOC(=O)c3ccc(-c4c5nc(c(-c6ccc(S(=O)(=O)[O-])cc6)c6ccc([nH]6)c(-c6ccc(S(=O)(=O)[O-])cc6)c6nc(c(-c7ccc(S(=O)(=O)[O-])cc7)c7ccc4[nH]7)C=C6)C=C5)cc3)c2)c(OC)cc1C
REMARK SMILES IDX 21 1 20 2 19 3 18 4 17 5 15 6 16 7 14 8 10 9 11 10 89 11
REMARK SMILES IDX 12 12 13 13 9 14 6 16 7 17 8 18 5 19 3 20 4 21 94 22 93 23
REMARK SMILES IDX 95 24 90 25 2 26 1 27 91 28 92 29 22 30 23 31 24 32 25 33
REMARK SMILES IDX 26 34 27 35 28 36 29 37 30 38 88 39 31 40 87 41 32 42 33 43
REMARK SMILES IDX 34 44 81 45 35 46 86 47 80 48 82 49 36 50 85 51 79 52 78 53
REMARK SMILES IDX 37 55 67 56 48 57 66 58 49 59 52 60 65 61 83 62 50 63 51 64
REMARK SMILES IDX 64 66 84 67 53 68 38 69 39 70 47 71 40 72 46 73 41 74 42 75
REMARK SMILES IDX 43 76 44 77 45 78 68 79 69 80 77 81 70 82 76 83 71 84 72 85
REMARK SMILES IDX 73 86 74 87 75 88 54 89 55 90 63 91 56 92 62 93 57 94 58 95
REMARK SMILES IDX 59 96 60 97 61 98
REMARK H PARENT 9 15 82 54 52 65
REMARK Flexibility Score: inf
ROOT
ATOM      1  C   UNL A   1      46.198  28.413  25.966  1.00  0.00     0.188 C 
ENDROOT
BRANCH   1   2
ATOM      2  O   UNL A   1      44.793  28.461  25.606  1.00  0.00    -0.376 OA
BRANCH   2   3
ATOM      3  C   UNL A   1      43.687  28.401  26.547  1.00  0.00     0.202 C 
BRANCH   3   4
ATOM      4  C   UNL A   1      42.178  27.752  26.134  1.00  0.00     0.261 C 
BRANCH   4   5
ATOM      5  O   UNL A   1      40.780  27.675  27.097  1.00  0.00    -0.460 OA
BRANCH   5   6
ATOM      6  C   UNL A   1      40.391  27.338  28.431  1.00  0.00     0.338 C 
ATOM      7  O   UNL A   1      39.758  26.333  28.760  1.00  0.00    -0.246 OA
BRANCH   6   8
ATOM      8  C   UNL A   1      40.536  28.213  29.685  1.00  0.00     0.062 A 
ATOM      9  C   UNL A   1      39.430  29.819  31.304  1.00  0.00     0.050 A 
ATOM     10  C   UNL A   1      40.545  30.636  31.244  1.00  0.00     0.027 A 
ATOM     11  C   UNL A   1      39.434  28.627  30.512  1.00  0.00     0.042 A 
ATOM     12  C   UNL A   1      41.608  30.294  30.397  1.00  0.00     0.003 A 
ATOM     13  C   UNL A   1      41.606  29.106  29.637  1.00  0.00     0.016 A 
BRANCH   9  14
ATOM     14  N   UNL A   1      38.291  30.126  32.141  1.00  0.00    -0.279 N 
ATOM     15  H   UNL A   1      37.972  29.410  32.735  1.00  0.00     0.180 HD
BRANCH  14  16
ATOM     16  S   UNL A   1      37.452  31.603  32.199  1.00  0.00     0.265 S 
ATOM     17  O   UNL A   1      38.422  32.683  32.227  1.00  0.00    -0.201 OA
ATOM     18  O   UNL A   1      36.479  31.484  33.267  1.00  0.00    -0.201 OA
BRANCH  16  19
ATOM     19  C   UNL A   1      36.516  31.820  30.704  1.00  0.00     0.133 A 
ATOM     20  C   UNL A   1      35.856  30.920  28.547  1.00  0.00     0.123 A 
ATOM     21  C   UNL A   1      36.706  30.898  29.657  1.00  0.00     0.073 A 
ATOM     22  C   UNL A   1      34.714  31.725  28.569  1.00  0.00    -0.005 A 
ATOM     23  C   UNL A   1      34.618  32.717  29.555  1.00  0.00     0.055 A 
ATOM     24  C   UNL A   1      33.600  31.601  27.572  1.00  0.00     0.048 C 
ATOM     25  C   UNL A   1      35.576  32.831  30.565  1.00  0.00     0.139 A 
BRANCH  20  26
ATOM     26  O   UNL A   1      36.168  30.093  27.499  1.00  0.00    -0.496 OA
ATOM     27  C   UNL A   1      37.497  29.561  27.617  1.00  0.00     0.278 C 
ENDBRANCH  20  26
BRANCH  25  28
ATOM     28  O   UNL A   1      35.650  33.896  31.410  1.00  0.00    -0.495 OA
ATOM     29  C   UNL A   1      34.436  34.305  32.028  1.00  0.00     0.278 C 
ENDBRANCH  25  28
ENDBRANCH  16  19
ENDBRANCH  14  16
ENDBRANCH   9  14
ENDBRANCH   6   8
ENDBRANCH   5   6
ENDBRANCH   4   5
ENDBRANCH   3   4
ENDBRANCH   2   3
ENDBRANCH   1   2
BRANCH   1  30
ATOM     30  C   UNL A   1      46.986  29.626  26.467  1.00  0.00     0.188 C 
BRANCH  30  31
ATOM     31  O   UNL A   1      48.115  29.203  27.208  1.00  0.00    -0.376 OA
BRANCH  31  32
ATOM     32  C   UNL A   1      48.647  27.937  26.871  1.00  0.00     0.202 C 
BRANCH  32  33
ATOM     33  C   UNL A   1      49.982  27.620  27.576  1.00  0.00     0.261 C 
BRANCH  33  34
ATOM     34  O   UNL A   1      50.090  26.219  27.941  1.00  0.00    -0.460 OA
BRANCH  34  35
ATOM     35  C   UNL A   1      50.213  25.896  29.283  1.00  0.00     0.338 C 
ATOM     36  O   UNL A   1      51.281  25.990  29.870  1.00  0.00    -0.246 OA
BRANCH  35  37
ATOM     37  C   UNL A   1      48.864  25.641  29.916  1.00  0.00     0.060 A 
ATOM     38  C   UNL A   1      47.568  25.598  29.371  1.00  0.00     0.016 A 
ATOM     39  C   UNL A   1      48.876  25.574  31.261  1.00  0.00     0.016 A 
ATOM     40  C   UNL A   1      46.335  25.582  30.213  1.00  0.00     0.010 A 
ATOM     41  C   UNL A   1      47.672  25.789  31.937  1.00  0.00     0.010 A 
ATOM     42  C   UNL A   1      46.345  25.660  31.610  1.00  0.00    -0.014 A 
BRANCH  42  43
ATOM     43  C   UNL A   1      45.228  25.897  32.726  1.00  0.00     0.031 A 
ATOM     44  C   UNL A   1      44.478  27.207  33.367  1.00  0.00     0.074 A 
ATOM     45  C   UNL A   1      44.747  24.764  33.288  1.00  0.00     0.049 A 
ATOM     46  N   UNL A   1      44.306  27.411  34.669  1.00  0.00    -0.248 NA
ATOM     47  C   UNL A   1      43.754  28.304  32.692  1.00  0.00     0.031 C 
ATOM     48  C   UNL A   1      43.607  24.615  34.189  1.00  0.00     0.029 A 
ATOM     49  N   UNL A   1      45.331  23.501  33.268  1.00  0.00    -0.354 N 
ATOM     50  C   UNL A   1      43.452  28.524  34.859  1.00  0.00     0.074 A 
ATOM     51  C   UNL A   1      43.280  29.129  33.606  1.00  0.00     0.031 C 
ATOM     52  C   UNL A   1      43.724  23.446  34.836  1.00  0.00     0.029 A 
ATOM     53  C   UNL A   1      44.994  22.852  34.457  1.00  0.00     0.049 A 
ATOM     54  H   UNL A   1      45.884  23.131  32.543  1.00  0.00     0.167 HD
ATOM     55  C   UNL A   1      42.676  28.834  35.936  1.00  0.00     0.031 A 
ATOM     56  C   UNL A   1      45.969  22.397  35.290  1.00  0.00     0.031 A 
ATOM     57  C   UNL A   1      42.634  27.735  36.846  1.00  0.00     0.049 A 
ATOM     58  C   UNL A   1      45.922  23.048  36.651  1.00  0.00     0.074 A 
ATOM     59  C   UNL A   1      41.743  26.690  36.995  1.00  0.00     0.029 A 
ATOM     60  N   UNL A   1      43.792  27.390  37.501  1.00  0.00    -0.354 N 
ATOM     61  N   UNL A   1      45.139  24.048  36.954  1.00  0.00    -0.248 NA
ATOM     62  C   UNL A   1      46.762  22.650  37.777  1.00  0.00     0.031 C 
ATOM     63  C   UNL A   1      42.420  25.656  37.688  1.00  0.00     0.029 A 
ATOM     64  C   UNL A   1      43.688  26.114  38.001  1.00  0.00     0.049 A 
ATOM     65  H   UNL A   1      44.581  27.972  37.596  1.00  0.00     0.167 HD
ATOM     66  C   UNL A   1      45.401  24.473  38.228  1.00  0.00     0.074 A 
ATOM     67  C   UNL A   1      46.396  23.541  38.717  1.00  0.00     0.031 C 
ATOM     68  C   UNL A   1      44.800  25.577  38.755  1.00  0.00     0.031 A 
BRANCH  55  69
ATOM     69  C   UNL A   1      41.688  30.006  35.900  1.00  0.00    -0.014 A 
ATOM     70  C   UNL A   1      42.030  31.270  36.413  1.00  0.00     0.010 A 
ATOM     71  C   UNL A   1      40.358  29.863  35.426  1.00  0.00     0.010 A 
ATOM     72  C   UNL A   1      41.077  32.299  36.555  1.00  0.00     0.020 A 
ATOM     73  C   UNL A   1      39.387  30.871  35.599  1.00  0.00     0.020 A 
ATOM     74  C   UNL A   1      39.751  32.085  36.175  1.00  0.00     0.054 A 
BRANCH  74  75
ATOM     75  S   UNL A   1      38.508  33.373  36.510  1.00  0.00     0.124 S 
ATOM     76  O   UNL A   1      37.963  32.967  37.805  1.00  0.00    -0.237 OA
ATOM     77  O   UNL A   1      39.312  34.590  36.523  1.00  0.00    -0.237 OA
ATOM     78  O   UNL A   1      37.574  33.253  35.393  1.00  0.00    -0.744 OA
ENDBRANCH  74  75
ENDBRANCH  55  69
BRANCH  56  79
ATOM     79  C   UNL A   1      47.173  21.882  34.565  1.00  0.00    -0.014 A 
ATOM     80  C   UNL A   1      48.303  22.734  34.533  1.00  0.00     0.010 A 
ATOM     81  C   UNL A   1      47.366  20.516  34.297  1.00  0.00     0.010 A 
ATOM     82  C   UNL A   1      49.596  22.220  34.407  1.00  0.00     0.020 A 
ATOM     83  C   UNL A   1      48.670  19.997  34.142  1.00  0.00     0.020 A 
ATOM     84  C   UNL A   1      49.775  20.847  34.268  1.00  0.00     0.054 A 
BRANCH  84  85
ATOM     85  S   UNL A   1      51.466  20.199  34.456  1.00  0.00     0.124 S 
ATOM     86  O   UNL A   1      52.003  20.324  33.104  1.00  0.00    -0.237 OA
ATOM     87  O   UNL A   1      52.028  21.123  35.441  1.00  0.00    -0.237 OA
ATOM     88  O   UNL A   1      51.255  18.833  34.923  1.00  0.00    -0.744 OA
ENDBRANCH  84  85
ENDBRANCH  56  79
BRANCH  68  89
ATOM     89  C   UNL A   1      45.170  26.290  40.033  1.00  0.00    -0.014 A 
ATOM     90  C   UNL A   1      46.421  26.871  40.272  1.00  0.00     0.010 A 
ATOM     91  C   UNL A   1      44.155  26.526  40.999  1.00  0.00     0.010 A 
ATOM     92  C   UNL A   1      46.669  27.594  41.447  1.00  0.00     0.020 A 
ATOM     93  C   UNL A   1      44.375  27.294  42.142  1.00  0.00     0.020 A 
ATOM     94  C   UNL A   1      45.646  27.797  42.376  1.00  0.00     0.054 A 
BRANCH  94  95
ATOM     95  S   UNL A   1      45.960  28.762  43.871  1.00  0.00     0.124 S 
ATOM     96  O   UNL A   1      45.019  28.164  44.814  1.00  0.00    -0.237 OA
ATOM     97  O   UNL A   1      47.372  28.502  44.143  1.00  0.00    -0.237 OA
ATOM     98  O   UNL A   1      45.656  30.131  43.461  1.00  0.00    -0.744 OA
ENDBRANCH  94  95
ENDBRANCH  68  89
ENDBRANCH  42  43
ENDBRANCH  35  37
ENDBRANCH  34  35
ENDBRANCH  33  34
ENDBRANCH  32  33
ENDBRANCH  31  32
ENDBRANCH  30  31
ENDBRANCH   1  30
TORSDOF 25
ENDMDL
MODEL 2
REMARK VINA RESULT:      -7.7      4.394     12.061
REMARK SMILES COc1cc(S(=O)(=O)Nc2cccc(C(=O)OCCOCCOCCOC(=O)c3ccc(-c4c5nc(c(-c6ccc(S(=O)(=O)[O-])cc6)c6ccc([nH]6)c(-c6ccc(S(=O)(=O)[O-])cc6)c6nc(c(-c7ccc(S(=O)(=O)[O-])cc7)c7ccc4[nH]7)C=C6)C=C5)cc3)c2)c(OC)cc1C
REMARK SMILES IDX 21 1 20 2 19 3 18 4 17 5 15 6 16 7 14 8 10 9 11 10 89 11
REMARK SMILES IDX 12 12 13 13 9 14 6 16 7 17 8 18 5 19 3 20 4 21 94 22 93 23
REMARK SMILES IDX 95 24 90 25 2 26 1 27 91 28 92 29 22 30 23 31 24 32 25 33
REMARK SMILES IDX 26 34 27 35 28 36 29 37 30 38 88 39 31 40 87 41 32 42 33 43
REMARK SMILES IDX 34 44 81 45 35 46 86 47 80 48 82 49 36 50 85 51 79 52 78 53
REMARK SMILES IDX 37 55 67 56 48 57 66 58 49 59 52 60 65 61 83 62 50 63 51 64
REMARK SMILES IDX 64 66 84 67 53 68 38 69 39 70 47 71 40 72 46 73 41 74 42 75
REMARK SMILES IDX 43 76 44 77 45 78 68 79 69 80 77 81 70 82 76 83 71 84 72 85
REMARK SMILES IDX 73 86 74 87 75 88 54 89 55 90 63 91 56 92 62 93 57 94 58 95
REMARK SMILES IDX 59 96 60 97 61 98
REMARK H PARENT 9 15 82 54 52 65
REMARK Flexibility Score: inf
ROOT
ATOM      1  C   UNL A   1      39.982  28.865  26.925  1.00  0.00     0.188 C 
ENDROOT
BRANCH   1   2
ATOM      2  O   UNL A   1      41.204  29.646  26.950  1.00  0.00    -0.376 OA
BRANCH   2   3
ATOM      3  C   UNL A   1      42.287  29.473  27.903  1.00  0.00     0.202 C 
BRANCH   3   4
ATOM      4  C   UNL A   1      43.753  28.733  27.489  1.00  0.00     0.261 C 
BRANCH   4   5
ATOM      5  O   UNL A   1      44.983  29.346  26.489  1.00  0.00    -0.460 OA
BRANCH   5   6
ATOM      6  C   UNL A   1      46.132  28.890  25.769  1.00  0.00     0.338 C 
ATOM      7  O   UNL A   1      46.595  29.416  24.755  1.00  0.00    -0.246 OA
BRANCH   6   8
ATOM      8  C   UNL A   1      46.917  27.592  26.005  1.00  0.00     0.062 A 
ATOM      9  C   UNL A   1      46.864  25.062  26.139  1.00  0.00     0.050 A 
ATOM     10  C   UNL A   1      47.621  25.113  27.295  1.00  0.00     0.027 A 
ATOM     11  C   UNL A   1      46.509  26.302  25.518  1.00  0.00     0.042 A 
ATOM     12  C   UNL A   1      47.979  26.358  27.832  1.00  0.00     0.003 A 
ATOM     13  C   UNL A   1      47.638  27.571  27.199  1.00  0.00     0.016 A 
BRANCH   9  14
ATOM     14  N   UNL A   1      46.444  23.812  25.545  1.00  0.00    -0.279 N 
ATOM     15  H   UNL A   1      47.090  23.070  25.568  1.00  0.00     0.180 HD
BRANCH  14  16
ATOM     16  S   UNL A   1      44.941  23.498  24.814  1.00  0.00     0.265 S 
ATOM     17  O   UNL A   1      45.159  23.264  23.397  1.00  0.00    -0.201 OA
ATOM     18  O   UNL A   1      44.046  24.557  25.237  1.00  0.00    -0.201 OA
BRANCH  16  19
ATOM     19  C   UNL A   1      44.261  21.990  25.464  1.00  0.00     0.133 A 
ATOM     20  C   UNL A   1      42.324  20.829  26.354  1.00  0.00     0.123 A 
ATOM     21  C   UNL A   1      42.965  22.023  26.010  1.00  0.00     0.073 A 
ATOM     22  C   UNL A   1      42.894  19.608  25.981  1.00  0.00    -0.005 A 
ATOM     23  C   UNL A   1      44.230  19.600  25.558  1.00  0.00     0.055 A 
ATOM     24  C   UNL A   1      42.155  18.304  26.039  1.00  0.00     0.048 C 
ATOM     25  C   UNL A   1      44.948  20.786  25.398  1.00  0.00     0.139 A 
BRANCH  20  26
ATOM     26  O   UNL A   1      41.121  20.925  27.005  1.00  0.00    -0.496 OA
ATOM     27  C   UNL A   1      41.012  22.151  27.746  1.00  0.00     0.278 C 
ENDBRANCH  20  26
BRANCH  25  28
ATOM     28  O   UNL A   1      46.295  20.826  25.203  1.00  0.00    -0.495 OA
ATOM     29  C   UNL A   1      46.885  19.685  24.591  1.00  0.00     0.278 C 
ENDBRANCH  25  28
ENDBRANCH  16  19
ENDBRANCH  14  16
ENDBRANCH   9  14
ENDBRANCH   6   8
ENDBRANCH   5   6
ENDBRANCH   4   5
ENDBRANCH   3   4
ENDBRANCH   2   3
ENDBRANCH   1   2
BRANCH   1  30
ATOM     30  C   UNL A   1      39.360  28.226  28.170  1.00  0.00     0.188 C 
BRANCH  30  31
ATOM     31  O   UNL A   1      38.003  28.609  28.291  1.00  0.00    -0.376 OA
BRANCH  31  32
ATOM     32  C   UNL A   1      37.672  29.899  27.813  1.00  0.00     0.202 C 
BRANCH  32  33
ATOM     33  C   UNL A   1      36.167  30.222  27.899  1.00  0.00     0.261 C 
BRANCH  33  34
ATOM     34  O   UNL A   1      35.901  31.642  27.744  1.00  0.00    -0.460 OA
BRANCH  34  35
ATOM     35  C   UNL A   1      35.696  32.401  28.884  1.00  0.00     0.338 C 
ATOM     36  O   UNL A   1      34.623  32.399  29.472  1.00  0.00    -0.246 OA
BRANCH  35  37
ATOM     37  C   UNL A   1      36.986  33.014  29.381  1.00  0.00     0.060 A 
ATOM     38  C   UNL A   1      37.685  34.167  28.986  1.00  0.00     0.016 A 
ATOM     39  C   UNL A   1      37.663  32.261  30.268  1.00  0.00     0.016 A 
ATOM     40  C   UNL A   1      39.078  34.463  29.433  1.00  0.00     0.010 A 
ATOM     41  C   UNL A   1      39.027  32.515  30.435  1.00  0.00     0.010 A 
ATOM     42  C   UNL A   1      39.836  33.607  30.239  1.00  0.00    -0.014 A 
BRANCH  42  43
ATOM     43  C   UNL A   1      41.372  33.539  30.667  1.00  0.00     0.031 A 
ATOM     44  C   UNL A   1      42.767  33.068  29.944  1.00  0.00     0.074 A 
ATOM     45  C   UNL A   1      41.627  33.989  31.918  1.00  0.00     0.049 A 
ATOM     46  N   UNL A   1      43.677  32.281  30.508  1.00  0.00    -0.248 NA
ATOM     47  C   UNL A   1      43.350  33.491  28.653  1.00  0.00     0.031 C 
ATOM     48  C   UNL A   1      42.924  34.237  32.544  1.00  0.00     0.029 A 
ATOM     49  N   UNL A   1      40.713  34.162  32.952  1.00  0.00    -0.354 N 
ATOM     50  C   UNL A   1      44.833  32.243  29.692  1.00  0.00     0.074 A 
ATOM     51  C   UNL A   1      44.505  32.877  28.485  1.00  0.00     0.031 C 
ATOM     52  C   UNL A   1      42.758  34.259  33.875  1.00  0.00     0.029 A 
ATOM     53  C   UNL A   1      41.375  33.920  34.157  1.00  0.00     0.049 A 
ATOM     54  H   UNL A   1      39.766  34.411  32.852  1.00  0.00     0.167 HD
ATOM     55  C   UNL A   1      46.118  31.946  30.040  1.00  0.00     0.031 A 
ATOM     56  C   UNL A   1      40.922  32.958  35.007  1.00  0.00     0.031 A 
ATOM     57  C   UNL A   1      46.241  31.878  31.460  1.00  0.00     0.049 A 
ATOM     58  C   UNL A   1      41.933  31.862  35.236  1.00  0.00     0.074 A 
ATOM     59  C   UNL A   1      46.614  32.816  32.404  1.00  0.00     0.029 A 
ATOM     60  N   UNL A   1      45.593  30.861  32.119  1.00  0.00    -0.354 N 
ATOM     61  N   UNL A   1      43.055  31.755  34.578  1.00  0.00    -0.248 NA
ATOM     62  C   UNL A   1      41.762  30.782  36.204  1.00  0.00     0.031 C 
ATOM     63  C   UNL A   1      46.098  32.385  33.651  1.00  0.00     0.029 A 
ATOM     64  C   UNL A   1      45.476  31.165  33.455  1.00  0.00     0.049 A 
ATOM     65  H   UNL A   1      45.260  30.036  31.696  1.00  0.00     0.167 HD
ATOM     66  C   UNL A   1      43.703  30.608  34.946  1.00  0.00     0.074 A 
ATOM     67  C   UNL A   1      42.874  30.052  35.997  1.00  0.00     0.031 C 
ATOM     68  C   UNL A   1      44.847  30.198  34.329  1.00  0.00     0.031 A 
BRANCH  55  69
ATOM     69  C   UNL A   1      47.274  32.112  29.047  1.00  0.00    -0.014 A 
ATOM     70  C   UNL A   1      47.449  31.224  27.969  1.00  0.00     0.010 A 
ATOM     71  C   UNL A   1      48.270  33.110  29.202  1.00  0.00     0.010 A 
ATOM     72  C   UNL A   1      48.604  31.253  27.161  1.00  0.00     0.020 A 
ATOM     73  C   UNL A   1      49.448  33.123  28.426  1.00  0.00     0.020 A 
ATOM     74  C   UNL A   1      49.614  32.183  27.413  1.00  0.00     0.054 A 
BRANCH  74  75
ATOM     75  S   UNL A   1      51.161  32.099  26.456  1.00  0.00     0.124 S 
ATOM     76  O   UNL A   1      51.026  33.219  25.525  1.00  0.00    -0.237 OA
ATOM     77  O   UNL A   1      52.179  32.263  27.489  1.00  0.00    -0.237 OA
ATOM     78  O   UNL A   1      51.112  30.779  25.831  1.00  0.00    -0.744 OA
ENDBRANCH  74  75
ENDBRANCH  55  69
BRANCH  56  79
ATOM     79  C   UNL A   1      39.429  32.844  35.029  1.00  0.00    -0.014 A 
ATOM     80  C   UNL A   1      38.725  33.904  35.650  1.00  0.00     0.010 A 
ATOM     81  C   UNL A   1      38.723  32.005  34.151  1.00  0.00     0.010 A 
ATOM     82  C   UNL A   1      37.414  34.217  35.283  1.00  0.00     0.020 A 
ATOM     83  C   UNL A   1      37.389  32.303  33.798  1.00  0.00     0.020 A 
ATOM     84  C   UNL A   1      36.773  33.447  34.316  1.00  0.00     0.054 A 
BRANCH  84  85
ATOM     85  S   UNL A   1      35.217  34.095  33.626  1.00  0.00     0.124 S 
ATOM     86  O   UNL A   1      34.273  33.019  33.914  1.00  0.00    -0.237 OA
ATOM     87  O   UNL A   1      35.033  35.317  34.410  1.00  0.00    -0.237 OA
ATOM     88  O   UNL A   1      35.530  34.294  32.215  1.00  0.00    -0.744 OA
ENDBRANCH  84  85
ENDBRANCH  56  79
BRANCH  68  89
ATOM     89  C   UNL A   1      45.520  28.853  34.462  1.00  0.00    -0.014 A 
ATOM     90  C   UNL A   1      44.944  27.645  34.053  1.00  0.00     0.010 A 
ATOM     91  C   UNL A   1      46.876  28.810  34.884  1.00  0.00     0.010 A 
ATOM     92  C   UNL A   1      45.660  26.442  34.126  1.00  0.00     0.020 A 
ATOM     93  C   UNL A   1      47.616  27.629  34.904  1.00  0.00     0.020 A 
ATOM     94  C   UNL A   1      46.989  26.442  34.555  1.00  0.00     0.054 A 
BRANCH  94  95
ATOM     95  S   UNL A   1      47.921  24.894  34.611  1.00  0.00     0.124 S 
ATOM     96  O   UNL A   1      46.866  23.905  34.407  1.00  0.00    -0.237 OA
ATOM     97  O   UNL A   1      48.868  25.037  33.507  1.00  0.00    -0.237 OA
ATOM     98  O   UNL A   1      48.522  24.908  35.942  1.00  0.00    -0.744 OA
ENDBRANCH  94  95
ENDBRANCH  68  89
ENDBRANCH  42  43
ENDBRANCH  35  37
ENDBRANCH  34  35
ENDBRANCH  33  34
ENDBRANCH  32  33
ENDBRANCH  31  32
ENDBRANCH  30  31
ENDBRANCH   1  30
TORSDOF 25
ENDMDL
MODEL 3
REMARK VINA RESULT:      -7.5      3.452     13.622
REMARK SMILES COc1cc(S(=O)(=O)Nc2cccc(C(=O)OCCOCCOCCOC(=O)c3ccc(-c4c5nc(c(-c6ccc(S(=O)(=O)[O-])cc6)c6ccc([nH]6)c(-c6ccc(S(=O)(=O)[O-])cc6)c6nc(c(-c7ccc(S(=O)(=O)[O-])cc7)c7ccc4[nH]7)C=C6)C=C5)cc3)c2)c(OC)cc1C
REMARK SMILES IDX 21 1 20 2 19 3 18 4 17 5 15 6 16 7 14 8 10 9 11 10 89 11
REMARK SMILES IDX 12 12 13 13 9 14 6 16 7 17 8 18 5 19 3 20 4 21 94 22 93 23
REMARK SMILES IDX 95 24 90 25 2 26 1 27 91 28 92 29 22 30 23 31 24 32 25 33
REMARK SMILES IDX 26 34 27 35 28 36 29 37 30 38 88 39 31 40 87 41 32 42 33 43
REMARK SMILES IDX 34 44 81 45 35 46 86 47 80 48 82 49 36 50 85 51 79 52 78 53
REMARK SMILES IDX 37 55 67 56 48 57 66 58 49 59 52 60 65 61 83 62 50 63 51 64
REMARK SMILES IDX 64 66 84 67 53 68 38 69 39 70 47 71 40 72 46 73 41 74 42 75
REMARK SMILES IDX 43 76 44 77 45 78 68 79 69 80 77 81 70 82 76 83 71 84 72 85
REMARK SMILES IDX 73 86 74 87 75 88 54 89 55 90 63 91 56 92 62 93 57 94 58 95
REMARK SMILES IDX 59 96 60 97 61 98
REMARK H PARENT 9 15 82 54 52 65
REMARK Flexibility Score: inf
ROOT
ATOM      1  C   UNL A   1      45.777  32.659  37.966  1.00  0.00     0.188 C 
ENDROOT
BRANCH   1   2
ATOM      2  O   UNL A   1      45.019  31.462  38.279  1.00  0.00    -0.376 OA
BRANCH   2   3
ATOM      3  C   UNL A   1      44.422  30.572  37.298  1.00  0.00     0.202 C 
BRANCH   3   4
ATOM      4  C   UNL A   1      44.416  28.888  37.485  1.00  0.00     0.261 C 
BRANCH   4   5
ATOM      5  O   UNL A   1      43.091  27.831  37.360  1.00  0.00    -0.460 OA
BRANCH   5   6
ATOM      6  C   UNL A   1      42.397  27.064  36.371  1.00  0.00     0.338 C 
ATOM      7  O   UNL A   1      41.281  27.325  35.918  1.00  0.00    -0.246 OA
BRANCH   6   8
ATOM      8  C   UNL A   1      42.814  25.703  35.796  1.00  0.00     0.062 A 
ATOM      9  C   UNL A   1      44.413  23.741  35.906  1.00  0.00     0.050 A 
ATOM     10  C   UNL A   1      44.536  23.771  34.529  1.00  0.00     0.027 A 
ATOM     11  C   UNL A   1      43.567  24.716  36.523  1.00  0.00     0.042 A 
ATOM     12  C   UNL A   1      43.867  24.763  33.798  1.00  0.00     0.003 A 
ATOM     13  C   UNL A   1      43.020  25.705  34.417  1.00  0.00     0.016 A 
BRANCH   9  14
ATOM     14  N   UNL A   1      45.094  22.758  36.721  1.00  0.00    -0.279 N 
ATOM     15  H   UNL A   1      44.846  21.816  36.580  1.00  0.00     0.180 HD
BRANCH  14  16
ATOM     16  S   UNL A   1      46.281  23.071  37.897  1.00  0.00     0.265 S 
ATOM     17  O   UNL A   1      45.666  22.971  39.210  1.00  0.00    -0.201 OA
ATOM     18  O   UNL A   1      46.936  24.303  37.505  1.00  0.00    -0.201 OA
BRANCH  16  19
ATOM     19  C   UNL A   1      47.530  21.809  37.839  1.00  0.00     0.133 A 
ATOM     20  C   UNL A   1      49.896  21.263  37.798  1.00  0.00     0.123 A 
ATOM     21  C   UNL A   1      48.869  22.202  37.658  1.00  0.00     0.073 A 
ATOM     22  C   UNL A   1      49.603  19.992  38.301  1.00  0.00    -0.005 A 
ATOM     23  C   UNL A   1      48.261  19.589  38.351  1.00  0.00     0.055 A 
ATOM     24  C   UNL A   1      50.655  19.027  38.761  1.00  0.00     0.048 C 
ATOM     25  C   UNL A   1      47.227  20.467  38.021  1.00  0.00     0.139 A 
BRANCH  20  26
ATOM     26  O   UNL A   1      51.166  21.666  37.478  1.00  0.00    -0.496 OA
ATOM     27  C   UNL A   1      51.682  22.608  38.432  1.00  0.00     0.278 C 
ENDBRANCH  20  26
BRANCH  25  28
ATOM     28  O   UNL A   1      45.937  20.071  37.844  1.00  0.00    -0.495 OA
ATOM     29  C   UNL A   1      45.736  18.820  37.198  1.00  0.00     0.278 C 
ENDBRANCH  25  28
ENDBRANCH  16  19
ENDBRANCH  14  16
ENDBRANCH   9  14
ENDBRANCH   6   8
ENDBRANCH   5   6
ENDBRANCH   4   5
ENDBRANCH   3   4
ENDBRANCH   2   3
ENDBRANCH   1   2
BRANCH   1  30
ATOM     30  C   UNL A   1      45.133  33.987  37.557  1.00  0.00     0.188 C 
BRANCH  30  31
ATOM     31  O   UNL A   1      45.397  34.258  36.193  1.00  0.00    -0.376 OA
BRANCH  31  32
ATOM     32  C   UNL A   1      45.677  35.605  35.866  1.00  0.00     0.202 C 
BRANCH  32  33
ATOM     33  C   UNL A   1      44.424  36.503  35.815  1.00  0.00     0.261 C 
BRANCH  33  34
ATOM     34  O   UNL A   1      43.475  36.064  34.807  1.00  0.00    -0.460 OA
BRANCH  34  35
ATOM     35  C   UNL A   1      42.251  35.569  35.225  1.00  0.00     0.338 C 
ATOM     36  O   UNL A   1      41.405  36.293  35.730  1.00  0.00    -0.246 OA
BRANCH  35  37
ATOM     37  C   UNL A   1      42.054  34.137  34.784  1.00  0.00     0.060 A 
ATOM     38  C   UNL A   1      41.441  33.041  35.415  1.00  0.00     0.016 A 
ATOM     39  C   UNL A   1      42.688  33.806  33.643  1.00  0.00     0.016 A 
ATOM     40  C   UNL A   1      41.574  31.640  34.916  1.00  0.00     0.010 A 
ATOM     41  C   UNL A   1      42.934  32.451  33.401  1.00  0.00     0.010 A 
ATOM     42  C   UNL A   1      42.354  31.277  33.813  1.00  0.00    -0.014 A 
BRANCH  42  43
ATOM     43  C   UNL A   1      42.863  29.890  33.209  1.00  0.00     0.031 A 
ATOM     44  C   UNL A   1      44.300  29.103  33.141  1.00  0.00     0.074 A 
ATOM     45  C   UNL A   1      41.899  29.146  32.619  1.00  0.00     0.049 A 
ATOM     46  N   UNL A   1      44.799  28.543  32.044  1.00  0.00    -0.248 NA
ATOM     47  C   UNL A   1      45.232  28.744  34.231  1.00  0.00     0.031 C 
ATOM     48  C   UNL A   1      41.983  27.768  32.141  1.00  0.00     0.029 A 
ATOM     49  N   UNL A   1      40.652  29.581  32.181  1.00  0.00    -0.354 N 
ATOM     50  C   UNL A   1      45.945  27.784  32.384  1.00  0.00     0.074 A 
ATOM     51  C   UNL A   1      46.254  28.084  33.720  1.00  0.00     0.031 C 
ATOM     52  C   UNL A   1      40.989  27.558  31.265  1.00  0.00     0.029 A 
ATOM     53  C   UNL A   1      40.297  28.819  31.066  1.00  0.00     0.049 A 
ATOM     54  H   UNL A   1      40.114  30.299  32.586  1.00  0.00     0.167 HD
ATOM     55  C   UNL A   1      46.509  26.737  31.718  1.00  0.00     0.031 A 
ATOM     56  C   UNL A   1      40.021  29.426  29.880  1.00  0.00     0.031 A 
ATOM     57  C   UNL A   1      45.646  26.299  30.669  1.00  0.00     0.049 A 
ATOM     58  C   UNL A   1      40.965  29.008  28.780  1.00  0.00     0.074 A 
ATOM     59  C   UNL A   1      44.682  25.311  30.613  1.00  0.00     0.029 A 
ATOM     60  N   UNL A   1      45.433  27.148  29.608  1.00  0.00    -0.354 N 
ATOM     61  N   UNL A   1      42.024  28.270  28.969  1.00  0.00    -0.248 NA
ATOM     62  C   UNL A   1      40.814  29.399  27.381  1.00  0.00     0.031 C 
ATOM     63  C   UNL A   1      43.818  25.628  29.536  1.00  0.00     0.029 A 
ATOM     64  C   UNL A   1      44.306  26.765  28.919  1.00  0.00     0.049 A 
ATOM     65  H   UNL A   1      46.003  27.916  29.376  1.00  0.00     0.167 HD
ATOM     66  C   UNL A   1      42.722  28.148  27.798  1.00  0.00     0.074 A 
ATOM     67  C   UNL A   1      41.903  28.838  26.823  1.00  0.00     0.031 C 
ATOM     68  C   UNL A   1      43.929  27.519  27.742  1.00  0.00     0.031 A 
BRANCH  55  69
ATOM     69  C   UNL A   1      47.663  25.931  32.324  1.00  0.00    -0.014 A 
ATOM     70  C   UNL A   1      48.879  25.759  31.636  1.00  0.00     0.010 A 
ATOM     71  C   UNL A   1      47.546  25.252  33.563  1.00  0.00     0.010 A 
ATOM     72  C   UNL A   1      49.875  24.873  32.095  1.00  0.00     0.020 A 
ATOM     73  C   UNL A   1      48.518  24.333  34.012  1.00  0.00     0.020 A 
ATOM     74  C   UNL A   1      49.677  24.140  33.266  1.00  0.00     0.054 A 
BRANCH  74  75
ATOM     75  S   UNL A   1      50.908  22.891  33.754  1.00  0.00     0.124 S 
ATOM     76  O   UNL A   1      50.076  21.791  34.242  1.00  0.00    -0.237 OA
ATOM     77  O   UNL A   1      51.611  22.635  32.501  1.00  0.00    -0.237 OA
ATOM     78  O   UNL A   1      51.695  23.563  34.786  1.00  0.00    -0.744 OA
ENDBRANCH  74  75
ENDBRANCH  55  69
BRANCH  56  79
ATOM     79  C   UNL A   1      39.328  30.744  30.038  1.00  0.00    -0.014 A 
ATOM     80  C   UNL A   1      37.947  30.697  30.348  1.00  0.00     0.010 A 
ATOM     81  C   UNL A   1      40.024  31.937  30.294  1.00  0.00     0.010 A 
ATOM     82  C   UNL A   1      37.324  31.738  31.040  1.00  0.00     0.020 A 
ATOM     83  C   UNL A   1      39.389  33.002  30.970  1.00  0.00     0.020 A 
ATOM     84  C   UNL A   1      38.064  32.862  31.397  1.00  0.00     0.054 A 
BRANCH  84  85
ATOM     85  S   UNL A   1      37.312  34.018  32.585  1.00  0.00     0.124 S 
ATOM     86  O   UNL A   1      36.362  34.751  31.752  1.00  0.00    -0.237 OA
ATOM     87  O   UNL A   1      36.716  33.099  33.555  1.00  0.00    -0.237 OA
ATOM     88  O   UNL A   1      38.449  34.793  33.069  1.00  0.00    -0.744 OA
ENDBRANCH  84  85
ENDBRANCH  56  79
BRANCH  68  89
ATOM     89  C   UNL A   1      44.906  27.527  26.591  1.00  0.00    -0.014 A 
ATOM     90  C   UNL A   1      45.490  28.686  26.066  1.00  0.00     0.010 A 
ATOM     91  C   UNL A   1      45.387  26.284  26.098  1.00  0.00     0.010 A 
ATOM     92  C   UNL A   1      46.456  28.613  25.052  1.00  0.00     0.020 A 
ATOM     93  C   UNL A   1      46.390  26.199  25.134  1.00  0.00     0.020 A 
ATOM     94  C   UNL A   1      46.895  27.370  24.591  1.00  0.00     0.054 A 
BRANCH  94  95
ATOM     95  S   UNL A   1      48.168  27.281  23.311  1.00  0.00     0.124 S 
ATOM     96  O   UNL A   1      48.184  25.852  23.007  1.00  0.00    -0.237 OA
ATOM     97  O   UNL A   1      47.638  28.140  22.255  1.00  0.00    -0.237 OA
ATOM     98  O   UNL A   1      49.360  27.795  23.981  1.00  0.00    -0.744 OA
ENDBRANCH  94  95
ENDBRANCH  68  89
ENDBRANCH  42  43
ENDBRANCH  35  37
ENDBRANCH  34  35
ENDBRANCH  33  34
ENDBRANCH  32  33
ENDBRANCH  31  32
ENDBRANCH  30  31
ENDBRANCH   1  30
TORSDOF 25
ENDMDL
