MODEL 1
REMARK VINA RESULT:     -10.6      0.000      0.000
REMARK SMILES CCn1nc(C(=O)OCCOCCOCCOC(=O)c2ccc(-c3c4nc(c(-c5ccc(S(=O)(=O)[O-])cc5)c5ccc([nH]5)c(-c5ccc(S(=O)(=O)[O-])cc5)c5nc(c(-c6ccc(S(=O)(=O)[O-])cc6)c6ccc3[nH]6)C=C5)C=C4)cc2)c2c1CC[C@H]([NH2+]Cc1nn(CC)c3ccccc13)C2
REMARK SMILES IDX 12 1 11 2 10 3 9 4 8 5 6 6 7 7 5 8 3 9 4 10 81 11 80 12
REMARK SMILES IDX 82 13 98 14 83 15 84 16 2 17 1 18 85 19 86 22 87 23 88 24
REMARK SMILES IDX 97 25 89 26 92 27 96 28 93 29 95 30 94 31 90 32 91 33 13 34
REMARK SMILES IDX 14 35 15 36 16 37 17 38 18 39 19 40 20 41 21 42 79 43 22 44
REMARK SMILES IDX 78 45 23 46 24 47 25 48 72 49 26 50 77 51 71 52 73 53 27 54
REMARK SMILES IDX 76 55 70 56 69 57 28 59 58 60 39 61 57 62 40 63 43 64 56 65
REMARK SMILES IDX 74 66 41 67 42 68 55 70 75 71 44 72 29 73 30 74 38 75 31 76
REMARK SMILES IDX 37 77 32 78 33 79 34 80 35 81 36 82 59 83 60 84 68 85 61 86
REMARK SMILES IDX 67 87 62 88 63 89 64 90 65 91 66 92 45 93 46 94 54 95 47 96
REMARK SMILES IDX 53 97 48 98 49 99 50 100 51 101 52 102
REMARK H PARENT 85 20 85 21 73 58 43 69
REMARK Flexibility Score: inf
ROOT
ATOM      1  C   UNL A   1      34.522  32.286  28.500  1.00  0.00     0.188 C 
ENDROOT
BRANCH   1   2
ATOM      2  O   UNL A   1      35.255  31.539  27.540  1.00  0.00    -0.376 OA
BRANCH   2   3
ATOM      3  C   UNL A   1      35.285  30.124  27.705  1.00  0.00     0.202 C 
BRANCH   3   4
ATOM      4  C   UNL A   1      34.077  29.331  27.183  1.00  0.00     0.261 C 
BRANCH   4   5
ATOM      5  O   UNL A   1      33.517  29.856  25.959  1.00  0.00    -0.458 OA
BRANCH   5   6
ATOM      6  C   UNL A   1      32.199  30.252  26.029  1.00  0.00     0.359 C 
ATOM      7  O   UNL A   1      31.813  31.136  26.760  1.00  0.00    -0.244 OA
BRANCH   6   8
ATOM      8  C   UNL A   1      31.313  29.555  25.050  1.00  0.00     0.174 A 
ATOM      9  N   UNL A   1      29.820  29.415  23.500  1.00  0.00    -0.269 N 
ATOM     10  N   UNL A   1      30.460  30.290  24.302  1.00  0.00    -0.165 NA
ATOM     11  C   UNL A   1      30.091  28.125  23.845  1.00  0.00     0.043 A 
ATOM     12  C   UNL A   1      31.171  28.179  24.699  1.00  0.00     0.014 A 
ATOM     13  C   UNL A   1      29.411  26.868  23.455  1.00  0.00     0.062 C 
ATOM     14  C   UNL A   1      31.889  26.945  25.113  1.00  0.00     0.105 C 
ATOM     15  C   UNL A   1      29.557  25.874  24.631  1.00  0.00     0.072 C 
ATOM     16  C   UNL A   1      31.028  25.648  25.086  1.00  0.00     0.187 C 
BRANCH   9  17
ATOM     17  C   UNL A   1      29.129  29.958  22.344  1.00  0.00     0.141 C 
ATOM     18  C   UNL A   1      27.630  30.150  22.463  1.00  0.00     0.029 C 
ENDBRANCH   9  17
BRANCH  16  19
ATOM     19  N   UNL A   1      31.014  24.828  26.313  1.00  0.00    -0.338 N 
ATOM     20  H   UNL A   1      30.541  23.952  26.094  1.00  0.00     0.346 HD
ATOM     21  H   UNL A   1      30.544  25.402  27.013  1.00  0.00     0.346 HD
BRANCH  19  22
ATOM     22  C   UNL A   1      32.318  24.498  26.897  1.00  0.00     0.320 C 
BRANCH  22  23
ATOM     23  C   UNL A   1      33.027  23.296  26.307  1.00  0.00     0.124 A 
ATOM     24  N   UNL A   1      32.258  22.266  25.912  1.00  0.00    -0.171 NA
ATOM     25  C   UNL A   1      34.406  23.064  25.976  1.00  0.00     0.029 A 
ATOM     26  N   UNL A   1      33.093  21.466  25.224  1.00  0.00    -0.265 N 
ATOM     27  C   UNL A   1      34.405  21.871  25.256  1.00  0.00     0.069 A 
ATOM     28  C   UNL A   1      35.629  23.768  26.089  1.00  0.00     0.012 A 
ATOM     29  C   UNL A   1      35.563  21.349  24.655  1.00  0.00     0.028 A 
ATOM     30  C   UNL A   1      36.774  23.289  25.442  1.00  0.00     0.001 A 
ATOM     31  C   UNL A   1      36.739  22.097  24.733  1.00  0.00     0.002 A 
BRANCH  26  32
ATOM     32  C   UNL A   1      32.530  20.432  24.373  1.00  0.00     0.141 C 
ATOM     33  C   UNL A   1      32.720  19.023  24.909  1.00  0.00     0.029 C 
ENDBRANCH  26  32
ENDBRANCH  22  23
ENDBRANCH  19  22
ENDBRANCH  16  19
ENDBRANCH   6   8
ENDBRANCH   5   6
ENDBRANCH   4   5
ENDBRANCH   3   4
ENDBRANCH   2   3
ENDBRANCH   1   2
BRANCH   1  34
ATOM     34  C   UNL A   1      34.300  33.791  28.240  1.00  0.00     0.188 C 
BRANCH  34  35
ATOM     35  O   UNL A   1      34.655  34.660  29.318  1.00  0.00    -0.376 OA
BRANCH  35  36
ATOM     36  C   UNL A   1      33.737  34.722  30.414  1.00  0.00     0.202 C 
BRANCH  36  37
ATOM     37  C   UNL A   1      34.378  34.441  31.781  1.00  0.00     0.261 C 
BRANCH  37  38
ATOM     38  O   UNL A   1      35.711  33.973  31.665  1.00  0.00    -0.460 OA
BRANCH  38  39
ATOM     39  C   UNL A   1      35.922  32.743  32.172  1.00  0.00     0.338 C 
ATOM     40  O   UNL A   1      35.547  32.319  33.249  1.00  0.00    -0.246 OA
BRANCH  39  41
ATOM     41  C   UNL A   1      36.585  31.940  31.137  1.00  0.00     0.060 A 
ATOM     42  C   UNL A   1      36.467  30.549  31.228  1.00  0.00     0.016 A 
ATOM     43  C   UNL A   1      37.428  32.561  30.204  1.00  0.00     0.016 A 
ATOM     44  C   UNL A   1      37.429  29.786  30.617  1.00  0.00     0.010 A 
ATOM     45  C   UNL A   1      38.399  31.807  29.606  1.00  0.00     0.010 A 
ATOM     46  C   UNL A   1      38.464  30.466  29.973  1.00  0.00    -0.014 A 
BRANCH  46  47
ATOM     47  C   UNL A   1      39.773  29.867  30.076  1.00  0.00     0.031 A 
ATOM     48  C   UNL A   1      40.344  29.825  31.422  1.00  0.00     0.074 A 
ATOM     49  C   UNL A   1      40.321  29.315  28.974  1.00  0.00     0.049 A 
ATOM     50  N   UNL A   1      41.299  30.553  31.890  1.00  0.00    -0.248 NA
ATOM     51  C   UNL A   1      39.650  29.001  32.420  1.00  0.00     0.031 C 
ATOM     52  C   UNL A   1      39.670  29.022  27.688  1.00  0.00     0.029 A 
ATOM     53  N   UNL A   1      41.549  28.769  28.822  1.00  0.00    -0.354 N 
ATOM     54  C   UNL A   1      41.460  30.133  33.202  1.00  0.00     0.074 A 
ATOM     55  C   UNL A   1      40.275  29.382  33.532  1.00  0.00     0.031 C 
ATOM     56  C   UNL A   1      40.424  28.134  27.005  1.00  0.00     0.029 A 
ATOM     57  C   UNL A   1      41.649  27.896  27.749  1.00  0.00     0.049 A 
ATOM     58  H   UNL A   1      42.305  28.973  29.418  1.00  0.00     0.167 HD
ATOM     59  C   UNL A   1      42.664  30.188  33.832  1.00  0.00     0.031 A 
ATOM     60  C   UNL A   1      42.609  26.952  27.584  1.00  0.00     0.031 A 
ATOM     61  C   UNL A   1      43.624  30.956  33.082  1.00  0.00     0.049 A 
ATOM     62  C   UNL A   1      43.744  27.331  28.472  1.00  0.00     0.074 A 
ATOM     63  C   UNL A   1      43.700  32.271  32.669  1.00  0.00     0.029 A 
ATOM     64  N   UNL A   1      44.515  30.252  32.300  1.00  0.00    -0.354 N 
ATOM     65  N   UNL A   1      44.463  28.409  28.306  1.00  0.00    -0.248 NA
ATOM     66  C   UNL A   1      43.780  26.774  29.820  1.00  0.00     0.031 C 
ATOM     67  C   UNL A   1      44.307  32.225  31.383  1.00  0.00     0.029 A 
ATOM     68  C   UNL A   1      44.617  30.893  31.091  1.00  0.00     0.049 A 
ATOM     69  H   UNL A   1      44.994  29.433  32.564  1.00  0.00     0.167 HD
ATOM     70  C   UNL A   1      44.696  28.896  29.588  1.00  0.00     0.074 A 
ATOM     71  C   UNL A   1      44.341  27.794  30.479  1.00  0.00     0.031 C 
ATOM     72  C   UNL A   1      44.872  30.232  29.822  1.00  0.00     0.031 A 
BRANCH  59  73
ATOM     73  C   UNL A   1      43.074  29.227  34.915  1.00  0.00    -0.014 A 
ATOM     74  C   UNL A   1      43.885  29.694  35.964  1.00  0.00     0.010 A 
ATOM     75  C   UNL A   1      42.899  27.830  34.811  1.00  0.00     0.010 A 
ATOM     76  C   UNL A   1      44.543  28.802  36.820  1.00  0.00     0.020 A 
ATOM     77  C   UNL A   1      43.506  26.935  35.688  1.00  0.00     0.020 A 
ATOM     78  C   UNL A   1      44.361  27.427  36.662  1.00  0.00     0.054 A 
BRANCH  78  79
ATOM     79  S   UNL A   1      45.319  26.277  37.673  1.00  0.00     0.124 S 
ATOM     80  O   UNL A   1      45.922  25.420  36.656  1.00  0.00    -0.237 OA
ATOM     81  O   UNL A   1      46.236  27.169  38.376  1.00  0.00    -0.237 OA
ATOM     82  O   UNL A   1      44.310  25.637  38.514  1.00  0.00    -0.744 OA
ENDBRANCH  78  79
ENDBRANCH  59  73
BRANCH  60  83
ATOM     83  C   UNL A   1      42.390  25.581  27.049  1.00  0.00    -0.014 A 
ATOM     84  C   UNL A   1      43.464  24.699  26.842  1.00  0.00     0.010 A 
ATOM     85  C   UNL A   1      41.085  25.045  26.964  1.00  0.00     0.010 A 
ATOM     86  C   UNL A   1      43.241  23.328  26.612  1.00  0.00     0.020 A 
ATOM     87  C   UNL A   1      40.853  23.687  26.721  1.00  0.00     0.020 A 
ATOM     88  C   UNL A   1      41.935  22.829  26.570  1.00  0.00     0.054 A 
BRANCH  88  89
ATOM     89  S   UNL A   1      41.654  21.038  26.444  1.00  0.00     0.124 S 
ATOM     90  O   UNL A   1      42.571  20.654  25.375  1.00  0.00    -0.237 OA
ATOM     91  O   UNL A   1      42.007  20.569  27.781  1.00  0.00    -0.237 OA
ATOM     92  O   UNL A   1      40.234  20.934  26.111  1.00  0.00    -0.744 OA
ENDBRANCH  88  89
ENDBRANCH  60  83
BRANCH  72  93
ATOM     93  C   UNL A   1      45.086  31.151  28.638  1.00  0.00    -0.014 A 
ATOM     94  C   UNL A   1      44.026  31.700  27.888  1.00  0.00     0.010 A 
ATOM     95  C   UNL A   1      46.387  31.633  28.410  1.00  0.00     0.010 A 
ATOM     96  C   UNL A   1      44.265  32.700  26.933  1.00  0.00     0.020 A 
ATOM     97  C   UNL A   1      46.630  32.641  27.473  1.00  0.00     0.020 A 
ATOM     98  C   UNL A   1      45.568  33.169  26.736  1.00  0.00     0.054 A 
BRANCH  98  99
ATOM     99  S   UNL A   1      45.860  34.529  25.568  1.00  0.00     0.124 S 
ATOM    100  O   UNL A   1      45.413  35.696  26.324  1.00  0.00    -0.237 OA
ATOM    101  O   UNL A   1      47.299  34.450  25.327  1.00  0.00    -0.237 OA
ATOM    102  O   UNL A   1      45.029  34.183  24.416  1.00  0.00    -0.744 OA
ENDBRANCH  98  99
ENDBRANCH  72  93
ENDBRANCH  46  47
ENDBRANCH  39  41
ENDBRANCH  38  39
ENDBRANCH  37  38
ENDBRANCH  36  37
ENDBRANCH  35  36
ENDBRANCH  34  35
ENDBRANCH   1  34
TORSDOF 25
ENDMDL
MODEL 2
REMARK VINA RESULT:     -10.0      4.058     10.191
REMARK SMILES CCn1nc(C(=O)OCCOCCOCCOC(=O)c2ccc(-c3c4nc(c(-c5ccc(S(=O)(=O)[O-])cc5)c5ccc([nH]5)c(-c5ccc(S(=O)(=O)[O-])cc5)c5nc(c(-c6ccc(S(=O)(=O)[O-])cc6)c6ccc3[nH]6)C=C5)C=C4)cc2)c2c1CC[C@H]([NH2+]Cc1nn(CC)c3ccccc13)C2
REMARK SMILES IDX 12 1 11 2 10 3 9 4 8 5 6 6 7 7 5 8 3 9 4 10 81 11 80 12
REMARK SMILES IDX 82 13 98 14 83 15 84 16 2 17 1 18 85 19 86 22 87 23 88 24
REMARK SMILES IDX 97 25 89 26 92 27 96 28 93 29 95 30 94 31 90 32 91 33 13 34
REMARK SMILES IDX 14 35 15 36 16 37 17 38 18 39 19 40 20 41 21 42 79 43 22 44
REMARK SMILES IDX 78 45 23 46 24 47 25 48 72 49 26 50 77 51 71 52 73 53 27 54
REMARK SMILES IDX 76 55 70 56 69 57 28 59 58 60 39 61 57 62 40 63 43 64 56 65
REMARK SMILES IDX 74 66 41 67 42 68 55 70 75 71 44 72 29 73 30 74 38 75 31 76
REMARK SMILES IDX 37 77 32 78 33 79 34 80 35 81 36 82 59 83 60 84 68 85 61 86
REMARK SMILES IDX 67 87 62 88 63 89 64 90 65 91 66 92 45 93 46 94 54 95 47 96
REMARK SMILES IDX 53 97 48 98 49 99 50 100 51 101 52 102
REMARK H PARENT 85 20 85 21 73 58 43 69
REMARK Flexibility Score: inf
ROOT
ATOM      1  C   UNL A   1      31.779  28.849  24.038  1.00  0.00     0.188 C 
ENDROOT
BRANCH   1   2
ATOM      2  O   UNL A   1      31.799  28.299  22.729  1.00  0.00    -0.376 OA
BRANCH   2   3
ATOM      3  C   UNL A   1      31.455  26.923  22.599  1.00  0.00     0.202 C 
BRANCH   3   4
ATOM      4  C   UNL A   1      31.669  26.027  23.829  1.00  0.00     0.261 C 
BRANCH   4   5
ATOM      5  O   UNL A   1      33.052  25.690  24.073  1.00  0.00    -0.458 OA
BRANCH   5   6
ATOM      6  C   UNL A   1      33.637  24.864  23.139  1.00  0.00     0.359 C 
ATOM      7  O   UNL A   1      34.028  25.257  22.062  1.00  0.00    -0.244 OA
BRANCH   6   8
ATOM      8  C   UNL A   1      33.831  23.463  23.617  1.00  0.00     0.174 A 
ATOM      9  N   UNL A   1      33.211  21.503  24.269  1.00  0.00    -0.269 N 
ATOM     10  N   UNL A   1      32.742  22.711  23.895  1.00  0.00    -0.165 NA
ATOM     11  C   UNL A   1      34.564  21.516  24.430  1.00  0.00     0.043 A 
ATOM     12  C   UNL A   1      35.004  22.685  23.848  1.00  0.00     0.014 A 
ATOM     13  C   UNL A   1      35.457  20.537  25.093  1.00  0.00     0.062 C 
ATOM     14  C   UNL A   1      36.453  22.942  23.636  1.00  0.00     0.105 C 
ATOM     15  C   UNL A   1      36.657  21.320  25.673  1.00  0.00     0.072 C 
ATOM     16  C   UNL A   1      37.400  22.202  24.627  1.00  0.00     0.187 C 
BRANCH   9  17
ATOM     17  C   UNL A   1      32.271  20.396  24.262  1.00  0.00     0.141 C 
ATOM     18  C   UNL A   1      32.532  19.274  23.276  1.00  0.00     0.029 C 
ENDBRANCH   9  17
BRANCH  16  19
ATOM     19  N   UNL A   1      38.400  23.023  25.336  1.00  0.00    -0.338 N 
ATOM     20  H   UNL A   1      38.000  23.952  25.469  1.00  0.00     0.346 HD
ATOM     21  H   UNL A   1      39.233  22.999  24.748  1.00  0.00     0.346 HD
BRANCH  19  22
ATOM     22  C   UNL A   1      38.840  22.535  26.647  1.00  0.00     0.320 C 
BRANCH  22  23
ATOM     23  C   UNL A   1      39.918  23.348  27.333  1.00  0.00     0.124 A 
ATOM     24  N   UNL A   1      41.119  22.762  27.490  1.00  0.00    -0.171 NA
ATOM     25  C   UNL A   1      39.951  24.714  27.779  1.00  0.00     0.029 A 
ATOM     26  N   UNL A   1      41.931  23.758  27.890  1.00  0.00    -0.265 N 
ATOM     27  C   UNL A   1      41.283  24.948  28.116  1.00  0.00     0.069 A 
ATOM     28  C   UNL A   1      39.055  25.808  27.825  1.00  0.00     0.012 A 
ATOM     29  C   UNL A   1      41.754  26.214  28.503  1.00  0.00     0.028 A 
ATOM     30  C   UNL A   1      39.527  27.086  28.147  1.00  0.00     0.001 A 
ATOM     31  C   UNL A   1      40.860  27.285  28.479  1.00  0.00     0.002 A 
BRANCH  26  32
ATOM     32  C   UNL A   1      43.368  23.556  27.831  1.00  0.00     0.141 C 
ATOM     33  C   UNL A   1      43.954  22.936  29.087  1.00  0.00     0.029 C 
ENDBRANCH  26  32
ENDBRANCH  22  23
ENDBRANCH  19  22
ENDBRANCH  16  19
ENDBRANCH   6   8
ENDBRANCH   5   6
ENDBRANCH   4   5
ENDBRANCH   3   4
ENDBRANCH   2   3
ENDBRANCH   1   2
BRANCH   1  34
ATOM     34  C   UNL A   1      33.114  29.316  24.656  1.00  0.00     0.188 C 
BRANCH  34  35
ATOM     35  O   UNL A   1      33.385  28.833  25.973  1.00  0.00    -0.376 OA
BRANCH  35  36
ATOM     36  C   UNL A   1      32.767  29.544  27.051  1.00  0.00     0.202 C 
BRANCH  36  37
ATOM     37  C   UNL A   1      33.162  31.025  27.129  1.00  0.00     0.261 C 
BRANCH  37  38
ATOM     38  O   UNL A   1      34.478  31.207  27.624  1.00  0.00    -0.460 OA
BRANCH  38  39
ATOM     39  C   UNL A   1      34.712  32.417  28.169  1.00  0.00     0.338 C 
ATOM     40  O   UNL A   1      34.491  33.504  27.666  1.00  0.00    -0.246 OA
BRANCH  39  41
ATOM     41  C   UNL A   1      35.170  32.207  29.548  1.00  0.00     0.060 A 
ATOM     42  C   UNL A   1      35.026  33.271  30.443  1.00  0.00     0.016 A 
ATOM     43  C   UNL A   1      35.868  31.036  29.881  1.00  0.00     0.016 A 
ATOM     44  C   UNL A   1      35.850  33.299  31.539  1.00  0.00     0.010 A 
ATOM     45  C   UNL A   1      36.704  31.067  30.963  1.00  0.00     0.010 A 
ATOM     46  C   UNL A   1      36.786  32.270  31.655  1.00  0.00    -0.014 A 
BRANCH  46  47
ATOM     47  C   UNL A   1      38.075  32.646  32.185  1.00  0.00     0.031 A 
ATOM     48  C   UNL A   1      39.019  33.200  31.215  1.00  0.00     0.074 A 
ATOM     49  C   UNL A   1      38.281  32.555  33.515  1.00  0.00     0.049 A 
ATOM     50  N   UNL A   1      40.060  32.624  30.719  1.00  0.00    -0.248 NA
ATOM     51  C   UNL A   1      38.662  34.479  30.586  1.00  0.00     0.031 C 
ATOM     52  C   UNL A   1      37.282  32.335  34.573  1.00  0.00     0.029 A 
ATOM     53  N   UNL A   1      39.415  32.782  34.214  1.00  0.00    -0.354 N 
ATOM     54  C   UNL A   1      40.607  33.558  29.852  1.00  0.00     0.074 A 
ATOM     55  C   UNL A   1      39.583  34.547  29.627  1.00  0.00     0.031 C 
ATOM     56  C   UNL A   1      37.813  32.696  35.761  1.00  0.00     0.029 A 
ATOM     57  C   UNL A   1      39.206  33.054  35.558  1.00  0.00     0.049 A 
ATOM     58  H   UNL A   1      40.311  32.756  33.807  1.00  0.00     0.167 HD
ATOM     59  C   UNL A   1      41.943  33.610  29.601  1.00  0.00     0.031 A 
ATOM     60  C   UNL A   1      40.087  33.667  36.387  1.00  0.00     0.031 A 
ATOM     61  C   UNL A   1      42.628  32.452  30.114  1.00  0.00     0.049 A 
ATOM     62  C   UNL A   1      41.429  33.560  35.748  1.00  0.00     0.074 A 
ATOM     63  C   UNL A   1      42.560  31.097  29.859  1.00  0.00     0.029 A 
ATOM     64  N   UNL A   1      43.258  32.586  31.333  1.00  0.00    -0.354 N 
ATOM     65  N   UNL A   1      42.052  32.427  35.561  1.00  0.00    -0.248 NA
ATOM     66  C   UNL A   1      41.869  34.649  34.883  1.00  0.00     0.031 C 
ATOM     67  C   UNL A   1      42.761  30.469  31.121  1.00  0.00     0.029 A 
ATOM     68  C   UNL A   1      42.988  31.464  32.076  1.00  0.00     0.049 A 
ATOM     69  H   UNL A   1      43.804  33.354  31.620  1.00  0.00     0.167 HD
ATOM     70  C   UNL A   1      42.647  32.537  34.308  1.00  0.00     0.074 A 
ATOM     71  C   UNL A   1      42.586  33.961  33.988  1.00  0.00     0.031 C 
ATOM     72  C   UNL A   1      42.866  31.439  33.523  1.00  0.00     0.031 A 
BRANCH  59  73
ATOM     73  C   UNL A   1      42.667  34.881  29.246  1.00  0.00    -0.014 A 
ATOM     74  C   UNL A   1      43.154  35.695  30.284  1.00  0.00     0.010 A 
ATOM     75  C   UNL A   1      42.672  35.428  27.945  1.00  0.00     0.010 A 
ATOM     76  C   UNL A   1      43.556  37.014  30.038  1.00  0.00     0.020 A 
ATOM     77  C   UNL A   1      43.119  36.719  27.680  1.00  0.00     0.020 A 
ATOM     78  C   UNL A   1      43.518  37.520  28.738  1.00  0.00     0.054 A 
BRANCH  78  79
ATOM     79  S   UNL A   1      43.900  39.261  28.445  1.00  0.00     0.124 S 
ATOM     80  O   UNL A   1      44.489  39.654  29.722  1.00  0.00    -0.237 OA
ATOM     81  O   UNL A   1      44.821  39.192  27.315  1.00  0.00    -0.237 OA
ATOM     82  O   UNL A   1      42.597  39.852  28.147  1.00  0.00    -0.744 OA
ENDBRANCH  78  79
ENDBRANCH  59  73
BRANCH  60  83
ATOM     83  C   UNL A   1      39.738  34.668  37.432  1.00  0.00    -0.014 A 
ATOM     84  C   UNL A   1      39.142  34.279  38.644  1.00  0.00     0.010 A 
ATOM     85  C   UNL A   1      40.213  35.995  37.339  1.00  0.00     0.010 A 
ATOM     86  C   UNL A   1      39.074  35.168  39.734  1.00  0.00     0.020 A 
ATOM     87  C   UNL A   1      40.136  36.890  38.411  1.00  0.00     0.020 A 
ATOM     88  C   UNL A   1      39.587  36.463  39.615  1.00  0.00     0.054 A 
BRANCH  88  89
ATOM     89  S   UNL A   1      39.653  37.548  41.070  1.00  0.00     0.124 S 
ATOM     90  O   UNL A   1      39.041  36.719  42.104  1.00  0.00    -0.237 OA
ATOM     91  O   UNL A   1      41.085  37.792  41.218  1.00  0.00    -0.237 OA
ATOM     92  O   UNL A   1      38.869  38.715  40.666  1.00  0.00    -0.744 OA
ENDBRANCH  88  89
ENDBRANCH  60  83
BRANCH  72  93
ATOM     93  C   UNL A   1      42.707  30.066  34.141  1.00  0.00    -0.014 A 
ATOM     94  C   UNL A   1      43.722  29.436  34.890  1.00  0.00     0.010 A 
ATOM     95  C   UNL A   1      41.425  29.489  34.134  1.00  0.00     0.010 A 
ATOM     96  C   UNL A   1      43.459  28.259  35.607  1.00  0.00     0.020 A 
ATOM     97  C   UNL A   1      41.152  28.327  34.861  1.00  0.00     0.020 A 
ATOM     98  C   UNL A   1      42.171  27.715  35.592  1.00  0.00     0.054 A 
BRANCH  98  99
ATOM     99  S   UNL A   1      41.812  26.246  36.599  1.00  0.00     0.124 S 
ATOM    100  O   UNL A   1      41.434  25.258  35.592  1.00  0.00    -0.237 OA
ATOM    101  O   UNL A   1      43.082  25.997  37.279  1.00  0.00    -0.237 OA
ATOM    102  O   UNL A   1      40.726  26.682  37.476  1.00  0.00    -0.744 OA
ENDBRANCH  98  99
ENDBRANCH  72  93
ENDBRANCH  46  47
ENDBRANCH  39  41
ENDBRANCH  38  39
ENDBRANCH  37  38
ENDBRANCH  36  37
ENDBRANCH  35  36
ENDBRANCH  34  35
ENDBRANCH   1  34
TORSDOF 25
ENDMDL
MODEL 3
REMARK VINA RESULT:     -10.0      2.701      8.808
REMARK SMILES CCn1nc(C(=O)OCCOCCOCCOC(=O)c2ccc(-c3c4nc(c(-c5ccc(S(=O)(=O)[O-])cc5)c5ccc([nH]5)c(-c5ccc(S(=O)(=O)[O-])cc5)c5nc(c(-c6ccc(S(=O)(=O)[O-])cc6)c6ccc3[nH]6)C=C5)C=C4)cc2)c2c1CC[C@H]([NH2+]Cc1nn(CC)c3ccccc13)C2
REMARK SMILES IDX 12 1 11 2 10 3 9 4 8 5 6 6 7 7 5 8 3 9 4 10 81 11 80 12
REMARK SMILES IDX 82 13 98 14 83 15 84 16 2 17 1 18 85 19 86 22 87 23 88 24
REMARK SMILES IDX 97 25 89 26 92 27 96 28 93 29 95 30 94 31 90 32 91 33 13 34
REMARK SMILES IDX 14 35 15 36 16 37 17 38 18 39 19 40 20 41 21 42 79 43 22 44
REMARK SMILES IDX 78 45 23 46 24 47 25 48 72 49 26 50 77 51 71 52 73 53 27 54
REMARK SMILES IDX 76 55 70 56 69 57 28 59 58 60 39 61 57 62 40 63 43 64 56 65
REMARK SMILES IDX 74 66 41 67 42 68 55 70 75 71 44 72 29 73 30 74 38 75 31 76
REMARK SMILES IDX 37 77 32 78 33 79 34 80 35 81 36 82 59 83 60 84 68 85 61 86
REMARK SMILES IDX 67 87 62 88 63 89 64 90 65 91 66 92 45 93 46 94 54 95 47 96
REMARK SMILES IDX 53 97 48 98 49 99 50 100 51 101 52 102
REMARK H PARENT 85 20 85 21 73 58 43 69
REMARK Flexibility Score: inf
ROOT
ATOM      1  C   UNL A   1      32.130  26.027  26.472  1.00  0.00     0.188 C 
ENDROOT
BRANCH   1   2
ATOM      2  O   UNL A   1      33.165  25.970  25.499  1.00  0.00    -0.376 OA
BRANCH   2   3
ATOM      3  C   UNL A   1      34.261  25.102  25.770  1.00  0.00     0.202 C 
BRANCH   3   4
ATOM      4  C   UNL A   1      34.014  23.943  26.749  1.00  0.00     0.261 C 
BRANCH   4   5
ATOM      5  O   UNL A   1      34.887  22.811  26.546  1.00  0.00    -0.458 OA
BRANCH   5   6
ATOM      6  C   UNL A   1      34.337  21.577  26.820  1.00  0.00     0.359 C 
ATOM      7  O   UNL A   1      34.268  21.119  27.939  1.00  0.00    -0.244 OA
BRANCH   6   8
ATOM      8  C   UNL A   1      33.748  20.905  25.624  1.00  0.00     0.174 A 
ATOM      9  N   UNL A   1      33.500  19.325  24.179  1.00  0.00    -0.269 N 
ATOM     10  N   UNL A   1      34.227  19.697  25.252  1.00  0.00    -0.165 NA
ATOM     11  C   UNL A   1      32.707  20.338  23.732  1.00  0.00     0.043 A 
ATOM     12  C   UNL A   1      32.702  21.286  24.731  1.00  0.00     0.014 A 
ATOM     13  C   UNL A   1      31.979  20.488  22.450  1.00  0.00     0.062 C 
ATOM     14  C   UNL A   1      31.767  22.441  24.694  1.00  0.00     0.105 C 
ATOM     15  C   UNL A   1      31.914  21.998  22.125  1.00  0.00     0.072 C 
ATOM     16  C   UNL A   1      31.307  22.864  23.267  1.00  0.00     0.187 C 
BRANCH   9  17
ATOM     17  C   UNL A   1      33.541  17.922  23.805  1.00  0.00     0.141 C 
ATOM     18  C   UNL A   1      34.723  17.109  24.298  1.00  0.00     0.029 C 
ENDBRANCH   9  17
BRANCH  16  19
ATOM     19  N   UNL A   1      31.465  24.286  22.907  1.00  0.00    -0.338 N 
ATOM     20  H   UNL A   1      31.880  24.325  21.977  1.00  0.00     0.346 HD
ATOM     21  H   UNL A   1      32.040  24.688  23.647  1.00  0.00     0.346 HD
BRANCH  19  22
ATOM     22  C   UNL A   1      30.243  25.097  22.886  1.00  0.00     0.320 C 
BRANCH  22  23
ATOM     23  C   UNL A   1      30.428  26.585  23.102  1.00  0.00     0.124 A 
ATOM     24  N   UNL A   1      31.687  27.057  23.060  1.00  0.00    -0.171 NA
ATOM     25  C   UNL A   1      29.482  27.657  23.246  1.00  0.00     0.029 A 
ATOM     26  N   UNL A   1      31.545  28.395  23.036  1.00  0.00    -0.265 N 
ATOM     27  C   UNL A   1      30.247  28.821  23.181  1.00  0.00     0.069 A 
ATOM     28  C   UNL A   1      28.075  27.794  23.301  1.00  0.00     0.012 A 
ATOM     29  C   UNL A   1      29.675  30.104  23.177  1.00  0.00     0.028 A 
ATOM     30  C   UNL A   1      27.491  29.065  23.235  1.00  0.00     0.001 A 
ATOM     31  C   UNL A   1      28.282  30.203  23.171  1.00  0.00     0.002 A 
BRANCH  26  32
ATOM     32  C   UNL A   1      32.684  29.213  22.655  1.00  0.00     0.141 C 
ATOM     33  C   UNL A   1      34.012  28.703  23.186  1.00  0.00     0.029 C 
ENDBRANCH  26  32
ENDBRANCH  22  23
ENDBRANCH  19  22
ENDBRANCH  16  19
ENDBRANCH   6   8
ENDBRANCH   5   6
ENDBRANCH   4   5
ENDBRANCH   3   4
ENDBRANCH   2   3
ENDBRANCH   1   2
BRANCH   1  34
ATOM     34  C   UNL A   1      32.091  27.238  27.426  1.00  0.00     0.188 C 
BRANCH  34  35
ATOM     35  O   UNL A   1      32.825  28.386  26.995  1.00  0.00    -0.376 OA
BRANCH  35  36
ATOM     36  C   UNL A   1      32.053  29.496  26.527  1.00  0.00     0.202 C 
BRANCH  36  37
ATOM     37  C   UNL A   1      32.876  30.767  26.275  1.00  0.00     0.261 C 
BRANCH  37  38
ATOM     38  O   UNL A   1      33.554  31.210  27.439  1.00  0.00    -0.460 OA
BRANCH  38  39
ATOM     39  C   UNL A   1      33.352  32.505  27.749  1.00  0.00     0.338 C 
ATOM     40  O   UNL A   1      32.413  33.203  27.411  1.00  0.00    -0.246 OA
BRANCH  39  41
ATOM     41  C   UNL A   1      34.406  32.911  28.686  1.00  0.00     0.060 A 
ATOM     42  C   UNL A   1      35.398  33.772  28.205  1.00  0.00     0.016 A 
ATOM     43  C   UNL A   1      34.481  32.316  29.954  1.00  0.00     0.016 A 
ATOM     44  C   UNL A   1      36.608  33.776  28.851  1.00  0.00     0.010 A 
ATOM     45  C   UNL A   1      35.690  32.304  30.593  1.00  0.00     0.010 A 
ATOM     46  C   UNL A   1      36.756  32.898  29.925  1.00  0.00    -0.014 A 
BRANCH  46  47
ATOM     47  C   UNL A   1      38.053  32.278  30.061  1.00  0.00     0.031 A 
ATOM     48  C   UNL A   1      38.150  30.903  29.572  1.00  0.00     0.074 A 
ATOM     49  C   UNL A   1      39.080  33.020  30.523  1.00  0.00     0.049 A 
ATOM     50  N   UNL A   1      38.227  29.826  30.276  1.00  0.00    -0.248 NA
ATOM     51  C   UNL A   1      37.956  30.687  28.132  1.00  0.00     0.031 C 
ATOM     52  C   UNL A   1      39.133  34.479  30.707  1.00  0.00     0.029 A 
ATOM     53  N   UNL A   1      40.348  32.636  30.795  1.00  0.00    -0.354 N 
ATOM     54  C   UNL A   1      38.292  28.796  29.349  1.00  0.00     0.074 A 
ATOM     55  C   UNL A   1      37.869  29.359  28.091  1.00  0.00     0.031 C 
ATOM     56  C   UNL A   1      40.424  34.863  30.805  1.00  0.00     0.029 A 
ATOM     57  C   UNL A   1      41.263  33.677  30.808  1.00  0.00     0.049 A 
ATOM     58  H   UNL A   1      40.599  31.700  30.969  1.00  0.00     0.167 HD
ATOM     59  C   UNL A   1      38.951  27.636  29.609  1.00  0.00     0.031 A 
ATOM     60  C   UNL A   1      42.607  33.550  30.683  1.00  0.00     0.031 A 
ATOM     61  C   UNL A   1      39.308  27.525  31.001  1.00  0.00     0.049 A 
ATOM     62  C   UNL A   1      42.939  32.132  30.999  1.00  0.00     0.074 A 
ATOM     63  C   UNL A   1      38.594  27.468  32.180  1.00  0.00     0.029 A 
ATOM     64  N   UNL A   1      40.598  27.867  31.344  1.00  0.00    -0.354 N 
ATOM     65  N   UNL A   1      42.775  31.598  32.180  1.00  0.00    -0.248 NA
ATOM     66  C   UNL A   1      42.997  31.176  29.900  1.00  0.00     0.031 C 
ATOM     67  C   UNL A   1      39.374  28.193  33.125  1.00  0.00     0.029 A 
ATOM     68  C   UNL A   1      40.547  28.617  32.493  1.00  0.00     0.049 A 
ATOM     69  H   UNL A   1      41.413  27.618  30.851  1.00  0.00     0.167 HD
ATOM     70  C   UNL A   1      42.298  30.313  31.940  1.00  0.00     0.074 A 
ATOM     71  C   UNL A   1      42.556  30.077  30.521  1.00  0.00     0.031 C 
ATOM     72  C   UNL A   1      41.481  29.677  32.832  1.00  0.00     0.031 A 
BRANCH  59  73
ATOM     73  C   UNL A   1      39.608  26.801  28.543  1.00  0.00    -0.014 A 
ATOM     74  C   UNL A   1      39.275  25.438  28.448  1.00  0.00     0.010 A 
ATOM     75  C   UNL A   1      40.718  27.245  27.793  1.00  0.00     0.010 A 
ATOM     76  C   UNL A   1      40.059  24.555  27.696  1.00  0.00     0.020 A 
ATOM     77  C   UNL A   1      41.474  26.386  27.000  1.00  0.00     0.020 A 
ATOM     78  C   UNL A   1      41.165  25.035  26.992  1.00  0.00     0.054 A 
BRANCH  78  79
ATOM     79  S   UNL A   1      42.255  23.873  26.141  1.00  0.00     0.124 S 
ATOM     80  O   UNL A   1      41.367  22.735  25.929  1.00  0.00    -0.237 OA
ATOM     81  O   UNL A   1      42.631  24.619  24.944  1.00  0.00    -0.237 OA
ATOM     82  O   UNL A   1      43.337  23.655  27.100  1.00  0.00    -0.744 OA
ENDBRANCH  78  79
ENDBRANCH  59  73
BRANCH  60  83
ATOM     83  C   UNL A   1      43.493  34.461  29.908  1.00  0.00    -0.014 A 
ATOM     84  C   UNL A   1      44.888  34.440  30.077  1.00  0.00     0.010 A 
ATOM     85  C   UNL A   1      42.984  35.195  28.814  1.00  0.00     0.010 A 
ATOM     86  C   UNL A   1      45.739  35.083  29.158  1.00  0.00     0.020 A 
ATOM     87  C   UNL A   1      43.820  35.851  27.904  1.00  0.00     0.020 A 
ATOM     88  C   UNL A   1      45.198  35.771  28.068  1.00  0.00     0.054 A 
BRANCH  88  89
ATOM     89  S   UNL A   1      46.297  36.454  26.793  1.00  0.00     0.124 S 
ATOM     90  O   UNL A   1      45.652  37.723  26.472  1.00  0.00    -0.237 OA
ATOM     91  O   UNL A   1      47.574  36.552  27.496  1.00  0.00    -0.237 OA
ATOM     92  O   UNL A   1      46.257  35.451  25.729  1.00  0.00    -0.744 OA
ENDBRANCH  88  89
ENDBRANCH  60  83
BRANCH  72  93
ATOM     93  C   UNL A   1      41.318  30.272  34.215  1.00  0.00    -0.014 A 
ATOM     94  C   UNL A   1      42.172  29.963  35.292  1.00  0.00     0.010 A 
ATOM     95  C   UNL A   1      40.401  31.327  34.369  1.00  0.00     0.010 A 
ATOM     96  C   UNL A   1      42.105  30.687  36.492  1.00  0.00     0.020 A 
ATOM     97  C   UNL A   1      40.341  32.064  35.555  1.00  0.00     0.020 A 
ATOM     98  C   UNL A   1      41.192  31.739  36.613  1.00  0.00     0.054 A 
BRANCH  98  99
ATOM     99  S   UNL A   1      41.175  32.736  38.132  1.00  0.00     0.124 S 
ATOM    100  O   UNL A   1      39.752  32.787  38.460  1.00  0.00    -0.237 OA
ATOM    101  O   UNL A   1      42.003  31.952  39.047  1.00  0.00    -0.237 OA
ATOM    102  O   UNL A   1      41.761  34.010  37.720  1.00  0.00    -0.744 OA
ENDBRANCH  98  99
ENDBRANCH  72  93
ENDBRANCH  46  47
ENDBRANCH  39  41
ENDBRANCH  38  39
ENDBRANCH  37  38
ENDBRANCH  36  37
ENDBRANCH  35  36
ENDBRANCH  34  35
ENDBRANCH   1  34
TORSDOF 25
ENDMDL
