MODEL 1
REMARK VINA RESULT:      -8.6      0.000      0.000
REMARK SMILES O=C(OCCOCCOCCOC(=O)c1cn(C2CN(C(=O)c3c[nH]nn3)C2)nn1)c1ccc(-c2c3nc(c(-c4ccc(S(=O)(=O)[O-])cc4)c4ccc([nH]4)c(-c4ccc(S(=O)(=O)[O-])cc4)c4nc(c(-c5ccc(S(=O)(=O)[O-])cc5)c5ccc2[nH]5)C=C4)C=C3)cc1
REMARK SMILES IDX 7 1 6 2 5 3 4 4 3 5 2 6 1 7 31 8 32 9 90 10 33 11 89 12
REMARK SMILES IDX 34 13 35 14 36 15 83 16 37 17 88 18 82 19 84 20 38 21 87 22
REMARK SMILES IDX 81 23 80 24 39 26 69 27 50 28 68 29 51 30 54 31 67 32 85 33
REMARK SMILES IDX 52 34 53 35 66 37 86 38 55 39 40 40 41 41 49 42 42 43 48 44
REMARK SMILES IDX 43 45 44 46 45 47 46 48 47 49 70 50 71 51 79 52 72 53 78 54
REMARK SMILES IDX 73 55 74 56 75 57 76 58 77 59 56 60 57 61 65 62 58 63 64 64
REMARK SMILES IDX 59 65 60 66 61 67 62 68 63 69 8 70 9 71 10 72 11 73 12 74
REMARK SMILES IDX 13 75 14 76 15 77 16 78 30 79 17 80 29 81 18 82 19 83 28 84
REMARK SMILES IDX 20 85 21 86 22 87 23 88 24 89 27 90 25 91 26 92
REMARK H PARENT 84 25 54 36 25 93
REMARK Flexibility Score: inf
ROOT
ATOM      1  C   UNL A   1      44.169  23.042  25.653  1.00  0.00     0.188 C 
ENDROOT
BRANCH   1   2
ATOM      2  O   UNL A   1      43.496  21.802  25.906  1.00  0.00    -0.376 OA
BRANCH   2   3
ATOM      3  C   UNL A   1      42.074  21.870  25.761  1.00  0.00     0.202 C 
BRANCH   3   4
ATOM      4  C   UNL A   1      41.274  20.888  26.629  1.00  0.00     0.261 C 
BRANCH   4   5
ATOM      5  O   UNL A   1      40.008  21.427  27.042  1.00  0.00    -0.460 OA
BRANCH   5   6
ATOM      6  C   UNL A   1      39.348  22.496  26.523  1.00  0.00     0.338 C 
ATOM      7  O   UNL A   1      38.525  22.293  25.632  1.00  0.00    -0.246 OA
BRANCH   6   8
ATOM      8  C   UNL A   1      39.543  23.903  26.999  1.00  0.00     0.060 A 
ATOM      9  C   UNL A   1      40.140  24.923  26.259  1.00  0.00     0.016 A 
ATOM     10  C   UNL A   1      39.054  24.226  28.276  1.00  0.00     0.016 A 
ATOM     11  C   UNL A   1      40.389  26.174  26.814  1.00  0.00     0.010 A 
ATOM     12  C   UNL A   1      39.232  25.506  28.815  1.00  0.00     0.010 A 
ATOM     13  C   UNL A   1      39.950  26.473  28.102  1.00  0.00    -0.014 A 
BRANCH  13  14
ATOM     14  C   UNL A   1      40.382  27.745  28.722  1.00  0.00     0.031 A 
ATOM     15  C   UNL A   1      41.806  27.873  29.185  1.00  0.00     0.074 A 
ATOM     16  C   UNL A   1      39.570  28.819  28.732  1.00  0.00     0.049 A 
ATOM     17  N   UNL A   1      42.394  28.876  29.781  1.00  0.00    -0.248 NA
ATOM     18  C   UNL A   1      42.694  26.730  28.909  1.00  0.00     0.031 C 
ATOM     19  C   UNL A   1      38.224  28.876  28.155  1.00  0.00     0.029 A 
ATOM     20  N   UNL A   1      39.777  30.088  29.213  1.00  0.00    -0.354 N 
ATOM     21  C   UNL A   1      43.717  28.487  29.950  1.00  0.00     0.074 A 
ATOM     22  C   UNL A   1      43.840  27.147  29.425  1.00  0.00     0.031 C 
ATOM     23  C   UNL A   1      37.740  30.119  28.307  1.00  0.00     0.029 A 
ATOM     24  C   UNL A   1      38.686  30.910  29.074  1.00  0.00     0.049 A 
ATOM     25  H   UNL A   1      40.624  30.379  29.620  1.00  0.00     0.167 HD
ATOM     26  C   UNL A   1      44.741  29.190  30.487  1.00  0.00     0.031 A 
ATOM     27  C   UNL A   1      38.455  32.143  29.559  1.00  0.00     0.031 A 
ATOM     28  C   UNL A   1      44.605  30.516  31.024  1.00  0.00     0.049 A 
ATOM     29  C   UNL A   1      39.539  32.824  30.334  1.00  0.00     0.074 A 
ATOM     30  C   UNL A   1      45.563  31.305  31.636  1.00  0.00     0.029 A 
ATOM     31  N   UNL A   1      43.427  31.248  31.015  1.00  0.00    -0.354 N 
ATOM     32  N   UNL A   1      40.751  32.399  30.593  1.00  0.00    -0.248 NA
ATOM     33  C   UNL A   1      39.223  34.152  30.876  1.00  0.00     0.031 C 
ATOM     34  C   UNL A   1      44.950  32.496  32.040  1.00  0.00     0.029 A 
ATOM     35  C   UNL A   1      43.626  32.469  31.632  1.00  0.00     0.049 A 
ATOM     36  H   UNL A   1      42.577  30.943  30.625  1.00  0.00     0.167 HD
ATOM     37  C   UNL A   1      41.355  33.419  31.313  1.00  0.00     0.074 A 
ATOM     38  C   UNL A   1      40.372  34.476  31.455  1.00  0.00     0.031 C 
ATOM     39  C   UNL A   1      42.619  33.485  31.792  1.00  0.00     0.031 A 
BRANCH  26  40
ATOM     40  C   UNL A   1      46.073  28.499  30.568  1.00  0.00    -0.014 A 
ATOM     41  C   UNL A   1      46.429  27.729  31.690  1.00  0.00     0.010 A 
ATOM     42  C   UNL A   1      46.990  28.645  29.514  1.00  0.00     0.010 A 
ATOM     43  C   UNL A   1      47.701  27.156  31.776  1.00  0.00     0.020 A 
ATOM     44  C   UNL A   1      48.255  28.056  29.586  1.00  0.00     0.020 A 
ATOM     45  C   UNL A   1      48.610  27.332  30.727  1.00  0.00     0.054 A 
BRANCH  45  46
ATOM     46  S   UNL A   1      50.261  26.594  30.866  1.00  0.00     0.124 S 
ATOM     47  O   UNL A   1      49.978  25.181  30.626  1.00  0.00    -0.237 OA
ATOM     48  O   UNL A   1      51.007  27.273  29.810  1.00  0.00    -0.237 OA
ATOM     49  O   UNL A   1      50.673  26.924  32.228  1.00  0.00    -0.744 OA
ENDBRANCH  45  46
ENDBRANCH  26  40
BRANCH  27  50
ATOM     50  C   UNL A   1      37.109  32.763  29.474  1.00  0.00    -0.014 A 
ATOM     51  C   UNL A   1      36.587  33.246  28.264  1.00  0.00     0.010 A 
ATOM     52  C   UNL A   1      36.387  32.961  30.665  1.00  0.00     0.010 A 
ATOM     53  C   UNL A   1      35.377  33.952  28.254  1.00  0.00     0.020 A 
ATOM     54  C   UNL A   1      35.178  33.654  30.657  1.00  0.00     0.020 A 
ATOM     55  C   UNL A   1      34.692  34.169  29.455  1.00  0.00     0.054 A 
BRANCH  55  56
ATOM     56  S   UNL A   1      33.166  35.153  29.454  1.00  0.00     0.124 S 
ATOM     57  O   UNL A   1      33.678  36.493  29.188  1.00  0.00    -0.237 OA
ATOM     58  O   UNL A   1      32.391  34.546  28.379  1.00  0.00    -0.237 OA
ATOM     59  O   UNL A   1      32.638  34.946  30.803  1.00  0.00    -0.744 OA
ENDBRANCH  55  56
ENDBRANCH  27  50
BRANCH  39  60
ATOM     60  C   UNL A   1      43.005  34.756  32.486  1.00  0.00    -0.014 A 
ATOM     61  C   UNL A   1      42.847  34.904  33.873  1.00  0.00     0.010 A 
ATOM     62  C   UNL A   1      43.551  35.809  31.731  1.00  0.00     0.010 A 
ATOM     63  C   UNL A   1      43.207  36.101  34.494  1.00  0.00     0.020 A 
ATOM     64  C   UNL A   1      43.933  36.997  32.351  1.00  0.00     0.020 A 
ATOM     65  C   UNL A   1      43.747  37.139  33.728  1.00  0.00     0.054 A 
BRANCH  65  66
ATOM     66  S   UNL A   1      44.252  38.669  34.559  1.00  0.00     0.124 S 
ATOM     67  O   UNL A   1      45.670  38.744  34.221  1.00  0.00    -0.237 OA
ATOM     68  O   UNL A   1      43.399  39.674  33.927  1.00  0.00    -0.237 OA
ATOM     69  O   UNL A   1      43.957  38.409  35.966  1.00  0.00    -0.744 OA
ENDBRANCH  65  66
ENDBRANCH  39  60
ENDBRANCH  13  14
ENDBRANCH   6   8
ENDBRANCH   5   6
ENDBRANCH   4   5
ENDBRANCH   3   4
ENDBRANCH   2   3
ENDBRANCH   1   2
BRANCH   1  70
ATOM     70  C   UNL A   1      45.330  22.871  24.669  1.00  0.00     0.188 C 
BRANCH  70  71
ATOM     71  O   UNL A   1      46.086  24.056  24.397  1.00  0.00    -0.376 OA
BRANCH  71  72
ATOM     72  C   UNL A   1      46.818  24.614  25.487  1.00  0.00     0.202 C 
BRANCH  72  73
ATOM     73  C   UNL A   1      46.719  26.133  25.656  1.00  0.00     0.261 C 
BRANCH  73  74
ATOM     74  O   UNL A   1      45.718  26.725  24.820  1.00  0.00    -0.458 OA
BRANCH  74  75
ATOM     75  C   UNL A   1      44.492  26.887  25.402  1.00  0.00     0.360 C 
ATOM     76  O   UNL A   1      43.630  26.018  25.452  1.00  0.00    -0.244 OA
BRANCH  75  77
ATOM     77  C   UNL A   1      44.288  28.212  25.957  1.00  0.00     0.190 A 
ATOM     78  C   UNL A   1      45.271  29.019  26.491  1.00  0.00     0.147 A 
ATOM     79  N   UNL A   1      43.092  28.889  25.995  1.00  0.00    -0.123 NA
ATOM     80  N   UNL A   1      44.625  30.175  26.817  1.00  0.00    -0.245 N 
ATOM     81  N   UNL A   1      43.318  30.099  26.500  1.00  0.00    -0.066 NA
BRANCH  80  82
ATOM     82  C   UNL A   1      45.195  31.340  27.436  1.00  0.00     0.148 C 
ATOM     83  C   UNL A   1      45.812  32.289  26.408  1.00  0.00     0.149 C 
ATOM     84  C   UNL A   1      44.172  32.440  27.744  1.00  0.00     0.149 C 
ATOM     85  N   UNL A   1      44.901  33.338  26.841  1.00  0.00    -0.333 N 
ATOM     86  C   UNL A   1      44.211  34.167  25.964  1.00  0.00     0.276 C 
ATOM     87  O   UNL A   1      43.926  33.802  24.825  1.00  0.00    -0.267 OA
BRANCH  86  88
ATOM     88  C   UNL A   1      43.750  35.398  26.581  1.00  0.00     0.170 A 
ATOM     89  C   UNL A   1      42.464  35.704  26.981  1.00  0.00     0.141 A 
ATOM     90  N   UNL A   1      44.559  36.481  26.835  1.00  0.00    -0.125 NA
ATOM     91  N   UNL A   1      42.597  36.907  27.597  1.00  0.00    -0.265 N 
ATOM     92  N   UNL A   1      43.820  37.425  27.407  1.00  0.00    -0.069 NA
ATOM     93  H   UNL A   1      41.885  37.344  28.118  1.00  0.00     0.191 HD
ENDBRANCH  86  88
ENDBRANCH  80  82
ENDBRANCH  75  77
ENDBRANCH  74  75
ENDBRANCH  73  74
ENDBRANCH  72  73
ENDBRANCH  71  72
ENDBRANCH  70  71
ENDBRANCH   1  70
TORSDOF 22
ENDMDL
MODEL 2
REMARK VINA RESULT:      -8.3      5.594      8.122
REMARK SMILES O=C(OCCOCCOCCOC(=O)c1cn(C2CN(C(=O)c3c[nH]nn3)C2)nn1)c1ccc(-c2c3nc(c(-c4ccc(S(=O)(=O)[O-])cc4)c4ccc([nH]4)c(-c4ccc(S(=O)(=O)[O-])cc4)c4nc(c(-c5ccc(S(=O)(=O)[O-])cc5)c5ccc2[nH]5)C=C4)C=C3)cc1
REMARK SMILES IDX 7 1 6 2 5 3 4 4 3 5 2 6 1 7 31 8 32 9 90 10 33 11 89 12
REMARK SMILES IDX 34 13 35 14 36 15 83 16 37 17 88 18 82 19 84 20 38 21 87 22
REMARK SMILES IDX 81 23 80 24 39 26 69 27 50 28 68 29 51 30 54 31 67 32 85 33
REMARK SMILES IDX 52 34 53 35 66 37 86 38 55 39 40 40 41 41 49 42 42 43 48 44
REMARK SMILES IDX 43 45 44 46 45 47 46 48 47 49 70 50 71 51 79 52 72 53 78 54
REMARK SMILES IDX 73 55 74 56 75 57 76 58 77 59 56 60 57 61 65 62 58 63 64 64
REMARK SMILES IDX 59 65 60 66 61 67 62 68 63 69 8 70 9 71 10 72 11 73 12 74
REMARK SMILES IDX 13 75 14 76 15 77 16 78 30 79 17 80 29 81 18 82 19 83 28 84
REMARK SMILES IDX 20 85 21 86 22 87 23 88 24 89 27 90 25 91 26 92
REMARK H PARENT 84 25 54 36 25 93
REMARK Flexibility Score: inf
ROOT
ATOM      1  C   UNL A   1      40.414  21.131  26.943  1.00  0.00     0.188 C 
ENDROOT
BRANCH   1   2
ATOM      2  O   UNL A   1      41.676  21.233  26.271  1.00  0.00    -0.376 OA
BRANCH   2   3
ATOM      3  C   UNL A   1      42.055  22.573  25.944  1.00  0.00     0.202 C 
BRANCH   3   4
ATOM      4  C   UNL A   1      41.711  23.633  27.001  1.00  0.00     0.261 C 
BRANCH   4   5
ATOM      5  O   UNL A   1      40.708  24.555  26.545  1.00  0.00    -0.460 OA
BRANCH   5   6
ATOM      6  C   UNL A   1      40.813  25.904  26.414  1.00  0.00     0.338 C 
ATOM      7  O   UNL A   1      41.106  26.359  25.310  1.00  0.00    -0.246 OA
BRANCH   6   8
ATOM      8  C   UNL A   1      40.562  26.868  27.533  1.00  0.00     0.060 A 
ATOM      9  C   UNL A   1      41.023  28.184  27.576  1.00  0.00     0.016 A 
ATOM     10  C   UNL A   1      39.769  26.421  28.604  1.00  0.00     0.016 A 
ATOM     11  C   UNL A   1      40.845  28.980  28.703  1.00  0.00     0.010 A 
ATOM     12  C   UNL A   1      39.519  27.243  29.711  1.00  0.00     0.010 A 
ATOM     13  C   UNL A   1      40.104  28.513  29.786  1.00  0.00    -0.014 A 
BRANCH  13  14
ATOM     14  C   UNL A   1      40.082  29.314  31.030  1.00  0.00     0.031 A 
ATOM     15  C   UNL A   1      41.194  29.131  32.023  1.00  0.00     0.074 A 
ATOM     16  C   UNL A   1      39.177  30.296  31.203  1.00  0.00     0.049 A 
ATOM     17  N   UNL A   1      41.363  29.698  33.188  1.00  0.00    -0.248 NA
ATOM     18  C   UNL A   1      42.278  28.210  31.637  1.00  0.00     0.031 C 
ATOM     19  C   UNL A   1      38.151  30.690  30.234  1.00  0.00     0.029 A 
ATOM     20  N   UNL A   1      39.001  31.171  32.245  1.00  0.00    -0.354 N 
ATOM     21  C   UNL A   1      42.569  29.206  33.672  1.00  0.00     0.074 A 
ATOM     22  C   UNL A   1      43.074  28.271  32.693  1.00  0.00     0.031 C 
ATOM     23  C   UNL A   1      37.468  31.736  30.727  1.00  0.00     0.029 A 
ATOM     24  C   UNL A   1      37.933  32.018  32.074  1.00  0.00     0.049 A 
ATOM     25  H   UNL A   1      39.583  31.190  33.038  1.00  0.00     0.167 HD
ATOM     26  C   UNL A   1      43.204  29.516  34.826  1.00  0.00     0.031 A 
ATOM     27  C   UNL A   1      37.360  32.883  32.929  1.00  0.00     0.031 A 
ATOM     28  C   UNL A   1      42.685  30.433  35.803  1.00  0.00     0.049 A 
ATOM     29  C   UNL A   1      37.964  33.056  34.287  1.00  0.00     0.074 A 
ATOM     30  C   UNL A   1      43.218  30.785  37.030  1.00  0.00     0.029 A 
ATOM     31  N   UNL A   1      41.502  31.143  35.660  1.00  0.00    -0.354 N 
ATOM     32  N   UNL A   1      39.039  32.496  34.783  1.00  0.00    -0.248 NA
ATOM     33  C   UNL A   1      37.278  33.982  35.197  1.00  0.00     0.031 C 
ATOM     34  C   UNL A   1      42.331  31.673  37.649  1.00  0.00     0.029 A 
ATOM     35  C   UNL A   1      41.275  31.913  36.786  1.00  0.00     0.049 A 
ATOM     36  H   UNL A   1      40.913  31.105  34.872  1.00  0.00     0.167 HD
ATOM     37  C   UNL A   1      39.174  33.019  36.060  1.00  0.00     0.074 A 
ATOM     38  C   UNL A   1      38.066  33.932  36.262  1.00  0.00     0.031 C 
ATOM     39  C   UNL A   1      40.144  32.782  36.974  1.00  0.00     0.031 A 
BRANCH  26  40
ATOM     40  C   UNL A   1      44.495  28.799  35.106  1.00  0.00    -0.014 A 
ATOM     41  C   UNL A   1      44.507  27.480  35.595  1.00  0.00     0.010 A 
ATOM     42  C   UNL A   1      45.713  29.469  34.901  1.00  0.00     0.010 A 
ATOM     43  C   UNL A   1      45.717  26.860  35.918  1.00  0.00     0.020 A 
ATOM     44  C   UNL A   1      46.926  28.845  35.202  1.00  0.00     0.020 A 
ATOM     45  C   UNL A   1      46.919  27.551  35.729  1.00  0.00     0.054 A 
BRANCH  45  46
ATOM     46  S   UNL A   1      48.477  26.734  36.170  1.00  0.00     0.124 S 
ATOM     47  O   UNL A   1      48.243  26.379  37.568  1.00  0.00    -0.237 OA
ATOM     48  O   UNL A   1      48.525  25.611  35.238  1.00  0.00    -0.237 OA
ATOM     49  O   UNL A   1      49.485  27.767  35.950  1.00  0.00    -0.744 OA
ENDBRANCH  45  46
ENDBRANCH  26  40
BRANCH  27  50
ATOM     50  C   UNL A   1      36.068  33.539  32.608  1.00  0.00    -0.014 A 
ATOM     51  C   UNL A   1      35.945  34.469  31.564  1.00  0.00     0.010 A 
ATOM     52  C   UNL A   1      34.965  33.292  33.446  1.00  0.00     0.010 A 
ATOM     53  C   UNL A   1      34.745  35.171  31.388  1.00  0.00     0.020 A 
ATOM     54  C   UNL A   1      33.767  33.981  33.266  1.00  0.00     0.020 A 
ATOM     55  C   UNL A   1      33.671  34.936  32.254  1.00  0.00     0.054 A 
BRANCH  55  56
ATOM     56  S   UNL A   1      32.145  35.903  32.077  1.00  0.00     0.124 S 
ATOM     57  O   UNL A   1      32.424  37.057  32.925  1.00  0.00    -0.237 OA
ATOM     58  O   UNL A   1      32.095  36.168  30.644  1.00  0.00    -0.237 OA
ATOM     59  O   UNL A   1      31.117  34.994  32.583  1.00  0.00    -0.744 OA
ENDBRANCH  55  56
ENDBRANCH  27  50
BRANCH  39  60
ATOM     60  C   UNL A   1      40.052  33.550  38.258  1.00  0.00    -0.014 A 
ATOM     61  C   UNL A   1      39.199  33.135  39.293  1.00  0.00     0.010 A 
ATOM     62  C   UNL A   1      40.851  34.695  38.429  1.00  0.00     0.010 A 
ATOM     63  C   UNL A   1      39.126  33.872  40.476  1.00  0.00     0.020 A 
ATOM     64  C   UNL A   1      40.798  35.419  39.619  1.00  0.00     0.020 A 
ATOM     65  C   UNL A   1      39.926  35.010  40.630  1.00  0.00     0.054 A 
BRANCH  65  66
ATOM     66  S   UNL A   1      39.852  35.927  42.192  1.00  0.00     0.124 S 
ATOM     67  O   UNL A   1      38.513  35.601  42.671  1.00  0.00    -0.237 OA
ATOM     68  O   UNL A   1      40.953  35.346  42.958  1.00  0.00    -0.237 OA
ATOM     69  O   UNL A   1      40.051  37.316  41.785  1.00  0.00    -0.744 OA
ENDBRANCH  65  66
ENDBRANCH  39  60
ENDBRANCH  13  14
ENDBRANCH   6   8
ENDBRANCH   5   6
ENDBRANCH   4   5
ENDBRANCH   3   4
ENDBRANCH   2   3
ENDBRANCH   1   2
BRANCH   1  70
ATOM     70  C   UNL A   1      39.243  21.449  26.008  1.00  0.00     0.188 C 
BRANCH  70  71
ATOM     71  O   UNL A   1      38.621  20.314  25.392  1.00  0.00    -0.376 OA
BRANCH  71  72
ATOM     72  C   UNL A   1      37.323  20.517  24.836  1.00  0.00     0.202 C 
BRANCH  72  73
ATOM     73  C   UNL A   1      36.470  21.603  25.499  1.00  0.00     0.261 C 
BRANCH  73  74
ATOM     74  O   UNL A   1      35.068  21.444  25.247  1.00  0.00    -0.458 OA
BRANCH  74  75
ATOM     75  C   UNL A   1      34.533  22.324  24.350  1.00  0.00     0.360 C 
ATOM     76  O   UNL A   1      35.111  22.729  23.349  1.00  0.00    -0.244 OA
BRANCH  75  77
ATOM     77  C   UNL A   1      33.194  22.761  24.700  1.00  0.00     0.190 A 
ATOM     78  C   UNL A   1      32.813  24.064  24.943  1.00  0.00     0.147 A 
ATOM     79  N   UNL A   1      32.087  21.952  24.797  1.00  0.00    -0.123 NA
ATOM     80  N   UNL A   1      31.469  23.993  25.161  1.00  0.00    -0.245 N 
ATOM     81  N   UNL A   1      31.033  22.722  25.055  1.00  0.00    -0.066 NA
BRANCH  80  82
ATOM     82  C   UNL A   1      30.586  25.079  25.488  1.00  0.00     0.148 C 
ATOM     83  C   UNL A   1      31.355  26.335  25.901  1.00  0.00     0.149 C 
ATOM     84  C   UNL A   1      30.090  25.861  24.265  1.00  0.00     0.149 C 
ATOM     85  N   UNL A   1      30.742  27.062  24.799  1.00  0.00    -0.333 N 
ATOM     86  C   UNL A   1      31.447  27.915  23.955  1.00  0.00     0.276 C 
ATOM     87  O   UNL A   1      32.649  27.763  23.748  1.00  0.00    -0.267 OA
BRANCH  86  88
ATOM     88  C   UNL A   1      30.596  28.862  23.259  1.00  0.00     0.170 A 
ATOM     89  C   UNL A   1      30.054  30.029  23.762  1.00  0.00     0.141 A 
ATOM     90  N   UNL A   1      30.172  28.706  21.959  1.00  0.00    -0.125 NA
ATOM     91  N   UNL A   1      29.451  30.593  22.683  1.00  0.00    -0.265 N 
ATOM     92  N   UNL A   1      29.419  29.752  21.640  1.00  0.00    -0.069 NA
ATOM     93  H   UNL A   1      29.084  31.507  22.670  1.00  0.00     0.191 HD
ENDBRANCH  86  88
ENDBRANCH  80  82
ENDBRANCH  75  77
ENDBRANCH  74  75
ENDBRANCH  73  74
ENDBRANCH  72  73
ENDBRANCH  71  72
ENDBRANCH  70  71
ENDBRANCH   1  70
TORSDOF 22
ENDMDL
MODEL 3
REMARK VINA RESULT:      -8.3      4.679     11.952
REMARK SMILES O=C(OCCOCCOCCOC(=O)c1cn(C2CN(C(=O)c3c[nH]nn3)C2)nn1)c1ccc(-c2c3nc(c(-c4ccc(S(=O)(=O)[O-])cc4)c4ccc([nH]4)c(-c4ccc(S(=O)(=O)[O-])cc4)c4nc(c(-c5ccc(S(=O)(=O)[O-])cc5)c5ccc2[nH]5)C=C4)C=C3)cc1
REMARK SMILES IDX 7 1 6 2 5 3 4 4 3 5 2 6 1 7 31 8 32 9 90 10 33 11 89 12
REMARK SMILES IDX 34 13 35 14 36 15 83 16 37 17 88 18 82 19 84 20 38 21 87 22
REMARK SMILES IDX 81 23 80 24 39 26 69 27 50 28 68 29 51 30 54 31 67 32 85 33
REMARK SMILES IDX 52 34 53 35 66 37 86 38 55 39 40 40 41 41 49 42 42 43 48 44
REMARK SMILES IDX 43 45 44 46 45 47 46 48 47 49 70 50 71 51 79 52 72 53 78 54
REMARK SMILES IDX 73 55 74 56 75 57 76 58 77 59 56 60 57 61 65 62 58 63 64 64
REMARK SMILES IDX 59 65 60 66 61 67 62 68 63 69 8 70 9 71 10 72 11 73 12 74
REMARK SMILES IDX 13 75 14 76 15 77 16 78 30 79 17 80 29 81 18 82 19 83 28 84
REMARK SMILES IDX 20 85 21 86 22 87 23 88 24 89 27 90 25 91 26 92
REMARK H PARENT 84 25 54 36 25 93
REMARK Flexibility Score: inf
ROOT
ATOM      1  C   UNL A   1      33.117  35.397  32.306  1.00  0.00     0.188 C 
ENDROOT
BRANCH   1   2
ATOM      2  O   UNL A   1      34.448  35.037  32.697  1.00  0.00    -0.376 OA
BRANCH   2   3
ATOM      3  C   UNL A   1      35.101  34.143  31.790  1.00  0.00     0.202 C 
BRANCH   3   4
ATOM      4  C   UNL A   1      35.924  33.023  32.445  1.00  0.00     0.261 C 
BRANCH   4   5
ATOM      5  O   UNL A   1      36.625  32.223  31.479  1.00  0.00    -0.460 OA
BRANCH   5   6
ATOM      6  C   UNL A   1      37.009  30.925  31.594  1.00  0.00     0.338 C 
ATOM      7  O   UNL A   1      36.272  30.153  32.204  1.00  0.00    -0.246 OA
BRANCH   6   8
ATOM      8  C   UNL A   1      38.265  30.375  30.991  1.00  0.00     0.060 A 
ATOM      9  C   UNL A   1      39.198  29.585  31.663  1.00  0.00     0.016 A 
ATOM     10  C   UNL A   1      38.501  30.647  29.632  1.00  0.00     0.016 A 
ATOM     11  C   UNL A   1      40.398  29.210  31.066  1.00  0.00     0.010 A 
ATOM     12  C   UNL A   1      39.672  30.207  29.000  1.00  0.00     0.010 A 
ATOM     13  C   UNL A   1      40.652  29.529  29.734  1.00  0.00    -0.014 A 
BRANCH  13  14
ATOM     14  C   UNL A   1      42.001  29.267  29.187  1.00  0.00     0.031 A 
ATOM     15  C   UNL A   1      42.316  27.891  28.673  1.00  0.00     0.074 A 
ATOM     16  C   UNL A   1      42.880  30.272  29.005  1.00  0.00     0.049 A 
ATOM     17  N   UNL A   1      43.434  27.427  28.183  1.00  0.00    -0.248 NA
ATOM     18  C   UNL A   1      41.212  26.915  28.684  1.00  0.00     0.031 C 
ATOM     19  C   UNL A   1      42.631  31.686  29.301  1.00  0.00     0.029 A 
ATOM     20  N   UNL A   1      44.150  30.262  28.488  1.00  0.00    -0.354 N 
ATOM     21  C   UNL A   1      43.170  26.111  27.826  1.00  0.00     0.074 A 
ATOM     22  C   UNL A   1      41.797  25.837  28.185  1.00  0.00     0.031 C 
ATOM     23  C   UNL A   1      43.711  32.399  28.945  1.00  0.00     0.029 A 
ATOM     24  C   UNL A   1      44.755  31.495  28.498  1.00  0.00     0.049 A 
ATOM     25  H   UNL A   1      44.587  29.449  28.144  1.00  0.00     0.167 HD
ATOM     26  C   UNL A   1      43.996  25.213  27.241  1.00  0.00     0.031 A 
ATOM     27  C   UNL A   1      46.025  31.846  28.230  1.00  0.00     0.031 A 
ATOM     28  C   UNL A   1      45.365  25.488  26.905  1.00  0.00     0.049 A 
ATOM     29  C   UNL A   1      46.982  30.788  27.780  1.00  0.00     0.074 A 
ATOM     30  C   UNL A   1      46.309  24.639  26.354  1.00  0.00     0.029 A 
ATOM     31  N   UNL A   1      45.988  26.713  27.094  1.00  0.00    -0.354 N 
ATOM     32  N   UNL A   1      46.754  29.517  27.558  1.00  0.00    -0.248 NA
ATOM     33  C   UNL A   1      48.367  31.215  27.539  1.00  0.00     0.031 C 
ATOM     34  C   UNL A   1      47.517  25.339  26.256  1.00  0.00     0.029 A 
ATOM     35  C   UNL A   1      47.310  26.637  26.695  1.00  0.00     0.049 A 
ATOM     36  H   UNL A   1      45.552  27.517  27.458  1.00  0.00     0.167 HD
ATOM     37  C   UNL A   1      47.963  28.992  27.129  1.00  0.00     0.074 A 
ATOM     38  C   UNL A   1      48.921  30.080  27.131  1.00  0.00     0.031 C 
ATOM     39  C   UNL A   1      48.249  27.726  26.744  1.00  0.00     0.031 A 
BRANCH  26  40
ATOM     40  C   UNL A   1      43.442  23.838  26.995  1.00  0.00    -0.014 A 
ATOM     41  C   UNL A   1      43.023  23.437  25.713  1.00  0.00     0.010 A 
ATOM     42  C   UNL A   1      43.316  22.943  28.072  1.00  0.00     0.010 A 
ATOM     43  C   UNL A   1      42.442  22.180  25.523  1.00  0.00     0.020 A 
ATOM     44  C   UNL A   1      42.755  21.678  27.882  1.00  0.00     0.020 A 
ATOM     45  C   UNL A   1      42.303  21.312  26.612  1.00  0.00     0.054 A 
BRANCH  45  46
ATOM     46  S   UNL A   1      41.532  19.693  26.345  1.00  0.00     0.124 S 
ATOM     47  O   UNL A   1      41.583  19.112  27.685  1.00  0.00    -0.237 OA
ATOM     48  O   UNL A   1      40.199  20.047  25.866  1.00  0.00    -0.237 OA
ATOM     49  O   UNL A   1      42.398  19.056  25.357  1.00  0.00    -0.744 OA
ENDBRANCH  45  46
ENDBRANCH  26  40
BRANCH  27  50
ATOM     50  C   UNL A   1      46.523  33.214  28.521  1.00  0.00    -0.014 A 
ATOM     51  C   UNL A   1      46.943  33.595  29.805  1.00  0.00     0.010 A 
ATOM     52  C   UNL A   1      46.471  34.177  27.497  1.00  0.00     0.010 A 
ATOM     53  C   UNL A   1      47.269  34.932  30.068  1.00  0.00     0.020 A 
ATOM     54  C   UNL A   1      46.804  35.506  27.753  1.00  0.00     0.020 A 
ATOM     55  C   UNL A   1      47.176  35.882  29.044  1.00  0.00     0.054 A 
BRANCH  55  56
ATOM     56  S   UNL A   1      47.520  37.628  29.404  1.00  0.00     0.124 S 
ATOM     57  O   UNL A   1      46.653  38.305  28.446  1.00  0.00    -0.237 OA
ATOM     58  O   UNL A   1      47.135  37.750  30.805  1.00  0.00    -0.237 OA
ATOM     59  O   UNL A   1      48.953  37.745  29.135  1.00  0.00    -0.744 OA
ENDBRANCH  55  56
ENDBRANCH  27  50
BRANCH  39  60
ATOM     60  C   UNL A   1      49.647  27.472  26.269  1.00  0.00    -0.014 A 
ATOM     61  C   UNL A   1      49.964  27.491  24.901  1.00  0.00     0.010 A 
ATOM     62  C   UNL A   1      50.658  27.229  27.215  1.00  0.00     0.010 A 
ATOM     63  C   UNL A   1      51.273  27.245  24.483  1.00  0.00     0.020 A 
ATOM     64  C   UNL A   1      51.971  27.006  26.802  1.00  0.00     0.020 A 
ATOM     65  C   UNL A   1      52.267  27.004  25.438  1.00  0.00     0.054 A 
BRANCH  65  66
ATOM     66  S   UNL A   1      53.969  26.732  24.878  1.00  0.00     0.124 S 
ATOM     67  O   UNL A   1      54.726  26.913  26.113  1.00  0.00    -0.237 OA
ATOM     68  O   UNL A   1      53.923  25.365  24.363  1.00  0.00    -0.237 OA
ATOM     69  O   UNL A   1      54.168  27.765  23.865  1.00  0.00    -0.744 OA
ENDBRANCH  65  66
ENDBRANCH  39  60
ENDBRANCH  13  14
ENDBRANCH   6   8
ENDBRANCH   5   6
ENDBRANCH   4   5
ENDBRANCH   3   4
ENDBRANCH   2   3
ENDBRANCH   1   2
BRANCH   1  70
ATOM     70  C   UNL A   1      33.115  36.402  31.149  1.00  0.00     0.188 C 
BRANCH  70  71
ATOM     71  O   UNL A   1      32.366  36.007  29.993  1.00  0.00    -0.376 OA
BRANCH  71  72
ATOM     72  C   UNL A   1      33.063  36.004  28.748  1.00  0.00     0.202 C 
BRANCH  72  73
ATOM     73  C   UNL A   1      34.073  34.870  28.546  1.00  0.00     0.261 C 
BRANCH  73  74
ATOM     74  O   UNL A   1      33.518  33.743  27.856  1.00  0.00    -0.458 OA
BRANCH  74  75
ATOM     75  C   UNL A   1      34.184  32.564  28.035  1.00  0.00     0.360 C 
ATOM     76  O   UNL A   1      35.273  32.461  28.587  1.00  0.00    -0.244 OA
BRANCH  75  77
ATOM     77  C   UNL A   1      33.483  31.417  27.489  1.00  0.00     0.190 A 
ATOM     78  C   UNL A   1      33.931  30.113  27.520  1.00  0.00     0.147 A 
ATOM     79  N   UNL A   1      32.242  31.443  26.899  1.00  0.00    -0.123 NA
ATOM     80  N   UNL A   1      32.921  29.390  26.957  1.00  0.00    -0.245 N 
ATOM     81  N   UNL A   1      31.899  30.192  26.600  1.00  0.00    -0.066 NA
BRANCH  80  82
ATOM     82  C   UNL A   1      32.897  27.972  26.724  1.00  0.00     0.148 C 
ATOM     83  C   UNL A   1      31.549  27.507  26.172  1.00  0.00     0.149 C 
ATOM     84  C   UNL A   1      33.518  27.554  25.385  1.00  0.00     0.149 C 
ATOM     85  N   UNL A   1      32.219  27.006  24.981  1.00  0.00    -0.333 N 
ATOM     86  C   UNL A   1      31.741  27.206  23.690  1.00  0.00     0.276 C 
ATOM     87  O   UNL A   1      31.041  28.177  23.407  1.00  0.00    -0.267 OA
BRANCH  86  88
ATOM     88  C   UNL A   1      32.277  26.260  22.728  1.00  0.00     0.170 A 
ATOM     89  C   UNL A   1      32.182  24.882  22.767  1.00  0.00     0.141 A 
ATOM     90  N   UNL A   1      33.007  26.619  21.619  1.00  0.00    -0.125 NA
ATOM     91  N   UNL A   1      32.736  24.490  21.590  1.00  0.00    -0.265 N 
ATOM     92  N   UNL A   1      33.333  25.513  20.961  1.00  0.00    -0.069 NA
ATOM     93  H   UNL A   1      32.702  23.569  21.242  1.00  0.00     0.191 HD
ENDBRANCH  86  88
ENDBRANCH  80  82
ENDBRANCH  75  77
ENDBRANCH  74  75
ENDBRANCH  73  74
ENDBRANCH  72  73
ENDBRANCH  71  72
ENDBRANCH  70  71
ENDBRANCH   1  70
TORSDOF 22
ENDMDL
