MODEL 1
REMARK VINA RESULT:     -11.6      0.000      0.000
REMARK SMILES O=C(OCCOCCOCCOC(=O)c1ccc(-c2c3nc(c(-c4ccc(S(=O)(=O)[O-])cc4)c4ccc([nH]4)c(-c4ccc(S(=O)(=O)[O-])cc4)c4nc(c(-c5ccc(S(=O)(=O)[O-])cc5)c5ccc2[nH]5)C=C4)C=C3)cc1)C1=Cc2ccc(Cl)c(Cl)c2O[C@@H]1C(F)(F)F
REMARK SMILES IDX 8 1 7 2 6 3 5 4 4 5 3 6 2 7 1 8 75 9 76 10 86 11 77 12 85 13
REMARK SMILES IDX 78 14 84 15 79 16 82 17 80 18 83 19 81 20 87 21 88 22 89 23
REMARK SMILES IDX 90 24 9 25 10 26 11 27 12 28 13 29 14 30 15 31 16 32 74 33
REMARK SMILES IDX 17 34 73 35 18 36 19 37 20 38 67 39 21 40 72 41 66 42 68 43
REMARK SMILES IDX 22 44 71 45 65 46 64 47 23 49 53 50 34 51 52 52 35 53 38 54
REMARK SMILES IDX 51 55 69 56 36 57 37 58 50 60 70 61 39 62 24 63 25 64 33 65
REMARK SMILES IDX 26 66 32 67 27 68 28 69 29 70 30 71 31 72 54 73 55 74 63 75
REMARK SMILES IDX 56 76 62 77 57 78 58 79 59 80 60 81 61 82 40 83 41 84 49 85
REMARK SMILES IDX 42 86 48 87 43 88 44 89 45 90 46 91 47 92
REMARK H PARENT 68 48 38 59
REMARK Flexibility Score: inf
ROOT
ATOM      1  C   UNL A   1      33.951  35.014  30.091  1.00  0.00     0.188 C 
ENDROOT
BRANCH   1   2
ATOM      2  C   UNL A   1      33.181  34.818  28.776  1.00  0.00     0.188 C 
BRANCH   2   3
ATOM      3  O   UNL A   1      33.626  33.815  27.760  1.00  0.00    -0.376 OA
BRANCH   3   4
ATOM      4  C   UNL A   1      34.071  32.162  28.024  1.00  0.00     0.202 C 
BRANCH   4   5
ATOM      5  C   UNL A   1      33.018  30.469  27.156  1.00  0.00     0.261 C 
BRANCH   5   6
ATOM      6  O   UNL A   1      33.322  29.004  27.393  1.00  0.00    -0.460 OA
BRANCH   6   7
ATOM      7  C   UNL A   1      32.251  28.229  27.157  1.00  0.00     0.338 C 
ATOM      8  O   UNL A   1      31.522  27.726  27.976  1.00  0.00    -0.246 OA
BRANCH   7   9
ATOM      9  C   UNL A   1      32.649  27.783  25.827  1.00  0.00     0.087 C 
ATOM     10  C   UNL A   1      33.883  27.015  25.723  1.00  0.00     0.027 C 
ATOM     11  C   UNL A   1      30.900  27.100  25.451  1.00  0.00     0.316 C 
ATOM     12  C   UNL A   1      33.945  25.228  25.538  1.00  0.00     0.019 A 
ATOM     13  O   UNL A   1      30.910  25.145  25.446  1.00  0.00    -0.474 OA
ATOM     14  C   UNL A   1      35.160  24.603  25.537  1.00  0.00     0.013 A 
ATOM     15  C   UNL A   1      32.513  24.253  25.466  1.00  0.00     0.148 A 
ATOM     16  C   UNL A   1      35.103  23.202  25.435  1.00  0.00     0.023 A 
ATOM     17  C   UNL A   1      32.550  22.882  25.402  1.00  0.00     0.102 A 
ATOM     18  C   UNL A   1      33.884  22.389  25.371  1.00  0.00     0.063 A 
ATOM     19  Cl  UNL A   1      31.168  21.888  25.438  1.00  0.00    -0.079 Cl
ATOM     20  Cl  UNL A   1      34.189  20.674  25.254  1.00  0.00    -0.083 Cl
BRANCH  11  21
ATOM     21  C   UNL A   1      30.638  28.228  24.213  1.00  0.00     0.430 C 
ATOM     22  F   UNL A   1      30.646  29.543  24.469  1.00  0.00    -0.167 F 
ATOM     23  F   UNL A   1      31.502  28.005  23.196  1.00  0.00    -0.167 F 
ATOM     24  F   UNL A   1      29.392  28.051  23.667  1.00  0.00    -0.167 F 
ENDBRANCH  11  21
ENDBRANCH   7   9
ENDBRANCH   6   7
ENDBRANCH   5   6
ENDBRANCH   4   5
ENDBRANCH   3   4
ENDBRANCH   2   3
ENDBRANCH   1   2
BRANCH   1  25
ATOM     25  O   UNL A   1      33.947  33.975  31.040  1.00  0.00    -0.376 OA
BRANCH  25  26
ATOM     26  C   UNL A   1      35.225  33.597  31.532  1.00  0.00     0.202 C 
BRANCH  26  27
ATOM     27  C   UNL A   1      35.519  32.095  31.681  1.00  0.00     0.261 C 
BRANCH  27  28
ATOM     28  O   UNL A   1      36.914  31.769  31.876  1.00  0.00    -0.460 OA
BRANCH  28  29
ATOM     29  C   UNL A   1      37.224  30.475  32.155  1.00  0.00     0.338 C 
ATOM     30  O   UNL A   1      36.588  29.697  32.843  1.00  0.00    -0.246 OA
BRANCH  29  31
ATOM     31  C   UNL A   1      38.421  30.084  31.380  1.00  0.00     0.060 A 
ATOM     32  C   UNL A   1      39.535  29.520  32.022  1.00  0.00     0.016 A 
ATOM     33  C   UNL A   1      38.445  30.313  30.006  1.00  0.00     0.016 A 
ATOM     34  C   UNL A   1      40.652  29.124  31.274  1.00  0.00     0.010 A 
ATOM     35  C   UNL A   1      39.580  29.965  29.270  1.00  0.00     0.010 A 
ATOM     36  C   UNL A   1      40.688  29.364  29.894  1.00  0.00    -0.014 A 
BRANCH  36  37
ATOM     37  C   UNL A   1      41.930  29.159  29.106  1.00  0.00     0.031 A 
ATOM     38  C   UNL A   1      42.173  27.799  28.514  1.00  0.00     0.074 A 
ATOM     39  C   UNL A   1      42.862  30.125  28.993  1.00  0.00     0.049 A 
ATOM     40  N   UNL A   1      43.245  27.330  27.935  1.00  0.00    -0.248 NA
ATOM     41  C   UNL A   1      41.061  26.836  28.601  1.00  0.00     0.031 C 
ATOM     42  C   UNL A   1      42.727  31.489  29.498  1.00  0.00     0.029 A 
ATOM     43  N   UNL A   1      44.121  30.098  28.439  1.00  0.00    -0.354 N 
ATOM     44  C   UNL A   1      42.953  26.009  27.621  1.00  0.00     0.074 A 
ATOM     45  C   UNL A   1      41.602  25.752  28.065  1.00  0.00     0.031 C 
ATOM     46  C   UNL A   1      43.864  32.164  29.249  1.00  0.00     0.029 A 
ATOM     47  C   UNL A   1      44.830  31.267  28.617  1.00  0.00     0.049 A 
ATOM     48  H   UNL A   1      44.481  29.318  27.960  1.00  0.00     0.167 HD
ATOM     49  C   UNL A   1      43.752  25.089  27.034  1.00  0.00     0.031 A 
ATOM     50  C   UNL A   1      46.121  31.560  28.349  1.00  0.00     0.031 A 
ATOM     51  C   UNL A   1      45.103  25.349  26.612  1.00  0.00     0.049 A 
ATOM     52  C   UNL A   1      47.005  30.490  27.748  1.00  0.00     0.074 A 
ATOM     53  C   UNL A   1      45.975  24.490  25.967  1.00  0.00     0.029 A 
ATOM     54  N   UNL A   1      45.784  26.539  26.812  1.00  0.00    -0.354 N 
ATOM     55  N   UNL A   1      46.694  29.266  27.392  1.00  0.00    -0.248 NA
ATOM     56  C   UNL A   1      48.418  30.836  27.522  1.00  0.00     0.031 C 
ATOM     57  C   UNL A   1      47.212  25.129  25.859  1.00  0.00     0.029 A 
ATOM     58  C   UNL A   1      47.084  26.417  26.353  1.00  0.00     0.049 A 
ATOM     59  H   UNL A   1      45.400  27.348  27.221  1.00  0.00     0.167 HD
ATOM     60  C   UNL A   1      47.864  28.708  26.883  1.00  0.00     0.074 A 
ATOM     61  C   UNL A   1      48.881  29.735  26.946  1.00  0.00     0.031 C 
ATOM     62  C   UNL A   1      48.082  27.454  26.416  1.00  0.00     0.031 A 
BRANCH  49  63
ATOM     63  C   UNL A   1      43.219  23.692  26.859  1.00  0.00    -0.014 A 
ATOM     64  C   UNL A   1      42.727  23.242  25.623  1.00  0.00     0.010 A 
ATOM     65  C   UNL A   1      43.314  22.787  27.933  1.00  0.00     0.010 A 
ATOM     66  C   UNL A   1      42.337  21.908  25.465  1.00  0.00     0.020 A 
ATOM     67  C   UNL A   1      42.954  21.448  27.770  1.00  0.00     0.020 A 
ATOM     68  C   UNL A   1      42.466  21.018  26.536  1.00  0.00     0.054 A 
BRANCH  68  69
ATOM     69  S   UNL A   1      42.042  19.275  26.271  1.00  0.00     0.124 S 
ATOM     70  O   UNL A   1      42.230  18.712  27.606  1.00  0.00    -0.237 OA
ATOM     71  O   UNL A   1      40.658  19.353  25.810  1.00  0.00    -0.237 OA
ATOM     72  O   UNL A   1      43.006  18.830  25.268  1.00  0.00    -0.744 OA
ENDBRANCH  68  69
ENDBRANCH  49  63
BRANCH  50  73
ATOM     73  C   UNL A   1      46.697  32.892  28.712  1.00  0.00    -0.014 A 
ATOM     74  C   UNL A   1      47.359  33.090  29.938  1.00  0.00     0.010 A 
ATOM     75  C   UNL A   1      46.527  33.993  27.853  1.00  0.00     0.010 A 
ATOM     76  C   UNL A   1      47.799  34.366  30.314  1.00  0.00     0.020 A 
ATOM     77  C   UNL A   1      47.003  35.260  28.203  1.00  0.00     0.020 A 
ATOM     78  C   UNL A   1      47.618  35.443  29.442  1.00  0.00     0.054 A 
BRANCH  78  79
ATOM     79  S   UNL A   1      48.208  37.087  29.938  1.00  0.00     0.124 S 
ATOM     80  O   UNL A   1      49.583  37.078  29.448  1.00  0.00    -0.237 OA
ATOM     81  O   UNL A   1      47.291  37.976  29.232  1.00  0.00    -0.237 OA
ATOM     82  O   UNL A   1      48.061  37.080  31.392  1.00  0.00    -0.744 OA
ENDBRANCH  78  79
ENDBRANCH  50  73
BRANCH  62  83
ATOM     83  C   UNL A   1      49.462  27.120  25.905  1.00  0.00    -0.014 A 
ATOM     84  C   UNL A   1      50.400  26.459  26.717  1.00  0.00     0.010 A 
ATOM     85  C   UNL A   1      49.789  27.394  24.564  1.00  0.00     0.010 A 
ATOM     86  C   UNL A   1      51.648  26.095  26.203  1.00  0.00     0.020 A 
ATOM     87  C   UNL A   1      51.021  27.000  24.036  1.00  0.00     0.020 A 
ATOM     88  C   UNL A   1      51.947  26.360  24.862  1.00  0.00     0.054 A 
BRANCH  88  89
ATOM     89  S   UNL A   1      53.544  25.810  24.203  1.00  0.00     0.124 S 
ATOM     90  O   UNL A   1      53.329  25.904  22.762  1.00  0.00    -0.237 OA
ATOM     91  O   UNL A   1      54.473  26.786  24.766  1.00  0.00    -0.237 OA
ATOM     92  O   UNL A   1      53.686  24.452  24.722  1.00  0.00    -0.744 OA
ENDBRANCH  88  89
ENDBRANCH  62  83
ENDBRANCH  36  37
ENDBRANCH  29  31
ENDBRANCH  28  29
ENDBRANCH  27  28
ENDBRANCH  26  27
ENDBRANCH  25  26
ENDBRANCH   1  25
TORSDOF 21
ENDMDL
MODEL 2
REMARK VINA RESULT:     -11.3      5.928     12.236
REMARK SMILES O=C(OCCOCCOCCOC(=O)c1ccc(-c2c3nc(c(-c4ccc(S(=O)(=O)[O-])cc4)c4ccc([nH]4)c(-c4ccc(S(=O)(=O)[O-])cc4)c4nc(c(-c5ccc(S(=O)(=O)[O-])cc5)c5ccc2[nH]5)C=C4)C=C3)cc1)C1=Cc2ccc(Cl)c(Cl)c2O[C@@H]1C(F)(F)F
REMARK SMILES IDX 8 1 7 2 6 3 5 4 4 5 3 6 2 7 1 8 75 9 76 10 86 11 77 12 85 13
REMARK SMILES IDX 78 14 84 15 79 16 82 17 80 18 83 19 81 20 87 21 88 22 89 23
REMARK SMILES IDX 90 24 9 25 10 26 11 27 12 28 13 29 14 30 15 31 16 32 74 33
REMARK SMILES IDX 17 34 73 35 18 36 19 37 20 38 67 39 21 40 72 41 66 42 68 43
REMARK SMILES IDX 22 44 71 45 65 46 64 47 23 49 53 50 34 51 52 52 35 53 38 54
REMARK SMILES IDX 51 55 69 56 36 57 37 58 50 60 70 61 39 62 24 63 25 64 33 65
REMARK SMILES IDX 26 66 32 67 27 68 28 69 29 70 30 71 31 72 54 73 55 74 63 75
REMARK SMILES IDX 56 76 62 77 57 78 58 79 59 80 60 81 61 82 40 83 41 84 49 85
REMARK SMILES IDX 42 86 48 87 43 88 44 89 45 90 46 91 47 92
REMARK H PARENT 68 48 38 59
REMARK Flexibility Score: inf
ROOT
ATOM      1  C   UNL A   1      41.913  22.065  25.929  1.00  0.00     0.188 C 
ENDROOT
BRANCH   1   2
ATOM      2  C   UNL A   1      41.085  20.965  26.610  1.00  0.00     0.188 C 
BRANCH   2   3
ATOM      3  O   UNL A   1      40.388  19.912  25.810  1.00  0.00    -0.376 OA
BRANCH   3   4
ATOM      4  C   UNL A   1      38.688  19.750  25.518  1.00  0.00     0.202 C 
BRANCH   4   5
ATOM      5  C   UNL A   1      37.376  21.416  25.041  1.00  0.00     0.261 C 
BRANCH   5   6
ATOM      6  O   UNL A   1      36.124  21.358  24.189  1.00  0.00    -0.460 OA
BRANCH   6   7
ATOM      7  C   UNL A   1      35.769  22.574  23.742  1.00  0.00     0.338 C 
ATOM      8  O   UNL A   1      36.472  23.375  23.178  1.00  0.00    -0.246 OA
BRANCH   7   9
ATOM      9  C   UNL A   1      34.627  22.759  24.629  1.00  0.00     0.087 C 
ATOM     10  C   UNL A   1      34.666  23.896  25.538  1.00  0.00     0.027 C 
ATOM     11  C   UNL A   1      33.381  22.552  23.189  1.00  0.00     0.316 C 
ATOM     12  C   UNL A   1      33.772  25.432  25.270  1.00  0.00     0.019 A 
ATOM     13  O   UNL A   1      32.545  24.264  22.749  1.00  0.00    -0.474 OA
ATOM     14  C   UNL A   1      33.951  26.465  26.146  1.00  0.00     0.013 A 
ATOM     15  C   UNL A   1      32.770  25.692  23.880  1.00  0.00     0.148 A 
ATOM     16  C   UNL A   1      33.248  27.640  25.826  1.00  0.00     0.023 A 
ATOM     17  C   UNL A   1      32.145  26.888  23.627  1.00  0.00     0.102 A 
ATOM     18  C   UNL A   1      32.399  27.845  24.648  1.00  0.00     0.063 A 
ATOM     19  Cl  UNL A   1      31.242  27.213  22.219  1.00  0.00    -0.079 Cl
ATOM     20  Cl  UNL A   1      31.682  29.434  24.566  1.00  0.00    -0.083 Cl
BRANCH  11  21
ATOM     21  C   UNL A   1      32.744  21.122  23.838  1.00  0.00     0.430 C 
ATOM     22  F   UNL A   1      33.551  20.130  24.237  1.00  0.00    -0.167 F 
ATOM     23  F   UNL A   1      31.915  21.413  24.867  1.00  0.00    -0.167 F 
ATOM     24  F   UNL A   1      31.953  20.492  22.912  1.00  0.00    -0.167 F 
ENDBRANCH  11  21
ENDBRANCH   7   9
ENDBRANCH   6   7
ENDBRANCH   5   6
ENDBRANCH   4   5
ENDBRANCH   3   4
ENDBRANCH   2   3
ENDBRANCH   1   2
BRANCH   1  25
ATOM     25  O   UNL A   1      43.138  22.447  26.506  1.00  0.00    -0.376 OA
BRANCH  25  26
ATOM     26  C   UNL A   1      43.893  23.391  25.760  1.00  0.00     0.202 C 
BRANCH  26  27
ATOM     27  C   UNL A   1      44.239  24.727  26.440  1.00  0.00     0.261 C 
BRANCH  27  28
ATOM     28  O   UNL A   1      43.754  25.900  25.748  1.00  0.00    -0.460 OA
BRANCH  28  29
ATOM     29  C   UNL A   1      42.434  26.199  25.868  1.00  0.00     0.338 C 
ATOM     30  O   UNL A   1      41.549  25.964  25.065  1.00  0.00    -0.246 OA
BRANCH  29  31
ATOM     31  C   UNL A   1      42.183  26.761  27.212  1.00  0.00     0.060 A 
ATOM     32  C   UNL A   1      41.251  26.163  28.075  1.00  0.00     0.016 A 
ATOM     33  C   UNL A   1      42.857  27.916  27.602  1.00  0.00     0.016 A 
ATOM     34  C   UNL A   1      41.043  26.685  29.358  1.00  0.00     0.010 A 
ATOM     35  C   UNL A   1      42.611  28.465  28.862  1.00  0.00     0.010 A 
ATOM     36  C   UNL A   1      41.708  27.853  29.752  1.00  0.00    -0.014 A 
BRANCH  36  37
ATOM     37  C   UNL A   1      41.357  28.556  31.012  1.00  0.00     0.031 A 
ATOM     38  C   UNL A   1      40.184  29.495  30.992  1.00  0.00     0.074 A 
ATOM     39  C   UNL A   1      42.111  28.435  32.122  1.00  0.00     0.049 A 
ATOM     40  N   UNL A   1      39.786  30.339  31.905  1.00  0.00    -0.248 NA
ATOM     41  C   UNL A   1      39.359  29.491  29.771  1.00  0.00     0.031 C 
ATOM     42  C   UNL A   1      43.252  27.536  32.270  1.00  0.00     0.029 A 
ATOM     43  N   UNL A   1      42.046  29.093  33.328  1.00  0.00    -0.354 N 
ATOM     44  C   UNL A   1      38.688  30.993  31.359  1.00  0.00     0.074 A 
ATOM     45  C   UNL A   1      38.477  30.444  30.039  1.00  0.00     0.031 C 
ATOM     46  C   UNL A   1      43.793  27.711  33.490  1.00  0.00     0.029 A 
ATOM     47  C   UNL A   1      43.073  28.773  34.190  1.00  0.00     0.049 A 
ATOM     48  H   UNL A   1      41.332  29.731  33.555  1.00  0.00     0.167 HD
ATOM     49  C   UNL A   1      37.940  31.978  31.905  1.00  0.00     0.031 A 
ATOM     50  C   UNL A   1      43.421  29.311  35.379  1.00  0.00     0.031 A 
ATOM     51  C   UNL A   1      38.170  32.531  33.213  1.00  0.00     0.049 A 
ATOM     52  C   UNL A   1      42.599  30.453  35.934  1.00  0.00     0.074 A 
ATOM     53  C   UNL A   1      37.435  33.503  33.869  1.00  0.00     0.029 A 
ATOM     54  N   UNL A   1      39.218  32.185  34.050  1.00  0.00    -0.354 N 
ATOM     55  N   UNL A   1      41.521  31.012  35.437  1.00  0.00    -0.248 NA
ATOM     56  C   UNL A   1      43.045  31.044  37.206  1.00  0.00     0.031 C 
ATOM     57  C   UNL A   1      38.090  33.809  35.063  1.00  0.00     0.029 A 
ATOM     58  C   UNL A   1      39.181  32.965  35.193  1.00  0.00     0.049 A 
ATOM     59  H   UNL A   1      39.888  31.490  33.860  1.00  0.00     0.167 HD
ATOM     60  C   UNL A   1      41.153  32.003  36.344  1.00  0.00     0.074 A 
ATOM     61  C   UNL A   1      42.100  31.946  37.435  1.00  0.00     0.031 C 
ATOM     62  C   UNL A   1      40.129  32.889  36.276  1.00  0.00     0.031 A 
BRANCH  49  63
ATOM     63  C   UNL A   1      36.833  32.572  31.077  1.00  0.00    -0.014 A 
ATOM     64  C   UNL A   1      35.482  32.288  31.340  1.00  0.00     0.010 A 
ATOM     65  C   UNL A   1      37.157  33.514  30.083  1.00  0.00     0.010 A 
ATOM     66  C   UNL A   1      34.474  32.938  30.621  1.00  0.00     0.020 A 
ATOM     67  C   UNL A   1      36.152  34.186  29.383  1.00  0.00     0.020 A 
ATOM     68  C   UNL A   1      34.816  33.892  29.657  1.00  0.00     0.054 A 
BRANCH  68  69
ATOM     69  S   UNL A   1      33.485  34.785  28.810  1.00  0.00     0.124 S 
ATOM     70  O   UNL A   1      33.064  33.815  27.802  1.00  0.00    -0.237 OA
ATOM     71  O   UNL A   1      32.530  35.025  29.889  1.00  0.00    -0.237 OA
ATOM     72  O   UNL A   1      34.143  35.979  28.287  1.00  0.00    -0.744 OA
ENDBRANCH  68  69
ENDBRANCH  49  63
BRANCH  50  73
ATOM     73  C   UNL A   1      44.644  28.847  36.103  1.00  0.00    -0.014 A 
ATOM     74  C   UNL A   1      45.915  29.367  35.795  1.00  0.00     0.010 A 
ATOM     75  C   UNL A   1      44.550  27.826  37.067  1.00  0.00     0.010 A 
ATOM     76  C   UNL A   1      47.066  28.848  36.403  1.00  0.00     0.020 A 
ATOM     77  C   UNL A   1      45.691  27.335  37.709  1.00  0.00     0.020 A 
ATOM     78  C   UNL A   1      46.945  27.835  37.358  1.00  0.00     0.054 A 
BRANCH  78  79
ATOM     79  S   UNL A   1      48.445  27.185  38.147  1.00  0.00     0.124 S 
ATOM     80  O   UNL A   1      48.720  28.199  39.161  1.00  0.00    -0.237 OA
ATOM     81  O   UNL A   1      47.998  25.890  38.652  1.00  0.00    -0.237 OA
ATOM     82  O   UNL A   1      49.408  27.119  37.051  1.00  0.00    -0.744 OA
ENDBRANCH  78  79
ENDBRANCH  50  73
BRANCH  62  83
ATOM     83  C   UNL A   1      39.952  33.854  37.421  1.00  0.00    -0.014 A 
ATOM     84  C   UNL A   1      40.646  35.077  37.459  1.00  0.00     0.010 A 
ATOM     85  C   UNL A   1      39.009  33.570  38.427  1.00  0.00     0.010 A 
ATOM     86  C   UNL A   1      40.414  35.989  38.493  1.00  0.00     0.020 A 
ATOM     87  C   UNL A   1      38.748  34.494  39.442  1.00  0.00     0.020 A 
ATOM     88  C   UNL A   1      39.460  35.695  39.473  1.00  0.00     0.054 A 
BRANCH  88  89
ATOM     89  S   UNL A   1      39.128  36.930  40.759  1.00  0.00     0.124 S 
ATOM     90  O   UNL A   1      38.412  36.144  41.760  1.00  0.00    -0.237 OA
ATOM     91  O   UNL A   1      40.471  37.360  41.141  1.00  0.00    -0.237 OA
ATOM     92  O   UNL A   1      38.327  37.941  40.074  1.00  0.00    -0.744 OA
ENDBRANCH  88  89
ENDBRANCH  62  83
ENDBRANCH  36  37
ENDBRANCH  29  31
ENDBRANCH  28  29
ENDBRANCH  27  28
ENDBRANCH  26  27
ENDBRANCH  25  26
ENDBRANCH   1  25
TORSDOF 21
ENDMDL
MODEL 3
REMARK VINA RESULT:     -11.1      3.015      9.730
REMARK SMILES O=C(OCCOCCOCCOC(=O)c1ccc(-c2c3nc(c(-c4ccc(S(=O)(=O)[O-])cc4)c4ccc([nH]4)c(-c4ccc(S(=O)(=O)[O-])cc4)c4nc(c(-c5ccc(S(=O)(=O)[O-])cc5)c5ccc2[nH]5)C=C4)C=C3)cc1)C1=Cc2ccc(Cl)c(Cl)c2O[C@@H]1C(F)(F)F
REMARK SMILES IDX 8 1 7 2 6 3 5 4 4 5 3 6 2 7 1 8 75 9 76 10 86 11 77 12 85 13
REMARK SMILES IDX 78 14 84 15 79 16 82 17 80 18 83 19 81 20 87 21 88 22 89 23
REMARK SMILES IDX 90 24 9 25 10 26 11 27 12 28 13 29 14 30 15 31 16 32 74 33
REMARK SMILES IDX 17 34 73 35 18 36 19 37 20 38 67 39 21 40 72 41 66 42 68 43
REMARK SMILES IDX 22 44 71 45 65 46 64 47 23 49 53 50 34 51 52 52 35 53 38 54
REMARK SMILES IDX 51 55 69 56 36 57 37 58 50 60 70 61 39 62 24 63 25 64 33 65
REMARK SMILES IDX 26 66 32 67 27 68 28 69 29 70 30 71 31 72 54 73 55 74 63 75
REMARK SMILES IDX 56 76 62 77 57 78 58 79 59 80 60 81 61 82 40 83 41 84 49 85
REMARK SMILES IDX 42 86 48 87 43 88 44 89 45 90 46 91 47 92
REMARK H PARENT 68 48 38 59
REMARK Flexibility Score: inf
ROOT
ATOM      1  C   UNL A   1      40.921  21.690  26.522  1.00  0.00     0.188 C 
ENDROOT
BRANCH   1   2
ATOM      2  C   UNL A   1      39.444  21.925  26.170  1.00  0.00     0.188 C 
BRANCH   2   3
ATOM      3  O   UNL A   1      38.646  20.890  25.446  1.00  0.00    -0.376 OA
BRANCH   3   4
ATOM      4  C   UNL A   1      37.192  21.117  24.532  1.00  0.00     0.202 C 
BRANCH   4   5
ATOM      5  C   UNL A   1      36.442  23.060  23.908  1.00  0.00     0.261 C 
BRANCH   5   6
ATOM      6  O   UNL A   1      35.631  24.023  24.750  1.00  0.00    -0.460 OA
BRANCH   6   7
ATOM      7  C   UNL A   1      34.512  24.416  24.120  1.00  0.00     0.338 C 
ATOM      8  O   UNL A   1      34.376  24.622  22.940  1.00  0.00    -0.246 OA
BRANCH   7   9
ATOM      9  C   UNL A   1      33.862  25.018  25.278  1.00  0.00     0.087 C 
ATOM     10  C   UNL A   1      33.983  26.461  25.436  1.00  0.00     0.027 C 
ATOM     11  C   UNL A   1      32.224  24.087  24.936  1.00  0.00     0.316 C 
ATOM     12  C   UNL A   1      32.683  27.631  25.020  1.00  0.00     0.019 A 
ATOM     13  O   UNL A   1      30.853  25.321  24.288  1.00  0.00    -0.474 OA
ATOM     14  C   UNL A   1      32.937  28.969  25.127  1.00  0.00     0.013 A 
ATOM     15  C   UNL A   1      31.150  27.129  24.387  1.00  0.00     0.148 A 
ATOM     16  C   UNL A   1      31.877  29.805  24.735  1.00  0.00     0.023 A 
ATOM     17  C   UNL A   1      30.180  28.018  23.995  1.00  0.00     0.102 A 
ATOM     18  C   UNL A   1      30.582  29.366  24.204  1.00  0.00     0.063 A 
ATOM     19  Cl  UNL A   1      28.707  27.565  23.269  1.00  0.00    -0.079 Cl
ATOM     20  Cl  UNL A   1      29.501  30.680  23.813  1.00  0.00    -0.083 Cl
BRANCH  11  21
ATOM     21  C   UNL A   1      32.342  23.187  26.368  1.00  0.00     0.430 C 
ATOM     22  F   UNL A   1      33.307  23.442  27.262  1.00  0.00    -0.167 F 
ATOM     23  F   UNL A   1      31.160  23.209  27.025  1.00  0.00    -0.167 F 
ATOM     24  F   UNL A   1      32.564  21.864  26.079  1.00  0.00    -0.167 F 
ENDBRANCH  11  21
ENDBRANCH   7   9
ENDBRANCH   6   7
ENDBRANCH   5   6
ENDBRANCH   4   5
ENDBRANCH   3   4
ENDBRANCH   2   3
ENDBRANCH   1   2
BRANCH   1  25
ATOM     25  O   UNL A   1      41.235  20.822  27.584  1.00  0.00    -0.376 OA
BRANCH  25  26
ATOM     26  C   UNL A   1      41.855  19.601  27.208  1.00  0.00     0.202 C 
BRANCH  26  27
ATOM     27  C   UNL A   1      42.308  19.449  25.746  1.00  0.00     0.261 C 
BRANCH  27  28
ATOM     28  O   UNL A   1      43.731  19.265  25.570  1.00  0.00    -0.460 OA
BRANCH  28  29
ATOM     29  C   UNL A   1      44.348  20.010  24.615  1.00  0.00     0.338 C 
ATOM     30  O   UNL A   1      44.704  19.642  23.510  1.00  0.00    -0.246 OA
BRANCH  29  31
ATOM     31  C   UNL A   1      44.421  21.416  25.066  1.00  0.00     0.060 A 
ATOM     32  C   UNL A   1      44.026  22.461  24.216  1.00  0.00     0.016 A 
ATOM     33  C   UNL A   1      44.920  21.697  26.336  1.00  0.00     0.016 A 
ATOM     34  C   UNL A   1      44.070  23.788  24.664  1.00  0.00     0.010 A 
ATOM     35  C   UNL A   1      45.012  23.024  26.762  1.00  0.00     0.010 A 
ATOM     36  C   UNL A   1      44.583  24.078  25.935  1.00  0.00    -0.014 A 
BRANCH  36  37
ATOM     37  C   UNL A   1      44.847  25.476  26.361  1.00  0.00     0.031 A 
ATOM     38  C   UNL A   1      46.216  26.043  26.112  1.00  0.00     0.074 A 
ATOM     39  C   UNL A   1      43.926  26.195  27.034  1.00  0.00     0.049 A 
ATOM     40  N   UNL A   1      46.735  27.164  26.535  1.00  0.00    -0.248 NA
ATOM     41  C   UNL A   1      47.124  25.229  25.286  1.00  0.00     0.031 C 
ATOM     42  C   UNL A   1      42.558  25.763  27.309  1.00  0.00     0.029 A 
ATOM     43  N   UNL A   1      44.013  27.431  27.632  1.00  0.00    -0.354 N 
ATOM     44  C   UNL A   1      48.040  27.175  26.060  1.00  0.00     0.074 A 
ATOM     45  C   UNL A   1      48.233  25.955  25.310  1.00  0.00     0.031 C 
ATOM     46  C   UNL A   1      41.938  26.709  28.038  1.00  0.00     0.029 A 
ATOM     47  C   UNL A   1      42.880  27.788  28.330  1.00  0.00     0.049 A 
ATOM     48  H   UNL A   1      44.809  28.005  27.566  1.00  0.00     0.167 HD
ATOM     49  C   UNL A   1      48.996  28.112  26.253  1.00  0.00     0.031 A 
ATOM     50  C   UNL A   1      42.648  28.837  29.150  1.00  0.00     0.031 A 
ATOM     51  C   UNL A   1      48.801  29.315  27.017  1.00  0.00     0.049 A 
ATOM     52  C   UNL A   1      43.759  29.834  29.393  1.00  0.00     0.074 A 
ATOM     53  C   UNL A   1      49.700  30.345  27.231  1.00  0.00     0.029 A 
ATOM     54  N   UNL A   1      47.646  29.639  27.709  1.00  0.00    -0.354 N 
ATOM     55  N   UNL A   1      44.966  29.868  28.880  1.00  0.00    -0.248 NA
ATOM     56  C   UNL A   1      43.480  30.931  30.335  1.00  0.00     0.031 C 
ATOM     57  C   UNL A   1      49.120  31.247  28.126  1.00  0.00     0.029 A 
ATOM     58  C   UNL A   1      47.829  30.826  28.397  1.00  0.00     0.049 A 
ATOM     59  H   UNL A   1      46.819  29.104  27.712  1.00  0.00     0.167 HD
ATOM     60  C   UNL A   1      45.579  30.996  29.420  1.00  0.00     0.074 A 
ATOM     61  C   UNL A   1      44.602  31.637  30.273  1.00  0.00     0.031 C 
ATOM     62  C   UNL A   1      46.841  31.455  29.236  1.00  0.00     0.031 A 
BRANCH  49  63
ATOM     63  C   UNL A   1      50.365  27.858  25.682  1.00  0.00    -0.014 A 
ATOM     64  C   UNL A   1      51.331  27.117  26.385  1.00  0.00     0.010 A 
ATOM     65  C   UNL A   1      50.647  28.286  24.371  1.00  0.00     0.010 A 
ATOM     66  C   UNL A   1      52.555  26.809  25.784  1.00  0.00     0.020 A 
ATOM     67  C   UNL A   1      51.857  27.955  23.757  1.00  0.00     0.020 A 
ATOM     68  C   UNL A   1      52.804  27.218  24.470  1.00  0.00     0.054 A 
BRANCH  68  69
ATOM     69  S   UNL A   1      54.362  26.721  23.687  1.00  0.00     0.124 S 
ATOM     70  O   UNL A   1      53.921  26.351  22.344  1.00  0.00    -0.237 OA
ATOM     71  O   UNL A   1      55.161  27.941  23.772  1.00  0.00    -0.237 OA
ATOM     72  O   UNL A   1      54.831  25.613  24.514  1.00  0.00    -0.744 OA
ENDBRANCH  68  69
ENDBRANCH  49  63
BRANCH  50  73
ATOM     73  C   UNL A   1      41.347  28.973  29.874  1.00  0.00    -0.014 A 
ATOM     74  C   UNL A   1      40.307  29.771  29.362  1.00  0.00     0.010 A 
ATOM     75  C   UNL A   1      41.166  28.352  31.123  1.00  0.00     0.010 A 
ATOM     76  C   UNL A   1      39.135  29.977  30.101  1.00  0.00     0.020 A 
ATOM     77  C   UNL A   1      39.980  28.518  31.845  1.00  0.00     0.020 A 
ATOM     78  C   UNL A   1      38.979  29.347  31.338  1.00  0.00     0.054 A 
BRANCH  78  79
ATOM     79  S   UNL A   1      37.447  29.613  32.275  1.00  0.00     0.124 S 
ATOM     80  O   UNL A   1      36.434  29.559  31.225  1.00  0.00    -0.237 OA
ATOM     81  O   UNL A   1      37.451  28.490  33.208  1.00  0.00    -0.237 OA
ATOM     82  O   UNL A   1      37.643  30.924  32.889  1.00  0.00    -0.744 OA
ENDBRANCH  78  79
ENDBRANCH  50  73
BRANCH  62  83
ATOM     83  C   UNL A   1      47.240  32.727  29.942  1.00  0.00    -0.014 A 
ATOM     84  C   UNL A   1      47.866  32.697  31.201  1.00  0.00     0.010 A 
ATOM     85  C   UNL A   1      47.065  33.964  29.294  1.00  0.00     0.010 A 
ATOM     86  C   UNL A   1      48.292  33.883  31.806  1.00  0.00     0.020 A 
ATOM     87  C   UNL A   1      47.522  35.147  29.879  1.00  0.00     0.020 A 
ATOM     88  C   UNL A   1      48.126  35.100  31.137  1.00  0.00     0.054 A 
BRANCH  88  89
ATOM     89  S   UNL A   1      48.755  36.612  31.915  1.00  0.00     0.124 S 
ATOM     90  O   UNL A   1      50.124  36.233  32.257  1.00  0.00    -0.237 OA
ATOM     91  O   UNL A   1      48.624  37.598  30.845  1.00  0.00    -0.237 OA
ATOM     92  O   UNL A   1      47.864  36.815  33.055  1.00  0.00    -0.744 OA
ENDBRANCH  88  89
ENDBRANCH  62  83
ENDBRANCH  36  37
ENDBRANCH  29  31
ENDBRANCH  28  29
ENDBRANCH  27  28
ENDBRANCH  26  27
ENDBRANCH  25  26
ENDBRANCH   1  25
TORSDOF 21
ENDMDL
