MODEL 1
REMARK VINA RESULT:      -9.0      0.000      0.000
REMARK SMILES CC1(C)C(C(=O)N2CCOC[C@H]2C(=O)OCCOCCOCCOC(=O)c2ccc(-c3c4nc(c(-c5ccc(S(=O)(=O)[O-])cc5)c5ccc([nH]5)c(-c5ccc(S(=O)(=O)[O-])cc5)c5nc(c(-c6ccc(S(=O)(=O)[O-])cc6)c6ccc3[nH]6)C=C5)C=C4)cc2)C1(C)C
REMARK SMILES IDX 20 1 19 2 18 3 17 4 16 5 15 6 13 7 14 8 12 9 7 10 8 11 9 12
REMARK SMILES IDX 11 13 10 14 5 15 6 16 4 17 1 18 2 19 3 20 87 21 88 22 89 23
REMARK SMILES IDX 21 24 22 25 23 26 24 27 25 28 26 29 27 30 28 31 86 32 29 33
REMARK SMILES IDX 85 34 30 35 31 36 32 37 79 38 33 39 84 40 78 41 80 42 34 43
REMARK SMILES IDX 83 44 77 45 76 46 35 48 65 49 46 50 64 51 47 52 50 53 63 54
REMARK SMILES IDX 81 55 48 56 49 57 62 59 82 60 51 61 36 62 37 63 45 64 38 65
REMARK SMILES IDX 44 66 39 67 40 68 41 69 42 70 43 71 66 72 67 73 75 74 68 75
REMARK SMILES IDX 74 76 69 77 70 78 71 79 72 80 73 81 52 82 53 83 61 84 54 85
REMARK SMILES IDX 60 86 55 87 56 88 57 89 58 90 59 91
REMARK H PARENT 80 47 50 58
REMARK Flexibility Score: inf
ROOT
ATOM      1  C   UNL A   1      40.075  20.423  26.473  1.00  0.00     0.188 C 
ENDROOT
BRANCH   1   2
ATOM      2  C   UNL A   1      38.771  20.885  25.799  1.00  0.00     0.188 C 
BRANCH   2   3
ATOM      3  O   UNL A   1      38.636  22.262  25.460  1.00  0.00    -0.376 OA
BRANCH   3   4
ATOM      4  C   UNL A   1      37.516  22.986  25.956  1.00  0.00     0.202 C 
BRANCH   4   5
ATOM      5  C   UNL A   1      36.134  22.365  25.746  1.00  0.00     0.261 C 
BRANCH   5   6
ATOM      6  O   UNL A   1      35.085  23.032  26.476  1.00  0.00    -0.462 OA
BRANCH   6   7
ATOM      7  C   UNL A   1      34.503  24.089  25.849  1.00  0.00     0.331 C 
ATOM      8  O   UNL A   1      35.092  24.811  25.048  1.00  0.00    -0.250 OA
BRANCH   7   9
ATOM      9  C   UNL A   1      33.084  24.434  26.345  1.00  0.00     0.221 C 
ATOM     10  N   UNL A   1      32.034  25.072  25.498  1.00  0.00    -0.324 N 
ATOM     11  C   UNL A   1      31.506  24.229  24.438  1.00  0.00     0.149 C 
ATOM     12  C   UNL A   1      31.094  22.853  24.980  1.00  0.00     0.181 C 
ATOM     13  C   UNL A   1      32.514  23.107  26.871  1.00  0.00     0.197 C 
ATOM     14  O   UNL A   1      32.121  22.249  25.781  1.00  0.00    -0.377 OA
BRANCH  10  15
ATOM     15  C   UNL A   1      31.614  26.346  25.857  1.00  0.00     0.227 C 
ATOM     16  O   UNL A   1      31.584  26.657  27.049  1.00  0.00    -0.275 OA
BRANCH  15  17
ATOM     17  C   UNL A   1      31.127  27.416  24.916  1.00  0.00     0.091 C 
ATOM     18  C   UNL A   1      30.208  29.489  23.650  1.00  0.00     0.012 C 
ATOM     19  C   UNL A   1      31.254  28.906  24.603  1.00  0.00    -0.017 C 
ATOM     20  C   UNL A   1      31.655  29.963  25.596  1.00  0.00     0.012 C 
ATOM     21  C   UNL A   1      32.277  27.953  24.002  1.00  0.00    -0.017 C 
ATOM     22  C   UNL A   1      32.241  27.603  22.529  1.00  0.00     0.012 C 
ATOM     23  C   UNL A   1      33.704  27.956  24.515  1.00  0.00     0.012 C 
ENDBRANCH  15  17
ENDBRANCH  10  15
ENDBRANCH   7   9
ENDBRANCH   6   7
ENDBRANCH   5   6
ENDBRANCH   4   5
ENDBRANCH   3   4
ENDBRANCH   2   3
ENDBRANCH   1   2
BRANCH   1  24
ATOM     24  O   UNL A   1      40.766  19.413  25.757  1.00  0.00    -0.376 OA
BRANCH  24  25
ATOM     25  C   UNL A   1      42.091  19.132  26.177  1.00  0.00     0.202 C 
BRANCH  25  26
ATOM     26  C   UNL A   1      43.175  20.092  25.671  1.00  0.00     0.261 C 
BRANCH  26  27
ATOM     27  O   UNL A   1      43.257  21.357  26.349  1.00  0.00    -0.460 OA
BRANCH  27  28
ATOM     28  C   UNL A   1      43.183  22.478  25.593  1.00  0.00     0.338 C 
ATOM     29  O   UNL A   1      43.131  22.540  24.379  1.00  0.00    -0.246 OA
BRANCH  28  30
ATOM     30  C   UNL A   1      42.969  23.614  26.518  1.00  0.00     0.060 A 
ATOM     31  C   UNL A   1      43.619  24.831  26.273  1.00  0.00     0.016 A 
ATOM     32  C   UNL A   1      42.101  23.482  27.604  1.00  0.00     0.016 A 
ATOM     33  C   UNL A   1      43.415  25.916  27.132  1.00  0.00     0.010 A 
ATOM     34  C   UNL A   1      41.913  24.563  28.470  1.00  0.00     0.010 A 
ATOM     35  C   UNL A   1      42.586  25.777  28.253  1.00  0.00    -0.014 A 
BRANCH  35  36
ATOM     36  C   UNL A   1      42.538  26.833  29.295  1.00  0.00     0.031 A 
ATOM     37  C   UNL A   1      43.583  26.818  30.378  1.00  0.00     0.074 A 
ATOM     38  C   UNL A   1      41.579  27.777  29.298  1.00  0.00     0.049 A 
ATOM     39  N   UNL A   1      43.690  27.576  31.438  1.00  0.00    -0.248 NA
ATOM     40  C   UNL A   1      44.647  25.808  30.247  1.00  0.00     0.031 C 
ATOM     41  C   UNL A   1      40.537  27.930  28.284  1.00  0.00     0.029 A 
ATOM     42  N   UNL A   1      41.321  28.780  30.200  1.00  0.00    -0.354 N 
ATOM     43  C   UNL A   1      44.825  27.131  32.106  1.00  0.00     0.074 A 
ATOM     44  C   UNL A   1      45.359  26.022  31.343  1.00  0.00     0.031 C 
ATOM     45  C   UNL A   1      39.743  28.960  28.629  1.00  0.00     0.029 A 
ATOM     46  C   UNL A   1      40.198  29.514  29.903  1.00  0.00     0.049 A 
ATOM     47  H   UNL A   1      41.889  28.956  30.985  1.00  0.00     0.167 HD
ATOM     48  C   UNL A   1      45.375  27.601  33.250  1.00  0.00     0.031 A 
ATOM     49  C   UNL A   1      39.591  30.501  30.594  1.00  0.00     0.031 A 
ATOM     50  C   UNL A   1      44.836  28.690  34.019  1.00  0.00     0.049 A 
ATOM     51  C   UNL A   1      40.174  30.953  31.910  1.00  0.00     0.074 A 
ATOM     52  C   UNL A   1      45.327  29.244  35.188  1.00  0.00     0.029 A 
ATOM     53  N   UNL A   1      43.678  29.383  33.702  1.00  0.00    -0.354 N 
ATOM     54  N   UNL A   1      41.259  30.533  32.520  1.00  0.00    -0.248 NA
ATOM     55  C   UNL A   1      39.451  32.012  32.630  1.00  0.00     0.031 C 
ATOM     56  C   UNL A   1      44.437  30.238  35.607  1.00  0.00     0.029 A 
ATOM     57  C   UNL A   1      43.423  30.342  34.668  1.00  0.00     0.049 A 
ATOM     58  H   UNL A   1      43.120  29.219  32.908  1.00  0.00     0.167 HD
ATOM     59  C   UNL A   1      41.359  31.296  33.681  1.00  0.00     0.074 A 
ATOM     60  C   UNL A   1      40.235  32.208  33.682  1.00  0.00     0.031 C 
ATOM     61  C   UNL A   1      42.299  31.244  34.657  1.00  0.00     0.031 A 
BRANCH  48  62
ATOM     62  C   UNL A   1      46.610  26.907  33.758  1.00  0.00    -0.014 A 
ATOM     63  C   UNL A   1      47.895  27.356  33.405  1.00  0.00     0.010 A 
ATOM     64  C   UNL A   1      46.482  25.806  34.624  1.00  0.00     0.010 A 
ATOM     65  C   UNL A   1      49.030  26.693  33.878  1.00  0.00     0.020 A 
ATOM     66  C   UNL A   1      47.616  25.156  35.121  1.00  0.00     0.020 A 
ATOM     67  C   UNL A   1      48.883  25.594  34.730  1.00  0.00     0.054 A 
BRANCH  67  68
ATOM     68  S   UNL A   1      50.373  24.762  35.344  1.00  0.00     0.124 S 
ATOM     69  O   UNL A   1      50.628  25.482  36.590  1.00  0.00    -0.237 OA
ATOM     70  O   UNL A   1      49.928  23.379  35.499  1.00  0.00    -0.237 OA
ATOM     71  O   UNL A   1      51.355  24.982  34.286  1.00  0.00    -0.744 OA
ENDBRANCH  67  68
ENDBRANCH  48  62
BRANCH  49  72
ATOM     72  C   UNL A   1      38.337  31.116  30.074  1.00  0.00    -0.014 A 
ATOM     73  C   UNL A   1      38.379  32.289  29.302  1.00  0.00     0.010 A 
ATOM     74  C   UNL A   1      37.090  30.533  30.363  1.00  0.00     0.010 A 
ATOM     75  C   UNL A   1      37.197  32.880  28.843  1.00  0.00     0.020 A 
ATOM     76  C   UNL A   1      35.907  31.105  29.885  1.00  0.00     0.020 A 
ATOM     77  C   UNL A   1      35.968  32.283  29.137  1.00  0.00     0.054 A 
BRANCH  77  78
ATOM     78  S   UNL A   1      34.449  33.041  28.496  1.00  0.00     0.124 S 
ATOM     79  O   UNL A   1      33.750  31.892  27.929  1.00  0.00    -0.237 OA
ATOM     80  O   UNL A   1      33.849  33.616  29.697  1.00  0.00    -0.237 OA
ATOM     81  O   UNL A   1      34.938  34.018  27.524  1.00  0.00    -0.744 OA
ENDBRANCH  77  78
ENDBRANCH  49  72
BRANCH  61  82
ATOM     82  C   UNL A   1      42.177  32.222  35.797  1.00  0.00    -0.014 A 
ATOM     83  C   UNL A   1      41.470  31.893  36.967  1.00  0.00     0.010 A 
ATOM     84  C   UNL A   1      42.836  33.463  35.719  1.00  0.00     0.010 A 
ATOM     85  C   UNL A   1      41.403  32.801  38.029  1.00  0.00     0.020 A 
ATOM     86  C   UNL A   1      42.791  34.362  36.789  1.00  0.00     0.020 A 
ATOM     87  C   UNL A   1      42.064  34.030  37.932  1.00  0.00     0.054 A 
BRANCH  87  88
ATOM     88  S   UNL A   1      42.003  35.170  39.344  1.00  0.00     0.124 S 
ATOM     89  O   UNL A   1      40.914  34.609  40.140  1.00  0.00    -0.237 OA
ATOM     90  O   UNL A   1      43.338  35.039  39.923  1.00  0.00    -0.237 OA
ATOM     91  O   UNL A   1      41.722  36.465  38.730  1.00  0.00    -0.744 OA
ENDBRANCH  87  88
ENDBRANCH  61  82
ENDBRANCH  35  36
ENDBRANCH  28  30
ENDBRANCH  27  28
ENDBRANCH  26  27
ENDBRANCH  25  26
ENDBRANCH  24  25
ENDBRANCH   1  24
TORSDOF 22
ENDMDL
MODEL 2
REMARK VINA RESULT:      -8.9      5.113     10.942
REMARK SMILES CC1(C)C(C(=O)N2CCOC[C@H]2C(=O)OCCOCCOCCOC(=O)c2ccc(-c3c4nc(c(-c5ccc(S(=O)(=O)[O-])cc5)c5ccc([nH]5)c(-c5ccc(S(=O)(=O)[O-])cc5)c5nc(c(-c6ccc(S(=O)(=O)[O-])cc6)c6ccc3[nH]6)C=C5)C=C4)cc2)C1(C)C
REMARK SMILES IDX 20 1 19 2 18 3 17 4 16 5 15 6 13 7 14 8 12 9 7 10 8 11 9 12
REMARK SMILES IDX 11 13 10 14 5 15 6 16 4 17 1 18 2 19 3 20 87 21 88 22 89 23
REMARK SMILES IDX 21 24 22 25 23 26 24 27 25 28 26 29 27 30 28 31 86 32 29 33
REMARK SMILES IDX 85 34 30 35 31 36 32 37 79 38 33 39 84 40 78 41 80 42 34 43
REMARK SMILES IDX 83 44 77 45 76 46 35 48 65 49 46 50 64 51 47 52 50 53 63 54
REMARK SMILES IDX 81 55 48 56 49 57 62 59 82 60 51 61 36 62 37 63 45 64 38 65
REMARK SMILES IDX 44 66 39 67 40 68 41 69 42 70 43 71 66 72 67 73 75 74 68 75
REMARK SMILES IDX 74 76 69 77 70 78 71 79 72 80 73 81 52 82 53 83 61 84 54 85
REMARK SMILES IDX 60 86 55 87 56 88 57 89 58 90 59 91
REMARK H PARENT 80 47 50 58
REMARK Flexibility Score: inf
ROOT
ATOM      1  C   UNL A   1      33.510  33.728  27.776  1.00  0.00     0.188 C 
ENDROOT
BRANCH   1   2
ATOM      2  C   UNL A   1      32.840  32.357  27.572  1.00  0.00     0.188 C 
BRANCH   2   3
ATOM      3  O   UNL A   1      33.674  31.225  27.341  1.00  0.00    -0.376 OA
BRANCH   3   4
ATOM      4  C   UNL A   1      33.067  29.965  27.077  1.00  0.00     0.202 C 
BRANCH   4   5
ATOM      5  C   UNL A   1      33.999  28.784  26.803  1.00  0.00     0.261 C 
BRANCH   5   6
ATOM      6  O   UNL A   1      33.335  27.505  26.841  1.00  0.00    -0.462 OA
BRANCH   6   7
ATOM      7  C   UNL A   1      32.409  27.287  25.870  1.00  0.00     0.331 C 
ATOM      8  O   UNL A   1      31.329  27.871  25.818  1.00  0.00    -0.250 OA
BRANCH   7   9
ATOM      9  C   UNL A   1      32.733  26.118  24.918  1.00  0.00     0.221 C 
ATOM     10  N   UNL A   1      31.710  25.184  24.360  1.00  0.00    -0.324 N 
ATOM     11  C   UNL A   1      30.802  25.777  23.393  1.00  0.00     0.149 C 
ATOM     12  C   UNL A   1      31.572  26.548  22.312  1.00  0.00     0.181 C 
ATOM     13  C   UNL A   1      33.468  26.762  23.733  1.00  0.00     0.197 C 
ATOM     14  O   UNL A   1      32.542  27.449  22.867  1.00  0.00    -0.377 OA
BRANCH  10  15
ATOM     15  C   UNL A   1      31.785  23.852  24.748  1.00  0.00     0.227 C 
ATOM     16  O   UNL A   1      30.748  23.239  25.000  1.00  0.00    -0.275 OA
BRANCH  15  17
ATOM     17  C   UNL A   1      33.049  23.058  24.945  1.00  0.00     0.091 C 
ATOM     18  C   UNL A   1      34.970  21.381  25.438  1.00  0.00     0.012 C 
ATOM     19  C   UNL A   1      33.678  21.692  24.677  1.00  0.00    -0.017 C 
ATOM     20  C   UNL A   1      32.909  20.414  24.477  1.00  0.00     0.012 C 
ATOM     21  C   UNL A   1      33.760  22.750  23.587  1.00  0.00    -0.017 C 
ATOM     22  C   UNL A   1      35.066  23.456  23.287  1.00  0.00     0.012 C 
ATOM     23  C   UNL A   1      32.934  22.597  22.325  1.00  0.00     0.012 C 
ENDBRANCH  15  17
ENDBRANCH  10  15
ENDBRANCH   7   9
ENDBRANCH   6   7
ENDBRANCH   5   6
ENDBRANCH   4   5
ENDBRANCH   3   4
ENDBRANCH   2   3
ENDBRANCH   1   2
BRANCH   1  24
ATOM     24  O   UNL A   1      33.976  33.950  29.096  1.00  0.00    -0.376 OA
BRANCH  24  25
ATOM     25  C   UNL A   1      35.369  33.794  29.311  1.00  0.00     0.202 C 
BRANCH  25  26
ATOM     26  C   UNL A   1      35.826  33.787  30.776  1.00  0.00     0.261 C 
BRANCH  26  27
ATOM     27  O   UNL A   1      36.964  32.961  31.073  1.00  0.00    -0.460 OA
BRANCH  27  28
ATOM     28  C   UNL A   1      36.765  31.623  31.140  1.00  0.00     0.338 C 
ATOM     29  O   UNL A   1      35.725  31.050  31.401  1.00  0.00    -0.246 OA
BRANCH  28  30
ATOM     30  C   UNL A   1      37.997  30.975  30.635  1.00  0.00     0.060 A 
ATOM     31  C   UNL A   1      38.789  30.224  31.515  1.00  0.00     0.016 A 
ATOM     32  C   UNL A   1      38.346  31.082  29.286  1.00  0.00     0.016 A 
ATOM     33  C   UNL A   1      39.947  29.595  31.047  1.00  0.00     0.010 A 
ATOM     34  C   UNL A   1      39.513  30.467  28.826  1.00  0.00     0.010 A 
ATOM     35  C   UNL A   1      40.332  29.740  29.708  1.00  0.00    -0.014 A 
BRANCH  35  36
ATOM     36  C   UNL A   1      41.666  29.278  29.249  1.00  0.00     0.031 A 
ATOM     37  C   UNL A   1      42.784  30.283  29.172  1.00  0.00     0.074 A 
ATOM     38  C   UNL A   1      41.883  28.000  28.888  1.00  0.00     0.049 A 
ATOM     39  N   UNL A   1      44.001  30.137  28.717  1.00  0.00    -0.248 NA
ATOM     40  C   UNL A   1      42.485  31.635  29.672  1.00  0.00     0.031 C 
ATOM     41  C   UNL A   1      40.900  26.921  28.958  1.00  0.00     0.029 A 
ATOM     42  N   UNL A   1      43.007  27.400  28.374  1.00  0.00    -0.354 N 
ATOM     43  C   UNL A   1      44.610  31.377  28.867  1.00  0.00     0.074 A 
ATOM     44  C   UNL A   1      43.622  32.270  29.434  1.00  0.00     0.031 C 
ATOM     45  C   UNL A   1      41.461  25.791  28.491  1.00  0.00     0.029 A 
ATOM     46  C   UNL A   1      42.827  26.075  28.055  1.00  0.00     0.049 A 
ATOM     47  H   UNL A   1      43.860  27.875  28.248  1.00  0.00     0.167 HD
ATOM     48  C   UNL A   1      45.878  31.742  28.561  1.00  0.00     0.031 A 
ATOM     49  C   UNL A   1      43.661  25.200  27.457  1.00  0.00     0.031 A 
ATOM     50  C   UNL A   1      46.855  30.861  27.981  1.00  0.00     0.049 A 
ATOM     51  C   UNL A   1      45.042  25.651  27.048  1.00  0.00     0.074 A 
ATOM     52  C   UNL A   1      48.169  31.136  27.643  1.00  0.00     0.029 A 
ATOM     53  N   UNL A   1      46.623  29.537  27.642  1.00  0.00    -0.354 N 
ATOM     54  N   UNL A   1      45.610  26.824  27.212  1.00  0.00    -0.248 NA
ATOM     55  C   UNL A   1      45.893  24.660  26.372  1.00  0.00     0.031 C 
ATOM     56  C   UNL A   1      48.716  29.993  27.051  1.00  0.00     0.029 A 
ATOM     57  C   UNL A   1      47.760  28.989  27.073  1.00  0.00     0.049 A 
ATOM     58  H   UNL A   1      45.775  29.057  27.785  1.00  0.00     0.167 HD
ATOM     59  C   UNL A   1      46.892  26.701  26.683  1.00  0.00     0.074 A 
ATOM     60  C   UNL A   1      47.020  25.339  26.206  1.00  0.00     0.031 C 
ATOM     61  C   UNL A   1      47.875  27.632  26.601  1.00  0.00     0.031 A 
BRANCH  48  62
ATOM     62  C   UNL A   1      46.265  33.173  28.817  1.00  0.00    -0.014 A 
ATOM     63  C   UNL A   1      46.082  34.163  27.835  1.00  0.00     0.010 A 
ATOM     64  C   UNL A   1      46.794  33.537  30.068  1.00  0.00     0.010 A 
ATOM     65  C   UNL A   1      46.457  35.485  28.087  1.00  0.00     0.020 A 
ATOM     66  C   UNL A   1      47.146  34.864  30.333  1.00  0.00     0.020 A 
ATOM     67  C   UNL A   1      46.991  35.826  29.334  1.00  0.00     0.054 A 
BRANCH  67  68
ATOM     68  S   UNL A   1      47.453  37.554  29.641  1.00  0.00     0.124 S 
ATOM     69  O   UNL A   1      48.590  37.404  30.546  1.00  0.00    -0.237 OA
ATOM     70  O   UNL A   1      47.776  38.042  28.303  1.00  0.00    -0.237 OA
ATOM     71  O   UNL A   1      46.254  38.133  30.239  1.00  0.00    -0.744 OA
ENDBRANCH  67  68
ENDBRANCH  48  62
BRANCH  49  72
ATOM     72  C   UNL A   1      43.208  23.809  27.174  1.00  0.00    -0.014 A 
ATOM     73  C   UNL A   1      43.226  22.830  28.182  1.00  0.00     0.010 A 
ATOM     74  C   UNL A   1      42.768  23.455  25.886  1.00  0.00     0.010 A 
ATOM     75  C   UNL A   1      42.829  21.517  27.903  1.00  0.00     0.020 A 
ATOM     76  C   UNL A   1      42.346  22.152  25.609  1.00  0.00     0.020 A 
ATOM     77  C   UNL A   1      42.390  21.187  26.618  1.00  0.00     0.054 A 
BRANCH  77  78
ATOM     78  S   UNL A   1      41.839  19.490  26.288  1.00  0.00     0.124 S 
ATOM     79  O   UNL A   1      42.242  18.796  27.508  1.00  0.00    -0.237 OA
ATOM     80  O   UNL A   1      40.399  19.654  26.101  1.00  0.00    -0.237 OA
ATOM     81  O   UNL A   1      42.578  19.118  25.083  1.00  0.00    -0.744 OA
ENDBRANCH  77  78
ENDBRANCH  49  72
BRANCH  61  82
ATOM     82  C   UNL A   1      49.191  27.208  26.003  1.00  0.00    -0.014 A 
ATOM     83  C   UNL A   1      49.456  27.373  24.633  1.00  0.00     0.010 A 
ATOM     84  C   UNL A   1      50.201  26.698  26.841  1.00  0.00     0.010 A 
ATOM     85  C   UNL A   1      50.699  27.009  24.106  1.00  0.00     0.020 A 
ATOM     86  C   UNL A   1      51.453  26.358  26.322  1.00  0.00     0.020 A 
ATOM     87  C   UNL A   1      51.689  26.503  24.954  1.00  0.00     0.054 A 
BRANCH  87  88
ATOM     88  S   UNL A   1      53.311  26.085  24.254  1.00  0.00     0.124 S 
ATOM     89  O   UNL A   1      54.091  27.282  24.558  1.00  0.00    -0.237 OA
ATOM     90  O   UNL A   1      53.685  24.885  24.999  1.00  0.00    -0.237 OA
ATOM     91  O   UNL A   1      53.031  25.868  22.837  1.00  0.00    -0.744 OA
ENDBRANCH  87  88
ENDBRANCH  61  82
ENDBRANCH  35  36
ENDBRANCH  28  30
ENDBRANCH  27  28
ENDBRANCH  26  27
ENDBRANCH  25  26
ENDBRANCH  24  25
ENDBRANCH   1  24
TORSDOF 22
ENDMDL
MODEL 3
REMARK VINA RESULT:      -8.8      1.095      8.172
REMARK SMILES CC1(C)C(C(=O)N2CCOC[C@H]2C(=O)OCCOCCOCCOC(=O)c2ccc(-c3c4nc(c(-c5ccc(S(=O)(=O)[O-])cc5)c5ccc([nH]5)c(-c5ccc(S(=O)(=O)[O-])cc5)c5nc(c(-c6ccc(S(=O)(=O)[O-])cc6)c6ccc3[nH]6)C=C5)C=C4)cc2)C1(C)C
REMARK SMILES IDX 20 1 19 2 18 3 17 4 16 5 15 6 13 7 14 8 12 9 7 10 8 11 9 12
REMARK SMILES IDX 11 13 10 14 5 15 6 16 4 17 1 18 2 19 3 20 87 21 88 22 89 23
REMARK SMILES IDX 21 24 22 25 23 26 24 27 25 28 26 29 27 30 28 31 86 32 29 33
REMARK SMILES IDX 85 34 30 35 31 36 32 37 79 38 33 39 84 40 78 41 80 42 34 43
REMARK SMILES IDX 83 44 77 45 76 46 35 48 65 49 46 50 64 51 47 52 50 53 63 54
REMARK SMILES IDX 81 55 48 56 49 57 62 59 82 60 51 61 36 62 37 63 45 64 38 65
REMARK SMILES IDX 44 66 39 67 40 68 41 69 42 70 43 71 66 72 67 73 75 74 68 75
REMARK SMILES IDX 74 76 69 77 70 78 71 79 72 80 73 81 52 82 53 83 61 84 54 85
REMARK SMILES IDX 60 86 55 87 56 88 57 89 58 90 59 91
REMARK H PARENT 80 47 50 58
REMARK Flexibility Score: inf
ROOT
ATOM      1  C   UNL A   1      41.016  20.248  26.285  1.00  0.00     0.188 C 
ENDROOT
BRANCH   1   2
ATOM      2  C   UNL A   1      39.543  20.273  25.837  1.00  0.00     0.188 C 
BRANCH   2   3
ATOM      3  O   UNL A   1      38.791  21.464  26.056  1.00  0.00    -0.376 OA
BRANCH   3   4
ATOM      4  C   UNL A   1      37.808  21.842  25.100  1.00  0.00     0.202 C 
BRANCH   4   5
ATOM      5  C   UNL A   1      36.403  21.262  25.276  1.00  0.00     0.261 C 
BRANCH   5   6
ATOM      6  O   UNL A   1      35.421  21.861  24.407  1.00  0.00    -0.462 OA
BRANCH   6   7
ATOM      7  C   UNL A   1      34.209  22.118  24.968  1.00  0.00     0.331 C 
ATOM      8  O   UNL A   1      33.442  21.240  25.359  1.00  0.00    -0.250 OA
BRANCH   7   9
ATOM      9  C   UNL A   1      33.776  23.597  24.925  1.00  0.00     0.221 C 
ATOM     10  N   UNL A   1      32.666  24.121  24.076  1.00  0.00    -0.324 N 
ATOM     11  C   UNL A   1      31.335  23.698  24.479  1.00  0.00     0.149 C 
ATOM     12  C   UNL A   1      31.112  23.932  25.979  1.00  0.00     0.181 C 
ATOM     13  C   UNL A   1      33.456  23.960  26.383  1.00  0.00     0.197 C 
ATOM     14  O   UNL A   1      32.183  23.411  26.781  1.00  0.00    -0.377 OA
BRANCH  10  15
ATOM     15  C   UNL A   1      33.004  25.010  23.064  1.00  0.00     0.227 C 
ATOM     16  O   UNL A   1      33.977  24.768  22.348  1.00  0.00    -0.275 OA
BRANCH  15  17
ATOM     17  C   UNL A   1      32.312  26.313  22.762  1.00  0.00     0.091 C 
ATOM     18  C   UNL A   1      30.785  28.392  22.457  1.00  0.00     0.012 C 
ATOM     19  C   UNL A   1      31.512  27.441  23.412  1.00  0.00    -0.017 C 
ATOM     20  C   UNL A   1      30.708  27.309  24.677  1.00  0.00     0.012 C 
ATOM     21  C   UNL A   1      33.031  27.524  23.440  1.00  0.00    -0.017 C 
ATOM     22  C   UNL A   1      33.772  28.504  22.554  1.00  0.00     0.012 C 
ATOM     23  C   UNL A   1      33.773  27.321  24.747  1.00  0.00     0.012 C 
ENDBRANCH  15  17
ENDBRANCH  10  15
ENDBRANCH   7   9
ENDBRANCH   6   7
ENDBRANCH   5   6
ENDBRANCH   4   5
ENDBRANCH   3   4
ENDBRANCH   2   3
ENDBRANCH   1   2
BRANCH   1  24
ATOM     24  O   UNL A   1      41.866  19.508  25.425  1.00  0.00    -0.376 OA
BRANCH  24  25
ATOM     25  C   UNL A   1      43.219  19.378  25.829  1.00  0.00     0.202 C 
BRANCH  25  26
ATOM     26  C   UNL A   1      44.209  20.360  25.190  1.00  0.00     0.261 C 
BRANCH  26  27
ATOM     27  O   UNL A   1      44.338  21.633  25.844  1.00  0.00    -0.460 OA
BRANCH  27  28
ATOM     28  C   UNL A   1      43.624  22.669  25.343  1.00  0.00     0.338 C 
ATOM     29  O   UNL A   1      43.106  22.737  24.245  1.00  0.00    -0.246 OA
BRANCH  28  30
ATOM     30  C   UNL A   1      43.412  23.627  26.451  1.00  0.00     0.060 A 
ATOM     31  C   UNL A   1      43.972  24.910  26.369  1.00  0.00     0.016 A 
ATOM     32  C   UNL A   1      42.631  23.267  27.552  1.00  0.00     0.016 A 
ATOM     33  C   UNL A   1      43.767  25.829  27.402  1.00  0.00     0.010 A 
ATOM     34  C   UNL A   1      42.442  24.182  28.591  1.00  0.00     0.010 A 
ATOM     35  C   UNL A   1      43.028  25.459  28.534  1.00  0.00    -0.014 A 
BRANCH  35  36
ATOM     36  C   UNL A   1      42.994  26.331  29.734  1.00  0.00     0.031 A 
ATOM     37  C   UNL A   1      41.881  27.336  29.857  1.00  0.00     0.074 A 
ATOM     38  C   UNL A   1      43.939  26.252  30.689  1.00  0.00     0.049 A 
ATOM     39  N   UNL A   1      41.695  28.262  30.762  1.00  0.00    -0.248 NA
ATOM     40  C   UNL A   1      40.840  27.292  28.816  1.00  0.00     0.031 C 
ATOM     41  C   UNL A   1      45.043  25.294  30.713  1.00  0.00     0.029 A 
ATOM     42  N   UNL A   1      44.124  27.008  31.821  1.00  0.00    -0.354 N 
ATOM     43  C   UNL A   1      40.524  28.916  30.396  1.00  0.00     0.074 A 
ATOM     44  C   UNL A   1      40.055  28.296  29.175  1.00  0.00     0.031 C 
ATOM     45  C   UNL A   1      45.799  25.530  31.800  1.00  0.00     0.029 A 
ATOM     46  C   UNL A   1      45.255  26.676  32.527  1.00  0.00     0.049 A 
ATOM     47  H   UNL A   1      43.504  27.720  32.099  1.00  0.00     0.167 HD
ATOM     48  C   UNL A   1      39.894  29.940  31.019  1.00  0.00     0.031 A 
ATOM     49  C   UNL A   1      45.803  27.247  33.620  1.00  0.00     0.031 A 
ATOM     50  C   UNL A   1      40.369  30.569  32.222  1.00  0.00     0.049 A 
ATOM     51  C   UNL A   1      45.129  28.441  34.250  1.00  0.00     0.074 A 
ATOM     52  C   UNL A   1      39.794  31.608  32.933  1.00  0.00     0.029 A 
ATOM     53  N   UNL A   1      41.536  30.224  32.886  1.00  0.00    -0.354 N 
ATOM     54  N   UNL A   1      44.012  29.037  33.902  1.00  0.00    -0.248 NA
ATOM     55  C   UNL A   1      45.790  29.038  35.420  1.00  0.00     0.031 C 
ATOM     56  C   UNL A   1      40.643  31.928  33.998  1.00  0.00     0.029 A 
ATOM     57  C   UNL A   1      41.714  31.049  33.984  1.00  0.00     0.049 A 
ATOM     58  H   UNL A   1      42.146  29.501  32.618  1.00  0.00     0.167 HD
ATOM     59  C   UNL A   1      43.826  30.063  34.826  1.00  0.00     0.074 A 
ATOM     60  C   UNL A   1      44.936  29.997  35.753  1.00  0.00     0.031 C 
ATOM     61  C   UNL A   1      42.825  30.974  34.900  1.00  0.00     0.031 A 
BRANCH  48  62
ATOM     62  C   UNL A   1      38.638  30.467  30.381  1.00  0.00    -0.014 A 
ATOM     63  C   UNL A   1      37.418  29.777  30.494  1.00  0.00     0.010 A 
ATOM     64  C   UNL A   1      38.673  31.688  29.682  1.00  0.00     0.010 A 
ATOM     65  C   UNL A   1      36.264  30.277  29.886  1.00  0.00     0.020 A 
ATOM     66  C   UNL A   1      37.515  32.205  29.094  1.00  0.00     0.020 A 
ATOM     67  C   UNL A   1      36.321  31.487  29.186  1.00  0.00     0.054 A 
BRANCH  67  68
ATOM     68  S   UNL A   1      34.804  32.123  28.422  1.00  0.00     0.124 S 
ATOM     69  O   UNL A   1      35.328  33.145  27.519  1.00  0.00    -0.237 OA
ATOM     70  O   UNL A   1      34.250  30.937  27.772  1.00  0.00    -0.237 OA
ATOM     71  O   UNL A   1      34.030  32.628  29.553  1.00  0.00    -0.744 OA
ENDBRANCH  67  68
ENDBRANCH  48  62
BRANCH  49  72
ATOM     72  C   UNL A   1      47.080  26.721  34.178  1.00  0.00    -0.014 A 
ATOM     73  C   UNL A   1      47.077  25.853  35.284  1.00  0.00     0.010 A 
ATOM     74  C   UNL A   1      48.310  27.099  33.611  1.00  0.00     0.010 A 
ATOM     75  C   UNL A   1      48.280  25.387  35.824  1.00  0.00     0.020 A 
ATOM     76  C   UNL A   1      49.515  26.615  34.131  1.00  0.00     0.020 A 
ATOM     77  C   UNL A   1      49.492  25.771  35.243  1.00  0.00     0.054 A 
BRANCH  77  78
ATOM     78  S   UNL A   1      51.040  25.120  35.932  1.00  0.00     0.124 S 
ATOM     79  O   UNL A   1      51.371  24.057  34.988  1.00  0.00    -0.237 OA
ATOM     80  O   UNL A   1      51.917  26.288  35.902  1.00  0.00    -0.237 OA
ATOM     81  O   UNL A   1      50.657  24.672  37.270  1.00  0.00    -0.744 OA
ENDBRANCH  77  78
ENDBRANCH  49  72
BRANCH  61  82
ATOM     82  C   UNL A   1      42.860  31.960  36.039  1.00  0.00    -0.014 A 
ATOM     83  C   UNL A   1      43.441  33.231  35.886  1.00  0.00     0.010 A 
ATOM     84  C   UNL A   1      42.242  31.630  37.259  1.00  0.00     0.010 A 
ATOM     85  C   UNL A   1      43.427  34.145  36.944  1.00  0.00     0.020 A 
ATOM     86  C   UNL A   1      42.204  32.551  38.310  1.00  0.00     0.020 A 
ATOM     87  C   UNL A   1      42.809  33.798  38.150  1.00  0.00     0.054 A 
BRANCH  87  88
ATOM     88  S   UNL A   1      42.761  35.020  39.492  1.00  0.00     0.124 S 
ATOM     89  O   UNL A   1      43.774  34.505  40.409  1.00  0.00    -0.237 OA
ATOM     90  O   UNL A   1      43.106  36.264  38.808  1.00  0.00    -0.237 OA
ATOM     91  O   UNL A   1      41.385  34.946  39.978  1.00  0.00    -0.744 OA
ENDBRANCH  87  88
ENDBRANCH  61  82
ENDBRANCH  35  36
ENDBRANCH  28  30
ENDBRANCH  27  28
ENDBRANCH  26  27
ENDBRANCH  25  26
ENDBRANCH  24  25
ENDBRANCH   1  24
TORSDOF 22
ENDMDL
