MODEL 1
REMARK VINA RESULT:      -7.8      0.000      0.000
REMARK SMILES NS(=O)(=O)c1ccc(-n2nc(C(=O)NCCCC(=O)OCCOCCOCCOC(=O)c3ccc(-c4c5nc(c(-c6ccc(S(=O)(=O)[O-])cc6)c6ccc([nH]6)c(-c6ccc(S(=O)(=O)[O-])cc6)c6nc(c(-c7ccc(S(=O)(=O)[O-])cc7)c7ccc4[nH]7)C=C6)C=C5)cc3)cc2-c2ccccc2)cc1
REMARK SMILES IDX 22 1 21 2 20 3 18 4 19 5 17 6 16 7 15 8 14 9 12 10 13 11
REMARK SMILES IDX 11 13 9 14 10 15 93 16 92 17 8 18 5 19 6 20 101 21 7 22
REMARK SMILES IDX 100 23 2 24 3 25 4 26 1 27 94 30 95 31 99 32 96 33 98 34
REMARK SMILES IDX 97 35 23 36 24 37 25 38 26 39 27 40 28 41 29 42 30 43 31 44
REMARK SMILES IDX 32 45 33 46 91 47 34 48 90 49 35 50 36 51 37 52 84 53 38 54
REMARK SMILES IDX 89 55 83 56 85 57 39 58 88 59 82 60 81 61 40 63 70 64 51 65
REMARK SMILES IDX 69 66 52 67 55 68 68 69 86 70 53 71 54 72 67 74 87 75 56 76
REMARK SMILES IDX 41 77 42 78 50 79 43 80 49 81 44 82 45 83 46 84 47 85 48 86
REMARK SMILES IDX 71 87 72 88 80 89 73 90 79 91 74 92 75 93 76 94 77 95 78 96
REMARK SMILES IDX 57 97 58 98 66 99 59 100 65 101 60 102 61 103 62 104 63 105
REMARK SMILES IDX 64 106
REMARK H PARENT 14 12 1 28 1 29 85 62 55 73
REMARK Flexibility Score: inf
ROOT
ATOM      1  C   UNL A   1      47.056  31.428  27.893  1.00  0.00     0.202 C 
ENDROOT
BRANCH   1   2
ATOM      2  C   UNL A   1      46.358  32.786  28.069  1.00  0.00     0.261 C 
BRANCH   2   3
ATOM      3  O   UNL A   1      45.874  33.014  29.405  1.00  0.00    -0.463 OA
BRANCH   3   4
ATOM      4  C   UNL A   1      44.548  32.864  29.633  1.00  0.00     0.305 C 
ATOM      5  O   UNL A   1      44.065  32.177  30.525  1.00  0.00    -0.252 OA
BRANCH   4   6
ATOM      6  C   UNL A   1      43.674  33.669  28.682  1.00  0.00     0.124 C 
BRANCH   6   7
ATOM      7  C   UNL A   1      43.034  34.971  29.168  1.00  0.00     0.033 C 
BRANCH   7   8
ATOM      8  C   UNL A   1      41.520  34.930  29.360  1.00  0.00     0.117 C 
BRANCH   8   9
ATOM      9  N   UNL A   1      41.160  34.527  30.701  1.00  0.00    -0.351 N 
ATOM     10  C   UNL A   1      40.517  33.436  31.235  1.00  0.00     0.271 C 
ATOM     11  O   UNL A   1      40.431  33.451  32.469  1.00  0.00    -0.267 OA
ATOM     12  H   UNL A   1      41.437  35.179  31.384  1.00  0.00     0.163 HD
BRANCH  10  13
ATOM     13  C   UNL A   1      40.005  32.301  30.430  1.00  0.00     0.151 A 
ATOM     14  N   UNL A   1      38.503  31.203  29.341  1.00  0.00    -0.232 N 
ATOM     15  N   UNL A   1      38.809  32.430  29.813  1.00  0.00    -0.162 NA
ATOM     16  C   UNL A   1      39.571  30.330  29.436  1.00  0.00     0.075 A 
ATOM     17  C   UNL A   1      40.540  31.023  30.132  1.00  0.00     0.065 A 
BRANCH  14  18
ATOM     18  C   UNL A   1      37.205  30.931  28.840  1.00  0.00     0.065 A 
ATOM     19  C   UNL A   1      34.750  30.380  27.664  1.00  0.00     0.082 A 
ATOM     20  C   UNL A   1      35.533  29.328  28.145  1.00  0.00     0.024 A 
ATOM     21  C   UNL A   1      35.167  31.710  27.805  1.00  0.00     0.024 A 
ATOM     22  C   UNL A   1      36.768  29.604  28.723  1.00  0.00     0.030 A 
ATOM     23  C   UNL A   1      36.387  31.989  28.427  1.00  0.00     0.030 A 
BRANCH  19  24
ATOM     24  S   UNL A   1      33.254  30.017  26.797  1.00  0.00     0.238 S 
ATOM     25  O   UNL A   1      33.569  29.531  25.482  1.00  0.00    -0.207 OA
ATOM     26  O   UNL A   1      32.317  31.100  27.032  1.00  0.00    -0.207 OA
BRANCH  24  27
ATOM     27  N   UNL A   1      32.650  28.688  27.631  1.00  0.00    -0.225 NA
ATOM     28  H   UNL A   1      33.409  28.036  27.826  1.00  0.00     0.137 HD
ATOM     29  H   UNL A   1      31.941  28.225  27.063  1.00  0.00     0.137 HD
ENDBRANCH  24  27
ENDBRANCH  19  24
ENDBRANCH  14  18
BRANCH  16  30
ATOM     30  C   UNL A   1      39.654  29.002  28.833  1.00  0.00     0.000 A 
ATOM     31  C   UNL A   1      39.992  28.854  27.481  1.00  0.00     0.010 A 
ATOM     32  C   UNL A   1      39.398  27.863  29.604  1.00  0.00     0.010 A 
ATOM     33  C   UNL A   1      40.049  27.585  26.904  1.00  0.00     0.001 A 
ATOM     34  C   UNL A   1      39.451  26.595  29.023  1.00  0.00     0.001 A 
ATOM     35  C   UNL A   1      39.774  26.458  27.674  1.00  0.00     0.000 A 
ENDBRANCH  16  30
ENDBRANCH  10  13
ENDBRANCH   8   9
ENDBRANCH   7   8
ENDBRANCH   6   7
ENDBRANCH   4   6
ENDBRANCH   3   4
ENDBRANCH   2   3
ENDBRANCH   1   2
BRANCH   1  36
ATOM     36  O   UNL A   1      46.709  30.711  26.709  1.00  0.00    -0.376 OA
BRANCH  36  37
ATOM     37  C   UNL A   1      46.476  29.308  26.864  1.00  0.00     0.188 C 
BRANCH  37  38
ATOM     38  C   UNL A   1      45.978  28.593  25.603  1.00  0.00     0.188 C 
BRANCH  38  39
ATOM     39  O   UNL A   1      46.753  28.840  24.434  1.00  0.00    -0.376 OA
BRANCH  39  40
ATOM     40  C   UNL A   1      47.394  27.752  23.760  1.00  0.00     0.202 C 
BRANCH  40  41
ATOM     41  C   UNL A   1      48.610  27.034  24.366  1.00  0.00     0.261 C 
BRANCH  41  42
ATOM     42  O   UNL A   1      49.647  27.871  24.851  1.00  0.00    -0.460 OA
BRANCH  42  43
ATOM     43  C   UNL A   1      50.775  27.300  25.314  1.00  0.00     0.338 C 
ATOM     44  O   UNL A   1      51.784  27.037  24.689  1.00  0.00    -0.246 OA
BRANCH  43  45
ATOM     45  C   UNL A   1      50.578  27.134  26.766  1.00  0.00     0.060 A 
ATOM     46  C   UNL A   1      50.718  25.851  27.283  1.00  0.00     0.016 A 
ATOM     47  C   UNL A   1      50.064  28.199  27.534  1.00  0.00     0.016 A 
ATOM     48  C   UNL A   1      50.006  25.556  28.419  1.00  0.00     0.010 A 
ATOM     49  C   UNL A   1      49.360  27.911  28.667  1.00  0.00     0.010 A 
ATOM     50  C   UNL A   1      49.222  26.567  28.980  1.00  0.00    -0.014 A 
BRANCH  50  51
ATOM     51  C   UNL A   1      48.070  26.171  29.746  1.00  0.00     0.031 A 
ATOM     52  C   UNL A   1      46.910  25.795  28.937  1.00  0.00     0.074 A 
ATOM     53  C   UNL A   1      48.133  26.103  31.088  1.00  0.00     0.049 A 
ATOM     54  N   UNL A   1      45.857  26.507  28.724  1.00  0.00    -0.248 NA
ATOM     55  C   UNL A   1      47.016  24.583  28.115  1.00  0.00     0.031 C 
ATOM     56  C   UNL A   1      49.315  26.177  31.956  1.00  0.00     0.029 A 
ATOM     57  N   UNL A   1      47.132  25.829  31.957  1.00  0.00    -0.354 N 
ATOM     58  C   UNL A   1      45.061  25.730  27.900  1.00  0.00     0.074 A 
ATOM     59  C   UNL A   1      45.912  24.689  27.377  1.00  0.00     0.031 C 
ATOM     60  C   UNL A   1      48.987  25.714  33.185  1.00  0.00     0.029 A 
ATOM     61  C   UNL A   1      47.560  25.436  33.216  1.00  0.00     0.049 A 
ATOM     62  H   UNL A   1      46.181  25.903  31.716  1.00  0.00     0.167 HD
ATOM     63  C   UNL A   1      43.706  25.829  27.920  1.00  0.00     0.031 A 
ATOM     64  C   UNL A   1      46.793  24.833  34.159  1.00  0.00     0.031 A 
ATOM     65  C   UNL A   1      43.263  26.982  28.662  1.00  0.00     0.049 A 
ATOM     66  C   UNL A   1      45.372  25.114  33.813  1.00  0.00     0.074 A 
ATOM     67  C   UNL A   1      43.439  28.345  28.523  1.00  0.00     0.029 A 
ATOM     68  N   UNL A   1      42.868  26.775  29.966  1.00  0.00    -0.354 N 
ATOM     69  N   UNL A   1      44.851  26.309  33.866  1.00  0.00    -0.248 NA
ATOM     70  C   UNL A   1      44.669  24.177  32.945  1.00  0.00     0.031 C 
ATOM     71  C   UNL A   1      43.577  28.838  29.853  1.00  0.00     0.029 A 
ATOM     72  C   UNL A   1      43.422  27.767  30.736  1.00  0.00     0.049 A 
ATOM     73  H   UNL A   1      42.291  26.045  30.288  1.00  0.00     0.167 HD
ATOM     74  C   UNL A   1      44.045  26.404  32.736  1.00  0.00     0.074 A 
ATOM     75  C   UNL A   1      43.886  25.028  32.271  1.00  0.00     0.031 C 
ATOM     76  C   UNL A   1      43.829  27.606  32.120  1.00  0.00     0.031 A 
BRANCH  63  77
ATOM     77  C   UNL A   1      42.801  24.674  27.607  1.00  0.00    -0.014 A 
ATOM     78  C   UNL A   1      42.490  23.757  28.627  1.00  0.00     0.010 A 
ATOM     79  C   UNL A   1      42.447  24.319  26.288  1.00  0.00     0.010 A 
ATOM     80  C   UNL A   1      41.902  22.522  28.328  1.00  0.00     0.020 A 
ATOM     81  C   UNL A   1      41.816  23.116  25.985  1.00  0.00     0.020 A 
ATOM     82  C   UNL A   1      41.584  22.207  27.005  1.00  0.00     0.054 A 
BRANCH  82  83
ATOM     83  S   UNL A   1      40.946  20.563  26.610  1.00  0.00     0.124 S 
ATOM     84  O   UNL A   1      39.636  20.879  26.050  1.00  0.00    -0.237 OA
ATOM     85  O   UNL A   1      41.941  20.065  25.665  1.00  0.00    -0.237 OA
ATOM     86  O   UNL A   1      40.928  19.885  27.904  1.00  0.00    -0.744 OA
ENDBRANCH  82  83
ENDBRANCH  63  77
BRANCH  64  87
ATOM     87  C   UNL A   1      47.220  23.771  35.105  1.00  0.00    -0.014 A 
ATOM     88  C   UNL A   1      47.530  24.062  36.445  1.00  0.00     0.010 A 
ATOM     89  C   UNL A   1      47.079  22.411  34.749  1.00  0.00     0.010 A 
ATOM     90  C   UNL A   1      47.639  23.035  37.401  1.00  0.00     0.020 A 
ATOM     91  C   UNL A   1      47.196  21.384  35.691  1.00  0.00     0.020 A 
ATOM     92  C   UNL A   1      47.452  21.703  37.020  1.00  0.00     0.054 A 
BRANCH  92  93
ATOM     93  S   UNL A   1      47.417  20.399  38.286  1.00  0.00     0.124 S 
ATOM     94  O   UNL A   1      46.029  19.948  38.229  1.00  0.00    -0.237 OA
ATOM     95  O   UNL A   1      48.413  19.452  37.793  1.00  0.00    -0.237 OA
ATOM     96  O   UNL A   1      47.791  21.102  39.513  1.00  0.00    -0.744 OA
ENDBRANCH  92  93
ENDBRANCH  64  87
BRANCH  76  97
ATOM     97  C   UNL A   1      44.289  28.861  32.832  1.00  0.00    -0.014 A 
ATOM     98  C   UNL A   1      45.644  29.242  32.926  1.00  0.00     0.010 A 
ATOM     99  C   UNL A   1      43.312  29.766  33.278  1.00  0.00     0.010 A 
ATOM    100  C   UNL A   1      46.009  30.479  33.479  1.00  0.00     0.020 A 
ATOM    101  C   UNL A   1      43.667  31.009  33.813  1.00  0.00     0.020 A 
ATOM    102  C   UNL A   1      45.015  31.355  33.920  1.00  0.00     0.054 A 
BRANCH 102 103
ATOM    103  S   UNL A   1      45.490  32.974  34.589  1.00  0.00     0.124 S 
ATOM    104  O   UNL A   1      46.712  32.667  35.327  1.00  0.00    -0.237 OA
ATOM    105  O   UNL A   1      45.672  33.783  33.385  1.00  0.00    -0.237 OA
ATOM    106  O   UNL A   1      44.347  33.360  35.415  1.00  0.00    -0.744 OA
ENDBRANCH 102 103
ENDBRANCH  76  97
ENDBRANCH  50  51
ENDBRANCH  43  45
ENDBRANCH  42  43
ENDBRANCH  41  42
ENDBRANCH  40  41
ENDBRANCH  39  40
ENDBRANCH  38  39
ENDBRANCH  37  38
ENDBRANCH  36  37
ENDBRANCH   1  36
TORSDOF 28
ENDMDL
MODEL 2
REMARK VINA RESULT:      -7.6      3.595      9.920
REMARK SMILES NS(=O)(=O)c1ccc(-n2nc(C(=O)NCCCC(=O)OCCOCCOCCOC(=O)c3ccc(-c4c5nc(c(-c6ccc(S(=O)(=O)[O-])cc6)c6ccc([nH]6)c(-c6ccc(S(=O)(=O)[O-])cc6)c6nc(c(-c7ccc(S(=O)(=O)[O-])cc7)c7ccc4[nH]7)C=C6)C=C5)cc3)cc2-c2ccccc2)cc1
REMARK SMILES IDX 22 1 21 2 20 3 18 4 19 5 17 6 16 7 15 8 14 9 12 10 13 11
REMARK SMILES IDX 11 13 9 14 10 15 93 16 92 17 8 18 5 19 6 20 101 21 7 22
REMARK SMILES IDX 100 23 2 24 3 25 4 26 1 27 94 30 95 31 99 32 96 33 98 34
REMARK SMILES IDX 97 35 23 36 24 37 25 38 26 39 27 40 28 41 29 42 30 43 31 44
REMARK SMILES IDX 32 45 33 46 91 47 34 48 90 49 35 50 36 51 37 52 84 53 38 54
REMARK SMILES IDX 89 55 83 56 85 57 39 58 88 59 82 60 81 61 40 63 70 64 51 65
REMARK SMILES IDX 69 66 52 67 55 68 68 69 86 70 53 71 54 72 67 74 87 75 56 76
REMARK SMILES IDX 41 77 42 78 50 79 43 80 49 81 44 82 45 83 46 84 47 85 48 86
REMARK SMILES IDX 71 87 72 88 80 89 73 90 79 91 74 92 75 93 76 94 77 95 78 96
REMARK SMILES IDX 57 97 58 98 66 99 59 100 65 101 60 102 61 103 62 104 63 105
REMARK SMILES IDX 64 106
REMARK H PARENT 14 12 1 28 1 29 85 62 55 73
REMARK Flexibility Score: inf
ROOT
ATOM      1  C   UNL A   1      46.028  30.020  28.195  1.00  0.00     0.202 C 
ENDROOT
BRANCH   1   2
ATOM      2  C   UNL A   1      47.129  28.953  28.094  1.00  0.00     0.261 C 
BRANCH   2   3
ATOM      3  O   UNL A   1      48.188  29.305  27.184  1.00  0.00    -0.463 OA
BRANCH   3   4
ATOM      4  C   UNL A   1      49.373  28.663  27.312  1.00  0.00     0.305 C 
ATOM      5  O   UNL A   1      50.426  29.199  27.637  1.00  0.00    -0.252 OA
BRANCH   4   6
ATOM      6  C   UNL A   1      49.286  27.169  27.042  1.00  0.00     0.124 C 
BRANCH   6   7
ATOM      7  C   UNL A   1      49.991  26.584  25.816  1.00  0.00     0.033 C 
BRANCH   7   8
ATOM      8  C   UNL A   1      49.104  26.341  24.598  1.00  0.00     0.117 C 
BRANCH   8   9
ATOM      9  N   UNL A   1      48.292  27.497  24.287  1.00  0.00    -0.351 N 
ATOM     10  C   UNL A   1      46.956  27.792  24.412  1.00  0.00     0.271 C 
ATOM     11  O   UNL A   1      46.652  28.935  24.050  1.00  0.00    -0.267 OA
ATOM     12  H   UNL A   1      48.812  28.237  23.899  1.00  0.00     0.163 HD
BRANCH  10  13
ATOM     13  C   UNL A   1      45.951  26.859  24.975  1.00  0.00     0.151 A 
ATOM     14  N   UNL A   1      45.023  24.935  25.267  1.00  0.00    -0.232 N 
ATOM     15  N   UNL A   1      46.168  25.529  24.870  1.00  0.00    -0.162 NA
ATOM     16  C   UNL A   1      44.146  25.834  25.843  1.00  0.00     0.075 A 
ATOM     17  C   UNL A   1      44.729  27.071  25.662  1.00  0.00     0.065 A 
BRANCH  14  18
ATOM     18  C   UNL A   1      44.827  23.546  25.060  1.00  0.00     0.065 A 
ATOM     19  C   UNL A   1      44.633  20.793  24.753  1.00  0.00     0.082 A 
ATOM     20  C   UNL A   1      44.115  21.394  25.902  1.00  0.00     0.024 A 
ATOM     21  C   UNL A   1      45.209  21.563  23.735  1.00  0.00     0.024 A 
ATOM     22  C   UNL A   1      44.224  22.771  26.061  1.00  0.00     0.030 A 
ATOM     23  C   UNL A   1      45.276  22.952  23.875  1.00  0.00     0.030 A 
BRANCH  19  24
ATOM     24  S   UNL A   1      44.628  19.031  24.623  1.00  0.00     0.238 S 
ATOM     25  O   UNL A   1      43.404  18.514  25.171  1.00  0.00    -0.207 OA
ATOM     26  O   UNL A   1      45.935  18.540  25.018  1.00  0.00    -0.207 OA
BRANCH  24  27
ATOM     27  N   UNL A   1      44.516  18.777  22.965  1.00  0.00    -0.225 NA
ATOM     28  H   UNL A   1      43.710  18.185  22.766  1.00  0.00     0.137 HD
ATOM     29  H   UNL A   1      45.364  18.318  22.633  1.00  0.00     0.137 HD
ENDBRANCH  24  27
ENDBRANCH  19  24
ENDBRANCH  14  18
BRANCH  16  30
ATOM     30  C   UNL A   1      42.920  25.500  26.563  1.00  0.00     0.000 A 
ATOM     31  C   UNL A   1      42.972  25.069  27.896  1.00  0.00     0.010 A 
ATOM     32  C   UNL A   1      41.678  25.612  25.928  1.00  0.00     0.010 A 
ATOM     33  C   UNL A   1      41.801  24.730  28.574  1.00  0.00     0.001 A 
ATOM     34  C   UNL A   1      40.509  25.267  26.606  1.00  0.00     0.001 A 
ATOM     35  C   UNL A   1      40.571  24.824  27.927  1.00  0.00     0.000 A 
ENDBRANCH  16  30
ENDBRANCH  10  13
ENDBRANCH   8   9
ENDBRANCH   7   8
ENDBRANCH   6   7
ENDBRANCH   4   6
ENDBRANCH   3   4
ENDBRANCH   2   3
ENDBRANCH   1   2
BRANCH   1  36
ATOM     36  O   UNL A   1      45.172  30.126  27.059  1.00  0.00    -0.376 OA
BRANCH  36  37
ATOM     37  C   UNL A   1      45.337  31.291  26.247  1.00  0.00     0.188 C 
BRANCH  37  38
ATOM     38  C   UNL A   1      44.140  32.248  26.237  1.00  0.00     0.188 C 
BRANCH  38  39
ATOM     39  O   UNL A   1      43.911  32.901  24.993  1.00  0.00    -0.376 OA
BRANCH  39  40
ATOM     40  C   UNL A   1      44.113  34.314  24.881  1.00  0.00     0.202 C 
BRANCH  40  41
ATOM     41  C   UNL A   1      43.447  35.302  25.852  1.00  0.00     0.261 C 
BRANCH  41  42
ATOM     42  O   UNL A   1      44.310  35.934  26.784  1.00  0.00    -0.460 OA
BRANCH  42  43
ATOM     43  C   UNL A   1      43.765  36.584  27.830  1.00  0.00     0.338 C 
ATOM     44  O   UNL A   1      43.093  37.597  27.806  1.00  0.00    -0.246 OA
BRANCH  43  45
ATOM     45  C   UNL A   1      44.074  35.768  29.019  1.00  0.00     0.060 A 
ATOM     46  C   UNL A   1      44.634  34.514  28.799  1.00  0.00     0.016 A 
ATOM     47  C   UNL A   1      43.617  36.172  30.290  1.00  0.00     0.016 A 
ATOM     48  C   UNL A   1      44.394  33.551  29.747  1.00  0.00     0.010 A 
ATOM     49  C   UNL A   1      43.382  35.218  31.236  1.00  0.00     0.010 A 
ATOM     50  C   UNL A   1      43.633  33.906  30.864  1.00  0.00    -0.014 A 
BRANCH  50  51
ATOM     51  C   UNL A   1      42.890  32.866  31.523  1.00  0.00     0.031 A 
ATOM     52  C   UNL A   1      43.528  31.550  31.480  1.00  0.00     0.074 A 
ATOM     53  C   UNL A   1      41.745  33.151  32.170  1.00  0.00     0.049 A 
ATOM     54  N   UNL A   1      43.203  30.562  30.720  1.00  0.00    -0.248 NA
ATOM     55  C   UNL A   1      44.787  31.379  32.216  1.00  0.00     0.031 C 
ATOM     56  C   UNL A   1      41.186  34.465  32.512  1.00  0.00     0.029 A 
ATOM     57  N   UNL A   1      40.889  32.290  32.769  1.00  0.00    -0.354 N 
ATOM     58  C   UNL A   1      44.097  29.555  31.040  1.00  0.00     0.074 A 
ATOM     59  C   UNL A   1      45.170  30.183  31.771  1.00  0.00     0.031 C 
ATOM     60  C   UNL A   1      40.228  34.304  33.454  1.00  0.00     0.029 A 
ATOM     61  C   UNL A   1      40.029  32.881  33.681  1.00  0.00     0.049 A 
ATOM     62  H   UNL A   1      40.878  31.326  32.572  1.00  0.00     0.167 HD
ATOM     63  C   UNL A   1      43.762  28.243  30.924  1.00  0.00     0.031 A 
ATOM     64  C   UNL A   1      39.294  32.226  34.614  1.00  0.00     0.031 A 
ATOM     65  C   UNL A   1      42.531  28.065  30.197  1.00  0.00     0.049 A 
ATOM     66  C   UNL A   1      39.192  30.806  34.174  1.00  0.00     0.074 A 
ATOM     67  C   UNL A   1      42.115  28.365  28.915  1.00  0.00     0.029 A 
ATOM     68  N   UNL A   1      41.386  27.879  30.941  1.00  0.00    -0.354 N 
ATOM     69  N   UNL A   1      38.537  30.438  33.108  1.00  0.00    -0.248 NA
ATOM     70  C   UNL A   1      40.212  29.865  34.622  1.00  0.00     0.031 C 
ATOM     71  C   UNL A   1      40.760  28.783  29.053  1.00  0.00     0.029 A 
ATOM     72  C   UNL A   1      40.399  28.664  30.397  1.00  0.00     0.049 A 
ATOM     73  H   UNL A   1      41.292  27.289  31.723  1.00  0.00     0.167 HD
ATOM     74  C   UNL A   1      39.332  29.466  32.510  1.00  0.00     0.074 A 
ATOM     75  C   UNL A   1      40.290  29.078  33.542  1.00  0.00     0.031 C 
ATOM     76  C   UNL A   1      39.326  29.282  31.155  1.00  0.00     0.031 A 
BRANCH  63  77
ATOM     77  C   UNL A   1      44.342  27.175  31.805  1.00  0.00    -0.014 A 
ATOM     78  C   UNL A   1      44.360  25.848  31.342  1.00  0.00     0.010 A 
ATOM     79  C   UNL A   1      44.640  27.390  33.167  1.00  0.00     0.010 A 
ATOM     80  C   UNL A   1      44.612  24.785  32.218  1.00  0.00     0.020 A 
ATOM     81  C   UNL A   1      44.942  26.346  34.036  1.00  0.00     0.020 A 
ATOM     82  C   UNL A   1      44.887  25.044  33.563  1.00  0.00     0.054 A 
BRANCH  82  83
ATOM     83  S   UNL A   1      45.082  23.665  34.713  1.00  0.00     0.124 S 
ATOM     84  O   UNL A   1      43.940  23.855  35.603  1.00  0.00    -0.237 OA
ATOM     85  O   UNL A   1      45.013  22.509  33.825  1.00  0.00    -0.237 OA
ATOM     86  O   UNL A   1      46.391  23.905  35.315  1.00  0.00    -0.744 OA
ENDBRANCH  82  83
ENDBRANCH  63  77
BRANCH  64  87
ATOM     87  C   UNL A   1      38.992  32.687  35.992  1.00  0.00    -0.014 A 
ATOM     88  C   UNL A   1      37.669  32.804  36.455  1.00  0.00     0.010 A 
ATOM     89  C   UNL A   1      40.026  32.776  36.950  1.00  0.00     0.010 A 
ATOM     90  C   UNL A   1      37.393  32.947  37.827  1.00  0.00     0.020 A 
ATOM     91  C   UNL A   1      39.761  32.929  38.314  1.00  0.00     0.020 A 
ATOM     92  C   UNL A   1      38.442  32.989  38.750  1.00  0.00     0.054 A 
BRANCH  92  93
ATOM     93  S   UNL A   1      38.078  32.995  40.531  1.00  0.00     0.124 S 
ATOM     94  O   UNL A   1      39.343  32.552  41.109  1.00  0.00    -0.237 OA
ATOM     95  O   UNL A   1      37.720  34.389  40.777  1.00  0.00    -0.237 OA
ATOM     96  O   UNL A   1      36.972  32.045  40.658  1.00  0.00    -0.744 OA
ENDBRANCH  92  93
ENDBRANCH  64  87
BRANCH  76  97
ATOM     97  C   UNL A   1      38.261  29.995  30.346  1.00  0.00    -0.014 A 
ATOM     98  C   UNL A   1      36.959  29.484  30.167  1.00  0.00     0.010 A 
ATOM     99  C   UNL A   1      38.534  31.295  29.890  1.00  0.00     0.010 A 
ATOM    100  C   UNL A   1      35.969  30.242  29.523  1.00  0.00     0.020 A 
ATOM    101  C   UNL A   1      37.548  32.063  29.265  1.00  0.00     0.020 A 
ATOM    102  C   UNL A   1      36.272  31.530  29.074  1.00  0.00     0.054 A 
BRANCH 102 103
ATOM    103  S   UNL A   1      34.975  32.524  28.286  1.00  0.00     0.124 S 
ATOM    104  O   UNL A   1      35.744  33.488  27.503  1.00  0.00    -0.237 OA
ATOM    105  O   UNL A   1      34.233  31.534  27.507  1.00  0.00    -0.237 OA
ATOM    106  O   UNL A   1      34.236  33.091  29.414  1.00  0.00    -0.744 OA
ENDBRANCH 102 103
ENDBRANCH  76  97
ENDBRANCH  50  51
ENDBRANCH  43  45
ENDBRANCH  42  43
ENDBRANCH  41  42
ENDBRANCH  40  41
ENDBRANCH  39  40
ENDBRANCH  38  39
ENDBRANCH  37  38
ENDBRANCH  36  37
ENDBRANCH   1  36
TORSDOF 28
ENDMDL
MODEL 3
REMARK VINA RESULT:      -7.5      3.396      8.990
REMARK SMILES NS(=O)(=O)c1ccc(-n2nc(C(=O)NCCCC(=O)OCCOCCOCCOC(=O)c3ccc(-c4c5nc(c(-c6ccc(S(=O)(=O)[O-])cc6)c6ccc([nH]6)c(-c6ccc(S(=O)(=O)[O-])cc6)c6nc(c(-c7ccc(S(=O)(=O)[O-])cc7)c7ccc4[nH]7)C=C6)C=C5)cc3)cc2-c2ccccc2)cc1
REMARK SMILES IDX 22 1 21 2 20 3 18 4 19 5 17 6 16 7 15 8 14 9 12 10 13 11
REMARK SMILES IDX 11 13 9 14 10 15 93 16 92 17 8 18 5 19 6 20 101 21 7 22
REMARK SMILES IDX 100 23 2 24 3 25 4 26 1 27 94 30 95 31 99 32 96 33 98 34
REMARK SMILES IDX 97 35 23 36 24 37 25 38 26 39 27 40 28 41 29 42 30 43 31 44
REMARK SMILES IDX 32 45 33 46 91 47 34 48 90 49 35 50 36 51 37 52 84 53 38 54
REMARK SMILES IDX 89 55 83 56 85 57 39 58 88 59 82 60 81 61 40 63 70 64 51 65
REMARK SMILES IDX 69 66 52 67 55 68 68 69 86 70 53 71 54 72 67 74 87 75 56 76
REMARK SMILES IDX 41 77 42 78 50 79 43 80 49 81 44 82 45 83 46 84 47 85 48 86
REMARK SMILES IDX 71 87 72 88 80 89 73 90 79 91 74 92 75 93 76 94 77 95 78 96
REMARK SMILES IDX 57 97 58 98 66 99 59 100 65 101 60 102 61 103 62 104 63 105
REMARK SMILES IDX 64 106
REMARK H PARENT 14 12 1 28 1 29 85 62 55 73
REMARK Flexibility Score: inf
ROOT
ATOM      1  C   UNL A   1      33.712  22.384  23.930  1.00  0.00     0.202 C 
ENDROOT
BRANCH   1   2
ATOM      2  C   UNL A   1      33.895  23.910  23.935  1.00  0.00     0.261 C 
BRANCH   2   3
ATOM      3  O   UNL A   1      34.184  24.450  25.238  1.00  0.00    -0.463 OA
BRANCH   3   4
ATOM      4  C   UNL A   1      33.153  24.942  25.963  1.00  0.00     0.305 C 
ATOM      5  O   UNL A   1      32.331  24.258  26.562  1.00  0.00    -0.252 OA
BRANCH   4   6
ATOM      6  C   UNL A   1      33.110  26.462  26.003  1.00  0.00     0.124 C 
BRANCH   6   7
ATOM      7  C   UNL A   1      33.135  27.251  24.692  1.00  0.00     0.033 C 
BRANCH   7   8
ATOM      8  C   UNL A   1      33.904  28.569  24.729  1.00  0.00     0.117 C 
BRANCH   8   9
ATOM      9  N   UNL A   1      33.218  29.568  25.517  1.00  0.00    -0.351 N 
ATOM     10  C   UNL A   1      33.513  30.245  26.675  1.00  0.00     0.271 C 
ATOM     11  O   UNL A   1      32.654  31.066  27.017  1.00  0.00    -0.267 OA
ATOM     12  H   UNL A   1      32.345  29.820  25.139  1.00  0.00     0.163 HD
BRANCH  10  13
ATOM     13  C   UNL A   1      34.768  30.063  27.444  1.00  0.00     0.151 A 
ATOM     14  N   UNL A   1      36.183  30.517  29.006  1.00  0.00    -0.232 N 
ATOM     15  N   UNL A   1      34.894  30.683  28.638  1.00  0.00    -0.162 NA
ATOM     16  C   UNL A   1      36.840  29.612  28.194  1.00  0.00     0.075 A 
ATOM     17  C   UNL A   1      35.943  29.314  27.189  1.00  0.00     0.065 A 
BRANCH  14  18
ATOM     18  C   UNL A   1      36.714  31.242  30.102  1.00  0.00     0.065 A 
ATOM     19  C   UNL A   1      37.584  32.793  32.235  1.00  0.00     0.082 A 
ATOM     20  C   UNL A   1      36.765  31.688  32.478  1.00  0.00     0.024 A 
ATOM     21  C   UNL A   1      38.008  33.103  30.937  1.00  0.00     0.024 A 
ATOM     22  C   UNL A   1      36.320  30.919  31.408  1.00  0.00     0.030 A 
ATOM     23  C   UNL A   1      37.597  32.303  29.867  1.00  0.00     0.030 A 
BRANCH  19  24
ATOM     24  S   UNL A   1      38.025  33.853  33.578  1.00  0.00     0.238 S 
ATOM     25  O   UNL A   1      38.531  33.062  34.666  1.00  0.00    -0.207 OA
ATOM     26  O   UNL A   1      36.972  34.838  33.747  1.00  0.00    -0.207 OA
BRANCH  24  27
ATOM     27  N   UNL A   1      39.354  34.689  32.977  1.00  0.00    -0.225 NA
ATOM     28  H   UNL A   1      39.310  35.660  33.284  1.00  0.00     0.137 HD
ATOM     29  H   UNL A   1      39.345  34.653  31.958  1.00  0.00     0.137 HD
ENDBRANCH  24  27
ENDBRANCH  19  24
ENDBRANCH  14  18
BRANCH  16  30
ATOM     30  C   UNL A   1      38.165  29.045  28.434  1.00  0.00     0.000 A 
ATOM     31  C   UNL A   1      39.199  29.236  27.508  1.00  0.00     0.010 A 
ATOM     32  C   UNL A   1      38.413  28.306  29.596  1.00  0.00     0.010 A 
ATOM     33  C   UNL A   1      40.457  28.674  27.730  1.00  0.00     0.001 A 
ATOM     34  C   UNL A   1      39.671  27.741  29.814  1.00  0.00     0.001 A 
ATOM     35  C   UNL A   1      40.690  27.923  28.880  1.00  0.00     0.000 A 
ENDBRANCH  16  30
ENDBRANCH  10  13
ENDBRANCH   8   9
ENDBRANCH   7   8
ENDBRANCH   6   7
ENDBRANCH   4   6
ENDBRANCH   3   4
ENDBRANCH   2   3
ENDBRANCH   1   2
BRANCH   1  36
ATOM     36  O   UNL A   1      34.134  21.713  25.117  1.00  0.00    -0.376 OA
BRANCH  36  37
ATOM     37  C   UNL A   1      35.031  20.614  24.939  1.00  0.00     0.188 C 
BRANCH  37  38
ATOM     38  C   UNL A   1      36.456  20.853  25.449  1.00  0.00     0.188 C 
BRANCH  38  39
ATOM     39  O   UNL A   1      36.912  22.197  25.330  1.00  0.00    -0.376 OA
BRANCH  39  40
ATOM     40  C   UNL A   1      38.007  22.653  26.133  1.00  0.00     0.202 C 
BRANCH  40  41
ATOM     41  C   UNL A   1      39.340  21.889  26.184  1.00  0.00     0.261 C 
BRANCH  41  42
ATOM     42  O   UNL A   1      40.492  22.627  25.812  1.00  0.00    -0.460 OA
BRANCH  42  43
ATOM     43  C   UNL A   1      41.681  21.994  25.778  1.00  0.00     0.338 C 
ATOM     44  O   UNL A   1      41.885  20.796  25.809  1.00  0.00    -0.246 OA
BRANCH  43  45
ATOM     45  C   UNL A   1      42.696  23.050  25.603  1.00  0.00     0.060 A 
ATOM     46  C   UNL A   1      44.011  22.641  25.417  1.00  0.00     0.016 A 
ATOM     47  C   UNL A   1      42.356  24.399  25.833  1.00  0.00     0.016 A 
ATOM     48  C   UNL A   1      44.996  23.504  25.828  1.00  0.00     0.010 A 
ATOM     49  C   UNL A   1      43.333  25.261  26.237  1.00  0.00     0.010 A 
ATOM     50  C   UNL A   1      44.606  24.729  26.374  1.00  0.00    -0.014 A 
BRANCH  50  51
ATOM     51  C   UNL A   1      45.499  25.356  27.313  1.00  0.00     0.031 A 
ATOM     52  C   UNL A   1      45.117  25.183  28.715  1.00  0.00     0.074 A 
ATOM     53  C   UNL A   1      46.613  25.976  26.883  1.00  0.00     0.049 A 
ATOM     54  N   UNL A   1      44.561  26.062  29.475  1.00  0.00    -0.248 NA
ATOM     55  C   UNL A   1      45.177  23.827  29.274  1.00  0.00     0.031 C 
ATOM     56  C   UNL A   1      47.221  25.951  25.548  1.00  0.00     0.029 A 
ATOM     57  N   UNL A   1      47.510  26.678  27.614  1.00  0.00    -0.354 N 
ATOM     58  C   UNL A   1      44.394  25.426  30.693  1.00  0.00     0.074 A 
ATOM     59  C   UNL A   1      44.563  24.016  30.441  1.00  0.00     0.031 C 
ATOM     60  C   UNL A   1      48.494  26.401  25.635  1.00  0.00     0.029 A 
ATOM     61  C   UNL A   1      48.738  26.855  26.995  1.00  0.00     0.049 A 
ATOM     62  H   UNL A   1      47.308  27.034  28.509  1.00  0.00     0.167 HD
ATOM     63  C   UNL A   1      44.401  26.117  31.863  1.00  0.00     0.031 A 
ATOM     64  C   UNL A   1      49.883  27.251  27.607  1.00  0.00     0.031 A 
ATOM     65  C   UNL A   1      44.324  27.540  31.648  1.00  0.00     0.049 A 
ATOM     66  C   UNL A   1      49.490  27.913  28.882  1.00  0.00     0.074 A 
ATOM     67  C   UNL A   1      43.394  28.379  31.067  1.00  0.00     0.029 A 
ATOM     68  N   UNL A   1      45.508  28.244  31.687  1.00  0.00    -0.354 N 
ATOM     69  N   UNL A   1      48.839  29.043  28.925  1.00  0.00    -0.248 NA
ATOM     70  C   UNL A   1      49.380  27.097  30.085  1.00  0.00     0.031 C 
ATOM     71  C   UNL A   1      44.160  29.367  30.384  1.00  0.00     0.029 A 
ATOM     72  C   UNL A   1      45.513  29.117  30.627  1.00  0.00     0.049 A 
ATOM     73  H   UNL A   1      46.223  28.139  32.355  1.00  0.00     0.167 HD
ATOM     74  C   UNL A   1      47.907  28.887  29.945  1.00  0.00     0.074 A 
ATOM     75  C   UNL A   1      48.360  27.716  30.693  1.00  0.00     0.031 C 
ATOM     76  C   UNL A   1      46.704  29.537  29.910  1.00  0.00     0.031 A 
BRANCH  63  77
ATOM     77  C   UNL A   1      44.873  25.521  33.157  1.00  0.00    -0.014 A 
ATOM     78  C   UNL A   1      46.154  24.945  33.214  1.00  0.00     0.010 A 
ATOM     79  C   UNL A   1      44.008  25.285  34.247  1.00  0.00     0.010 A 
ATOM     80  C   UNL A   1      46.527  24.127  34.287  1.00  0.00     0.020 A 
ATOM     81  C   UNL A   1      44.386  24.516  35.343  1.00  0.00     0.020 A 
ATOM     82  C   UNL A   1      45.632  23.909  35.337  1.00  0.00     0.054 A 
BRANCH  82  83
ATOM     83  S   UNL A   1      46.070  22.751  36.653  1.00  0.00     0.124 S 
ATOM     84  O   UNL A   1      45.540  21.494  36.132  1.00  0.00    -0.237 OA
ATOM     85  O   UNL A   1      47.524  22.863  36.693  1.00  0.00    -0.237 OA
ATOM     86  O   UNL A   1      45.376  23.285  37.823  1.00  0.00    -0.744 OA
ENDBRANCH  82  83
ENDBRANCH  63  77
BRANCH  64  87
ATOM     87  C   UNL A   1      51.258  26.779  27.309  1.00  0.00    -0.014 A 
ATOM     88  C   UNL A   1      51.497  25.501  26.774  1.00  0.00     0.010 A 
ATOM     89  C   UNL A   1      52.335  27.693  27.317  1.00  0.00     0.010 A 
ATOM     90  C   UNL A   1      52.747  25.172  26.219  1.00  0.00     0.020 A 
ATOM     91  C   UNL A   1      53.584  27.370  26.777  1.00  0.00     0.020 A 
ATOM     92  C   UNL A   1      53.777  26.117  26.207  1.00  0.00     0.054 A 
BRANCH  92  93
ATOM     93  S   UNL A   1      55.328  25.751  25.333  1.00  0.00     0.124 S 
ATOM     94  O   UNL A   1      56.317  26.449  26.148  1.00  0.00    -0.237 OA
ATOM     95  O   UNL A   1      55.382  24.292  25.380  1.00  0.00    -0.237 OA
ATOM     96  O   UNL A   1      55.112  26.315  24.001  1.00  0.00    -0.744 OA
ENDBRANCH  92  93
ENDBRANCH  64  87
BRANCH  76  97
ATOM     97  C   UNL A   1      46.509  30.613  28.862  1.00  0.00    -0.014 A 
ATOM     98  C   UNL A   1      46.146  30.333  27.529  1.00  0.00     0.010 A 
ATOM     99  C   UNL A   1      46.533  31.955  29.278  1.00  0.00     0.010 A 
ATOM    100  C   UNL A   1      45.848  31.369  26.630  1.00  0.00     0.020 A 
ATOM    101  C   UNL A   1      46.218  32.991  28.393  1.00  0.00     0.020 A 
ATOM    102  C   UNL A   1      45.887  32.694  27.070  1.00  0.00     0.054 A 
BRANCH 102 103
ATOM    103  S   UNL A   1      45.452  34.027  25.917  1.00  0.00     0.124 S 
ATOM    104  O   UNL A   1      46.676  34.183  25.135  1.00  0.00    -0.237 OA
ATOM    105  O   UNL A   1      44.311  33.470  25.191  1.00  0.00    -0.237 OA
ATOM    106  O   UNL A   1      45.127  35.152  26.792  1.00  0.00    -0.744 OA
ENDBRANCH 102 103
ENDBRANCH  76  97
ENDBRANCH  50  51
ENDBRANCH  43  45
ENDBRANCH  42  43
ENDBRANCH  41  42
ENDBRANCH  40  41
ENDBRANCH  39  40
ENDBRANCH  38  39
ENDBRANCH  37  38
ENDBRANCH  36  37
ENDBRANCH   1  36
TORSDOF 28
ENDMDL
