MODEL 1
REMARK VINA RESULT:      -7.4      0.000      0.000
REMARK SMILES CC[C@H](C)[C@@H](C(=O)OCCOCCOCCOC(=O)c1ccc(-c2c3nc(c(-c4ccc(S(=O)(=O)[O-])cc4)c4ccc([nH]4)c(-c4ccc(S(=O)(=O)[O-])cc4)c4nc(c(-c5ccc(S(=O)(=O)[O-])cc5)c5ccc2[nH]5)C=C4)C=C3)cc1)[NH+]1CC(C)(C)C1
REMARK SMILES IDX 13 1 12 2 11 3 10 4 9 5 8 6 6 7 7 8 5 9 3 10 4 11 2 12 1 13
REMARK SMILES IDX 80 14 81 15 85 16 82 18 83 19 84 20 14 21 15 22 16 23 17 24
REMARK SMILES IDX 18 25 19 26 20 27 21 28 79 29 22 30 78 31 23 32 24 33 25 34
REMARK SMILES IDX 72 35 26 36 77 37 71 38 73 39 27 40 76 41 70 42 69 43 28 45
REMARK SMILES IDX 58 46 39 47 57 48 40 49 43 50 56 51 74 52 41 53 42 54 55 56
REMARK SMILES IDX 75 57 44 58 29 59 30 60 38 61 31 62 37 63 32 64 33 65 34 66
REMARK SMILES IDX 35 67 36 68 59 69 60 70 68 71 61 72 67 73 62 74 63 75 64 76
REMARK SMILES IDX 65 77 66 78 45 79 46 80 54 81 47 82 53 83 48 84 49 85 50 86
REMARK SMILES IDX 51 87 52 88
REMARK H PARENT 80 17 73 44 43 55
REMARK Flexibility Score: inf
ROOT
ATOM      1  C   UNL A   1      45.875  20.241  25.374  1.00  0.00     0.188 C 
ENDROOT
BRANCH   1   2
ATOM      2  C   UNL A   1      45.044  19.915  24.123  1.00  0.00     0.188 C 
BRANCH   2   3
ATOM      3  O   UNL A   1      44.036  18.918  24.236  1.00  0.00    -0.376 OA
BRANCH   3   4
ATOM      4  C   UNL A   1      43.681  18.469  25.542  1.00  0.00     0.202 C 
BRANCH   4   5
ATOM      5  C   UNL A   1      42.307  18.863  26.112  1.00  0.00     0.261 C 
BRANCH   5   6
ATOM      6  O   UNL A   1      42.198  20.267  26.430  1.00  0.00    -0.459 OA
BRANCH   6   7
ATOM      7  C   UNL A   1      41.275  20.607  27.368  1.00  0.00     0.365 C 
ATOM      8  O   UNL A   1      40.598  19.776  27.970  1.00  0.00    -0.245 OA
BRANCH   7   9
ATOM      9  C   UNL A   1      41.173  22.143  27.663  1.00  0.00     0.297 C 
BRANCH   9  10
ATOM     10  C   UNL A   1      40.166  23.012  26.808  1.00  0.00     0.056 C 
ATOM     11  C   UNL A   1      39.032  22.175  26.195  1.00  0.00     0.014 C 
BRANCH  10  12
ATOM     12  C   UNL A   1      39.598  24.182  27.658  1.00  0.00     0.006 C 
ATOM     13  C   UNL A   1      39.953  25.592  27.207  1.00  0.00     0.004 C 
ENDBRANCH  10  12
ENDBRANCH   9  10
BRANCH   9  14
ATOM     14  N   UNL A   1      42.566  22.602  27.898  1.00  0.00    -0.322 N 
ATOM     15  C   UNL A   1      43.161  23.574  26.978  1.00  0.00     0.275 C 
ATOM     16  C   UNL A   1      42.741  23.516  29.037  1.00  0.00     0.275 C 
ATOM     17  H   UNL A   1      42.963  21.662  27.909  1.00  0.00     0.348 HD
ATOM     18  C   UNL A   1      43.812  24.283  28.205  1.00  0.00     0.063 C 
ATOM     19  C   UNL A   1      43.675  25.803  28.198  1.00  0.00     0.023 C 
ATOM     20  C   UNL A   1      45.250  23.865  28.515  1.00  0.00     0.023 C 
ENDBRANCH   9  14
ENDBRANCH   7   9
ENDBRANCH   6   7
ENDBRANCH   5   6
ENDBRANCH   4   5
ENDBRANCH   3   4
ENDBRANCH   2   3
ENDBRANCH   1   2
BRANCH   1  21
ATOM     21  O   UNL A   1      46.165  21.601  25.578  1.00  0.00    -0.376 OA
BRANCH  21  22
ATOM     22  C   UNL A   1      46.000  22.538  24.533  1.00  0.00     0.202 C 
BRANCH  22  23
ATOM     23  C   UNL A   1      47.022  23.632  24.162  1.00  0.00     0.261 C 
BRANCH  23  24
ATOM     24  O   UNL A   1      46.872  24.929  24.747  1.00  0.00    -0.460 OA
BRANCH  24  25
ATOM     25  C   UNL A   1      47.364  25.108  25.997  1.00  0.00     0.338 C 
ATOM     26  O   UNL A   1      48.168  24.399  26.578  1.00  0.00    -0.246 OA
BRANCH  25  27
ATOM     27  C   UNL A   1      46.947  26.461  26.434  1.00  0.00     0.060 A 
ATOM     28  C   UNL A   1      46.204  27.254  25.549  1.00  0.00     0.016 A 
ATOM     29  C   UNL A   1      47.217  26.911  27.727  1.00  0.00     0.016 A 
ATOM     30  C   UNL A   1      45.695  28.484  25.967  1.00  0.00     0.010 A 
ATOM     31  C   UNL A   1      46.738  28.162  28.130  1.00  0.00     0.010 A 
ATOM     32  C   UNL A   1      45.972  28.953  27.257  1.00  0.00    -0.014 A 
BRANCH  32  33
ATOM     33  C   UNL A   1      45.585  30.328  27.654  1.00  0.00     0.031 A 
ATOM     34  C   UNL A   1      46.562  31.444  27.419  1.00  0.00     0.074 A 
ATOM     35  C   UNL A   1      44.392  30.587  28.221  1.00  0.00     0.049 A 
ATOM     36  N   UNL A   1      46.506  32.689  27.808  1.00  0.00    -0.248 NA
ATOM     37  C   UNL A   1      47.758  31.106  26.632  1.00  0.00     0.031 C 
ATOM     38  C   UNL A   1      43.314  29.620  28.412  1.00  0.00     0.029 A 
ATOM     39  N   UNL A   1      43.898  31.755  28.751  1.00  0.00    -0.354 N 
ATOM     40  C   UNL A   1      47.666  33.284  27.330  1.00  0.00     0.074 A 
ATOM     41  C   UNL A   1      48.409  32.259  26.627  1.00  0.00     0.031 C 
ATOM     42  C   UNL A   1      42.288  30.231  29.031  1.00  0.00     0.029 A 
ATOM     43  C   UNL A   1      42.662  31.613  29.336  1.00  0.00     0.049 A 
ATOM     44  H   UNL A   1      44.381  32.612  28.714  1.00  0.00     0.167 HD
ATOM     45  C   UNL A   1      48.082  34.565  27.472  1.00  0.00     0.031 A 
ATOM     46  C   UNL A   1      41.937  32.482  30.072  1.00  0.00     0.031 A 
ATOM     47  C   UNL A   1      47.360  35.571  28.204  1.00  0.00     0.049 A 
ATOM     48  C   UNL A   1      42.491  33.858  30.352  1.00  0.00     0.074 A 
ATOM     49  C   UNL A   1      47.710  36.892  28.420  1.00  0.00     0.029 A 
ATOM     50  N   UNL A   1      46.154  35.364  28.856  1.00  0.00    -0.354 N 
ATOM     51  N   UNL A   1      43.594  34.411  29.903  1.00  0.00    -0.248 NA
ATOM     52  C   UNL A   1      41.711  34.722  31.250  1.00  0.00     0.031 C 
ATOM     53  C   UNL A   1      46.750  37.464  29.262  1.00  0.00     0.029 A 
ATOM     54  C   UNL A   1      45.767  36.520  29.513  1.00  0.00     0.049 A 
ATOM     55  H   UNL A   1      45.647  34.520  28.852  1.00  0.00     0.167 HD
ATOM     56  C   UNL A   1      43.629  35.690  30.453  1.00  0.00     0.074 A 
ATOM     57  C   UNL A   1      42.430  35.836  31.250  1.00  0.00     0.031 C 
ATOM     58  C   UNL A   1      44.573  36.655  30.312  1.00  0.00     0.031 A 
BRANCH  45  59
ATOM     59  C   UNL A   1      49.418  34.923  26.879  1.00  0.00    -0.014 A 
ATOM     60  C   UNL A   1      50.584  34.957  27.664  1.00  0.00     0.010 A 
ATOM     61  C   UNL A   1      49.504  35.227  25.508  1.00  0.00     0.010 A 
ATOM     62  C   UNL A   1      51.803  35.337  27.098  1.00  0.00     0.020 A 
ATOM     63  C   UNL A   1      50.727  35.577  24.932  1.00  0.00     0.020 A 
ATOM     64  C   UNL A   1      51.866  35.651  25.737  1.00  0.00     0.054 A 
BRANCH  64  65
ATOM     65  S   UNL A   1      53.461  36.147  25.030  1.00  0.00     0.124 S 
ATOM     66  O   UNL A   1      54.065  36.880  26.141  1.00  0.00    -0.237 OA
ATOM     67  O   UNL A   1      54.083  34.863  24.714  1.00  0.00    -0.237 OA
ATOM     68  O   UNL A   1      53.093  36.959  23.875  1.00  0.00    -0.744 OA
ENDBRANCH  64  65
ENDBRANCH  45  59
BRANCH  46  69
ATOM     69  C   UNL A   1      40.632  32.062  30.656  1.00  0.00    -0.014 A 
ATOM     70  C   UNL A   1      40.580  31.385  31.887  1.00  0.00     0.010 A 
ATOM     71  C   UNL A   1      39.428  32.328  29.975  1.00  0.00     0.010 A 
ATOM     72  C   UNL A   1      39.353  30.976  32.421  1.00  0.00     0.020 A 
ATOM     73  C   UNL A   1      38.198  31.947  30.520  1.00  0.00     0.020 A 
ATOM     74  C   UNL A   1      38.169  31.266  31.737  1.00  0.00     0.054 A 
BRANCH  74  75
ATOM     75  S   UNL A   1      36.588  30.775  32.479  1.00  0.00     0.124 S 
ATOM     76  O   UNL A   1      36.565  31.572  33.701  1.00  0.00    -0.237 OA
ATOM     77  O   UNL A   1      35.625  31.163  31.452  1.00  0.00    -0.237 OA
ATOM     78  O   UNL A   1      36.733  29.334  32.675  1.00  0.00    -0.744 OA
ENDBRANCH  74  75
ENDBRANCH  46  69
BRANCH  58  79
ATOM     79  C   UNL A   1      44.355  37.968  31.022  1.00  0.00    -0.014 A 
ATOM     80  C   UNL A   1      43.701  39.037  30.385  1.00  0.00     0.010 A 
ATOM     81  C   UNL A   1      44.724  38.101  32.373  1.00  0.00     0.010 A 
ATOM     82  C   UNL A   1      43.429  40.217  31.084  1.00  0.00     0.020 A 
ATOM     83  C   UNL A   1      44.428  39.268  33.084  1.00  0.00     0.020 A 
ATOM     84  C   UNL A   1      43.786  40.322  32.431  1.00  0.00     0.054 A 
BRANCH  84  85
ATOM     85  S   UNL A   1      43.346  41.833  33.335  1.00  0.00     0.124 S 
ATOM     86  O   UNL A   1      43.760  42.878  32.403  1.00  0.00    -0.237 OA
ATOM     87  O   UNL A   1      41.904  41.688  33.516  1.00  0.00    -0.237 OA
ATOM     88  O   UNL A   1      44.135  41.746  34.563  1.00  0.00    -0.744 OA
ENDBRANCH  84  85
ENDBRANCH  58  79
ENDBRANCH  32  33
ENDBRANCH  25  27
ENDBRANCH  24  25
ENDBRANCH  23  24
ENDBRANCH  22  23
ENDBRANCH  21  22
ENDBRANCH   1  21
TORSDOF 23
ENDMDL
MODEL 2
REMARK VINA RESULT:      -7.4      3.676     11.218
REMARK SMILES CC[C@H](C)[C@@H](C(=O)OCCOCCOCCOC(=O)c1ccc(-c2c3nc(c(-c4ccc(S(=O)(=O)[O-])cc4)c4ccc([nH]4)c(-c4ccc(S(=O)(=O)[O-])cc4)c4nc(c(-c5ccc(S(=O)(=O)[O-])cc5)c5ccc2[nH]5)C=C4)C=C3)cc1)[NH+]1CC(C)(C)C1
REMARK SMILES IDX 13 1 12 2 11 3 10 4 9 5 8 6 6 7 7 8 5 9 3 10 4 11 2 12 1 13
REMARK SMILES IDX 80 14 81 15 85 16 82 18 83 19 84 20 14 21 15 22 16 23 17 24
REMARK SMILES IDX 18 25 19 26 20 27 21 28 79 29 22 30 78 31 23 32 24 33 25 34
REMARK SMILES IDX 72 35 26 36 77 37 71 38 73 39 27 40 76 41 70 42 69 43 28 45
REMARK SMILES IDX 58 46 39 47 57 48 40 49 43 50 56 51 74 52 41 53 42 54 55 56
REMARK SMILES IDX 75 57 44 58 29 59 30 60 38 61 31 62 37 63 32 64 33 65 34 66
REMARK SMILES IDX 35 67 36 68 59 69 60 70 68 71 61 72 67 73 62 74 63 75 64 76
REMARK SMILES IDX 65 77 66 78 45 79 46 80 54 81 47 82 53 83 48 84 49 85 50 86
REMARK SMILES IDX 51 87 52 88
REMARK H PARENT 80 17 73 44 43 55
REMARK Flexibility Score: inf
ROOT
ATOM      1  C   UNL A   1      33.492  37.083  31.642  1.00  0.00     0.188 C 
ENDROOT
BRANCH   1   2
ATOM      2  C   UNL A   1      32.438  35.978  31.468  1.00  0.00     0.188 C 
BRANCH   2   3
ATOM      3  O   UNL A   1      32.280  35.408  30.174  1.00  0.00    -0.376 OA
BRANCH   3   4
ATOM      4  C   UNL A   1      33.442  35.257  29.361  1.00  0.00     0.202 C 
BRANCH   4   5
ATOM      5  C   UNL A   1      33.531  34.046  28.416  1.00  0.00     0.261 C 
BRANCH   5   6
ATOM      6  O   UNL A   1      34.139  32.886  29.023  1.00  0.00    -0.459 OA
BRANCH   6   7
ATOM      7  C   UNL A   1      35.355  32.516  28.543  1.00  0.00     0.365 C 
ATOM      8  O   UNL A   1      35.749  32.820  27.419  1.00  0.00    -0.245 OA
BRANCH   7   9
ATOM      9  C   UNL A   1      36.243  31.713  29.554  1.00  0.00     0.297 C 
BRANCH   9  10
ATOM     10  C   UNL A   1      36.663  32.407  30.911  1.00  0.00     0.056 C 
ATOM     11  C   UNL A   1      36.221  33.877  30.986  1.00  0.00     0.014 C 
BRANCH  10  12
ATOM     12  C   UNL A   1      36.124  31.601  32.125  1.00  0.00     0.006 C 
ATOM     13  C   UNL A   1      36.939  30.389  32.558  1.00  0.00     0.004 C 
ENDBRANCH  10  12
ENDBRANCH   9  10
BRANCH   9  14
ATOM     14  N   UNL A   1      37.243  30.990  28.727  1.00  0.00    -0.322 N 
ATOM     15  C   UNL A   1      38.597  30.799  29.252  1.00  0.00     0.275 C 
ATOM     16  C   UNL A   1      37.038  29.538  28.622  1.00  0.00     0.275 C 
ATOM     17  H   UNL A   1      37.136  31.599  27.915  1.00  0.00     0.348 HD
ATOM     18  C   UNL A   1      38.585  29.357  28.657  1.00  0.00     0.063 C 
ATOM     19  C   UNL A   1      39.100  28.281  29.609  1.00  0.00     0.023 C 
ATOM     20  C   UNL A   1      39.222  29.214  27.274  1.00  0.00     0.023 C 
ENDBRANCH   9  14
ENDBRANCH   7   9
ENDBRANCH   6   7
ENDBRANCH   5   6
ENDBRANCH   4   5
ENDBRANCH   3   4
ENDBRANCH   2   3
ENDBRANCH   1   2
BRANCH   1  21
ATOM     21  O   UNL A   1      34.456  36.856  32.639  1.00  0.00    -0.376 OA
BRANCH  21  22
ATOM     22  C   UNL A   1      34.183  35.993  33.723  1.00  0.00     0.202 C 
BRANCH  22  23
ATOM     23  C   UNL A   1      35.041  34.773  34.116  1.00  0.00     0.261 C 
BRANCH  23  24
ATOM     24  O   UNL A   1      36.434  34.977  34.374  1.00  0.00    -0.460 OA
BRANCH  24  25
ATOM     25  C   UNL A   1      37.130  33.932  34.887  1.00  0.00     0.338 C 
ATOM     26  O   UNL A   1      36.715  33.076  35.648  1.00  0.00    -0.246 OA
BRANCH  25  27
ATOM     27  C   UNL A   1      38.414  33.870  34.151  1.00  0.00     0.060 A 
ATOM     28  C   UNL A   1      39.419  33.015  34.623  1.00  0.00     0.016 A 
ATOM     29  C   UNL A   1      38.596  34.583  32.965  1.00  0.00     0.016 A 
ATOM     30  C   UNL A   1      40.595  32.842  33.891  1.00  0.00     0.010 A 
ATOM     31  C   UNL A   1      39.791  34.438  32.254  1.00  0.00     0.010 A 
ATOM     32  C   UNL A   1      40.795  33.565  32.709  1.00  0.00    -0.014 A 
BRANCH  32  33
ATOM     33  C   UNL A   1      42.105  33.521  32.016  1.00  0.00     0.031 A 
ATOM     34  C   UNL A   1      43.060  34.662  32.216  1.00  0.00     0.074 A 
ATOM     35  C   UNL A   1      42.444  32.493  31.216  1.00  0.00     0.049 A 
ATOM     36  N   UNL A   1      44.189  34.913  31.610  1.00  0.00    -0.248 NA
ATOM     37  C   UNL A   1      42.689  35.648  33.243  1.00  0.00     0.031 C 
ATOM     38  C   UNL A   1      41.659  31.277  31.016  1.00  0.00     0.029 A 
ATOM     39  N   UNL A   1      43.546  32.321  30.413  1.00  0.00    -0.354 N 
ATOM     40  C   UNL A   1      44.661  36.094  32.168  1.00  0.00     0.074 A 
ATOM     41  C   UNL A   1      43.689  36.512  33.158  1.00  0.00     0.031 C 
ATOM     42  C   UNL A   1      42.298  30.490  30.132  1.00  0.00     0.029 A 
ATOM     43  C   UNL A   1      43.502  31.173  29.658  1.00  0.00     0.049 A 
ATOM     44  H   UNL A   1      44.295  32.959  30.381  1.00  0.00     0.167 HD
ATOM     45  C   UNL A   1      45.794  36.776  31.877  1.00  0.00     0.031 A 
ATOM     46  C   UNL A   1      44.313  30.746  28.667  1.00  0.00     0.031 A 
ATOM     47  C   UNL A   1      46.737  36.378  30.867  1.00  0.00     0.049 A 
ATOM     48  C   UNL A   1      45.486  31.599  28.250  1.00  0.00     0.074 A 
ATOM     49  C   UNL A   1      47.906  37.013  30.486  1.00  0.00     0.029 A 
ATOM     50  N   UNL A   1      46.612  35.254  30.064  1.00  0.00    -0.354 N 
ATOM     51  N   UNL A   1      45.921  32.720  28.777  1.00  0.00    -0.248 NA
ATOM     52  C   UNL A   1      46.269  31.138  27.093  1.00  0.00     0.031 C 
ATOM     53  C   UNL A   1      48.450  36.312  29.404  1.00  0.00     0.029 A 
ATOM     54  C   UNL A   1      47.658  35.201  29.158  1.00  0.00     0.049 A 
ATOM     55  H   UNL A   1      45.887  34.592  30.130  1.00  0.00     0.167 HD
ATOM     56  C   UNL A   1      47.034  33.087  28.025  1.00  0.00     0.074 A 
ATOM     57  C   UNL A   1      47.218  32.062  27.021  1.00  0.00     0.031 C 
ATOM     58  C   UNL A   1      47.830  34.179  28.155  1.00  0.00     0.031 A 
BRANCH  45  59
ATOM     59  C   UNL A   1      46.030  38.064  32.619  1.00  0.00    -0.014 A 
ATOM     60  C   UNL A   1      46.762  38.096  33.818  1.00  0.00     0.010 A 
ATOM     61  C   UNL A   1      45.512  39.264  32.099  1.00  0.00     0.010 A 
ATOM     62  C   UNL A   1      46.928  39.298  34.510  1.00  0.00     0.020 A 
ATOM     63  C   UNL A   1      45.702  40.473  32.772  1.00  0.00     0.020 A 
ATOM     64  C   UNL A   1      46.392  40.478  33.986  1.00  0.00     0.054 A 
BRANCH  64  65
ATOM     65  S   UNL A   1      46.617  42.022  34.909  1.00  0.00     0.124 S 
ATOM     66  O   UNL A   1      46.845  42.983  33.833  1.00  0.00    -0.237 OA
ATOM     67  O   UNL A   1      45.346  42.160  35.616  1.00  0.00    -0.237 OA
ATOM     68  O   UNL A   1      47.774  41.754  35.760  1.00  0.00    -0.744 OA
ENDBRANCH  64  65
ENDBRANCH  45  59
BRANCH  46  69
ATOM     69  C   UNL A   1      44.014  29.473  27.951  1.00  0.00    -0.014 A 
ATOM     70  C   UNL A   1      44.717  28.295  28.256  1.00  0.00     0.010 A 
ATOM     71  C   UNL A   1      43.028  29.436  26.946  1.00  0.00     0.010 A 
ATOM     72  C   UNL A   1      44.445  27.108  27.567  1.00  0.00     0.020 A 
ATOM     73  C   UNL A   1      42.733  28.245  26.276  1.00  0.00     0.020 A 
ATOM     74  C   UNL A   1      43.450  27.089  26.586  1.00  0.00     0.054 A 
BRANCH  74  75
ATOM     75  S   UNL A   1      43.078  25.523  25.747  1.00  0.00     0.124 S 
ATOM     76  O   UNL A   1      42.131  25.945  24.721  1.00  0.00    -0.237 OA
ATOM     77  O   UNL A   1      44.392  25.108  25.262  1.00  0.00    -0.237 OA
ATOM     78  O   UNL A   1      42.521  24.689  26.809  1.00  0.00    -0.744 OA
ENDBRANCH  74  75
ENDBRANCH  46  69
BRANCH  58  79
ATOM     79  C   UNL A   1      48.987  34.329  27.199  1.00  0.00    -0.014 A 
ATOM     80  C   UNL A   1      50.237  33.747  27.475  1.00  0.00     0.010 A 
ATOM     81  C   UNL A   1      48.794  34.979  25.965  1.00  0.00     0.010 A 
ATOM     82  C   UNL A   1      51.274  33.821  26.540  1.00  0.00     0.020 A 
ATOM     83  C   UNL A   1      49.819  35.029  25.016  1.00  0.00     0.020 A 
ATOM     84  C   UNL A   1      51.055  34.453  25.312  1.00  0.00     0.054 A 
BRANCH  84  85
ATOM     85  S   UNL A   1      52.393  34.461  24.086  1.00  0.00     0.124 S 
ATOM     86  O   UNL A   1      53.582  34.389  24.930  1.00  0.00    -0.237 OA
ATOM     87  O   UNL A   1      52.109  33.266  23.297  1.00  0.00    -0.237 OA
ATOM     88  O   UNL A   1      52.208  35.727  23.378  1.00  0.00    -0.744 OA
ENDBRANCH  84  85
ENDBRANCH  58  79
ENDBRANCH  32  33
ENDBRANCH  25  27
ENDBRANCH  24  25
ENDBRANCH  23  24
ENDBRANCH  22  23
ENDBRANCH  21  22
ENDBRANCH   1  21
TORSDOF 23
ENDMDL
MODEL 3
REMARK VINA RESULT:      -7.1      4.874     13.097
REMARK SMILES CC[C@H](C)[C@@H](C(=O)OCCOCCOCCOC(=O)c1ccc(-c2c3nc(c(-c4ccc(S(=O)(=O)[O-])cc4)c4ccc([nH]4)c(-c4ccc(S(=O)(=O)[O-])cc4)c4nc(c(-c5ccc(S(=O)(=O)[O-])cc5)c5ccc2[nH]5)C=C4)C=C3)cc1)[NH+]1CC(C)(C)C1
REMARK SMILES IDX 13 1 12 2 11 3 10 4 9 5 8 6 6 7 7 8 5 9 3 10 4 11 2 12 1 13
REMARK SMILES IDX 80 14 81 15 85 16 82 18 83 19 84 20 14 21 15 22 16 23 17 24
REMARK SMILES IDX 18 25 19 26 20 27 21 28 79 29 22 30 78 31 23 32 24 33 25 34
REMARK SMILES IDX 72 35 26 36 77 37 71 38 73 39 27 40 76 41 70 42 69 43 28 45
REMARK SMILES IDX 58 46 39 47 57 48 40 49 43 50 56 51 74 52 41 53 42 54 55 56
REMARK SMILES IDX 75 57 44 58 29 59 30 60 38 61 31 62 37 63 32 64 33 65 34 66
REMARK SMILES IDX 35 67 36 68 59 69 60 70 68 71 61 72 67 73 62 74 63 75 64 76
REMARK SMILES IDX 65 77 66 78 45 79 46 80 54 81 47 82 53 83 48 84 49 85 50 86
REMARK SMILES IDX 51 87 52 88
REMARK H PARENT 80 17 73 44 43 55
REMARK Flexibility Score: inf
ROOT
ATOM      1  C   UNL A   1      36.020  34.050  29.247  1.00  0.00     0.188 C 
ENDROOT
BRANCH   1   2
ATOM      2  C   UNL A   1      36.377  32.743  28.522  1.00  0.00     0.188 C 
BRANCH   2   3
ATOM      3  O   UNL A   1      35.346  31.779  28.342  1.00  0.00    -0.376 OA
BRANCH   3   4
ATOM      4  C   UNL A   1      35.515  30.799  27.321  1.00  0.00     0.202 C 
BRANCH   4   5
ATOM      5  C   UNL A   1      35.452  29.310  27.706  1.00  0.00     0.261 C 
BRANCH   5   6
ATOM      6  O   UNL A   1      34.247  28.651  27.260  1.00  0.00    -0.459 OA
BRANCH   6   7
ATOM      7  C   UNL A   1      34.041  28.608  25.917  1.00  0.00     0.365 C 
ATOM      8  O   UNL A   1      34.884  28.190  25.126  1.00  0.00    -0.245 OA
BRANCH   7   9
ATOM      9  C   UNL A   1      32.622  29.085  25.456  1.00  0.00     0.297 C 
BRANCH   9  10
ATOM     10  C   UNL A   1      31.556  29.469  26.559  1.00  0.00     0.056 C 
ATOM     11  C   UNL A   1      31.469  28.427  27.686  1.00  0.00     0.014 C 
BRANCH  10  12
ATOM     12  C   UNL A   1      31.848  30.884  27.130  1.00  0.00     0.006 C 
ATOM     13  C   UNL A   1      31.239  32.063  26.383  1.00  0.00     0.004 C 
ENDBRANCH  10  12
ENDBRANCH   9  10
BRANCH   9  14
ATOM     14  N   UNL A   1      32.253  28.211  24.313  1.00  0.00    -0.322 N 
ATOM     15  C   UNL A   1      31.600  26.928  24.579  1.00  0.00     0.275 C 
ATOM     16  C   UNL A   1      31.107  28.673  23.515  1.00  0.00     0.275 C 
ATOM     17  H   UNL A   1      33.195  28.186  23.920  1.00  0.00     0.348 HD
ATOM     18  C   UNL A   1      30.675  27.185  23.350  1.00  0.00     0.063 C 
ATOM     19  C   UNL A   1      29.198  26.897  23.604  1.00  0.00     0.023 C 
ATOM     20  C   UNL A   1      31.138  26.550  22.038  1.00  0.00     0.023 C 
ENDBRANCH   9  14
ENDBRANCH   7   9
ENDBRANCH   6   7
ENDBRANCH   5   6
ENDBRANCH   4   5
ENDBRANCH   3   4
ENDBRANCH   2   3
ENDBRANCH   1   2
BRANCH   1  21
ATOM     21  O   UNL A   1      35.538  33.908  30.560  1.00  0.00    -0.376 OA
BRANCH  21  22
ATOM     22  C   UNL A   1      36.431  33.787  31.647  1.00  0.00     0.202 C 
BRANCH  22  23
ATOM     23  C   UNL A   1      36.796  32.461  32.345  1.00  0.00     0.261 C 
BRANCH  23  24
ATOM     24  O   UNL A   1      36.866  31.273  31.552  1.00  0.00    -0.460 OA
BRANCH  24  25
ATOM     25  C   UNL A   1      37.435  30.180  32.118  1.00  0.00     0.338 C 
ATOM     26  O   UNL A   1      36.927  29.428  32.932  1.00  0.00    -0.246 OA
BRANCH  25  27
ATOM     27  C   UNL A   1      38.689  29.914  31.376  1.00  0.00     0.060 A 
ATOM     28  C   UNL A   1      38.719  30.157  29.996  1.00  0.00     0.016 A 
ATOM     29  C   UNL A   1      39.845  29.509  32.046  1.00  0.00     0.016 A 
ATOM     30  C   UNL A   1      39.914  30.029  29.287  1.00  0.00     0.010 A 
ATOM     31  C   UNL A   1      41.032  29.346  31.325  1.00  0.00     0.010 A 
ATOM     32  C   UNL A   1      41.076  29.608  29.944  1.00  0.00    -0.014 A 
BRANCH  32  33
ATOM     33  C   UNL A   1      42.305  29.305  29.173  1.00  0.00     0.031 A 
ATOM     34  C   UNL A   1      42.480  27.921  28.618  1.00  0.00     0.074 A 
ATOM     35  C   UNL A   1      43.257  30.235  28.972  1.00  0.00     0.049 A 
ATOM     36  N   UNL A   1      43.522  27.385  28.042  1.00  0.00    -0.248 NA
ATOM     37  C   UNL A   1      41.317  27.026  28.725  1.00  0.00     0.031 C 
ATOM     38  C   UNL A   1      43.170  31.639  29.365  1.00  0.00     0.029 A 
ATOM     39  N   UNL A   1      44.497  30.122  28.390  1.00  0.00    -0.354 N 
ATOM     40  C   UNL A   1      43.151  26.084  27.729  1.00  0.00     0.074 A 
ATOM     41  C   UNL A   1      41.788  25.911  28.187  1.00  0.00     0.031 C 
ATOM     42  C   UNL A   1      44.316  32.256  29.026  1.00  0.00     0.029 A 
ATOM     43  C   UNL A   1      45.239  31.278  28.450  1.00  0.00     0.049 A 
ATOM     44  H   UNL A   1      44.822  29.294  27.969  1.00  0.00     0.167 HD
ATOM     45  C   UNL A   1      43.881  25.116  27.126  1.00  0.00     0.031 A 
ATOM     46  C   UNL A   1      46.529  31.508  28.124  1.00  0.00     0.031 A 
ATOM     47  C   UNL A   1      45.247  25.280  26.706  1.00  0.00     0.049 A 
ATOM     48  C   UNL A   1      47.373  30.373  27.597  1.00  0.00     0.074 A 
ATOM     49  C   UNL A   1      46.077  24.351  26.103  1.00  0.00     0.029 A 
ATOM     50  N   UNL A   1      45.991  26.439  26.865  1.00  0.00    -0.354 N 
ATOM     51  N   UNL A   1      47.017  29.142  27.312  1.00  0.00    -0.248 NA
ATOM     52  C   UNL A   1      48.798  30.654  27.363  1.00  0.00     0.031 C 
ATOM     53  C   UNL A   1      47.344  24.928  25.961  1.00  0.00     0.029 A 
ATOM     54  C   UNL A   1      47.284  26.237  26.412  1.00  0.00     0.049 A 
ATOM     55  H   UNL A   1      45.650  27.282  27.242  1.00  0.00     0.167 HD
ATOM     56  C   UNL A   1      48.169  28.509  26.852  1.00  0.00     0.074 A 
ATOM     57  C   UNL A   1      49.228  29.496  26.878  1.00  0.00     0.031 C 
ATOM     58  C   UNL A   1      48.335  27.224  26.448  1.00  0.00     0.031 A 
BRANCH  45  59
ATOM     59  C   UNL A   1      43.228  23.771  26.952  1.00  0.00    -0.014 A 
ATOM     60  C   UNL A   1      42.599  23.411  25.748  1.00  0.00     0.010 A 
ATOM     61  C   UNL A   1      43.252  22.851  28.017  1.00  0.00     0.010 A 
ATOM     62  C   UNL A   1      41.962  22.174  25.629  1.00  0.00     0.020 A 
ATOM     63  C   UNL A   1      42.642  21.601  27.890  1.00  0.00     0.020 A 
ATOM     64  C   UNL A   1      41.981  21.279  26.703  1.00  0.00     0.054 A 
BRANCH  64  65
ATOM     65  S   UNL A   1      41.140  19.683  26.522  1.00  0.00     0.124 S 
ATOM     66  O   UNL A   1      39.919  20.066  25.817  1.00  0.00    -0.237 OA
ATOM     67  O   UNL A   1      42.098  18.904  25.741  1.00  0.00    -0.237 OA
ATOM     68  O   UNL A   1      40.950  19.232  27.898  1.00  0.00    -0.744 OA
ENDBRANCH  64  65
ENDBRANCH  45  59
BRANCH  46  69
ATOM     69  C   UNL A   1      47.128  32.855  28.342  1.00  0.00    -0.014 A 
ATOM     70  C   UNL A   1      47.724  33.185  29.571  1.00  0.00     0.010 A 
ATOM     71  C   UNL A   1      47.095  33.824  27.320  1.00  0.00     0.010 A 
ATOM     72  C   UNL A   1      48.269  34.458  29.777  1.00  0.00     0.020 A 
ATOM     73  C   UNL A   1      47.663  35.086  27.512  1.00  0.00     0.020 A 
ATOM     74  C   UNL A   1      48.240  35.398  28.744  1.00  0.00     0.054 A 
BRANCH  74  75
ATOM     75  S   UNL A   1      49.003  37.022  29.017  1.00  0.00     0.124 S 
ATOM     76  O   UNL A   1      48.737  37.700  27.754  1.00  0.00    -0.237 OA
ATOM     77  O   UNL A   1      48.265  37.524  30.174  1.00  0.00    -0.237 OA
ATOM     78  O   UNL A   1      50.406  36.703  29.273  1.00  0.00    -0.744 OA
ENDBRANCH  74  75
ENDBRANCH  46  69
BRANCH  58  79
ATOM     79  C   UNL A   1      49.706  26.799  25.986  1.00  0.00    -0.014 A 
ATOM     80  C   UNL A   1      50.145  27.063  24.677  1.00  0.00     0.010 A 
ATOM     81  C   UNL A   1      50.601  26.213  26.901  1.00  0.00     0.010 A 
ATOM     82  C   UNL A   1      51.450  26.741  24.289  1.00  0.00     0.020 A 
ATOM     83  C   UNL A   1      51.915  25.916  26.525  1.00  0.00     0.020 A 
ATOM     84  C   UNL A   1      52.329  26.178  25.218  1.00  0.00     0.054 A 
BRANCH  84  85
ATOM     85  S   UNL A   1      54.040  25.847  24.710  1.00  0.00     0.124 S 
ATOM     86  O   UNL A   1      54.801  26.682  25.634  1.00  0.00    -0.237 OA
ATOM     87  O   UNL A   1      54.160  24.407  24.919  1.00  0.00    -0.237 OA
ATOM     88  O   UNL A   1      54.076  26.273  23.312  1.00  0.00    -0.744 OA
ENDBRANCH  84  85
ENDBRANCH  58  79
ENDBRANCH  32  33
ENDBRANCH  25  27
ENDBRANCH  24  25
ENDBRANCH  23  24
ENDBRANCH  22  23
ENDBRANCH  21  22
ENDBRANCH   1  21
TORSDOF 23
ENDMDL
