MODEL 1
REMARK VINA RESULT:      -8.5      0.000      0.000
REMARK SMILES [NH3+]C[C@H]1CC[C@@H](C(=O)N[C@H](C(=O)OCCOCCOCCOC(=O)c2ccc(-c3c4nc(c(-c5ccc(S(=O)(=O)[O-])cc5)c5ccc([nH]5)c(-c5ccc(S(=O)(=O)[O-])cc5)c5nc(c(-c6ccc(S(=O)(=O)[O-])cc6)c6ccc3[nH]6)C=C5)C=C4)cc2)C2CCCCC2)O1
REMARK SMILES IDX 17 1 16 2 15 3 14 4 13 5 11 6 12 7 10 8 9 9 7 10 8 11 6 13
REMARK SMILES IDX 3 14 4 15 91 16 5 17 2 18 1 19 85 23 86 24 90 25 87 26 89 27
REMARK SMILES IDX 88 28 18 29 19 30 20 31 21 32 22 33 23 34 24 35 25 36 26 37
REMARK SMILES IDX 84 38 27 39 83 40 28 41 29 42 30 43 77 44 31 45 82 46 76 47
REMARK SMILES IDX 78 48 32 49 81 50 75 51 74 52 33 54 63 55 44 56 62 57 45 58
REMARK SMILES IDX 48 59 61 60 79 61 46 62 47 63 60 65 80 66 49 67 34 68 35 69
REMARK SMILES IDX 43 70 36 71 42 72 37 73 38 74 39 75 40 76 41 77 64 78 65 79
REMARK SMILES IDX 73 80 66 81 72 82 67 83 68 84 69 85 70 86 71 87 50 88 51 89
REMARK SMILES IDX 59 90 52 91 58 92 53 93 54 94 55 95 56 96 57 97
REMARK H PARENT 9 12 1 20 1 21 1 22 78 53 48 64
REMARK Flexibility Score: inf
ROOT
ATOM      1  C   UNL A   1      40.041  21.736  26.862  1.00  0.00     0.188 C 
ENDROOT
BRANCH   1   2
ATOM      2  O   UNL A   1      39.189  22.264  25.853  1.00  0.00    -0.376 OA
BRANCH   2   3
ATOM      3  C   UNL A   1      38.367  23.391  26.129  1.00  0.00     0.202 C 
BRANCH   3   4
ATOM      4  C   UNL A   1      36.837  23.278  26.088  1.00  0.00     0.261 C 
BRANCH   4   5
ATOM      5  O   UNL A   1      36.232  23.956  24.984  1.00  0.00    -0.462 OA
BRANCH   5   6
ATOM      6  C   UNL A   1      35.526  23.193  24.095  1.00  0.00     0.329 C 
ATOM      7  O   UNL A   1      35.881  22.963  22.949  1.00  0.00    -0.250 OA
BRANCH   6   8
ATOM      8  C   UNL A   1      34.311  22.558  24.812  1.00  0.00     0.195 C 
BRANCH   8   9
ATOM      9  N   UNL A   1      33.228  23.379  25.380  1.00  0.00    -0.340 N 
ATOM     10  C   UNL A   1      32.495  24.425  24.893  1.00  0.00     0.249 C 
ATOM     11  O   UNL A   1      31.641  24.914  25.638  1.00  0.00    -0.272 OA
ATOM     12  H   UNL A   1      32.982  23.122  26.298  1.00  0.00     0.164 HD
BRANCH  10  13
ATOM     13  C   UNL A   1      32.723  24.969  23.480  1.00  0.00     0.207 C 
ATOM     14  C   UNL A   1      31.704  26.372  21.936  1.00  0.00     0.174 C 
ATOM     15  C   UNL A   1      33.188  26.710  22.005  1.00  0.00     0.041 C 
ATOM     16  O   UNL A   1      31.500  25.228  22.793  1.00  0.00    -0.359 OA
ATOM     17  C   UNL A   1      33.554  26.237  23.396  1.00  0.00     0.045 C 
BRANCH  14  18
ATOM     18  C   UNL A   1      30.818  27.528  22.435  1.00  0.00     0.291 C 
BRANCH  18  19
ATOM     19  N   UNL A   1      30.375  27.319  23.819  1.00  0.00    -0.355 N 
ATOM     20  H   UNL A   1      30.733  26.426  24.159  1.00  0.00     0.344 HD
ATOM     21  H   UNL A   1      29.356  27.311  23.852  1.00  0.00     0.344 HD
ATOM     22  H   UNL A   1      30.729  28.073  24.406  1.00  0.00     0.344 HD
ENDBRANCH  18  19
ENDBRANCH  14  18
ENDBRANCH  10  13
ENDBRANCH   8   9
BRANCH   8  23
ATOM     23  C   UNL A   1      33.913  21.186  24.207  1.00  0.00     0.023 C 
ATOM     24  C   UNL A   1      34.549  20.024  25.011  1.00  0.00     0.006 C 
ATOM     25  C   UNL A   1      32.409  20.951  24.066  1.00  0.00     0.006 C 
ATOM     26  C   UNL A   1      34.301  18.681  24.332  1.00  0.00     0.000 C 
ATOM     27  C   UNL A   1      32.156  19.619  23.354  1.00  0.00     0.000 C 
ATOM     28  C   UNL A   1      32.817  18.444  24.075  1.00  0.00     0.000 C 
ENDBRANCH   8  23
ENDBRANCH   6   8
ENDBRANCH   5   6
ENDBRANCH   4   5
ENDBRANCH   3   4
ENDBRANCH   2   3
ENDBRANCH   1   2
BRANCH   1  29
ATOM     29  C   UNL A   1      40.920  20.500  26.552  1.00  0.00     0.188 C 
BRANCH  29  30
ATOM     30  O   UNL A   1      42.298  20.780  26.518  1.00  0.00    -0.376 OA
BRANCH  30  31
ATOM     31  C   UNL A   1      42.701  22.137  26.490  1.00  0.00     0.202 C 
BRANCH  31  32
ATOM     32  C   UNL A   1      44.156  22.621  26.704  1.00  0.00     0.261 C 
BRANCH  32  33
ATOM     33  O   UNL A   1      44.592  23.829  26.063  1.00  0.00    -0.460 OA
BRANCH  33  34
ATOM     34  C   UNL A   1      45.898  24.168  26.204  1.00  0.00     0.338 C 
ATOM     35  O   UNL A   1      46.865  23.473  25.922  1.00  0.00    -0.246 OA
BRANCH  34  36
ATOM     36  C   UNL A   1      45.986  25.608  26.535  1.00  0.00     0.060 A 
ATOM     37  C   UNL A   1      46.474  25.988  27.795  1.00  0.00     0.016 A 
ATOM     38  C   UNL A   1      45.602  26.580  25.609  1.00  0.00     0.016 A 
ATOM     39  C   UNL A   1      46.560  27.340  28.140  1.00  0.00     0.010 A 
ATOM     40  C   UNL A   1      45.660  27.932  25.968  1.00  0.00     0.010 A 
ATOM     41  C   UNL A   1      46.110  28.318  27.245  1.00  0.00    -0.014 A 
BRANCH  41  42
ATOM     42  C   UNL A   1      45.913  29.716  27.709  1.00  0.00     0.031 A 
ATOM     43  C   UNL A   1      44.642  30.051  28.441  1.00  0.00     0.074 A 
ATOM     44  C   UNL A   1      46.830  30.675  27.488  1.00  0.00     0.049 A 
ATOM     45  N   UNL A   1      44.218  31.203  28.892  1.00  0.00    -0.248 NA
ATOM     46  C   UNL A   1      43.720  28.930  28.689  1.00  0.00     0.031 C 
ATOM     47  C   UNL A   1      48.115  30.483  26.820  1.00  0.00     0.029 A 
ATOM     48  N   UNL A   1      46.803  32.016  27.789  1.00  0.00    -0.354 N 
ATOM     49  C   UNL A   1      42.974  30.952  29.458  1.00  0.00     0.074 A 
ATOM     50  C   UNL A   1      42.700  29.543  29.268  1.00  0.00     0.031 C 
ATOM     51  C   UNL A   1      48.743  31.669  26.738  1.00  0.00     0.029 A 
ATOM     52  C   UNL A   1      47.892  32.709  27.317  1.00  0.00     0.049 A 
ATOM     53  H   UNL A   1      46.073  32.440  28.297  1.00  0.00     0.167 HD
ATOM     54  C   UNL A   1      42.131  31.812  30.079  1.00  0.00     0.031 A 
ATOM     55  C   UNL A   1      48.159  34.032  27.320  1.00  0.00     0.031 A 
ATOM     56  C   UNL A   1      42.392  33.218  30.242  1.00  0.00     0.049 A 
ATOM     57  C   UNL A   1      47.185  34.987  27.962  1.00  0.00     0.074 A 
ATOM     58  C   UNL A   1      41.617  34.167  30.885  1.00  0.00     0.029 A 
ATOM     59  N   UNL A   1      43.502  33.882  29.739  1.00  0.00    -0.354 N 
ATOM     60  N   UNL A   1      46.035  34.728  28.540  1.00  0.00    -0.248 NA
ATOM     61  C   UNL A   1      47.550  36.411  27.963  1.00  0.00     0.031 C 
ATOM     62  C   UNL A   1      42.220  35.417  30.706  1.00  0.00     0.029 A 
ATOM     63  C   UNL A   1      43.413  35.235  30.023  1.00  0.00     0.049 A 
ATOM     64  H   UNL A   1      44.243  33.454  29.254  1.00  0.00     0.167 HD
ATOM     65  C   UNL A   1      45.552  35.953  28.994  1.00  0.00     0.074 A 
ATOM     66  C   UNL A   1      46.541  36.949  28.637  1.00  0.00     0.031 C 
ATOM     67  C   UNL A   1      44.395  36.225  29.651  1.00  0.00     0.031 A 
BRANCH  54  68
ATOM     68  C   UNL A   1      40.818  31.256  30.570  1.00  0.00    -0.014 A 
ATOM     69  C   UNL A   1      39.661  31.277  29.769  1.00  0.00     0.010 A 
ATOM     70  C   UNL A   1      40.741  30.708  31.864  1.00  0.00     0.010 A 
ATOM     71  C   UNL A   1      38.441  30.822  30.277  1.00  0.00     0.020 A 
ATOM     72  C   UNL A   1      39.531  30.219  32.362  1.00  0.00     0.020 A 
ATOM     73  C   UNL A   1      38.382  30.304  31.574  1.00  0.00     0.054 A 
BRANCH  73  74
ATOM     74  S   UNL A   1      36.783  29.740  32.214  1.00  0.00     0.124 S 
ATOM     75  O   UNL A   1      36.273  30.948  32.857  1.00  0.00    -0.237 OA
ATOM     76  O   UNL A   1      36.079  29.330  31.002  1.00  0.00    -0.237 OA
ATOM     77  O   UNL A   1      37.135  28.653  33.124  1.00  0.00    -0.744 OA
ENDBRANCH  73  74
ENDBRANCH  54  68
BRANCH  55  78
ATOM     78  C   UNL A   1      49.399  34.528  26.661  1.00  0.00    -0.014 A 
ATOM     79  C   UNL A   1      50.633  34.520  27.335  1.00  0.00     0.010 A 
ATOM     80  C   UNL A   1      49.353  34.981  25.328  1.00  0.00     0.010 A 
ATOM     81  C   UNL A   1      51.797  34.945  26.686  1.00  0.00     0.020 A 
ATOM     82  C   UNL A   1      50.519  35.379  24.668  1.00  0.00     0.020 A 
ATOM     83  C   UNL A   1      51.735  35.360  25.352  1.00  0.00     0.054 A 
BRANCH  83  84
ATOM     84  S   UNL A   1      53.273  35.811  24.503  1.00  0.00     0.124 S 
ATOM     85  O   UNL A   1      53.027  37.203  24.141  1.00  0.00    -0.237 OA
ATOM     86  O   UNL A   1      54.278  35.594  25.541  1.00  0.00    -0.237 OA
ATOM     87  O   UNL A   1      53.334  34.874  23.382  1.00  0.00    -0.744 OA
ENDBRANCH  83  84
ENDBRANCH  55  78
BRANCH  67  88
ATOM     88  C   UNL A   1      44.138  37.654  30.060  1.00  0.00    -0.014 A 
ATOM     89  C   UNL A   1      44.584  38.159  31.296  1.00  0.00     0.010 A 
ATOM     90  C   UNL A   1      43.495  38.526  29.162  1.00  0.00     0.010 A 
ATOM     91  C   UNL A   1      44.363  39.498  31.636  1.00  0.00     0.020 A 
ATOM     92  C   UNL A   1      43.301  39.872  29.484  1.00  0.00     0.020 A 
ATOM     93  C   UNL A   1      43.725  40.347  30.726  1.00  0.00     0.054 A 
BRANCH  93  94
ATOM     94  S   UNL A   1      43.488  42.089  31.174  1.00  0.00     0.124 S 
ATOM     95  O   UNL A   1      42.053  42.263  30.972  1.00  0.00    -0.237 OA
ATOM     96  O   UNL A   1      43.935  42.125  32.564  1.00  0.00    -0.237 OA
ATOM     97  O   UNL A   1      44.341  42.810  30.232  1.00  0.00    -0.744 OA
ENDBRANCH  93  94
ENDBRANCH  67  88
ENDBRANCH  41  42
ENDBRANCH  34  36
ENDBRANCH  33  34
ENDBRANCH  32  33
ENDBRANCH  31  32
ENDBRANCH  30  31
ENDBRANCH  29  30
ENDBRANCH   1  29
TORSDOF 25
ENDMDL
MODEL 2
REMARK VINA RESULT:      -7.9      7.074     12.826
REMARK SMILES [NH3+]C[C@H]1CC[C@@H](C(=O)N[C@H](C(=O)OCCOCCOCCOC(=O)c2ccc(-c3c4nc(c(-c5ccc(S(=O)(=O)[O-])cc5)c5ccc([nH]5)c(-c5ccc(S(=O)(=O)[O-])cc5)c5nc(c(-c6ccc(S(=O)(=O)[O-])cc6)c6ccc3[nH]6)C=C5)C=C4)cc2)C2CCCCC2)O1
REMARK SMILES IDX 17 1 16 2 15 3 14 4 13 5 11 6 12 7 10 8 9 9 7 10 8 11 6 13
REMARK SMILES IDX 3 14 4 15 91 16 5 17 2 18 1 19 85 23 86 24 90 25 87 26 89 27
REMARK SMILES IDX 88 28 18 29 19 30 20 31 21 32 22 33 23 34 24 35 25 36 26 37
REMARK SMILES IDX 84 38 27 39 83 40 28 41 29 42 30 43 77 44 31 45 82 46 76 47
REMARK SMILES IDX 78 48 32 49 81 50 75 51 74 52 33 54 63 55 44 56 62 57 45 58
REMARK SMILES IDX 48 59 61 60 79 61 46 62 47 63 60 65 80 66 49 67 34 68 35 69
REMARK SMILES IDX 43 70 36 71 42 72 37 73 38 74 39 75 40 76 41 77 64 78 65 79
REMARK SMILES IDX 73 80 66 81 72 82 67 83 68 84 69 85 70 86 71 87 50 88 51 89
REMARK SMILES IDX 59 90 52 91 58 92 53 93 54 94 55 95 56 96 57 97
REMARK H PARENT 9 12 1 20 1 21 1 22 78 53 48 64
REMARK Flexibility Score: inf
ROOT
ATOM      1  C   UNL A   1      34.182  33.144  28.111  1.00  0.00     0.188 C 
ENDROOT
BRANCH   1   2
ATOM      2  O   UNL A   1      33.192  32.211  27.695  1.00  0.00    -0.376 OA
BRANCH   2   3
ATOM      3  C   UNL A   1      33.565  30.892  27.320  1.00  0.00     0.202 C 
BRANCH   3   4
ATOM      4  C   UNL A   1      32.546  29.934  26.691  1.00  0.00     0.261 C 
BRANCH   4   5
ATOM      5  O   UNL A   1      32.917  28.555  26.766  1.00  0.00    -0.462 OA
BRANCH   5   6
ATOM      6  C   UNL A   1      31.953  27.670  27.163  1.00  0.00     0.329 C 
ATOM      7  O   UNL A   1      31.148  27.882  28.057  1.00  0.00    -0.250 OA
BRANCH   6   8
ATOM      8  C   UNL A   1      31.953  26.448  26.214  1.00  0.00     0.195 C 
BRANCH   8   9
ATOM      9  N   UNL A   1      31.254  25.199  26.557  1.00  0.00    -0.340 N 
ATOM     10  C   UNL A   1      31.684  23.927  26.815  1.00  0.00     0.249 C 
ATOM     11  O   UNL A   1      30.826  23.079  27.073  1.00  0.00    -0.272 OA
ATOM     12  H   UNL A   1      30.276  25.299  26.612  1.00  0.00     0.164 HD
BRANCH  10  13
ATOM     13  C   UNL A   1      33.172  23.569  26.785  1.00  0.00     0.207 C 
ATOM     14  C   UNL A   1      34.543  21.712  26.526  1.00  0.00     0.174 C 
ATOM     15  C   UNL A   1      35.085  22.849  25.668  1.00  0.00     0.041 C 
ATOM     16  O   UNL A   1      33.424  22.249  27.264  1.00  0.00    -0.359 OA
ATOM     17  C   UNL A   1      33.843  23.681  25.428  1.00  0.00     0.045 C 
BRANCH  14  18
ATOM     18  C   UNL A   1      34.053  20.524  25.680  1.00  0.00     0.291 C 
BRANCH  18  19
ATOM     19  N   UNL A   1      32.640  20.219  25.932  1.00  0.00    -0.355 N 
ATOM     20  H   UNL A   1      32.310  20.771  26.723  1.00  0.00     0.344 HD
ATOM     21  H   UNL A   1      32.539  19.227  26.144  1.00  0.00     0.344 HD
ATOM     22  H   UNL A   1      32.090  20.448  25.105  1.00  0.00     0.344 HD
ENDBRANCH  18  19
ENDBRANCH  14  18
ENDBRANCH  10  13
ENDBRANCH   8   9
BRANCH   8  23
ATOM     23  C   UNL A   1      31.976  26.857  24.718  1.00  0.00     0.023 C 
ATOM     24  C   UNL A   1      33.385  26.644  24.110  1.00  0.00     0.006 C 
ATOM     25  C   UNL A   1      30.929  26.170  23.842  1.00  0.00     0.006 C 
ATOM     26  C   UNL A   1      33.463  27.195  22.689  1.00  0.00     0.000 C 
ATOM     27  C   UNL A   1      30.981  26.744  22.423  1.00  0.00     0.000 C 
ATOM     28  C   UNL A   1      32.370  26.615  21.799  1.00  0.00     0.000 C 
ENDBRANCH   8  23
ENDBRANCH   6   8
ENDBRANCH   5   6
ENDBRANCH   4   5
ENDBRANCH   3   4
ENDBRANCH   2   3
ENDBRANCH   1   2
BRANCH   1  29
ATOM     29  C   UNL A   1      34.413  33.394  29.622  1.00  0.00     0.188 C 
BRANCH  29  30
ATOM     30  O   UNL A   1      35.054  32.329  30.280  1.00  0.00    -0.376 OA
BRANCH  30  31
ATOM     31  C   UNL A   1      36.116  31.675  29.609  1.00  0.00     0.202 C 
BRANCH  31  32
ATOM     32  C   UNL A   1      36.464  30.175  29.780  1.00  0.00     0.261 C 
BRANCH  32  33
ATOM     33  O   UNL A   1      36.382  29.583  31.085  1.00  0.00    -0.460 OA
BRANCH  33  34
ATOM     34  C   UNL A   1      37.531  29.093  31.615  1.00  0.00     0.338 C 
ATOM     35  O   UNL A   1      38.254  28.239  31.122  1.00  0.00    -0.246 OA
BRANCH  34  36
ATOM     36  C   UNL A   1      37.910  29.922  32.782  1.00  0.00     0.060 A 
ATOM     37  C   UNL A   1      37.114  31.029  33.117  1.00  0.00     0.016 A 
ATOM     38  C   UNL A   1      39.033  29.609  33.548  1.00  0.00     0.016 A 
ATOM     39  C   UNL A   1      37.451  31.835  34.208  1.00  0.00     0.010 A 
ATOM     40  C   UNL A   1      39.387  30.435  34.622  1.00  0.00     0.010 A 
ATOM     41  C   UNL A   1      38.615  31.570  34.938  1.00  0.00    -0.014 A 
BRANCH  41  42
ATOM     42  C   UNL A   1      39.141  32.582  35.892  1.00  0.00     0.031 A 
ATOM     43  C   UNL A   1      40.233  33.504  35.421  1.00  0.00     0.074 A 
ATOM     44  C   UNL A   1      38.674  32.684  37.149  1.00  0.00     0.049 A 
ATOM     45  N   UNL A   1      40.888  34.425  36.079  1.00  0.00    -0.248 NA
ATOM     46  C   UNL A   1      40.644  33.360  34.015  1.00  0.00     0.031 C 
ATOM     47  C   UNL A   1      37.602  31.877  37.725  1.00  0.00     0.029 A 
ATOM     48  N   UNL A   1      39.066  33.509  38.177  1.00  0.00    -0.354 N 
ATOM     49  C   UNL A   1      41.802  34.955  35.176  1.00  0.00     0.074 A 
ATOM     50  C   UNL A   1      41.635  34.233  33.933  1.00  0.00     0.031 C 
ATOM     51  C   UNL A   1      37.438  32.227  39.013  1.00  0.00     0.029 A 
ATOM     52  C   UNL A   1      38.415  33.259  39.362  1.00  0.00     0.049 A 
ATOM     53  H   UNL A   1      39.748  34.212  38.074  1.00  0.00     0.167 HD
ATOM     54  C   UNL A   1      42.702  35.951  35.362  1.00  0.00     0.031 A 
ATOM     55  C   UNL A   1      38.607  33.777  40.594  1.00  0.00     0.031 A 
ATOM     56  C   UNL A   1      42.887  36.648  36.607  1.00  0.00     0.049 A 
ATOM     57  C   UNL A   1      39.652  34.843  40.800  1.00  0.00     0.074 A 
ATOM     58  C   UNL A   1      43.749  37.694  36.886  1.00  0.00     0.029 A 
ATOM     59  N   UNL A   1      42.215  36.357  37.786  1.00  0.00    -0.354 N 
ATOM     60  N   UNL A   1      40.475  35.372  39.924  1.00  0.00    -0.248 NA
ATOM     61  C   UNL A   1      39.787  35.391  42.157  1.00  0.00     0.031 C 
ATOM     62  C   UNL A   1      43.653  37.984  38.252  1.00  0.00     0.029 A 
ATOM     63  C   UNL A   1      42.672  37.176  38.806  1.00  0.00     0.049 A 
ATOM     64  H   UNL A   1      41.517  35.671  37.883  1.00  0.00     0.167 HD
ATOM     65  C   UNL A   1      41.208  36.331  40.620  1.00  0.00     0.074 A 
ATOM     66  C   UNL A   1      40.720  36.319  41.984  1.00  0.00     0.031 C 
ATOM     67  C   UNL A   1      42.192  37.149  40.166  1.00  0.00     0.031 A 
BRANCH  54  68
ATOM     68  C   UNL A   1      43.597  36.295  34.198  1.00  0.00    -0.014 A 
ATOM     69  C   UNL A   1      44.793  35.595  33.953  1.00  0.00     0.010 A 
ATOM     70  C   UNL A   1      43.235  37.346  33.336  1.00  0.00     0.010 A 
ATOM     71  C   UNL A   1      45.640  35.983  32.911  1.00  0.00     0.020 A 
ATOM     72  C   UNL A   1      44.062  37.714  32.271  1.00  0.00     0.020 A 
ATOM     73  C   UNL A   1      45.273  37.046  32.082  1.00  0.00     0.054 A 
BRANCH  73  74
ATOM     74  S   UNL A   1      46.399  37.541  30.751  1.00  0.00     0.124 S 
ATOM     75  O   UNL A   1      46.512  38.981  30.972  1.00  0.00    -0.237 OA
ATOM     76  O   UNL A   1      47.601  36.766  31.043  1.00  0.00    -0.237 OA
ATOM     77  O   UNL A   1      45.692  37.153  29.533  1.00  0.00    -0.744 OA
ENDBRANCH  73  74
ENDBRANCH  54  68
BRANCH  55  78
ATOM     78  C   UNL A   1      37.799  33.263  41.735  1.00  0.00    -0.014 A 
ATOM     79  C   UNL A   1      38.184  32.105  42.434  1.00  0.00     0.010 A 
ATOM     80  C   UNL A   1      36.649  33.961  42.153  1.00  0.00     0.010 A 
ATOM     81  C   UNL A   1      37.441  31.662  43.533  1.00  0.00     0.020 A 
ATOM     82  C   UNL A   1      35.921  33.538  43.268  1.00  0.00     0.020 A 
ATOM     83  C   UNL A   1      36.321  32.389  43.951  1.00  0.00     0.054 A 
BRANCH  83  84
ATOM     84  S   UNL A   1      35.433  31.850  45.439  1.00  0.00     0.124 S 
ATOM     85  O   UNL A   1      34.668  33.042  45.788  1.00  0.00    -0.237 OA
ATOM     86  O   UNL A   1      34.653  30.718  44.943  1.00  0.00    -0.237 OA
ATOM     87  O   UNL A   1      36.505  31.498  46.369  1.00  0.00    -0.744 OA
ENDBRANCH  83  84
ENDBRANCH  55  78
BRANCH  67  88
ATOM     88  C   UNL A   1      42.796  38.129  41.141  1.00  0.00    -0.014 A 
ATOM     89  C   UNL A   1      43.961  37.822  41.869  1.00  0.00     0.010 A 
ATOM     90  C   UNL A   1      42.223  39.407  41.283  1.00  0.00     0.010 A 
ATOM     91  C   UNL A   1      44.521  38.762  42.741  1.00  0.00     0.020 A 
ATOM     92  C   UNL A   1      42.798  40.360  42.129  1.00  0.00     0.020 A 
ATOM     93  C   UNL A   1      43.936  40.026  42.864  1.00  0.00     0.054 A 
BRANCH  93  94
ATOM     94  S   UNL A   1      44.705  41.241  43.969  1.00  0.00     0.124 S 
ATOM     95  O   UNL A   1      44.714  42.444  43.143  1.00  0.00    -0.237 OA
ATOM     96  O   UNL A   1      43.787  41.266  45.105  1.00  0.00    -0.237 OA
ATOM     97  O   UNL A   1      46.022  40.671  44.251  1.00  0.00    -0.744 OA
ENDBRANCH  93  94
ENDBRANCH  67  88
ENDBRANCH  41  42
ENDBRANCH  34  36
ENDBRANCH  33  34
ENDBRANCH  32  33
ENDBRANCH  31  32
ENDBRANCH  30  31
ENDBRANCH  29  30
ENDBRANCH   1  29
TORSDOF 25
ENDMDL
MODEL 3
REMARK VINA RESULT:      -7.5      6.709     18.044
REMARK SMILES [NH3+]C[C@H]1CC[C@@H](C(=O)N[C@H](C(=O)OCCOCCOCCOC(=O)c2ccc(-c3c4nc(c(-c5ccc(S(=O)(=O)[O-])cc5)c5ccc([nH]5)c(-c5ccc(S(=O)(=O)[O-])cc5)c5nc(c(-c6ccc(S(=O)(=O)[O-])cc6)c6ccc3[nH]6)C=C5)C=C4)cc2)C2CCCCC2)O1
REMARK SMILES IDX 17 1 16 2 15 3 14 4 13 5 11 6 12 7 10 8 9 9 7 10 8 11 6 13
REMARK SMILES IDX 3 14 4 15 91 16 5 17 2 18 1 19 85 23 86 24 90 25 87 26 89 27
REMARK SMILES IDX 88 28 18 29 19 30 20 31 21 32 22 33 23 34 24 35 25 36 26 37
REMARK SMILES IDX 84 38 27 39 83 40 28 41 29 42 30 43 77 44 31 45 82 46 76 47
REMARK SMILES IDX 78 48 32 49 81 50 75 51 74 52 33 54 63 55 44 56 62 57 45 58
REMARK SMILES IDX 48 59 61 60 79 61 46 62 47 63 60 65 80 66 49 67 34 68 35 69
REMARK SMILES IDX 43 70 36 71 42 72 37 73 38 74 39 75 40 76 41 77 64 78 65 79
REMARK SMILES IDX 73 80 66 81 72 82 67 83 68 84 69 85 70 86 71 87 50 88 51 89
REMARK SMILES IDX 59 90 52 91 58 92 53 93 54 94 55 95 56 96 57 97
REMARK H PARENT 9 12 1 20 1 21 1 22 78 53 48 64
REMARK Flexibility Score: inf
ROOT
ATOM      1  C   UNL A   1      44.608  42.440  24.526  1.00  0.00     0.188 C 
ENDROOT
BRANCH   1   2
ATOM      2  O   UNL A   1      43.926  43.591  24.044  1.00  0.00    -0.376 OA
BRANCH   2   3
ATOM      3  C   UNL A   1      43.847  43.842  22.648  1.00  0.00     0.202 C 
BRANCH   3   4
ATOM      4  C   UNL A   1      45.116  44.034  21.808  1.00  0.00     0.261 C 
BRANCH   4   5
ATOM      5  O   UNL A   1      44.913  44.775  20.603  1.00  0.00    -0.462 OA
BRANCH   5   6
ATOM      6  C   UNL A   1      45.354  46.070  20.586  1.00  0.00     0.329 C 
ATOM      7  O   UNL A   1      45.831  46.649  21.550  1.00  0.00    -0.250 OA
BRANCH   6   8
ATOM      8  C   UNL A   1      45.291  46.615  19.139  1.00  0.00     0.195 C 
BRANCH   8   9
ATOM      9  N   UNL A   1      46.491  46.711  18.292  1.00  0.00    -0.340 N 
ATOM     10  C   UNL A   1      47.772  46.252  18.430  1.00  0.00     0.249 C 
ATOM     11  O   UNL A   1      48.567  46.509  17.522  1.00  0.00    -0.272 OA
ATOM     12  H   UNL A   1      46.341  47.208  17.455  1.00  0.00     0.164 HD
BRANCH  10  13
ATOM     13  C   UNL A   1      48.202  45.451  19.661  1.00  0.00     0.207 C 
ATOM     14  C   UNL A   1      49.538  43.633  20.214  1.00  0.00     0.174 C 
ATOM     15  C   UNL A   1      49.812  44.764  21.198  1.00  0.00     0.041 C 
ATOM     16  O   UNL A   1      48.468  44.083  19.355  1.00  0.00    -0.359 OA
ATOM     17  C   UNL A   1      49.422  45.984  20.391  1.00  0.00     0.045 C 
BRANCH  14  18
ATOM     18  C   UNL A   1      50.765  43.306  19.344  1.00  0.00     0.291 C 
BRANCH  18  19
ATOM     19  N   UNL A   1      51.800  44.341  19.448  1.00  0.00    -0.355 N 
ATOM     20  H   UNL A   1      51.974  44.550  20.431  1.00  0.00     0.344 HD
ATOM     21  H   UNL A   1      51.486  45.186  18.972  1.00  0.00     0.344 HD
ATOM     22  H   UNL A   1      52.660  44.006  19.014  1.00  0.00     0.344 HD
ENDBRANCH  18  19
ENDBRANCH  14  18
ENDBRANCH  10  13
ENDBRANCH   8   9
BRANCH   8  23
ATOM     23  C   UNL A   1      43.954  46.273  18.432  1.00  0.00     0.023 C 
ATOM     24  C   UNL A   1      43.340  47.534  17.772  1.00  0.00     0.006 C 
ATOM     25  C   UNL A   1      44.032  45.143  17.406  1.00  0.00     0.006 C 
ATOM     26  C   UNL A   1      41.949  47.247  17.216  1.00  0.00     0.000 C 
ATOM     27  C   UNL A   1      42.633  44.829  16.870  1.00  0.00     0.000 C 
ATOM     28  C   UNL A   1      41.958  46.058  16.263  1.00  0.00     0.000 C 
ENDBRANCH   8  23
ENDBRANCH   6   8
ENDBRANCH   5   6
ENDBRANCH   4   5
ENDBRANCH   3   4
ENDBRANCH   2   3
ENDBRANCH   1   2
BRANCH   1  29
ATOM     29  C   UNL A   1      44.232  41.847  25.907  1.00  0.00     0.188 C 
BRANCH  29  30
ATOM     30  O   UNL A   1      44.287  40.443  25.954  1.00  0.00    -0.376 OA
BRANCH  30  31
ATOM     31  C   UNL A   1      44.558  39.830  27.202  1.00  0.00     0.202 C 
BRANCH  31  32
ATOM     32  C   UNL A   1      45.956  39.332  27.645  1.00  0.00     0.261 C 
BRANCH  32  33
ATOM     33  O   UNL A   1      46.067  38.071  28.322  1.00  0.00    -0.460 OA
BRANCH  33  34
ATOM     34  C   UNL A   1      47.284  37.473  28.321  1.00  0.00     0.338 C 
ATOM     35  O   UNL A   1      48.359  38.010  28.551  1.00  0.00    -0.246 OA
BRANCH  34  36
ATOM     36  C   UNL A   1      47.097  36.007  28.229  1.00  0.00     0.060 A 
ATOM     37  C   UNL A   1      46.772  35.440  26.987  1.00  0.00     0.016 A 
ATOM     38  C   UNL A   1      47.250  35.194  29.353  1.00  0.00     0.016 A 
ATOM     39  C   UNL A   1      46.581  34.060  26.870  1.00  0.00     0.010 A 
ATOM     40  C   UNL A   1      47.028  33.816  29.241  1.00  0.00     0.010 A 
ATOM     41  C   UNL A   1      46.662  33.246  28.007  1.00  0.00    -0.014 A 
BRANCH  41  42
ATOM     42  C   UNL A   1      46.167  31.845  27.954  1.00  0.00     0.031 A 
ATOM     43  C   UNL A   1      47.085  30.787  27.405  1.00  0.00     0.074 A 
ATOM     44  C   UNL A   1      44.934  31.511  28.375  1.00  0.00     0.049 A 
ATOM     45  N   UNL A   1      46.863  29.513  27.207  1.00  0.00    -0.248 NA
ATOM     46  C   UNL A   1      48.434  31.231  27.020  1.00  0.00     0.031 C 
ATOM     47  C   UNL A   1      43.957  32.428  28.955  1.00  0.00     0.029 A 
ATOM     48  N   UNL A   1      44.289  30.296  28.356  1.00  0.00    -0.354 N 
ATOM     49  C   UNL A   1      48.035  29.008  26.655  1.00  0.00     0.074 A 
ATOM     50  C   UNL A   1      48.953  30.119  26.526  1.00  0.00     0.031 C 
ATOM     51  C   UNL A   1      42.825  31.750  29.213  1.00  0.00     0.029 A 
ATOM     52  C   UNL A   1      42.985  30.359  28.787  1.00  0.00     0.049 A 
ATOM     53  H   UNL A   1      44.721  29.461  28.063  1.00  0.00     0.167 HD
ATOM     54  C   UNL A   1      48.324  27.736  26.287  1.00  0.00     0.031 A 
ATOM     55  C   UNL A   1      42.021  29.415  28.805  1.00  0.00     0.031 A 
ATOM     56  C   UNL A   1      47.399  26.638  26.391  1.00  0.00     0.049 A 
ATOM     57  C   UNL A   1      42.338  28.017  28.337  1.00  0.00     0.074 A 
ATOM     58  C   UNL A   1      47.608  25.307  26.075  1.00  0.00     0.029 A 
ATOM     59  N   UNL A   1      46.084  26.746  26.821  1.00  0.00    -0.354 N 
ATOM     60  N   UNL A   1      43.467  27.540  27.866  1.00  0.00    -0.248 NA
ATOM     61  C   UNL A   1      41.255  27.027  28.414  1.00  0.00     0.031 C 
ATOM     62  C   UNL A   1      46.397  24.625  26.244  1.00  0.00     0.029 A 
ATOM     63  C   UNL A   1      45.457  25.513  26.742  1.00  0.00     0.049 A 
ATOM     64  H   UNL A   1      45.660  27.576  27.137  1.00  0.00     0.167 HD
ATOM     65  C   UNL A   1      43.236  26.191  27.614  1.00  0.00     0.074 A 
ATOM     66  C   UNL A   1      41.866  25.924  27.999  1.00  0.00     0.031 C 
ATOM     67  C   UNL A   1      44.087  25.257  27.114  1.00  0.00     0.031 A 
BRANCH  54  68
ATOM     68  C   UNL A   1      49.681  27.487  25.680  1.00  0.00    -0.014 A 
ATOM     69  C   UNL A   1      49.910  27.630  24.299  1.00  0.00     0.010 A 
ATOM     70  C   UNL A   1      50.748  27.096  26.510  1.00  0.00     0.010 A 
ATOM     71  C   UNL A   1      51.159  27.321  23.752  1.00  0.00     0.020 A 
ATOM     72  C   UNL A   1      52.007  26.821  25.972  1.00  0.00     0.020 A 
ATOM     73  C   UNL A   1      52.198  26.910  24.592  1.00  0.00     0.054 A 
BRANCH  73  74
ATOM     74  S   UNL A   1      53.801  26.497  23.855  1.00  0.00     0.124 S 
ATOM     75  O   UNL A   1      54.289  25.458  24.760  1.00  0.00    -0.237 OA
ATOM     76  O   UNL A   1      53.431  26.040  22.519  1.00  0.00    -0.237 OA
ATOM     77  O   UNL A   1      54.540  27.756  23.898  1.00  0.00    -0.744 OA
ENDBRANCH  73  74
ENDBRANCH  54  68
BRANCH  55  78
ATOM     78  C   UNL A   1      40.650  29.780  29.259  1.00  0.00    -0.014 A 
ATOM     79  C   UNL A   1      39.604  29.961  28.337  1.00  0.00     0.010 A 
ATOM     80  C   UNL A   1      40.378  29.911  30.635  1.00  0.00     0.010 A 
ATOM     81  C   UNL A   1      38.312  30.257  28.783  1.00  0.00     0.020 A 
ATOM     82  C   UNL A   1      39.083  30.178  31.085  1.00  0.00     0.020 A 
ATOM     83  C   UNL A   1      38.056  30.351  30.156  1.00  0.00     0.054 A 
BRANCH  83  84
ATOM     84  S   UNL A   1      36.353  30.637  30.711  1.00  0.00     0.124 S 
ATOM     85  O   UNL A   1      36.248  29.735  31.854  1.00  0.00    -0.237 OA
ATOM     86  O   UNL A   1      36.364  32.063  31.029  1.00  0.00    -0.237 OA
ATOM     87  O   UNL A   1      35.547  30.271  29.548  1.00  0.00    -0.744 OA
ENDBRANCH  83  84
ENDBRANCH  55  78
BRANCH  67  88
ATOM     88  C   UNL A   1      43.576  23.844  26.976  1.00  0.00    -0.014 A 
ATOM     89  C   UNL A   1      43.425  23.003  28.093  1.00  0.00     0.010 A 
ATOM     90  C   UNL A   1      43.180  23.371  25.710  1.00  0.00     0.010 A 
ATOM     91  C   UNL A   1      42.916  21.708  27.943  1.00  0.00     0.020 A 
ATOM     92  C   UNL A   1      42.642  22.090  25.560  1.00  0.00     0.020 A 
ATOM     93  C   UNL A   1      42.526  21.261  26.676  1.00  0.00     0.054 A 
BRANCH  93  94
ATOM     94  S   UNL A   1      41.832  19.593  26.514  1.00  0.00     0.124 S 
ATOM     95  O   UNL A   1      42.418  18.906  27.661  1.00  0.00    -0.237 OA
ATOM     96  O   UNL A   1      40.394  19.837  26.596  1.00  0.00    -0.237 OA
ATOM     97  O   UNL A   1      42.309  19.142  25.208  1.00  0.00    -0.744 OA
ENDBRANCH  93  94
ENDBRANCH  67  88
ENDBRANCH  41  42
ENDBRANCH  34  36
ENDBRANCH  33  34
ENDBRANCH  32  33
ENDBRANCH  31  32
ENDBRANCH  30  31
ENDBRANCH  29  30
ENDBRANCH   1  29
TORSDOF 25
ENDMDL
