MODEL 1
REMARK VINA RESULT:     -10.8      0.000      0.000
REMARK SMILES O=C(OCCOCCOCCOC(=O)c1ccc(-c2c3nc(c(-c4ccc(S(=O)(=O)[O-])cc4)c4ccc([nH]4)c(-c4ccc(S(=O)(=O)[O-])cc4)c4nc(c(-c5ccc(S(=O)(=O)[O-])cc5)c5ccc2[nH]5)C=C4)C=C3)cc1)C1=Cc2cc(Cl)ccc2O[C@@H]1C(F)(F)F
REMARK SMILES IDX 8 1 7 2 6 3 5 4 4 5 3 6 2 7 1 8 75 9 76 10 85 11 77 12 84 13
REMARK SMILES IDX 78 14 83 15 79 16 82 17 80 18 81 19 86 20 87 21 88 22 89 23
REMARK SMILES IDX 9 24 10 25 11 26 12 27 13 28 14 29 15 30 16 31 74 32 17 33
REMARK SMILES IDX 73 34 18 35 19 36 20 37 67 38 21 39 72 40 66 41 68 42 22 43
REMARK SMILES IDX 71 44 65 45 64 46 23 48 53 49 34 50 52 51 35 52 38 53 51 54
REMARK SMILES IDX 69 55 36 56 37 57 50 59 70 60 39 61 24 62 25 63 33 64 26 65
REMARK SMILES IDX 32 66 27 67 28 68 29 69 30 70 31 71 54 72 55 73 63 74 56 75
REMARK SMILES IDX 62 76 57 77 58 78 59 79 60 80 61 81 40 82 41 83 49 84 42 85
REMARK SMILES IDX 48 86 43 87 44 88 45 89 46 90 47 91
REMARK H PARENT 68 47 38 58
REMARK Flexibility Score: inf
ROOT
ATOM      1  C   UNL A   1      32.020  29.107  23.554  1.00  0.00     0.188 C 
ENDROOT
BRANCH   1   2
ATOM      2  C   UNL A   1      31.978  27.618  23.171  1.00  0.00     0.188 C 
BRANCH   2   3
ATOM      3  O   UNL A   1      30.693  26.869  23.042  1.00  0.00    -0.376 OA
BRANCH   3   4
ATOM      4  C   UNL A   1      29.720  26.200  24.303  1.00  0.00     0.202 C 
BRANCH   4   5
ATOM      5  C   UNL A   1      30.505  25.145  26.035  1.00  0.00     0.261 C 
BRANCH   5   6
ATOM      6  O   UNL A   1      31.962  25.049  26.444  1.00  0.00    -0.460 OA
BRANCH   6   7
ATOM      7  C   UNL A   1      32.420  23.790  26.362  1.00  0.00     0.338 C 
ATOM      8  O   UNL A   1      32.409  22.949  27.226  1.00  0.00    -0.246 OA
BRANCH   7   9
ATOM      9  C   UNL A   1      33.334  24.007  25.248  1.00  0.00     0.087 C 
ATOM     10  C   UNL A   1      34.708  24.370  25.591  1.00  0.00     0.027 C 
ATOM     11  C   UNL A   1      32.816  22.367  24.399  1.00  0.00     0.316 C 
ATOM     12  C   UNL A   1      36.095  23.224  25.559  1.00  0.00     0.019 A 
ATOM     13  O   UNL A   1      34.248  21.046  24.516  1.00  0.00    -0.475 OA
ATOM     14  C   UNL A   1      37.328  23.636  25.980  1.00  0.00     0.032 A 
ATOM     15  C   UNL A   1      35.906  21.569  25.089  1.00  0.00     0.128 A 
ATOM     16  C   UNL A   1      38.328  22.647  25.929  1.00  0.00     0.041 A 
ATOM     17  C   UNL A   1      36.934  20.671  25.055  1.00  0.00     0.048 A 
ATOM     18  Cl  UNL A   1      39.917  23.125  26.445  1.00  0.00    -0.084 Cl
ATOM     19  C   UNL A   1      38.150  21.264  25.482  1.00  0.00     0.024 A 
BRANCH  11  20
ATOM     20  C   UNL A   1      32.122  23.154  23.079  1.00  0.00     0.430 C 
ATOM     21  F   UNL A   1      32.506  24.380  22.722  1.00  0.00    -0.167 F 
ATOM     22  F   UNL A   1      32.252  22.368  21.982  1.00  0.00    -0.167 F 
ATOM     23  F   UNL A   1      30.770  23.297  23.252  1.00  0.00    -0.167 F 
ENDBRANCH  11  20
ENDBRANCH   7   9
ENDBRANCH   6   7
ENDBRANCH   5   6
ENDBRANCH   4   5
ENDBRANCH   3   4
ENDBRANCH   2   3
ENDBRANCH   1   2
BRANCH   1  24
ATOM     24  O   UNL A   1      32.660  29.482  24.749  1.00  0.00    -0.376 OA
BRANCH  24  25
ATOM     25  C   UNL A   1      31.808  30.050  25.736  1.00  0.00     0.202 C 
BRANCH  25  26
ATOM     26  C   UNL A   1      32.437  30.498  27.068  1.00  0.00     0.261 C 
BRANCH  26  27
ATOM     27  O   UNL A   1      33.800  30.059  27.261  1.00  0.00    -0.460 OA
BRANCH  27  28
ATOM     28  C   UNL A   1      34.723  30.999  27.594  1.00  0.00     0.338 C 
ATOM     29  O   UNL A   1      34.578  32.209  27.581  1.00  0.00    -0.246 OA
BRANCH  28  30
ATOM     30  C   UNL A   1      35.934  30.335  28.122  1.00  0.00     0.060 A 
ATOM     31  C   UNL A   1      35.924  29.762  29.404  1.00  0.00     0.016 A 
ATOM     32  C   UNL A   1      37.100  30.322  27.358  1.00  0.00     0.016 A 
ATOM     33  C   UNL A   1      37.069  29.132  29.906  1.00  0.00     0.010 A 
ATOM     34  C   UNL A   1      38.258  29.741  27.881  1.00  0.00     0.010 A 
ATOM     35  C   UNL A   1      38.253  29.153  29.159  1.00  0.00    -0.014 A 
BRANCH  35  36
ATOM     36  C   UNL A   1      39.550  28.810  29.792  1.00  0.00     0.031 A 
ATOM     37  C   UNL A   1      40.034  29.703  30.900  1.00  0.00     0.074 A 
ATOM     38  C   UNL A   1      40.312  27.788  29.362  1.00  0.00     0.049 A 
ATOM     39  N   UNL A   1      41.180  29.708  31.525  1.00  0.00    -0.248 NA
ATOM     40  C   UNL A   1      39.096  30.748  31.347  1.00  0.00     0.031 C 
ATOM     41  C   UNL A   1      39.939  26.833  28.322  1.00  0.00     0.029 A 
ATOM     42  N   UNL A   1      41.578  27.404  29.735  1.00  0.00    -0.354 N 
ATOM     43  C   UNL A   1      41.111  30.768  32.421  1.00  0.00     0.074 A 
ATOM     44  C   UNL A   1      39.821  31.394  32.245  1.00  0.00     0.031 C 
ATOM     45  C   UNL A   1      40.965  25.987  28.121  1.00  0.00     0.029 A 
ATOM     46  C   UNL A   1      42.083  26.367  28.985  1.00  0.00     0.049 A 
ATOM     47  H   UNL A   1      42.076  27.830  30.470  1.00  0.00     0.167 HD
ATOM     48  C   UNL A   1      42.044  31.189  33.306  1.00  0.00     0.031 A 
ATOM     49  C   UNL A   1      43.317  25.817  28.971  1.00  0.00     0.031 A 
ATOM     50  C   UNL A   1      43.343  30.587  33.442  1.00  0.00     0.049 A 
ATOM     51  C   UNL A   1      44.371  26.345  29.914  1.00  0.00     0.074 A 
ATOM     52  C   UNL A   1      44.356  30.923  34.321  1.00  0.00     0.029 A 
ATOM     53  N   UNL A   1      43.818  29.546  32.658  1.00  0.00    -0.354 N 
ATOM     54  N   UNL A   1      44.279  27.316  30.793  1.00  0.00    -0.248 NA
ATOM     55  C   UNL A   1      45.694  25.703  29.869  1.00  0.00     0.031 C 
ATOM     56  C   UNL A   1      45.473  30.142  34.012  1.00  0.00     0.029 A 
ATOM     57  C   UNL A   1      45.125  29.253  33.007  1.00  0.00     0.049 A 
ATOM     58  H   UNL A   1      43.303  29.084  31.959  1.00  0.00     0.167 HD
ATOM     59  C   UNL A   1      45.519  27.381  31.425  1.00  0.00     0.074 A 
ATOM     60  C   UNL A   1      46.341  26.345  30.834  1.00  0.00     0.031 C 
ATOM     61  C   UNL A   1      45.933  28.215  32.411  1.00  0.00     0.031 A 
BRANCH  48  62
ATOM     62  C   UNL A   1      41.711  32.401  34.140  1.00  0.00    -0.014 A 
ATOM     63  C   UNL A   1      41.971  33.706  33.682  1.00  0.00     0.010 A 
ATOM     64  C   UNL A   1      41.125  32.226  35.406  1.00  0.00     0.010 A 
ATOM     65  C   UNL A   1      41.703  34.808  34.498  1.00  0.00     0.020 A 
ATOM     66  C   UNL A   1      40.819  33.326  36.209  1.00  0.00     0.020 A 
ATOM     67  C   UNL A   1      41.131  34.610  35.758  1.00  0.00     0.054 A 
BRANCH  67  68
ATOM     68  S   UNL A   1      40.789  36.059  36.792  1.00  0.00     0.124 S 
ATOM     69  O   UNL A   1      39.756  36.746  36.018  1.00  0.00    -0.237 OA
ATOM     70  O   UNL A   1      40.338  35.458  38.045  1.00  0.00    -0.237 OA
ATOM     71  O   UNL A   1      42.075  36.750  36.862  1.00  0.00    -0.744 OA
ENDBRANCH  67  68
ENDBRANCH  48  62
BRANCH  49  72
ATOM     72  C   UNL A   1      43.633  24.729  28.000  1.00  0.00    -0.014 A 
ATOM     73  C   UNL A   1      43.263  23.396  28.251  1.00  0.00     0.010 A 
ATOM     74  C   UNL A   1      44.296  25.031  26.795  1.00  0.00     0.010 A 
ATOM     75  C   UNL A   1      43.548  22.390  27.320  1.00  0.00     0.020 A 
ATOM     76  C   UNL A   1      44.554  24.036  25.847  1.00  0.00     0.020 A 
ATOM     77  C   UNL A   1      44.181  22.719  26.118  1.00  0.00     0.054 A 
BRANCH  77  78
ATOM     78  S   UNL A   1      44.465  21.414  24.888  1.00  0.00     0.124 S 
ATOM     79  O   UNL A   1      43.471  20.415  25.267  1.00  0.00    -0.237 OA
ATOM     80  O   UNL A   1      44.215  22.110  23.629  1.00  0.00    -0.237 OA
ATOM     81  O   UNL A   1      45.857  21.027  25.113  1.00  0.00    -0.744 OA
ENDBRANCH  77  78
ENDBRANCH  49  72
BRANCH  61  82
ATOM     82  C   UNL A   1      47.324  28.028  32.966  1.00  0.00    -0.014 A 
ATOM     83  C   UNL A   1      48.405  28.814  32.534  1.00  0.00     0.010 A 
ATOM     84  C   UNL A   1      47.519  27.119  34.024  1.00  0.00     0.010 A 
ATOM     85  C   UNL A   1      49.658  28.687  33.143  1.00  0.00     0.020 A 
ATOM     86  C   UNL A   1      48.760  27.015  34.658  1.00  0.00     0.020 A 
ATOM     87  C   UNL A   1      49.824  27.797  34.208  1.00  0.00     0.054 A 
BRANCH  87  88
ATOM     88  S   UNL A   1      51.436  27.714  35.036  1.00  0.00     0.124 S 
ATOM     89  O   UNL A   1      52.361  27.743  33.906  1.00  0.00    -0.237 OA
ATOM     90  O   UNL A   1      51.426  28.914  35.870  1.00  0.00    -0.237 OA
ATOM     91  O   UNL A   1      51.389  26.451  35.768  1.00  0.00    -0.744 OA
ENDBRANCH  87  88
ENDBRANCH  61  82
ENDBRANCH  35  36
ENDBRANCH  28  30
ENDBRANCH  27  28
ENDBRANCH  26  27
ENDBRANCH  25  26
ENDBRANCH  24  25
ENDBRANCH   1  24
TORSDOF 21
ENDMDL
MODEL 2
REMARK VINA RESULT:     -10.4      1.123      8.143
REMARK SMILES O=C(OCCOCCOCCOC(=O)c1ccc(-c2c3nc(c(-c4ccc(S(=O)(=O)[O-])cc4)c4ccc([nH]4)c(-c4ccc(S(=O)(=O)[O-])cc4)c4nc(c(-c5ccc(S(=O)(=O)[O-])cc5)c5ccc2[nH]5)C=C4)C=C3)cc1)C1=Cc2cc(Cl)ccc2O[C@@H]1C(F)(F)F
REMARK SMILES IDX 8 1 7 2 6 3 5 4 4 5 3 6 2 7 1 8 75 9 76 10 85 11 77 12 84 13
REMARK SMILES IDX 78 14 83 15 79 16 82 17 80 18 81 19 86 20 87 21 88 22 89 23
REMARK SMILES IDX 9 24 10 25 11 26 12 27 13 28 14 29 15 30 16 31 74 32 17 33
REMARK SMILES IDX 73 34 18 35 19 36 20 37 67 38 21 39 72 40 66 41 68 42 22 43
REMARK SMILES IDX 71 44 65 45 64 46 23 48 53 49 34 50 52 51 35 52 38 53 51 54
REMARK SMILES IDX 69 55 36 56 37 57 50 59 70 60 39 61 24 62 25 63 33 64 26 65
REMARK SMILES IDX 32 66 27 67 28 68 29 69 30 70 31 71 54 72 55 73 63 74 56 75
REMARK SMILES IDX 62 76 57 77 58 78 59 79 60 80 61 81 40 82 41 83 49 84 42 85
REMARK SMILES IDX 48 86 43 87 44 88 45 89 46 90 47 91
REMARK H PARENT 68 47 38 58
REMARK Flexibility Score: inf
ROOT
ATOM      1  C   UNL A   1      32.746  28.968  23.549  1.00  0.00     0.188 C 
ENDROOT
BRANCH   1   2
ATOM      2  C   UNL A   1      33.224  27.538  23.247  1.00  0.00     0.188 C 
BRANCH   2   3
ATOM      3  O   UNL A   1      32.341  26.528  22.592  1.00  0.00    -0.376 OA
BRANCH   3   4
ATOM      4  C   UNL A   1      30.923  25.778  23.234  1.00  0.00     0.202 C 
BRANCH   4   5
ATOM      5  C   UNL A   1      30.763  24.967  25.244  1.00  0.00     0.261 C 
BRANCH   5   6
ATOM      6  O   UNL A   1      31.910  24.696  26.198  1.00  0.00    -0.460 OA
BRANCH   6   7
ATOM      7  C   UNL A   1      32.353  23.433  26.097  1.00  0.00     0.338 C 
ATOM      8  O   UNL A   1      32.318  22.575  26.944  1.00  0.00    -0.246 OA
BRANCH   7   9
ATOM      9  C   UNL A   1      33.287  23.661  25.003  1.00  0.00     0.087 C 
ATOM     10  C   UNL A   1      34.578  24.249  25.355  1.00  0.00     0.027 C 
ATOM     11  C   UNL A   1      33.046  21.884  24.321  1.00  0.00     0.316 C 
ATOM     12  C   UNL A   1      36.109  23.313  25.504  1.00  0.00     0.019 A 
ATOM     13  O   UNL A   1      34.637  20.799  24.639  1.00  0.00    -0.475 OA
ATOM     14  C   UNL A   1      37.250  23.939  25.924  1.00  0.00     0.032 A 
ATOM     15  C   UNL A   1      36.174  21.609  25.214  1.00  0.00     0.128 A 
ATOM     16  C   UNL A   1      38.377  23.102  26.021  1.00  0.00     0.041 A 
ATOM     17  C   UNL A   1      37.315  20.868  25.318  1.00  0.00     0.048 A 
ATOM     18  Cl  UNL A   1      39.855  23.852  26.542  1.00  0.00    -0.084 Cl
ATOM     19  C   UNL A   1      38.414  21.668  25.723  1.00  0.00     0.024 A 
BRANCH  11  20
ATOM     20  C   UNL A   1      32.322  22.422  22.896  1.00  0.00     0.430 C 
ATOM     21  F   UNL A   1      31.039  22.782  22.863  1.00  0.00    -0.167 F 
ATOM     22  F   UNL A   1      33.035  23.466  22.409  1.00  0.00    -0.167 F 
ATOM     23  F   UNL A   1      32.392  21.461  21.921  1.00  0.00    -0.167 F 
ENDBRANCH  11  20
ENDBRANCH   7   9
ENDBRANCH   6   7
ENDBRANCH   5   6
ENDBRANCH   4   5
ENDBRANCH   3   4
ENDBRANCH   2   3
ENDBRANCH   1   2
BRANCH   1  24
ATOM     24  O   UNL A   1      33.135  29.573  24.756  1.00  0.00    -0.376 OA
BRANCH  24  25
ATOM     25  C   UNL A   1      32.084  29.792  25.689  1.00  0.00     0.202 C 
BRANCH  25  26
ATOM     26  C   UNL A   1      32.458  30.211  27.122  1.00  0.00     0.261 C 
BRANCH  26  27
ATOM     27  O   UNL A   1      33.832  29.945  27.481  1.00  0.00    -0.460 OA
BRANCH  27  28
ATOM     28  C   UNL A   1      34.604  31.001  27.845  1.00  0.00     0.338 C 
ATOM     29  O   UNL A   1      34.286  32.178  27.847  1.00  0.00    -0.246 OA
BRANCH  28  30
ATOM     30  C   UNL A   1      35.890  30.510  28.387  1.00  0.00     0.060 A 
ATOM     31  C   UNL A   1      35.909  29.694  29.530  1.00  0.00     0.016 A 
ATOM     32  C   UNL A   1      37.084  30.899  27.782  1.00  0.00     0.016 A 
ATOM     33  C   UNL A   1      37.125  29.227  30.044  1.00  0.00     0.010 A 
ATOM     34  C   UNL A   1      38.299  30.477  28.327  1.00  0.00     0.010 A 
ATOM     35  C   UNL A   1      38.328  29.649  29.464  1.00  0.00    -0.014 A 
BRANCH  35  36
ATOM     36  C   UNL A   1      39.615  29.460  30.177  1.00  0.00     0.031 A 
ATOM     37  C   UNL A   1      40.517  28.361  29.691  1.00  0.00     0.074 A 
ATOM     38  C   UNL A   1      39.951  30.185  31.259  1.00  0.00     0.049 A 
ATOM     39  N   UNL A   1      41.624  27.901  30.210  1.00  0.00    -0.248 NA
ATOM     40  C   UNL A   1      40.097  27.675  28.457  1.00  0.00     0.031 C 
ATOM     41  C   UNL A   1      39.178  31.298  31.806  1.00  0.00     0.029 A 
ATOM     42  N   UNL A   1      41.024  30.068  32.111  1.00  0.00    -0.354 N 
ATOM     43  C   UNL A   1      42.019  26.858  29.381  1.00  0.00     0.074 A 
ATOM     44  C   UNL A   1      41.025  26.740  28.339  1.00  0.00     0.031 C 
ATOM     45  C   UNL A   1      39.789  31.747  32.917  1.00  0.00     0.029 A 
ATOM     46  C   UNL A   1      40.971  30.926  33.185  1.00  0.00     0.049 A 
ATOM     47  H   UNL A   1      41.761  29.433  31.964  1.00  0.00     0.167 HD
ATOM     48  C   UNL A   1      43.108  26.061  29.484  1.00  0.00     0.031 A 
ATOM     49  C   UNL A   1      41.761  31.010  34.278  1.00  0.00     0.031 A 
ATOM     50  C   UNL A   1      44.067  26.158  30.551  1.00  0.00     0.049 A 
ATOM     51  C   UNL A   1      42.932  30.065  34.416  1.00  0.00     0.074 A 
ATOM     52  C   UNL A   1      45.218  25.414  30.740  1.00  0.00     0.029 A 
ATOM     53  N   UNL A   1      43.972  27.032  31.624  1.00  0.00    -0.354 N 
ATOM     54  N   UNL A   1      43.325  29.115  33.600  1.00  0.00    -0.248 NA
ATOM     55  C   UNL A   1      43.769  30.207  35.617  1.00  0.00     0.031 C 
ATOM     56  C   UNL A   1      45.772  25.780  31.969  1.00  0.00     0.029 A 
ATOM     57  C   UNL A   1      45.022  26.819  32.500  1.00  0.00     0.049 A 
ATOM     58  H   UNL A   1      43.264  27.704  31.744  1.00  0.00     0.167 HD
ATOM     59  C   UNL A   1      44.470  28.566  34.173  1.00  0.00     0.074 A 
ATOM     60  C   UNL A   1      44.711  29.297  35.400  1.00  0.00     0.031 C 
ATOM     61  C   UNL A   1      45.253  27.557  33.719  1.00  0.00     0.031 A 
BRANCH  48  62
ATOM     62  C   UNL A   1      43.272  24.975  28.452  1.00  0.00    -0.014 A 
ATOM     63  C   UNL A   1      43.749  25.251  27.158  1.00  0.00     0.010 A 
ATOM     64  C   UNL A   1      42.941  23.649  28.789  1.00  0.00     0.010 A 
ATOM     65  C   UNL A   1      43.838  24.233  26.204  1.00  0.00     0.020 A 
ATOM     66  C   UNL A   1      43.067  22.622  27.851  1.00  0.00     0.020 A 
ATOM     67  C   UNL A   1      43.494  22.925  26.557  1.00  0.00     0.054 A 
BRANCH  67  68
ATOM     68  S   UNL A   1      43.626  21.625  25.301  1.00  0.00     0.124 S 
ATOM     69  O   UNL A   1      44.896  20.994  25.653  1.00  0.00    -0.237 OA
ATOM     70  O   UNL A   1      42.434  20.819  25.551  1.00  0.00    -0.237 OA
ATOM     71  O   UNL A   1      43.626  22.359  24.037  1.00  0.00    -0.744 OA
ENDBRANCH  67  68
ENDBRANCH  48  62
BRANCH  49  72
ATOM     72  C   UNL A   1      41.444  31.999  35.348  1.00  0.00    -0.014 A 
ATOM     73  C   UNL A   1      42.079  33.253  35.395  1.00  0.00     0.010 A 
ATOM     74  C   UNL A   1      40.479  31.693  36.327  1.00  0.00     0.010 A 
ATOM     75  C   UNL A   1      41.754  34.179  36.394  1.00  0.00     0.020 A 
ATOM     76  C   UNL A   1      40.128  32.626  37.307  1.00  0.00     0.020 A 
ATOM     77  C   UNL A   1      40.772  33.863  37.337  1.00  0.00     0.054 A 
BRANCH  77  78
ATOM     78  S   UNL A   1      40.307  35.111  38.571  1.00  0.00     0.124 S 
ATOM     79  O   UNL A   1      40.153  34.305  39.778  1.00  0.00    -0.237 OA
ATOM     80  O   UNL A   1      41.456  36.012  38.555  1.00  0.00    -0.237 OA
ATOM     81  O   UNL A   1      39.070  35.679  38.038  1.00  0.00    -0.744 OA
ENDBRANCH  77  78
ENDBRANCH  49  72
BRANCH  61  82
ATOM     82  C   UNL A   1      46.485  27.197  34.513  1.00  0.00    -0.014 A 
ATOM     83  C   UNL A   1      46.452  26.230  35.532  1.00  0.00     0.010 A 
ATOM     84  C   UNL A   1      47.722  27.764  34.148  1.00  0.00     0.010 A 
ATOM     85  C   UNL A   1      47.632  25.844  36.178  1.00  0.00     0.020 A 
ATOM     86  C   UNL A   1      48.906  27.356  34.766  1.00  0.00     0.020 A 
ATOM     87  C   UNL A   1      48.852  26.402  35.782  1.00  0.00     0.054 A 
BRANCH  87  88
ATOM     88  S   UNL A   1      50.376  25.821  36.577  1.00  0.00     0.124 S 
ATOM     89  O   UNL A   1      51.377  26.079  35.545  1.00  0.00    -0.237 OA
ATOM     90  O   UNL A   1      50.461  26.673  37.761  1.00  0.00    -0.237 OA
ATOM     91  O   UNL A   1      50.113  24.410  36.849  1.00  0.00    -0.744 OA
ENDBRANCH  87  88
ENDBRANCH  61  82
ENDBRANCH  35  36
ENDBRANCH  28  30
ENDBRANCH  27  28
ENDBRANCH  26  27
ENDBRANCH  25  26
ENDBRANCH  24  25
ENDBRANCH   1  24
TORSDOF 21
ENDMDL
MODEL 3
REMARK VINA RESULT:     -10.4      1.984      2.575
REMARK SMILES O=C(OCCOCCOCCOC(=O)c1ccc(-c2c3nc(c(-c4ccc(S(=O)(=O)[O-])cc4)c4ccc([nH]4)c(-c4ccc(S(=O)(=O)[O-])cc4)c4nc(c(-c5ccc(S(=O)(=O)[O-])cc5)c5ccc2[nH]5)C=C4)C=C3)cc1)C1=Cc2cc(Cl)ccc2O[C@@H]1C(F)(F)F
REMARK SMILES IDX 8 1 7 2 6 3 5 4 4 5 3 6 2 7 1 8 75 9 76 10 85 11 77 12 84 13
REMARK SMILES IDX 78 14 83 15 79 16 82 17 80 18 81 19 86 20 87 21 88 22 89 23
REMARK SMILES IDX 9 24 10 25 11 26 12 27 13 28 14 29 15 30 16 31 74 32 17 33
REMARK SMILES IDX 73 34 18 35 19 36 20 37 67 38 21 39 72 40 66 41 68 42 22 43
REMARK SMILES IDX 71 44 65 45 64 46 23 48 53 49 34 50 52 51 35 52 38 53 51 54
REMARK SMILES IDX 69 55 36 56 37 57 50 59 70 60 39 61 24 62 25 63 33 64 26 65
REMARK SMILES IDX 32 66 27 67 28 68 29 69 30 70 31 71 54 72 55 73 63 74 56 75
REMARK SMILES IDX 62 76 57 77 58 78 59 79 60 80 61 81 40 82 41 83 49 84 42 85
REMARK SMILES IDX 48 86 43 87 44 88 45 89 46 90 47 91
REMARK H PARENT 68 47 38 58
REMARK Flexibility Score: inf
ROOT
ATOM      1  C   UNL A   1      32.893  28.586  24.157  1.00  0.00     0.188 C 
ENDROOT
BRANCH   1   2
ATOM      2  C   UNL A   1      33.360  27.129  23.995  1.00  0.00     0.188 C 
BRANCH   2   3
ATOM      3  O   UNL A   1      33.245  26.400  22.697  1.00  0.00    -0.376 OA
BRANCH   3   4
ATOM      4  C   UNL A   1      31.877  25.554  22.068  1.00  0.00     0.202 C 
BRANCH   4   5
ATOM      5  C   UNL A   1      30.667  24.153  23.208  1.00  0.00     0.261 C 
BRANCH   5   6
ATOM      6  O   UNL A   1      31.170  23.166  24.244  1.00  0.00    -0.460 OA
BRANCH   6   7
ATOM      7  C   UNL A   1      32.244  22.490  23.806  1.00  0.00     0.338 C 
ATOM      8  O   UNL A   1      32.491  22.163  22.672  1.00  0.00    -0.246 OA
BRANCH   7   9
ATOM      9  C   UNL A   1      32.595  21.874  25.079  1.00  0.00     0.087 C 
ATOM     10  C   UNL A   1      32.059  20.538  25.330  1.00  0.00     0.027 C 
ATOM     11  C   UNL A   1      34.456  22.280  24.852  1.00  0.00     0.316 C 
ATOM     12  C   UNL A   1      33.009  19.019  25.160  1.00  0.00     0.019 A 
ATOM     13  O   UNL A   1      35.478  20.659  24.486  1.00  0.00    -0.475 OA
ATOM     14  C   UNL A   1      32.395  17.810  25.332  1.00  0.00     0.032 A 
ATOM     15  C   UNL A   1      34.676  19.027  24.697  1.00  0.00     0.128 A 
ATOM     16  C   UNL A   1      33.234  16.693  25.155  1.00  0.00     0.041 A 
ATOM     17  C   UNL A   1      35.427  17.895  24.557  1.00  0.00     0.048 A 
ATOM     18  Cl  UNL A   1      32.502  15.133  25.373  1.00  0.00    -0.084 Cl
ATOM     19  C   UNL A   1      34.656  16.731  24.808  1.00  0.00     0.024 A 
BRANCH  11  20
ATOM     20  C   UNL A   1      34.483  23.352  26.154  1.00  0.00     0.430 C 
ATOM     21  F   UNL A   1      34.409  22.917  27.412  1.00  0.00    -0.167 F 
ATOM     22  F   UNL A   1      35.598  24.117  26.069  1.00  0.00    -0.167 F 
ATOM     23  F   UNL A   1      33.440  24.238  26.078  1.00  0.00    -0.167 F 
ENDBRANCH  11  20
ENDBRANCH   7   9
ENDBRANCH   6   7
ENDBRANCH   5   6
ENDBRANCH   4   5
ENDBRANCH   3   4
ENDBRANCH   2   3
ENDBRANCH   1   2
BRANCH   1  24
ATOM     24  O   UNL A   1      33.262  29.292  25.316  1.00  0.00    -0.376 OA
BRANCH  24  25
ATOM     25  C   UNL A   1      32.213  30.026  25.935  1.00  0.00     0.202 C 
BRANCH  25  26
ATOM     26  C   UNL A   1      32.577  30.993  27.076  1.00  0.00     0.261 C 
BRANCH  26  27
ATOM     27  O   UNL A   1      33.735  30.598  27.846  1.00  0.00    -0.460 OA
BRANCH  27  28
ATOM     28  C   UNL A   1      34.813  31.424  27.831  1.00  0.00     0.338 C 
ATOM     29  O   UNL A   1      34.826  32.611  27.555  1.00  0.00    -0.246 OA
BRANCH  28  30
ATOM     30  C   UNL A   1      35.997  30.699  28.342  1.00  0.00     0.060 A 
ATOM     31  C   UNL A   1      35.901  29.921  29.507  1.00  0.00     0.016 A 
ATOM     32  C   UNL A   1      37.219  30.830  27.684  1.00  0.00     0.016 A 
ATOM     33  C   UNL A   1      37.019  29.233  29.991  1.00  0.00     0.010 A 
ATOM     34  C   UNL A   1      38.348  30.187  28.200  1.00  0.00     0.010 A 
ATOM     35  C   UNL A   1      38.258  29.395  29.359  1.00  0.00    -0.014 A 
BRANCH  35  36
ATOM     36  C   UNL A   1      39.510  28.970  30.032  1.00  0.00     0.031 A 
ATOM     37  C   UNL A   1      39.976  29.792  31.202  1.00  0.00     0.074 A 
ATOM     38  C   UNL A   1      40.251  27.939  29.588  1.00  0.00     0.049 A 
ATOM     39  N   UNL A   1      41.091  29.721  31.877  1.00  0.00    -0.248 NA
ATOM     40  C   UNL A   1      39.060  30.852  31.656  1.00  0.00     0.031 C 
ATOM     41  C   UNL A   1      39.890  27.048  28.488  1.00  0.00     0.029 A 
ATOM     42  N   UNL A   1      41.483  27.487  29.999  1.00  0.00    -0.354 N 
ATOM     43  C   UNL A   1      41.022  30.740  32.819  1.00  0.00     0.074 A 
ATOM     44  C   UNL A   1      39.767  31.427  32.614  1.00  0.00     0.031 C 
ATOM     45  C   UNL A   1      40.890  26.171  28.293  1.00  0.00     0.029 A 
ATOM     46  C   UNL A   1      41.981  26.465  29.224  1.00  0.00     0.049 A 
ATOM     47  H   UNL A   1      41.961  27.858  30.775  1.00  0.00     0.167 HD
ATOM     48  C   UNL A   1      41.928  31.082  33.764  1.00  0.00     0.031 A 
ATOM     49  C   UNL A   1      43.192  25.866  29.239  1.00  0.00     0.031 A 
ATOM     50  C   UNL A   1      43.195  30.422  33.929  1.00  0.00     0.049 A 
ATOM     51  C   UNL A   1      44.221  26.307  30.252  1.00  0.00     0.074 A 
ATOM     52  C   UNL A   1      44.178  30.675  34.867  1.00  0.00     0.029 A 
ATOM     53  N   UNL A   1      43.665  29.399  33.118  1.00  0.00    -0.354 N 
ATOM     54  N   UNL A   1      44.126  27.240  31.171  1.00  0.00    -0.248 NA
ATOM     55  C   UNL A   1      45.518  25.614  30.236  1.00  0.00     0.031 C 
ATOM     56  C   UNL A   1      45.277  29.864  34.571  1.00  0.00     0.029 A 
ATOM     57  C   UNL A   1      44.942  29.037  33.510  1.00  0.00     0.049 A 
ATOM     58  H   UNL A   1      43.165  28.991  32.375  1.00  0.00     0.167 HD
ATOM     59  C   UNL A   1      45.336  27.224  31.861  1.00  0.00     0.074 A 
ATOM     60  C   UNL A   1      46.144  26.185  31.258  1.00  0.00     0.031 C 
ATOM     61  C   UNL A   1      45.736  27.995  32.902  1.00  0.00     0.031 A 
BRANCH  48  62
ATOM     62  C   UNL A   1      41.604  32.267  34.638  1.00  0.00    -0.014 A 
ATOM     63  C   UNL A   1      40.924  32.118  35.861  1.00  0.00     0.010 A 
ATOM     64  C   UNL A   1      41.990  33.555  34.225  1.00  0.00     0.010 A 
ATOM     65  C   UNL A   1      40.588  33.239  36.624  1.00  0.00     0.020 A 
ATOM     66  C   UNL A   1      41.692  34.674  35.004  1.00  0.00     0.020 A 
ATOM     67  C   UNL A   1      40.972  34.510  36.189  1.00  0.00     0.054 A 
BRANCH  67  68
ATOM     68  S   UNL A   1      40.528  35.945  37.204  1.00  0.00     0.124 S 
ATOM     69  O   UNL A   1      39.804  36.779  36.247  1.00  0.00    -0.237 OA
ATOM     70  O   UNL A   1      39.713  35.349  38.260  1.00  0.00    -0.237 OA
ATOM     71  O   UNL A   1      41.817  36.478  37.640  1.00  0.00    -0.744 OA
ENDBRANCH  67  68
ENDBRANCH  48  62
BRANCH  49  72
ATOM     72  C   UNL A   1      43.510  24.812  28.232  1.00  0.00    -0.014 A 
ATOM     73  C   UNL A   1      43.141  23.471  28.438  1.00  0.00     0.010 A 
ATOM     74  C   UNL A   1      44.176  25.155  27.040  1.00  0.00     0.010 A 
ATOM     75  C   UNL A   1      43.428  22.497  27.474  1.00  0.00     0.020 A 
ATOM     76  C   UNL A   1      44.436  24.193  26.059  1.00  0.00     0.020 A 
ATOM     77  C   UNL A   1      44.063  22.867  26.285  1.00  0.00     0.054 A 
BRANCH  77  78
ATOM     78  S   UNL A   1      44.350  21.604  25.012  1.00  0.00     0.124 S 
ATOM     79  O   UNL A   1      45.728  21.205  25.282  1.00  0.00    -0.237 OA
ATOM     80  O   UNL A   1      43.331  20.607  25.325  1.00  0.00    -0.237 OA
ATOM     81  O   UNL A   1      44.142  22.326  23.758  1.00  0.00    -0.744 OA
ENDBRANCH  77  78
ENDBRANCH  49  72
BRANCH  61  82
ATOM     82  C   UNL A   1      47.091  27.726  33.510  1.00  0.00    -0.014 A 
ATOM     83  C   UNL A   1      48.243  28.405  33.079  1.00  0.00     0.010 A 
ATOM     84  C   UNL A   1      47.184  26.855  34.613  1.00  0.00     0.010 A 
ATOM     85  C   UNL A   1      49.465  28.209  33.733  1.00  0.00     0.020 A 
ATOM     86  C   UNL A   1      48.393  26.683  35.290  1.00  0.00     0.020 A 
ATOM     87  C   UNL A   1      49.528  27.358  34.841  1.00  0.00     0.054 A 
BRANCH  87  88
ATOM     88  S   UNL A   1      51.105  27.189  35.723  1.00  0.00     0.124 S 
ATOM     89  O   UNL A   1      50.804  26.136  36.689  1.00  0.00    -0.237 OA
ATOM     90  O   UNL A   1      52.028  26.815  34.653  1.00  0.00    -0.237 OA
ATOM     91  O   UNL A   1      51.328  28.514  36.297  1.00  0.00    -0.744 OA
ENDBRANCH  87  88
ENDBRANCH  61  82
ENDBRANCH  35  36
ENDBRANCH  28  30
ENDBRANCH  27  28
ENDBRANCH  26  27
ENDBRANCH  25  26
ENDBRANCH  24  25
ENDBRANCH   1  24
TORSDOF 21
ENDMDL
