MODEL 1
REMARK VINA RESULT:      -8.2      0.000      0.000
REMARK SMILES COc1cc(NC(=O)C2CCN(S(=O)(=O)c3cccs3)CC2)c(Cl)cc1C(=O)OCCOCCOCCOC(=O)c1ccc(-c2c3nc(c(-c4ccc(S(=O)(=O)[O-])cc4)c4ccc([nH]4)c(-c4ccc(S(=O)(=O)[O-])cc4)c4nc(c(-c5ccc(S(=O)(=O)[O-])cc5)c5ccc2[nH]5)C=C4)C=C3)cc1
REMARK SMILES IDX 33 1 32 2 31 3 30 4 29 5 27 6 28 7 26 8 3 9 4 10 5 11 25 12
REMARK SMILES IDX 23 13 24 14 2 15 1 16 6 17 7 18 8 20 9 21 10 22 22 23 11 24
REMARK SMILES IDX 21 25 12 26 13 27 14 28 15 29 16 30 17 31 20 32 18 33 19 34
REMARK SMILES IDX 34 35 35 36 36 37 37 38 38 39 39 40 40 41 41 42 42 43 100 44
REMARK SMILES IDX 43 45 99 46 44 47 45 48 46 49 93 50 47 51 98 52 92 53 94 54
REMARK SMILES IDX 48 55 97 56 91 57 90 58 49 60 79 61 60 62 78 63 61 64 64 65
REMARK SMILES IDX 77 66 95 67 62 68 63 69 76 71 96 72 65 73 50 74 51 75 59 76
REMARK SMILES IDX 52 77 58 78 53 79 54 80 55 81 56 82 57 83 80 84 81 85 89 86
REMARK SMILES IDX 82 87 88 88 83 89 84 90 85 91 86 92 87 93 66 94 67 95 75 96
REMARK SMILES IDX 68 97 74 98 69 99 70 100 71 101 72 102 73 103
REMARK H PARENT 6 19 94 59 64 70
REMARK Flexibility Score: inf
ROOT
ATOM      1  C   UNL A   1      46.595  22.483  38.633  1.00  0.00     0.188 C 
ENDROOT
BRANCH   1   2
ATOM      2  O   UNL A   1      47.615  21.757  39.305  1.00  0.00    -0.376 OA
BRANCH   2   3
ATOM      3  C   UNL A   1      47.771  20.372  39.030  1.00  0.00     0.202 C 
BRANCH   3   4
ATOM      4  C   UNL A   1      46.555  19.458  39.241  1.00  0.00     0.261 C 
BRANCH   4   5
ATOM      5  O   UNL A   1      46.817  18.182  39.877  1.00  0.00    -0.460 OA
BRANCH   5   6
ATOM      6  C   UNL A   1      45.748  17.370  40.058  1.00  0.00     0.342 C 
ATOM      7  O   UNL A   1      45.076  16.915  39.141  1.00  0.00    -0.246 OA
BRANCH   6   8
ATOM      8  C   UNL A   1      45.322  17.187  41.484  1.00  0.00     0.103 A 
ATOM      9  C   UNL A   1      44.284  17.824  42.183  1.00  0.00     0.135 A 
ATOM     10  C   UNL A   1      43.718  17.163  43.278  1.00  0.00     0.075 A 
ATOM     11  C   UNL A   1      44.252  15.985  43.768  1.00  0.00     0.063 A 
ATOM     12  C   UNL A   1      46.024  16.171  42.151  1.00  0.00     0.042 A 
ATOM     13  C   UNL A   1      45.516  15.607  43.315  1.00  0.00     0.065 A 
ATOM     14  Cl  UNL A   1      46.434  14.385  44.110  1.00  0.00    -0.082 Cl
BRANCH   9  15
ATOM     15  O   UNL A   1      43.911  19.091  41.844  1.00  0.00    -0.496 OA
ATOM     16  C   UNL A   1      44.676  20.205  42.329  1.00  0.00     0.278 C 
ENDBRANCH   9  15
BRANCH  11  17
ATOM     17  N   UNL A   1      43.605  15.235  44.753  1.00  0.00    -0.324 N 
ATOM     18  C   UNL A   1      43.812  15.048  46.082  1.00  0.00     0.227 C 
ATOM     19  H   UNL A   1      42.831  14.732  44.408  1.00  0.00     0.169 HD
ATOM     20  O   UNL A   1      43.144  14.137  46.596  1.00  0.00    -0.274 OA
BRANCH  18  21
ATOM     21  C   UNL A   1      44.688  15.918  47.019  1.00  0.00     0.081 C 
ATOM     22  C   UNL A   1      44.273  17.363  47.215  1.00  0.00     0.030 C 
ATOM     23  C   UNL A   1      46.203  15.740  47.004  1.00  0.00     0.030 C 
ATOM     24  C   UNL A   1      45.015  18.409  46.400  1.00  0.00     0.103 C 
ATOM     25  C   UNL A   1      47.058  17.022  46.875  1.00  0.00     0.103 C 
ATOM     26  N   UNL A   1      46.446  18.091  46.044  1.00  0.00    -0.197 NA
BRANCH  26  27
ATOM     27  S   UNL A   1      47.347  19.605  45.934  1.00  0.00     0.252 S 
ATOM     28  O   UNL A   1      46.439  20.568  45.340  1.00  0.00    -0.206 OA
ATOM     29  O   UNL A   1      47.890  19.839  47.258  1.00  0.00    -0.206 OA
BRANCH  27  30
ATOM     30  C   UNL A   1      48.748  19.625  44.798  1.00  0.00     0.135 A 
ATOM     31  C   UNL A   1      50.006  20.203  44.862  1.00  0.00     0.033 A 
ATOM     32  S   UNL A   1      48.703  18.548  43.455  1.00  0.00    -0.131 S 
ATOM     33  C   UNL A   1      50.840  19.936  43.742  1.00  0.00     0.013 A 
ATOM     34  C   UNL A   1      50.284  18.972  42.943  1.00  0.00     0.066 A 
ENDBRANCH  27  30
ENDBRANCH  26  27
ENDBRANCH  18  21
ENDBRANCH  11  17
ENDBRANCH   6   8
ENDBRANCH   5   6
ENDBRANCH   4   5
ENDBRANCH   3   4
ENDBRANCH   2   3
ENDBRANCH   1   2
BRANCH   1  35
ATOM     35  C   UNL A   1      45.726  23.442  39.447  1.00  0.00     0.188 C 
BRANCH  35  36
ATOM     36  O   UNL A   1      46.156  24.790  39.570  1.00  0.00    -0.376 OA
BRANCH  36  37
ATOM     37  C   UNL A   1      47.497  24.996  39.991  1.00  0.00     0.202 C 
BRANCH  37  38
ATOM     38  C   UNL A   1      48.000  26.413  39.699  1.00  0.00     0.261 C 
BRANCH  38  39
ATOM     39  O   UNL A   1      48.032  26.645  38.280  1.00  0.00    -0.460 OA
BRANCH  39  40
ATOM     40  C   UNL A   1      48.147  27.934  37.878  1.00  0.00     0.338 C 
ATOM     41  O   UNL A   1      49.150  28.637  37.931  1.00  0.00    -0.246 OA
BRANCH  40  42
ATOM     42  C   UNL A   1      46.940  28.284  37.093  1.00  0.00     0.060 A 
ATOM     43  C   UNL A   1      47.000  29.395  36.234  1.00  0.00     0.016 A 
ATOM     44  C   UNL A   1      45.794  27.489  37.137  1.00  0.00     0.016 A 
ATOM     45  C   UNL A   1      45.897  29.739  35.452  1.00  0.00     0.010 A 
ATOM     46  C   UNL A   1      44.687  27.840  36.364  1.00  0.00     0.010 A 
ATOM     47  C   UNL A   1      44.721  28.985  35.548  1.00  0.00    -0.014 A 
BRANCH  47  48
ATOM     48  C   UNL A   1      43.448  29.490  34.984  1.00  0.00     0.031 A 
ATOM     49  C   UNL A   1      43.075  29.044  33.597  1.00  0.00     0.074 A 
ATOM     50  C   UNL A   1      42.669  30.352  35.661  1.00  0.00     0.049 A 
ATOM     51  N   UNL A   1      42.117  29.467  32.818  1.00  0.00    -0.248 NA
ATOM     52  C   UNL A   1      43.911  27.983  33.006  1.00  0.00     0.031 C 
ATOM     53  C   UNL A   1      42.899  30.817  37.027  1.00  0.00     0.029 A 
ATOM     54  N   UNL A   1      41.528  31.008  35.267  1.00  0.00    -0.354 N 
ATOM     55  C   UNL A   1      42.241  28.737  31.642  1.00  0.00     0.074 A 
ATOM     56  C   UNL A   1      43.384  27.866  31.797  1.00  0.00     0.031 C 
ATOM     57  C   UNL A   1      41.943  31.707  37.350  1.00  0.00     0.029 A 
ATOM     58  C   UNL A   1      41.061  31.903  36.200  1.00  0.00     0.049 A 
ATOM     59  H   UNL A   1      41.089  30.852  34.400  1.00  0.00     0.167 HD
ATOM     60  C   UNL A   1      41.468  28.784  30.532  1.00  0.00     0.031 A 
ATOM     61  C   UNL A   1      40.058  32.801  36.117  1.00  0.00     0.031 A 
ATOM     62  C   UNL A   1      40.346  29.668  30.379  1.00  0.00     0.049 A 
ATOM     63  C   UNL A   1      39.258  32.895  34.841  1.00  0.00     0.074 A 
ATOM     64  C   UNL A   1      39.501  29.806  29.291  1.00  0.00     0.029 A 
ATOM     65  N   UNL A   1      39.909  30.565  31.342  1.00  0.00    -0.354 N 
ATOM     66  N   UNL A   1      39.390  32.206  33.731  1.00  0.00    -0.248 NA
ATOM     67  C   UNL A   1      38.170  33.882  34.810  1.00  0.00     0.031 C 
ATOM     68  C   UNL A   1      38.584  30.821  29.579  1.00  0.00     0.029 A 
ATOM     69  C   UNL A   1      38.816  31.269  30.871  1.00  0.00     0.049 A 
ATOM     70  H   UNL A   1      40.318  30.683  32.231  1.00  0.00     0.167 HD
ATOM     71  C   UNL A   1      38.382  32.656  32.882  1.00  0.00     0.074 A 
ATOM     72  C   UNL A   1      37.644  33.667  33.612  1.00  0.00     0.031 C 
ATOM     73  C   UNL A   1      38.092  32.268  31.616  1.00  0.00     0.031 A 
BRANCH  60  74
ATOM     74  C   UNL A   1      41.830  27.869  29.394  1.00  0.00    -0.014 A 
ATOM     75  C   UNL A   1      41.108  26.683  29.161  1.00  0.00     0.010 A 
ATOM     76  C   UNL A   1      42.879  28.213  28.524  1.00  0.00     0.010 A 
ATOM     77  C   UNL A   1      41.448  25.846  28.096  1.00  0.00     0.020 A 
ATOM     78  C   UNL A   1      43.204  27.392  27.440  1.00  0.00     0.020 A 
ATOM     79  C   UNL A   1      42.495  26.207  27.242  1.00  0.00     0.054 A 
BRANCH  79  80
ATOM     80  S   UNL A   1      42.888  25.118  25.846  1.00  0.00     0.124 S 
ATOM     81  O   UNL A   1      44.347  25.179  25.818  1.00  0.00    -0.237 OA
ATOM     82  O   UNL A   1      42.321  23.839  26.269  1.00  0.00    -0.237 OA
ATOM     83  O   UNL A   1      42.217  25.748  24.712  1.00  0.00    -0.744 OA
ENDBRANCH  79  80
ENDBRANCH  60  74
BRANCH  61  84
ATOM     84  C   UNL A   1      39.770  33.704  37.266  1.00  0.00    -0.014 A 
ATOM     85  C   UNL A   1      40.298  35.008  37.304  1.00  0.00     0.010 A 
ATOM     86  C   UNL A   1      38.964  33.265  38.333  1.00  0.00     0.010 A 
ATOM     87  C   UNL A   1      40.037  35.847  38.393  1.00  0.00     0.020 A 
ATOM     88  C   UNL A   1      38.678  34.111  39.409  1.00  0.00     0.020 A 
ATOM     89  C   UNL A   1      39.225  35.395  39.437  1.00  0.00     0.054 A 
BRANCH  89  90
ATOM     90  S   UNL A   1      38.862  36.520  40.813  1.00  0.00     0.124 S 
ATOM     91  O   UNL A   1      38.446  37.732  40.115  1.00  0.00    -0.237 OA
ATOM     92  O   UNL A   1      37.806  35.809  41.530  1.00  0.00    -0.237 OA
ATOM     93  O   UNL A   1      40.134  36.613  41.525  1.00  0.00    -0.744 OA
ENDBRANCH  89  90
ENDBRANCH  61  84
BRANCH  73  94
ATOM     94  C   UNL A   1      36.897  32.899  30.947  1.00  0.00    -0.014 A 
ATOM     95  C   UNL A   1      35.585  32.580  31.339  1.00  0.00     0.010 A 
ATOM     96  C   UNL A   1      37.099  33.878  29.957  1.00  0.00     0.010 A 
ATOM     97  C   UNL A   1      34.495  33.208  30.729  1.00  0.00     0.020 A 
ATOM     98  C   UNL A   1      36.014  34.530  29.366  1.00  0.00     0.020 A 
ATOM     99  C   UNL A   1      34.717  34.179  29.747  1.00  0.00     0.054 A 
BRANCH  99 100
ATOM    100  S   UNL A   1      33.287  35.013  29.005  1.00  0.00     0.124 S 
ATOM    101  O   UNL A   1      32.408  35.191  30.157  1.00  0.00    -0.237 OA
ATOM    102  O   UNL A   1      33.875  36.237  28.466  1.00  0.00    -0.237 OA
ATOM    103  O   UNL A   1      32.814  34.063  28.001  1.00  0.00    -0.744 OA
ENDBRANCH  99 100
ENDBRANCH  73  94
ENDBRANCH  47  48
ENDBRANCH  40  42
ENDBRANCH  39  40
ENDBRANCH  38  39
ENDBRANCH  37  38
ENDBRANCH  36  37
ENDBRANCH  35  36
ENDBRANCH   1  35
TORSDOF 25
ENDMDL
MODEL 2
REMARK VINA RESULT:      -7.3     11.307     17.334
REMARK SMILES COc1cc(NC(=O)C2CCN(S(=O)(=O)c3cccs3)CC2)c(Cl)cc1C(=O)OCCOCCOCCOC(=O)c1ccc(-c2c3nc(c(-c4ccc(S(=O)(=O)[O-])cc4)c4ccc([nH]4)c(-c4ccc(S(=O)(=O)[O-])cc4)c4nc(c(-c5ccc(S(=O)(=O)[O-])cc5)c5ccc2[nH]5)C=C4)C=C3)cc1
REMARK SMILES IDX 33 1 32 2 31 3 30 4 29 5 27 6 28 7 26 8 3 9 4 10 5 11 25 12
REMARK SMILES IDX 23 13 24 14 2 15 1 16 6 17 7 18 8 20 9 21 10 22 22 23 11 24
REMARK SMILES IDX 21 25 12 26 13 27 14 28 15 29 16 30 17 31 20 32 18 33 19 34
REMARK SMILES IDX 34 35 35 36 36 37 37 38 38 39 39 40 40 41 41 42 42 43 100 44
REMARK SMILES IDX 43 45 99 46 44 47 45 48 46 49 93 50 47 51 98 52 92 53 94 54
REMARK SMILES IDX 48 55 97 56 91 57 90 58 49 60 79 61 60 62 78 63 61 64 64 65
REMARK SMILES IDX 77 66 95 67 62 68 63 69 76 71 96 72 65 73 50 74 51 75 59 76
REMARK SMILES IDX 52 77 58 78 53 79 54 80 55 81 56 82 57 83 80 84 81 85 89 86
REMARK SMILES IDX 82 87 88 88 83 89 84 90 85 91 86 92 87 93 66 94 67 95 75 96
REMARK SMILES IDX 68 97 74 98 69 99 70 100 71 101 72 102 73 103
REMARK H PARENT 6 19 94 59 64 70
REMARK Flexibility Score: inf
ROOT
ATOM      1  C   UNL A   1      44.642  41.517  28.916  1.00  0.00     0.188 C 
ENDROOT
BRANCH   1   2
ATOM      2  O   UNL A   1      43.317  41.320  29.389  1.00  0.00    -0.376 OA
BRANCH   2   3
ATOM      3  C   UNL A   1      42.599  40.168  28.969  1.00  0.00     0.202 C 
BRANCH   3   4
ATOM      4  C   UNL A   1      43.362  38.837  28.896  1.00  0.00     0.261 C 
BRANCH   4   5
ATOM      5  O   UNL A   1      43.448  38.222  27.586  1.00  0.00    -0.460 OA
BRANCH   5   6
ATOM      6  C   UNL A   1      44.537  38.538  26.845  1.00  0.00     0.342 C 
ATOM      7  O   UNL A   1      44.631  39.556  26.172  1.00  0.00    -0.246 OA
BRANCH   6   8
ATOM      8  C   UNL A   1      45.582  37.466  26.762  1.00  0.00     0.103 A 
ATOM      9  C   UNL A   1      45.416  36.086  26.567  1.00  0.00     0.135 A 
ATOM     10  C   UNL A   1      46.472  35.363  25.998  1.00  0.00     0.075 A 
ATOM     11  C   UNL A   1      47.705  35.944  25.769  1.00  0.00     0.063 A 
ATOM     12  C   UNL A   1      46.895  37.961  26.801  1.00  0.00     0.042 A 
ATOM     13  C   UNL A   1      47.958  37.186  26.354  1.00  0.00     0.065 A 
ATOM     14  Cl  UNL A   1      49.552  37.831  26.454  1.00  0.00    -0.082 Cl
BRANCH   9  15
ATOM     15  O   UNL A   1      44.285  35.465  27.008  1.00  0.00    -0.496 OA
ATOM     16  C   UNL A   1      43.946  34.168  26.496  1.00  0.00     0.278 C 
ENDBRANCH   9  15
BRANCH  11  17
ATOM     17  N   UNL A   1      48.712  35.284  25.059  1.00  0.00    -0.324 N 
ATOM     18  C   UNL A   1      49.739  34.473  25.417  1.00  0.00     0.227 C 
ATOM     19  H   UNL A   1      48.665  35.444  24.088  1.00  0.00     0.169 HD
ATOM     20  O   UNL A   1      50.560  34.235  24.517  1.00  0.00    -0.274 OA
BRANCH  18  21
ATOM     21  C   UNL A   1      49.916  33.736  26.768  1.00  0.00     0.081 C 
ATOM     22  C   UNL A   1      50.293  34.575  27.974  1.00  0.00     0.030 C 
ATOM     23  C   UNL A   1      50.570  32.357  26.787  1.00  0.00     0.030 C 
ATOM     24  C   UNL A   1      51.757  34.585  28.375  1.00  0.00     0.103 C 
ATOM     25  C   UNL A   1      51.712  32.136  27.806  1.00  0.00     0.103 C 
ATOM     26  N   UNL A   1      52.547  33.337  28.066  1.00  0.00    -0.197 NA
BRANCH  26  27
ATOM     27  S   UNL A   1      53.812  33.158  29.284  1.00  0.00     0.252 S 
ATOM     28  O   UNL A   1      54.361  34.485  29.489  1.00  0.00    -0.206 OA
ATOM     29  O   UNL A   1      53.200  32.446  30.388  1.00  0.00    -0.206 OA
BRANCH  27  30
ATOM     30  C   UNL A   1      55.262  32.200  28.800  1.00  0.00     0.135 A 
ATOM     31  C   UNL A   1      55.559  31.439  27.679  1.00  0.00     0.033 A 
ATOM     32  S   UNL A   1      56.698  32.399  29.728  1.00  0.00    -0.131 S 
ATOM     33  C   UNL A   1      56.860  30.868  27.677  1.00  0.00     0.013 A 
ATOM     34  C   UNL A   1      57.619  31.386  28.694  1.00  0.00     0.066 A 
ENDBRANCH  27  30
ENDBRANCH  26  27
ENDBRANCH  18  21
ENDBRANCH  11  17
ENDBRANCH   6   8
ENDBRANCH   5   6
ENDBRANCH   4   5
ENDBRANCH   3   4
ENDBRANCH   2   3
ENDBRANCH   1   2
BRANCH   1  35
ATOM     35  C   UNL A   1      45.570  42.439  29.708  1.00  0.00     0.188 C 
BRANCH  35  36
ATOM     36  O   UNL A   1      46.935  42.067  29.831  1.00  0.00    -0.376 OA
BRANCH  36  37
ATOM     37  C   UNL A   1      47.388  41.725  31.133  1.00  0.00     0.202 C 
BRANCH  37  38
ATOM     38  C   UNL A   1      46.621  40.546  31.738  1.00  0.00     0.261 C 
BRANCH  38  39
ATOM     39  O   UNL A   1      47.207  39.303  31.313  1.00  0.00    -0.460 OA
BRANCH  39  40
ATOM     40  C   UNL A   1      47.304  38.327  32.248  1.00  0.00     0.338 C 
ATOM     41  O   UNL A   1      47.695  38.448  33.403  1.00  0.00    -0.246 OA
BRANCH  40  42
ATOM     42  C   UNL A   1      46.589  37.131  31.744  1.00  0.00     0.060 A 
ATOM     43  C   UNL A   1      46.441  36.028  32.604  1.00  0.00     0.016 A 
ATOM     44  C   UNL A   1      46.003  37.119  30.478  1.00  0.00     0.016 A 
ATOM     45  C   UNL A   1      45.745  34.895  32.182  1.00  0.00     0.010 A 
ATOM     46  C   UNL A   1      45.319  35.981  30.050  1.00  0.00     0.010 A 
ATOM     47  C   UNL A   1      45.218  34.853  30.885  1.00  0.00    -0.014 A 
BRANCH  47  48
ATOM     48  C   UNL A   1      44.756  33.576  30.296  1.00  0.00     0.031 A 
ATOM     49  C   UNL A   1      43.305  33.217  30.464  1.00  0.00     0.074 A 
ATOM     50  C   UNL A   1      45.602  32.739  29.669  1.00  0.00     0.049 A 
ATOM     51  N   UNL A   1      42.691  32.096  30.198  1.00  0.00    -0.248 NA
ATOM     52  C   UNL A   1      42.433  34.265  31.024  1.00  0.00     0.031 C 
ATOM     53  C   UNL A   1      47.015  32.999  29.401  1.00  0.00     0.029 A 
ATOM     54  N   UNL A   1      45.388  31.480  29.165  1.00  0.00    -0.354 N 
ATOM     55  C   UNL A   1      41.367  32.298  30.570  1.00  0.00     0.074 A 
ATOM     56  C   UNL A   1      41.272  33.636  31.107  1.00  0.00     0.031 C 
ATOM     57  C   UNL A   1      47.550  31.919  28.804  1.00  0.00     0.029 A 
ATOM     58  C   UNL A   1      46.528  30.879  28.687  1.00  0.00     0.049 A 
ATOM     59  H   UNL A   1      44.503  31.049  29.148  1.00  0.00     0.167 HD
ATOM     60  C   UNL A   1      40.321  31.444  30.468  1.00  0.00     0.031 A 
ATOM     61  C   UNL A   1      46.727  29.622  28.241  1.00  0.00     0.031 A 
ATOM     62  C   UNL A   1      40.429  30.108  29.952  1.00  0.00     0.049 A 
ATOM     63  C   UNL A   1      45.565  28.660  28.210  1.00  0.00     0.074 A 
ATOM     64  C   UNL A   1      39.434  29.155  29.815  1.00  0.00     0.029 A 
ATOM     65  N   UNL A   1      41.602  29.534  29.485  1.00  0.00    -0.354 N 
ATOM     66  N   UNL A   1      44.319  28.858  28.572  1.00  0.00    -0.248 NA
ATOM     67  C   UNL A   1      45.835  27.307  27.703  1.00  0.00     0.031 C 
ATOM     68  C   UNL A   1      40.017  27.988  29.311  1.00  0.00     0.029 A 
ATOM     69  C   UNL A   1      41.360  28.236  29.072  1.00  0.00     0.049 A 
ATOM     70  H   UNL A   1      42.478  29.984  29.454  1.00  0.00     0.167 HD
ATOM     71  C   UNL A   1      43.651  27.665  28.308  1.00  0.00     0.074 A 
ATOM     72  C   UNL A   1      44.630  26.757  27.746  1.00  0.00     0.031 C 
ATOM     73  C   UNL A   1      42.348  27.350  28.510  1.00  0.00     0.031 A 
BRANCH  60  74
ATOM     74  C   UNL A   1      38.980  31.930  30.947  1.00  0.00    -0.014 A 
ATOM     75  C   UNL A   1      38.620  31.843  32.305  1.00  0.00     0.010 A 
ATOM     76  C   UNL A   1      38.081  32.515  30.038  1.00  0.00     0.010 A 
ATOM     77  C   UNL A   1      37.375  32.305  32.738  1.00  0.00     0.020 A 
ATOM     78  C   UNL A   1      36.845  33.004  30.472  1.00  0.00     0.020 A 
ATOM     79  C   UNL A   1      36.496  32.884  31.817  1.00  0.00     0.054 A 
BRANCH  79  80
ATOM     80  S   UNL A   1      34.903  33.508  32.417  1.00  0.00     0.124 S 
ATOM     81  O   UNL A   1      35.082  34.953  32.302  1.00  0.00    -0.237 OA
ATOM     82  O   UNL A   1      33.953  32.917  31.477  1.00  0.00    -0.237 OA
ATOM     83  O   UNL A   1      34.821  32.999  33.783  1.00  0.00    -0.744 OA
ENDBRANCH  79  80
ENDBRANCH  60  74
BRANCH  61  84
ATOM     84  C   UNL A   1      48.087  29.190  27.812  1.00  0.00    -0.014 A 
ATOM     85  C   UNL A   1      49.152  29.161  28.729  1.00  0.00     0.010 A 
ATOM     86  C   UNL A   1      48.325  28.805  26.480  1.00  0.00     0.010 A 
ATOM     87  C   UNL A   1      50.431  28.770  28.318  1.00  0.00     0.020 A 
ATOM     88  C   UNL A   1      49.595  28.385  26.072  1.00  0.00     0.020 A 
ATOM     89  C   UNL A   1      50.644  28.380  26.993  1.00  0.00     0.054 A 
BRANCH  89  90
ATOM     90  S   UNL A   1      52.300  27.829  26.497  1.00  0.00     0.124 S 
ATOM     91  O   UNL A   1      53.146  28.895  27.024  1.00  0.00    -0.237 OA
ATOM     92  O   UNL A   1      52.416  26.538  27.171  1.00  0.00    -0.237 OA
ATOM     93  O   UNL A   1      52.216  27.758  25.041  1.00  0.00    -0.744 OA
ENDBRANCH  89  90
ENDBRANCH  61  84
BRANCH  73  94
ATOM     94  C   UNL A   1      41.885  25.982  28.078  1.00  0.00    -0.014 A 
ATOM     95  C   UNL A   1      41.153  25.797  26.892  1.00  0.00     0.010 A 
ATOM     96  C   UNL A   1      42.249  24.858  28.842  1.00  0.00     0.010 A 
ATOM     97  C   UNL A   1      40.768  24.513  26.494  1.00  0.00     0.020 A 
ATOM     98  C   UNL A   1      41.892  23.571  28.432  1.00  0.00     0.020 A 
ATOM     99  C   UNL A   1      41.141  23.409  27.267  1.00  0.00     0.054 A 
BRANCH  99 100
ATOM    100  S   UNL A   1      40.669  21.750  26.704  1.00  0.00     0.124 S 
ATOM    101  O   UNL A   1      41.689  21.470  25.697  1.00  0.00    -0.237 OA
ATOM    102  O   UNL A   1      40.759  20.959  27.928  1.00  0.00    -0.237 OA
ATOM    103  O   UNL A   1      39.315  21.931  26.185  1.00  0.00    -0.744 OA
ENDBRANCH  99 100
ENDBRANCH  73  94
ENDBRANCH  47  48
ENDBRANCH  40  42
ENDBRANCH  39  40
ENDBRANCH  38  39
ENDBRANCH  37  38
ENDBRANCH  36  37
ENDBRANCH  35  36
ENDBRANCH   1  35
TORSDOF 25
ENDMDL
MODEL 3
REMARK VINA RESULT:      -7.2     11.019     17.729
REMARK SMILES COc1cc(NC(=O)C2CCN(S(=O)(=O)c3cccs3)CC2)c(Cl)cc1C(=O)OCCOCCOCCOC(=O)c1ccc(-c2c3nc(c(-c4ccc(S(=O)(=O)[O-])cc4)c4ccc([nH]4)c(-c4ccc(S(=O)(=O)[O-])cc4)c4nc(c(-c5ccc(S(=O)(=O)[O-])cc5)c5ccc2[nH]5)C=C4)C=C3)cc1
REMARK SMILES IDX 33 1 32 2 31 3 30 4 29 5 27 6 28 7 26 8 3 9 4 10 5 11 25 12
REMARK SMILES IDX 23 13 24 14 2 15 1 16 6 17 7 18 8 20 9 21 10 22 22 23 11 24
REMARK SMILES IDX 21 25 12 26 13 27 14 28 15 29 16 30 17 31 20 32 18 33 19 34
REMARK SMILES IDX 34 35 35 36 36 37 37 38 38 39 39 40 40 41 41 42 42 43 100 44
REMARK SMILES IDX 43 45 99 46 44 47 45 48 46 49 93 50 47 51 98 52 92 53 94 54
REMARK SMILES IDX 48 55 97 56 91 57 90 58 49 60 79 61 60 62 78 63 61 64 64 65
REMARK SMILES IDX 77 66 95 67 62 68 63 69 76 71 96 72 65 73 50 74 51 75 59 76
REMARK SMILES IDX 52 77 58 78 53 79 54 80 55 81 56 82 57 83 80 84 81 85 89 86
REMARK SMILES IDX 82 87 88 88 83 89 84 90 85 91 86 92 87 93 66 94 67 95 75 96
REMARK SMILES IDX 68 97 74 98 69 99 70 100 71 101 72 102 73 103
REMARK H PARENT 6 19 94 59 64 70
REMARK Flexibility Score: inf
ROOT
ATOM      1  C   UNL A   1      56.798  32.977  27.372  1.00  0.00     0.188 C 
ENDROOT
BRANCH   1   2
ATOM      2  O   UNL A   1      55.517  33.414  27.807  1.00  0.00    -0.376 OA
BRANCH   2   3
ATOM      3  C   UNL A   1      54.371  33.049  27.052  1.00  0.00     0.202 C 
BRANCH   3   4
ATOM      4  C   UNL A   1      53.317  34.134  26.782  1.00  0.00     0.261 C 
BRANCH   4   5
ATOM      5  O   UNL A   1      51.981  33.863  27.275  1.00  0.00    -0.460 OA
BRANCH   5   6
ATOM      6  C   UNL A   1      51.132  33.262  26.407  1.00  0.00     0.342 C 
ATOM      7  O   UNL A   1      51.487  32.467  25.547  1.00  0.00    -0.246 OA
BRANCH   6   8
ATOM      8  C   UNL A   1      49.718  33.759  26.453  1.00  0.00     0.103 A 
ATOM      9  C   UNL A   1      49.224  35.040  26.160  1.00  0.00     0.135 A 
ATOM     10  C   UNL A   1      47.892  35.161  25.748  1.00  0.00     0.075 A 
ATOM     11  C   UNL A   1      47.028  34.083  25.770  1.00  0.00     0.063 A 
ATOM     12  C   UNL A   1      48.781  32.756  26.747  1.00  0.00     0.042 A 
ATOM     13  C   UNL A   1      47.436  32.936  26.454  1.00  0.00     0.065 A 
ATOM     14  Cl  UNL A   1      46.324  31.685  26.865  1.00  0.00    -0.082 Cl
BRANCH   9  15
ATOM     15  O   UNL A   1      50.009  36.137  26.363  1.00  0.00    -0.496 OA
ATOM     16  C   UNL A   1      49.405  37.438  26.414  1.00  0.00     0.278 C 
ENDBRANCH   9  15
BRANCH  11  17
ATOM     17  N   UNL A   1      45.748  34.151  25.213  1.00  0.00    -0.324 N 
ATOM     18  C   UNL A   1      44.540  34.556  25.680  1.00  0.00     0.227 C 
ATOM     19  H   UNL A   1      45.717  33.836  24.280  1.00  0.00     0.169 HD
ATOM     20  O   UNL A   1      43.573  34.278  24.950  1.00  0.00    -0.274 OA
BRANCH  18  21
ATOM     21  C   UNL A   1      44.268  35.415  26.940  1.00  0.00     0.081 C 
ATOM     22  C   UNL A   1      42.839  35.861  27.182  1.00  0.00     0.030 C 
ATOM     23  C   UNL A   1      45.289  36.467  27.362  1.00  0.00     0.030 C 
ATOM     24  C   UNL A   1      42.480  37.278  26.770  1.00  0.00     0.103 C 
ATOM     25  C   UNL A   1      44.751  37.886  27.662  1.00  0.00     0.103 C 
ATOM     26  N   UNL A   1      43.593  38.295  26.826  1.00  0.00    -0.197 NA
BRANCH  26  27
ATOM     27  S   UNL A   1      42.892  39.874  27.187  1.00  0.00     0.252 S 
ATOM     28  O   UNL A   1      41.455  39.708  27.081  1.00  0.00    -0.206 OA
ATOM     29  O   UNL A   1      43.484  40.293  28.442  1.00  0.00    -0.206 OA
BRANCH  27  30
ATOM     30  C   UNL A   1      43.228  41.192  26.000  1.00  0.00     0.135 A 
ATOM     31  C   UNL A   1      44.375  41.901  25.679  1.00  0.00     0.033 A 
ATOM     32  S   UNL A   1      42.017  41.539  24.828  1.00  0.00    -0.131 S 
ATOM     33  C   UNL A   1      44.213  42.849  24.633  1.00  0.00     0.013 A 
ATOM     34  C   UNL A   1      42.997  42.691  24.019  1.00  0.00     0.066 A 
ENDBRANCH  27  30
ENDBRANCH  26  27
ENDBRANCH  18  21
ENDBRANCH  11  17
ENDBRANCH   6   8
ENDBRANCH   5   6
ENDBRANCH   4   5
ENDBRANCH   3   4
ENDBRANCH   2   3
ENDBRANCH   1   2
BRANCH   1  35
ATOM     35  C   UNL A   1      56.917  31.594  26.731  1.00  0.00     0.188 C 
BRANCH  35  36
ATOM     36  O   UNL A   1      56.618  30.460  27.530  1.00  0.00    -0.376 OA
BRANCH  36  37
ATOM     37  C   UNL A   1      56.315  29.255  26.841  1.00  0.00     0.202 C 
BRANCH  37  38
ATOM     38  C   UNL A   1      55.960  28.103  27.787  1.00  0.00     0.261 C 
BRANCH  38  39
ATOM     39  O   UNL A   1      54.869  27.337  27.248  1.00  0.00    -0.460 OA
BRANCH  39  40
ATOM     40  C   UNL A   1      54.385  26.339  28.028  1.00  0.00     0.338 C 
ATOM     41  O   UNL A   1      55.032  25.571  28.729  1.00  0.00    -0.246 OA
BRANCH  40  42
ATOM     42  C   UNL A   1      52.915  26.503  28.127  1.00  0.00     0.060 A 
ATOM     43  C   UNL A   1      52.200  26.832  26.962  1.00  0.00     0.016 A 
ATOM     44  C   UNL A   1      52.240  26.259  29.323  1.00  0.00     0.016 A 
ATOM     45  C   UNL A   1      50.811  26.962  27.004  1.00  0.00     0.010 A 
ATOM     46  C   UNL A   1      50.853  26.401  29.367  1.00  0.00     0.010 A 
ATOM     47  C   UNL A   1      50.138  26.788  28.220  1.00  0.00    -0.014 A 
BRANCH  47  48
ATOM     48  C   UNL A   1      48.730  27.218  28.374  1.00  0.00     0.031 A 
ATOM     49  C   UNL A   1      48.479  28.586  28.947  1.00  0.00     0.074 A 
ATOM     50  C   UNL A   1      47.705  26.407  28.059  1.00  0.00     0.049 A 
ATOM     51  N   UNL A   1      47.358  29.129  29.339  1.00  0.00    -0.248 NA
ATOM     52  C   UNL A   1      49.660  29.452  29.113  1.00  0.00     0.031 C 
ATOM     53  C   UNL A   1      47.821  25.083  27.452  1.00  0.00     0.029 A 
ATOM     54  N   UNL A   1      46.354  26.581  28.234  1.00  0.00    -0.354 N 
ATOM     55  C   UNL A   1      47.699  30.392  29.809  1.00  0.00     0.074 A 
ATOM     56  C   UNL A   1      49.132  30.524  29.682  1.00  0.00     0.031 C 
ATOM     57  C   UNL A   1      46.591  24.551  27.329  1.00  0.00     0.029 A 
ATOM     58  C   UNL A   1      45.609  25.480  27.886  1.00  0.00     0.049 A 
ATOM     59  H   UNL A   1      45.957  27.415  28.576  1.00  0.00     0.167 HD
ATOM     60  C   UNL A   1      46.887  31.358  30.299  1.00  0.00     0.031 A 
ATOM     61  C   UNL A   1      44.291  25.238  28.037  1.00  0.00     0.031 A 
ATOM     62  C   UNL A   1      45.465  31.211  30.441  1.00  0.00     0.049 A 
ATOM     63  C   UNL A   1      43.415  26.298  28.660  1.00  0.00     0.074 A 
ATOM     64  C   UNL A   1      44.550  32.123  30.937  1.00  0.00     0.029 A 
ATOM     65  N   UNL A   1      44.750  30.077  30.086  1.00  0.00    -0.354 N 
ATOM     66  N   UNL A   1      43.749  27.485  29.109  1.00  0.00    -0.248 NA
ATOM     67  C   UNL A   1      41.984  25.988  28.788  1.00  0.00     0.031 C 
ATOM     68  C   UNL A   1      43.288  31.522  30.927  1.00  0.00     0.029 A 
ATOM     69  C   UNL A   1      43.407  30.260  30.363  1.00  0.00     0.049 A 
ATOM     70  H   UNL A   1      45.141  29.262  29.695  1.00  0.00     0.167 HD
ATOM     71  C   UNL A   1      42.565  28.074  29.546  1.00  0.00     0.074 A 
ATOM     72  C   UNL A   1      41.508  27.117  29.295  1.00  0.00     0.031 C 
ATOM     73  C   UNL A   1      42.369  29.295  30.100  1.00  0.00     0.031 A 
BRANCH  60  74
ATOM     74  C   UNL A   1      47.529  32.647  30.736  1.00  0.00    -0.014 A 
ATOM     75  C   UNL A   1      48.057  32.791  32.033  1.00  0.00     0.010 A 
ATOM     76  C   UNL A   1      47.640  33.717  29.831  1.00  0.00     0.010 A 
ATOM     77  C   UNL A   1      48.658  33.990  32.424  1.00  0.00     0.020 A 
ATOM     78  C   UNL A   1      48.266  34.909  30.209  1.00  0.00     0.020 A 
ATOM     79  C   UNL A   1      48.759  35.041  31.507  1.00  0.00     0.054 A 
BRANCH  79  80
ATOM     80  S   UNL A   1      49.578  36.571  32.033  1.00  0.00     0.124 S 
ATOM     81  O   UNL A   1      48.608  37.586  31.629  1.00  0.00    -0.237 OA
ATOM     82  O   UNL A   1      49.721  36.379  33.474  1.00  0.00    -0.237 OA
ATOM     83  O   UNL A   1      50.829  36.573  31.280  1.00  0.00    -0.744 OA
ENDBRANCH  79  80
ENDBRANCH  60  74
BRANCH  61  84
ATOM     84  C   UNL A   1      43.720  23.929  27.616  1.00  0.00    -0.014 A 
ATOM     85  C   UNL A   1      43.826  23.496  26.281  1.00  0.00     0.010 A 
ATOM     86  C   UNL A   1      43.064  23.104  28.548  1.00  0.00     0.010 A 
ATOM     87  C   UNL A   1      43.274  22.272  25.887  1.00  0.00     0.020 A 
ATOM     88  C   UNL A   1      42.537  21.867  28.164  1.00  0.00     0.020 A 
ATOM     89  C   UNL A   1      42.637  21.463  26.831  1.00  0.00     0.054 A 
BRANCH  89  90
ATOM     90  S   UNL A   1      41.974  19.858  26.304  1.00  0.00     0.124 S 
ATOM     91  O   UNL A   1      42.641  19.659  25.022  1.00  0.00    -0.237 OA
ATOM     92  O   UNL A   1      42.401  18.972  27.384  1.00  0.00    -0.237 OA
ATOM     93  O   UNL A   1      40.533  20.090  26.231  1.00  0.00    -0.744 OA
ENDBRANCH  89  90
ENDBRANCH  61  84
BRANCH  73  94
ATOM     94  C   UNL A   1      40.954  29.694  30.434  1.00  0.00    -0.014 A 
ATOM     95  C   UNL A   1      40.444  29.565  31.737  1.00  0.00     0.010 A 
ATOM     96  C   UNL A   1      40.147  30.271  29.435  1.00  0.00     0.010 A 
ATOM     97  C   UNL A   1      39.141  29.979  32.029  1.00  0.00     0.020 A 
ATOM     98  C   UNL A   1      38.855  30.713  29.730  1.00  0.00     0.020 A 
ATOM     99  C   UNL A   1      38.355  30.550  31.023  1.00  0.00     0.054 A 
BRANCH  99 100
ATOM    100  S   UNL A   1      36.684  31.121  31.438  1.00  0.00     0.124 S 
ATOM    101  O   UNL A   1      36.934  31.969  32.600  1.00  0.00    -0.237 OA
ATOM    102  O   UNL A   1      36.275  31.822  30.223  1.00  0.00    -0.237 OA
ATOM    103  O   UNL A   1      35.954  29.886  31.714  1.00  0.00    -0.744 OA
ENDBRANCH  99 100
ENDBRANCH  73  94
ENDBRANCH  47  48
ENDBRANCH  40  42
ENDBRANCH  39  40
ENDBRANCH  38  39
ENDBRANCH  37  38
ENDBRANCH  36  37
ENDBRANCH  35  36
ENDBRANCH   1  35
TORSDOF 25
ENDMDL
