MODEL 1
REMARK VINA RESULT:     -10.1      0.000      0.000
REMARK SMILES Cc1cc(N2C[C@H](C(=O)OCCOCCOCCOC(=O)c3ccc(-c4c5nc(c(-c6ccc(S(=O)(=O)[O-])cc6)c6ccc([nH]6)c(-c6ccc(S(=O)(=O)[O-])cc6)c6nc(c(-c7ccc(S(=O)(=O)[O-])cc7)c7ccc4[nH]7)C=C6)C=C5)cc3)CC2=O)cc(C)c1Br
REMARK SMILES IDX 15 1 14 2 13 3 12 4 11 5 10 6 8 7 9 8 7 9 5 10 6 11 83 12
REMARK SMILES IDX 82 13 84 14 4 15 1 16 2 17 3 18 88 19 86 20 89 21 85 22
REMARK SMILES IDX 87 23 16 24 17 25 18 26 19 27 20 28 21 29 22 30 23 31 81 32
REMARK SMILES IDX 24 33 80 34 25 35 26 36 27 37 74 38 28 39 79 40 73 41 75 42
REMARK SMILES IDX 29 43 78 44 72 45 71 46 30 48 60 49 41 50 59 51 42 52 45 53
REMARK SMILES IDX 58 54 76 55 43 56 44 57 57 59 77 60 46 61 31 62 32 63 40 64
REMARK SMILES IDX 33 65 39 66 34 67 35 68 36 69 37 70 38 71 61 72 62 73 70 74
REMARK SMILES IDX 63 75 69 76 64 77 65 78 66 79 67 80 68 81 47 82 48 83 56 84
REMARK SMILES IDX 49 85 55 86 50 87 51 88 52 89 53 90 54 91
REMARK H PARENT 75 47 45 58
REMARK Flexibility Score: inf
ROOT
ATOM      1  C   UNL A   1      36.627  21.674  24.753  1.00  0.00     0.188 C 
ENDROOT
BRANCH   1   2
ATOM      2  C   UNL A   1      35.572  20.583  24.928  1.00  0.00     0.188 C 
BRANCH   2   3
ATOM      3  O   UNL A   1      34.640  20.784  25.984  1.00  0.00    -0.376 OA
BRANCH   3   4
ATOM      4  C   UNL A   1      33.338  21.234  25.619  1.00  0.00     0.202 C 
BRANCH   4   5
ATOM      5  C   UNL A   1      33.094  22.752  25.666  1.00  0.00     0.261 C 
BRANCH   5   6
ATOM      6  O   UNL A   1      31.713  23.147  25.528  1.00  0.00    -0.463 OA
BRANCH   6   7
ATOM      7  C   UNL A   1      31.390  23.780  24.373  1.00  0.00     0.311 C 
ATOM      8  O   UNL A   1      31.700  23.387  23.252  1.00  0.00    -0.252 OA
BRANCH   7   9
ATOM      9  C   UNL A   1      30.566  25.037  24.558  1.00  0.00     0.128 C 
ATOM     10  N   UNL A   1      31.688  27.061  24.991  1.00  0.00    -0.312 N 
ATOM     11  C   UNL A   1      30.965  26.005  25.656  1.00  0.00     0.141 C 
ATOM     12  C   UNL A   1      31.552  26.988  23.604  1.00  0.00     0.227 C 
ATOM     13  C   UNL A   1      30.620  25.853  23.277  1.00  0.00     0.117 C 
ATOM     14  O   UNL A   1      32.056  27.706  22.753  1.00  0.00    -0.274 OA
BRANCH  10  15
ATOM     15  C   UNL A   1      32.301  28.132  25.688  1.00  0.00     0.044 A 
ATOM     16  C   UNL A   1      31.436  31.719  26.607  1.00  0.00     0.045 C 
ATOM     17  C   UNL A   1      32.232  30.450  26.482  1.00  0.00    -0.035 A 
ATOM     18  C   UNL A   1      31.662  29.372  25.785  1.00  0.00     0.031 A 
ATOM     19  C   UNL A   1      33.517  30.302  27.030  1.00  0.00     0.023 A 
ATOM     20  C   UNL A   1      34.187  29.068  26.944  1.00  0.00    -0.035 A 
ATOM     21  Br  UNL A   1      34.362  31.792  27.877  1.00  0.00    -0.050 Br
ATOM     22  C   UNL A   1      33.546  27.985  26.307  1.00  0.00     0.031 A 
ATOM     23  C   UNL A   1      35.586  28.886  27.471  1.00  0.00     0.045 C 
ENDBRANCH  10  15
ENDBRANCH   7   9
ENDBRANCH   6   7
ENDBRANCH   5   6
ENDBRANCH   4   5
ENDBRANCH   3   4
ENDBRANCH   2   3
ENDBRANCH   1   2
BRANCH   1  24
ATOM     24  O   UNL A   1      37.342  22.006  25.931  1.00  0.00    -0.376 OA
BRANCH  24  25
ATOM     25  C   UNL A   1      38.762  22.107  25.857  1.00  0.00     0.202 C 
BRANCH  25  26
ATOM     26  C   UNL A   1      39.532  23.130  26.713  1.00  0.00     0.261 C 
BRANCH  26  27
ATOM     27  O   UNL A   1      39.271  24.525  26.466  1.00  0.00    -0.460 OA
BRANCH  27  28
ATOM     28  C   UNL A   1      40.314  25.363  26.249  1.00  0.00     0.338 C 
ATOM     29  O   UNL A   1      40.916  25.506  25.204  1.00  0.00    -0.246 OA
BRANCH  28  30
ATOM     30  C   UNL A   1      40.395  26.294  27.419  1.00  0.00     0.060 A 
ATOM     31  C   UNL A   1      39.411  26.202  28.417  1.00  0.00     0.016 A 
ATOM     32  C   UNL A   1      41.474  27.165  27.599  1.00  0.00     0.016 A 
ATOM     33  C   UNL A   1      39.487  26.995  29.569  1.00  0.00     0.010 A 
ATOM     34  C   UNL A   1      41.541  27.971  28.743  1.00  0.00     0.010 A 
ATOM     35  C   UNL A   1      40.531  27.915  29.721  1.00  0.00    -0.014 A 
BRANCH  35  36
ATOM     36  C   UNL A   1      40.462  28.983  30.756  1.00  0.00     0.031 A 
ATOM     37  C   UNL A   1      41.387  28.860  31.942  1.00  0.00     0.074 A 
ATOM     38  C   UNL A   1      39.621  30.031  30.673  1.00  0.00     0.049 A 
ATOM     39  N   UNL A   1      41.428  29.567  33.041  1.00  0.00    -0.248 NA
ATOM     40  C   UNL A   1      42.399  27.791  31.875  1.00  0.00     0.031 C 
ATOM     41  C   UNL A   1      38.726  30.322  29.554  1.00  0.00     0.029 A 
ATOM     42  N   UNL A   1      39.374  31.046  31.570  1.00  0.00    -0.354 N 
ATOM     43  C   UNL A   1      42.461  29.024  33.797  1.00  0.00     0.074 A 
ATOM     44  C   UNL A   1      43.002  27.913  33.048  1.00  0.00     0.031 C 
ATOM     45  C   UNL A   1      38.015  31.431  29.840  1.00  0.00     0.029 A 
ATOM     46  C   UNL A   1      38.367  31.901  31.181  1.00  0.00     0.049 A 
ATOM     47  H   UNL A   1      39.872  31.151  32.412  1.00  0.00     0.167 HD
ATOM     48  C   UNL A   1      42.924  29.416  35.007  1.00  0.00     0.031 A 
ATOM     49  C   UNL A   1      37.774  32.918  31.843  1.00  0.00     0.031 A 
ATOM     50  C   UNL A   1      42.383  30.511  35.763  1.00  0.00     0.049 A 
ATOM     51  C   UNL A   1      38.232  33.263  33.244  1.00  0.00     0.074 A 
ATOM     52  C   UNL A   1      42.773  30.966  37.010  1.00  0.00     0.029 A 
ATOM     53  N   UNL A   1      41.344  31.324  35.345  1.00  0.00    -0.354 N 
ATOM     54  N   UNL A   1      39.199  32.731  33.953  1.00  0.00    -0.248 NA
ATOM     55  C   UNL A   1      37.516  34.349  33.936  1.00  0.00     0.031 C 
ATOM     56  C   UNL A   1      41.934  32.023  37.370  1.00  0.00     0.029 A 
ATOM     57  C   UNL A   1      41.072  32.273  36.315  1.00  0.00     0.049 A 
ATOM     58  H   UNL A   1      40.869  31.241  34.487  1.00  0.00     0.167 HD
ATOM     59  C   UNL A   1      39.240  33.452  35.145  1.00  0.00     0.074 A 
ATOM     60  C   UNL A   1      38.203  34.457  35.066  1.00  0.00     0.031 C 
ATOM     61  C   UNL A   1      40.068  33.299  36.207  1.00  0.00     0.031 A 
BRANCH  48  62
ATOM     62  C   UNL A   1      44.067  28.642  35.605  1.00  0.00    -0.014 A 
ATOM     63  C   UNL A   1      43.836  27.472  36.351  1.00  0.00     0.010 A 
ATOM     64  C   UNL A   1      45.390  29.045  35.351  1.00  0.00     0.010 A 
ATOM     65  C   UNL A   1      44.909  26.728  36.845  1.00  0.00     0.020 A 
ATOM     66  C   UNL A   1      46.467  28.287  35.818  1.00  0.00     0.020 A 
ATOM     67  C   UNL A   1      46.218  27.136  36.569  1.00  0.00     0.054 A 
BRANCH  67  68
ATOM     68  S   UNL A   1      47.589  26.115  37.173  1.00  0.00     0.124 S 
ATOM     69  O   UNL A   1      47.504  24.949  36.297  1.00  0.00    -0.237 OA
ATOM     70  O   UNL A   1      48.747  26.979  36.957  1.00  0.00    -0.237 OA
ATOM     71  O   UNL A   1      47.250  25.868  38.572  1.00  0.00    -0.744 OA
ENDBRANCH  67  68
ENDBRANCH  48  62
BRANCH  49  72
ATOM     72  C   UNL A   1      36.642  33.674  31.229  1.00  0.00    -0.014 A 
ATOM     73  C   UNL A   1      35.413  33.808  31.901  1.00  0.00     0.010 A 
ATOM     74  C   UNL A   1      36.762  34.200  29.929  1.00  0.00     0.010 A 
ATOM     75  C   UNL A   1      34.316  34.407  31.271  1.00  0.00     0.020 A 
ATOM     76  C   UNL A   1      35.679  34.833  29.308  1.00  0.00     0.020 A 
ATOM     77  C   UNL A   1      34.456  34.911  29.974  1.00  0.00     0.054 A 
BRANCH  77  78
ATOM     78  S   UNL A   1      33.020  35.680  29.173  1.00  0.00     0.124 S 
ATOM     79  O   UNL A   1      32.487  34.574  28.384  1.00  0.00    -0.237 OA
ATOM     80  O   UNL A   1      32.209  36.096  30.313  1.00  0.00    -0.237 OA
ATOM     81  O   UNL A   1      33.607  36.773  28.400  1.00  0.00    -0.744 OA
ENDBRANCH  77  78
ENDBRANCH  49  72
BRANCH  61  82
ATOM     82  C   UNL A   1      39.972  34.287  37.342  1.00  0.00    -0.014 A 
ATOM     83  C   UNL A   1      40.360  35.629  37.192  1.00  0.00     0.010 A 
ATOM     84  C   UNL A   1      39.369  33.879  38.549  1.00  0.00     0.010 A 
ATOM     85  C   UNL A   1      40.157  36.541  38.233  1.00  0.00     0.020 A 
ATOM     86  C   UNL A   1      39.138  34.794  39.578  1.00  0.00     0.020 A 
ATOM     87  C   UNL A   1      39.538  36.121  39.415  1.00  0.00     0.054 A 
BRANCH  87  88
ATOM     88  S   UNL A   1      39.207  37.345  40.713  1.00  0.00     0.124 S 
ATOM     89  O   UNL A   1      38.324  38.285  40.029  1.00  0.00    -0.237 OA
ATOM     90  O   UNL A   1      38.579  36.540  41.758  1.00  0.00    -0.237 OA
ATOM     91  O   UNL A   1      40.531  37.865  41.048  1.00  0.00    -0.744 OA
ENDBRANCH  87  88
ENDBRANCH  61  82
ENDBRANCH  35  36
ENDBRANCH  28  30
ENDBRANCH  27  28
ENDBRANCH  26  27
ENDBRANCH  25  26
ENDBRANCH  24  25
ENDBRANCH   1  24
TORSDOF 21
ENDMDL
MODEL 2
REMARK VINA RESULT:      -9.9      2.164      8.843
REMARK SMILES Cc1cc(N2C[C@H](C(=O)OCCOCCOCCOC(=O)c3ccc(-c4c5nc(c(-c6ccc(S(=O)(=O)[O-])cc6)c6ccc([nH]6)c(-c6ccc(S(=O)(=O)[O-])cc6)c6nc(c(-c7ccc(S(=O)(=O)[O-])cc7)c7ccc4[nH]7)C=C6)C=C5)cc3)CC2=O)cc(C)c1Br
REMARK SMILES IDX 15 1 14 2 13 3 12 4 11 5 10 6 8 7 9 8 7 9 5 10 6 11 83 12
REMARK SMILES IDX 82 13 84 14 4 15 1 16 2 17 3 18 88 19 86 20 89 21 85 22
REMARK SMILES IDX 87 23 16 24 17 25 18 26 19 27 20 28 21 29 22 30 23 31 81 32
REMARK SMILES IDX 24 33 80 34 25 35 26 36 27 37 74 38 28 39 79 40 73 41 75 42
REMARK SMILES IDX 29 43 78 44 72 45 71 46 30 48 60 49 41 50 59 51 42 52 45 53
REMARK SMILES IDX 58 54 76 55 43 56 44 57 57 59 77 60 46 61 31 62 32 63 40 64
REMARK SMILES IDX 33 65 39 66 34 67 35 68 36 69 37 70 38 71 61 72 62 73 70 74
REMARK SMILES IDX 63 75 69 76 64 77 65 78 66 79 67 80 68 81 47 82 48 83 56 84
REMARK SMILES IDX 49 85 55 86 50 87 51 88 52 89 53 90 54 91
REMARK H PARENT 75 47 45 58
REMARK Flexibility Score: inf
ROOT
ATOM      1  C   UNL A   1      44.341  20.161  24.690  1.00  0.00     0.188 C 
ENDROOT
BRANCH   1   2
ATOM      2  C   UNL A   1      43.343  19.290  25.451  1.00  0.00     0.188 C 
BRANCH   2   3
ATOM      3  O   UNL A   1      41.995  19.746  25.450  1.00  0.00    -0.376 OA
BRANCH   3   4
ATOM      4  C   UNL A   1      41.416  20.053  26.716  1.00  0.00     0.202 C 
BRANCH   4   5
ATOM      5  C   UNL A   1      40.504  21.289  26.776  1.00  0.00     0.261 C 
BRANCH   5   6
ATOM      6  O   UNL A   1      39.456  21.316  25.785  1.00  0.00    -0.463 OA
BRANCH   6   7
ATOM      7  C   UNL A   1      38.467  22.221  25.993  1.00  0.00     0.311 C 
ATOM      8  O   UNL A   1      38.641  23.357  26.423  1.00  0.00    -0.252 OA
BRANCH   7   9
ATOM      9  C   UNL A   1      37.083  21.732  25.620  1.00  0.00     0.128 C 
ATOM     10  N   UNL A   1      35.537  23.288  24.764  1.00  0.00    -0.312 N 
ATOM     11  C   UNL A   1      35.891  22.600  25.981  1.00  0.00     0.141 C 
ATOM     12  C   UNL A   1      36.195  22.754  23.656  1.00  0.00     0.227 C 
ATOM     13  C   UNL A   1      37.009  21.573  24.110  1.00  0.00     0.117 C 
ATOM     14  O   UNL A   1      36.142  23.121  22.491  1.00  0.00    -0.274 OA
BRANCH  10  15
ATOM     15  C   UNL A   1      34.509  24.262  24.702  1.00  0.00     0.044 A 
ATOM     16  C   UNL A   1      33.747  27.618  26.321  1.00  0.00     0.045 C 
ATOM     17  C   UNL A   1      33.568  26.392  25.470  1.00  0.00    -0.035 A 
ATOM     18  C   UNL A   1      34.560  25.397  25.518  1.00  0.00     0.031 A 
ATOM     19  C   UNL A   1      32.454  26.201  24.636  1.00  0.00     0.023 A 
ATOM     20  C   UNL A   1      32.373  25.066  23.808  1.00  0.00    -0.035 A 
ATOM     21  Br  UNL A   1      31.035  27.480  24.645  1.00  0.00    -0.050 Br
ATOM     22  C   UNL A   1      33.429  24.132  23.825  1.00  0.00     0.031 A 
ATOM     23  C   UNL A   1      31.171  24.800  22.941  1.00  0.00     0.045 C 
ENDBRANCH  10  15
ENDBRANCH   7   9
ENDBRANCH   6   7
ENDBRANCH   5   6
ENDBRANCH   4   5
ENDBRANCH   3   4
ENDBRANCH   2   3
ENDBRANCH   1   2
BRANCH   1  24
ATOM     24  O   UNL A   1      45.059  21.084  25.492  1.00  0.00    -0.376 OA
BRANCH  24  25
ATOM     25  C   UNL A   1      44.340  22.149  26.109  1.00  0.00     0.202 C 
BRANCH  25  26
ATOM     26  C   UNL A   1      44.554  23.610  25.671  1.00  0.00     0.261 C 
BRANCH  26  27
ATOM     27  O   UNL A   1      44.057  24.640  26.548  1.00  0.00    -0.460 OA
BRANCH  27  28
ATOM     28  C   UNL A   1      42.991  25.380  26.158  1.00  0.00     0.338 C 
ATOM     29  O   UNL A   1      42.344  25.229  25.141  1.00  0.00    -0.246 OA
BRANCH  28  30
ATOM     30  C   UNL A   1      42.563  26.207  27.331  1.00  0.00     0.060 A 
ATOM     31  C   UNL A   1      43.218  27.427  27.564  1.00  0.00     0.016 A 
ATOM     32  C   UNL A   1      41.467  25.854  28.125  1.00  0.00     0.016 A 
ATOM     33  C   UNL A   1      42.801  28.273  28.600  1.00  0.00     0.010 A 
ATOM     34  C   UNL A   1      41.062  26.692  29.171  1.00  0.00     0.010 A 
ATOM     35  C   UNL A   1      41.746  27.892  29.437  1.00  0.00    -0.014 A 
BRANCH  35  36
ATOM     36  C   UNL A   1      41.499  28.600  30.723  1.00  0.00     0.031 A 
ATOM     37  C   UNL A   1      40.376  29.607  30.756  1.00  0.00     0.074 A 
ATOM     38  C   UNL A   1      42.228  28.379  31.834  1.00  0.00     0.049 A 
ATOM     39  N   UNL A   1      40.046  30.455  31.695  1.00  0.00    -0.248 NA
ATOM     40  C   UNL A   1      39.512  29.665  29.563  1.00  0.00     0.031 C 
ATOM     41  C   UNL A   1      43.291  27.385  31.974  1.00  0.00     0.029 A 
ATOM     42  N   UNL A   1      42.187  28.999  33.063  1.00  0.00    -0.354 N 
ATOM     43  C   UNL A   1      38.946  31.149  31.204  1.00  0.00     0.074 A 
ATOM     44  C   UNL A   1      38.681  30.647  29.875  1.00  0.00     0.031 C 
ATOM     45  C   UNL A   1      43.813  27.477  33.213  1.00  0.00     0.029 A 
ATOM     46  C   UNL A   1      43.157  28.566  33.938  1.00  0.00     0.049 A 
ATOM     47  H   UNL A   1      41.524  29.689  33.294  1.00  0.00     0.167 HD
ATOM     48  C   UNL A   1      38.216  32.117  31.805  1.00  0.00     0.031 A 
ATOM     49  C   UNL A   1      43.500  29.019  35.164  1.00  0.00     0.031 A 
ATOM     50  C   UNL A   1      38.481  32.630  33.120  1.00  0.00     0.049 A 
ATOM     51  C   UNL A   1      42.742  30.183  35.767  1.00  0.00     0.074 A 
ATOM     52  C   UNL A   1      37.807  33.629  33.802  1.00  0.00     0.029 A 
ATOM     53  N   UNL A   1      39.493  32.186  33.954  1.00  0.00    -0.354 N 
ATOM     54  N   UNL A   1      41.714  30.840  35.285  1.00  0.00    -0.248 NA
ATOM     55  C   UNL A   1      43.191  30.666  37.084  1.00  0.00     0.031 C 
ATOM     56  C   UNL A   1      38.445  33.825  35.028  1.00  0.00     0.029 A 
ATOM     57  C   UNL A   1      39.469  32.898  35.140  1.00  0.00     0.049 A 
ATOM     58  H   UNL A   1      40.133  31.471  33.736  1.00  0.00     0.167 HD
ATOM     59  C   UNL A   1      41.364  31.771  36.260  1.00  0.00     0.074 A 
ATOM     60  C   UNL A   1      42.288  31.597  37.359  1.00  0.00     0.031 C 
ATOM     61  C   UNL A   1      40.363  32.685  36.248  1.00  0.00     0.031 A 
BRANCH  48  62
ATOM     62  C   UNL A   1      37.062  32.704  31.037  1.00  0.00    -0.014 A 
ATOM     63  C   UNL A   1      37.267  33.738  30.105  1.00  0.00     0.010 A 
ATOM     64  C   UNL A   1      35.774  32.163  31.193  1.00  0.00     0.010 A 
ATOM     65  C   UNL A   1      36.198  34.229  29.352  1.00  0.00     0.020 A 
ATOM     66  C   UNL A   1      34.708  32.632  30.420  1.00  0.00     0.020 A 
ATOM     67  C   UNL A   1      34.927  33.668  29.510  1.00  0.00     0.054 A 
BRANCH  67  68
ATOM     68  S   UNL A   1      33.573  34.286  28.474  1.00  0.00     0.124 S 
ATOM     69  O   UNL A   1      32.638  34.798  29.474  1.00  0.00    -0.237 OA
ATOM     70  O   UNL A   1      34.236  35.299  27.657  1.00  0.00    -0.237 OA
ATOM     71  O   UNL A   1      33.120  33.101  27.749  1.00  0.00    -0.744 OA
ENDBRANCH  67  68
ENDBRANCH  48  62
BRANCH  49  72
ATOM     72  C   UNL A   1      44.647  28.420  35.908  1.00  0.00    -0.014 A 
ATOM     73  C   UNL A   1      44.472  27.275  36.707  1.00  0.00     0.010 A 
ATOM     74  C   UNL A   1      45.910  29.040  35.884  1.00  0.00     0.010 A 
ATOM     75  C   UNL A   1      45.519  26.792  37.501  1.00  0.00     0.020 A 
ATOM     76  C   UNL A   1      46.971  28.540  36.647  1.00  0.00     0.020 A 
ATOM     77  C   UNL A   1      46.761  27.432  37.469  1.00  0.00     0.054 A 
BRANCH  77  78
ATOM     78  S   UNL A   1      48.104  26.793  38.510  1.00  0.00     0.124 S 
ATOM     79  O   UNL A   1      47.405  26.493  39.755  1.00  0.00    -0.237 OA
ATOM     80  O   UNL A   1      48.569  25.637  37.749  1.00  0.00    -0.237 OA
ATOM     81  O   UNL A   1      49.045  27.909  38.575  1.00  0.00    -0.744 OA
ENDBRANCH  77  78
ENDBRANCH  49  72
BRANCH  61  82
ATOM     82  C   UNL A   1      40.131  33.514  37.486  1.00  0.00    -0.014 A 
ATOM     83  C   UNL A   1      39.283  33.083  38.520  1.00  0.00     0.010 A 
ATOM     84  C   UNL A   1      40.874  34.699  37.660  1.00  0.00     0.010 A 
ATOM     85  C   UNL A   1      39.175  33.826  39.699  1.00  0.00     0.020 A 
ATOM     86  C   UNL A   1      40.792  35.427  38.848  1.00  0.00     0.020 A 
ATOM     87  C   UNL A   1      39.937  34.988  39.861  1.00  0.00     0.054 A 
BRANCH  87  88
ATOM     88  S   UNL A   1      39.845  35.884  41.436  1.00  0.00     0.124 S 
ATOM     89  O   UNL A   1      38.783  36.852  41.176  1.00  0.00    -0.237 OA
ATOM     90  O   UNL A   1      39.513  34.825  42.386  1.00  0.00    -0.237 OA
ATOM     91  O   UNL A   1      41.182  36.454  41.591  1.00  0.00    -0.744 OA
ENDBRANCH  87  88
ENDBRANCH  61  82
ENDBRANCH  35  36
ENDBRANCH  28  30
ENDBRANCH  27  28
ENDBRANCH  26  27
ENDBRANCH  25  26
ENDBRANCH  24  25
ENDBRANCH   1  24
TORSDOF 21
ENDMDL
MODEL 3
REMARK VINA RESULT:      -9.8      4.685     12.375
REMARK SMILES Cc1cc(N2C[C@H](C(=O)OCCOCCOCCOC(=O)c3ccc(-c4c5nc(c(-c6ccc(S(=O)(=O)[O-])cc6)c6ccc([nH]6)c(-c6ccc(S(=O)(=O)[O-])cc6)c6nc(c(-c7ccc(S(=O)(=O)[O-])cc7)c7ccc4[nH]7)C=C6)C=C5)cc3)CC2=O)cc(C)c1Br
REMARK SMILES IDX 15 1 14 2 13 3 12 4 11 5 10 6 8 7 9 8 7 9 5 10 6 11 83 12
REMARK SMILES IDX 82 13 84 14 4 15 1 16 2 17 3 18 88 19 86 20 89 21 85 22
REMARK SMILES IDX 87 23 16 24 17 25 18 26 19 27 20 28 21 29 22 30 23 31 81 32
REMARK SMILES IDX 24 33 80 34 25 35 26 36 27 37 74 38 28 39 79 40 73 41 75 42
REMARK SMILES IDX 29 43 78 44 72 45 71 46 30 48 60 49 41 50 59 51 42 52 45 53
REMARK SMILES IDX 58 54 76 55 43 56 44 57 57 59 77 60 46 61 31 62 32 63 40 64
REMARK SMILES IDX 33 65 39 66 34 67 35 68 36 69 37 70 38 71 61 72 62 73 70 74
REMARK SMILES IDX 63 75 69 76 64 77 65 78 66 79 67 80 68 81 47 82 48 83 56 84
REMARK SMILES IDX 49 85 55 86 50 87 51 88 52 89 53 90 54 91
REMARK H PARENT 75 47 45 58
REMARK Flexibility Score: inf
ROOT
ATOM      1  C   UNL A   1      32.972  35.573  30.781  1.00  0.00     0.188 C 
ENDROOT
BRANCH   1   2
ATOM      2  C   UNL A   1      33.366  36.774  31.640  1.00  0.00     0.188 C 
BRANCH   2   3
ATOM      3  O   UNL A   1      34.487  36.584  32.495  1.00  0.00    -0.376 OA
BRANCH   3   4
ATOM      4  C   UNL A   1      34.486  35.415  33.312  1.00  0.00     0.202 C 
BRANCH   4   5
ATOM      5  C   UNL A   1      35.291  34.212  32.795  1.00  0.00     0.261 C 
BRANCH   5   6
ATOM      6  O   UNL A   1      36.128  33.575  33.783  1.00  0.00    -0.463 OA
BRANCH   6   7
ATOM      7  C   UNL A   1      36.979  32.628  33.316  1.00  0.00     0.311 C 
ATOM      8  O   UNL A   1      36.761  31.912  32.343  1.00  0.00    -0.252 OA
BRANCH   7   9
ATOM      9  C   UNL A   1      38.280  32.524  34.084  1.00  0.00     0.128 C 
ATOM     10  N   UNL A   1      38.209  32.649  36.434  1.00  0.00    -0.312 N 
ATOM     11  C   UNL A   1      38.494  33.449  35.268  1.00  0.00     0.141 C 
ATOM     12  C   UNL A   1      38.105  31.294  36.121  1.00  0.00     0.227 C 
ATOM     13  C   UNL A   1      38.403  31.120  34.655  1.00  0.00     0.117 C 
ATOM     14  O   UNL A   1      37.845  30.359  36.864  1.00  0.00    -0.274 OA
BRANCH  10  15
ATOM     15  C   UNL A   1      38.220  33.175  37.750  1.00  0.00     0.044 A 
ATOM     16  C   UNL A   1      39.912  36.038  39.595  1.00  0.00     0.045 C 
ATOM     17  C   UNL A   1      39.063  34.820  39.361  1.00  0.00    -0.035 A 
ATOM     18  C   UNL A   1      39.040  34.261  38.072  1.00  0.00     0.031 A 
ATOM     19  C   UNL A   1      38.299  34.219  40.375  1.00  0.00     0.023 A 
ATOM     20  C   UNL A   1      37.468  33.122  40.083  1.00  0.00    -0.035 A 
ATOM     21  Br  UNL A   1      38.408  34.886  42.163  1.00  0.00    -0.050 Br
ATOM     22  C   UNL A   1      37.411  32.643  38.758  1.00  0.00     0.031 A 
ATOM     23  C   UNL A   1      36.676  32.419  41.154  1.00  0.00     0.045 C 
ENDBRANCH  10  15
ENDBRANCH   7   9
ENDBRANCH   6   7
ENDBRANCH   5   6
ENDBRANCH   4   5
ENDBRANCH   3   4
ENDBRANCH   2   3
ENDBRANCH   1   2
BRANCH   1  24
ATOM     24  O   UNL A   1      33.324  35.678  29.412  1.00  0.00    -0.376 OA
BRANCH  24  25
ATOM     25  C   UNL A   1      33.405  34.482  28.640  1.00  0.00     0.202 C 
BRANCH  25  26
ATOM     26  C   UNL A   1      34.494  33.428  28.917  1.00  0.00     0.261 C 
BRANCH  26  27
ATOM     27  O   UNL A   1      34.847  32.546  27.835  1.00  0.00    -0.460 OA
BRANCH  27  28
ATOM     28  C   UNL A   1      34.568  31.224  27.945  1.00  0.00     0.338 C 
ATOM     29  O   UNL A   1      33.542  30.674  27.598  1.00  0.00    -0.246 OA
BRANCH  28  30
ATOM     30  C   UNL A   1      35.847  30.520  28.279  1.00  0.00     0.060 A 
ATOM     31  C   UNL A   1      35.959  29.894  29.531  1.00  0.00     0.016 A 
ATOM     32  C   UNL A   1      36.878  30.374  27.345  1.00  0.00     0.016 A 
ATOM     33  C   UNL A   1      37.103  29.155  29.859  1.00  0.00     0.010 A 
ATOM     34  C   UNL A   1      38.029  29.650  27.680  1.00  0.00     0.010 A 
ATOM     35  C   UNL A   1      38.164  29.062  28.951  1.00  0.00    -0.014 A 
BRANCH  35  36
ATOM     36  C   UNL A   1      39.501  28.572  29.387  1.00  0.00     0.031 A 
ATOM     37  C   UNL A   1      40.328  29.491  30.251  1.00  0.00     0.074 A 
ATOM     38  C   UNL A   1      39.987  27.364  29.042  1.00  0.00     0.049 A 
ATOM     39  N   UNL A   1      41.569  29.369  30.644  1.00  0.00    -0.248 NA
ATOM     40  C   UNL A   1      39.660  30.714  30.733  1.00  0.00     0.031 C 
ATOM     41  C   UNL A   1      39.274  26.342  28.278  1.00  0.00     0.029 A 
ATOM     42  N   UNL A   1      41.219  26.799  29.286  1.00  0.00    -0.354 N 
ATOM     43  C   UNL A   1      41.832  30.500  31.409  1.00  0.00     0.074 A 
ATOM     44  C   UNL A   1      40.635  31.309  31.404  1.00  0.00     0.031 C 
ATOM     45  C   UNL A   1      40.088  25.283  28.100  1.00  0.00     0.029 A 
ATOM     46  C   UNL A   1      41.395  25.569  28.694  1.00  0.00     0.049 A 
ATOM     47  H   UNL A   1      41.911  27.235  29.834  1.00  0.00     0.167 HD
ATOM     48  C   UNL A   1      42.967  30.836  32.065  1.00  0.00     0.031 A 
ATOM     49  C   UNL A   1      42.491  24.784  28.609  1.00  0.00     0.031 A 
ATOM     50  C   UNL A   1      44.165  30.043  32.065  1.00  0.00     0.049 A 
ATOM     51  C   UNL A   1      43.784  25.238  29.251  1.00  0.00     0.074 A 
ATOM     52  C   UNL A   1      45.373  30.316  32.682  1.00  0.00     0.029 A 
ATOM     53  N   UNL A   1      44.307  28.824  31.424  1.00  0.00    -0.354 N 
ATOM     54  N   UNL A   1      44.023  26.317  29.959  1.00  0.00    -0.248 NA
ATOM     55  C   UNL A   1      44.959  24.364  29.085  1.00  0.00     0.031 C 
ATOM     56  C   UNL A   1      46.263  29.287  32.370  1.00  0.00     0.029 A 
ATOM     57  C   UNL A   1      45.587  28.337  31.622  1.00  0.00     0.049 A 
ATOM     58  H   UNL A   1      43.604  28.371  30.905  1.00  0.00     0.167 HD
ATOM     59  C   UNL A   1      45.353  26.221  30.363  1.00  0.00     0.074 A 
ATOM     60  C   UNL A   1      45.871  24.984  29.823  1.00  0.00     0.031 C 
ATOM     61  C   UNL A   1      46.078  27.081  31.119  1.00  0.00     0.031 A 
BRANCH  48  62
ATOM     62  C   UNL A   1      42.980  32.133  32.827  1.00  0.00    -0.014 A 
ATOM     63  C   UNL A   1      43.445  33.318  32.229  1.00  0.00     0.010 A 
ATOM     64  C   UNL A   1      42.446  32.182  34.128  1.00  0.00     0.010 A 
ATOM     65  C   UNL A   1      43.390  34.527  32.926  1.00  0.00     0.020 A 
ATOM     66  C   UNL A   1      42.362  33.395  34.816  1.00  0.00     0.020 A 
ATOM     67  C   UNL A   1      42.843  34.559  34.212  1.00  0.00     0.054 A 
BRANCH  67  68
ATOM     68  S   UNL A   1      42.730  36.154  35.066  1.00  0.00     0.124 S 
ATOM     69  O   UNL A   1      42.698  37.094  33.947  1.00  0.00    -0.237 OA
ATOM     70  O   UNL A   1      41.482  36.027  35.813  1.00  0.00    -0.237 OA
ATOM     71  O   UNL A   1      43.941  36.200  35.881  1.00  0.00    -0.744 OA
ENDBRANCH  67  68
ENDBRANCH  48  62
BRANCH  49  72
ATOM     72  C   UNL A   1      42.455  23.499  27.848  1.00  0.00    -0.014 A 
ATOM     73  C   UNL A   1      41.767  22.380  28.350  1.00  0.00     0.010 A 
ATOM     74  C   UNL A   1      43.178  23.366  26.648  1.00  0.00     0.010 A 
ATOM     75  C   UNL A   1      41.841  21.144  27.697  1.00  0.00     0.020 A 
ATOM     76  C   UNL A   1      43.226  22.142  25.971  1.00  0.00     0.020 A 
ATOM     77  C   UNL A   1      42.576  21.033  26.513  1.00  0.00     0.054 A 
BRANCH  77  78
ATOM     78  S   UNL A   1      42.664  19.420  25.684  1.00  0.00     0.124 S 
ATOM     79  O   UNL A   1      41.264  19.169  25.361  1.00  0.00    -0.237 OA
ATOM     80  O   UNL A   1      43.537  19.698  24.547  1.00  0.00    -0.237 OA
ATOM     81  O   UNL A   1      43.238  18.544  26.704  1.00  0.00    -0.744 OA
ENDBRANCH  77  78
ENDBRANCH  49  72
BRANCH  61  82
ATOM     82  C   UNL A   1      47.483  26.690  31.504  1.00  0.00    -0.014 A 
ATOM     83  C   UNL A   1      48.597  27.084  30.744  1.00  0.00     0.010 A 
ATOM     84  C   UNL A   1      47.690  26.010  32.720  1.00  0.00     0.010 A 
ATOM     85  C   UNL A   1      49.891  26.795  31.189  1.00  0.00     0.020 A 
ATOM     86  C   UNL A   1      48.981  25.746  33.182  1.00  0.00     0.020 A 
ATOM     87  C   UNL A   1      50.077  26.137  32.409  1.00  0.00     0.054 A 
BRANCH  87  88
ATOM     88  S   UNL A   1      51.767  25.854  33.004  1.00  0.00     0.124 S 
ATOM     89  O   UNL A   1      51.625  24.607  33.749  1.00  0.00    -0.237 OA
ATOM     90  O   UNL A   1      52.531  25.762  31.762  1.00  0.00    -0.237 OA
ATOM     91  O   UNL A   1      52.052  27.036  33.816  1.00  0.00    -0.744 OA
ENDBRANCH  87  88
ENDBRANCH  61  82
ENDBRANCH  35  36
ENDBRANCH  28  30
ENDBRANCH  27  28
ENDBRANCH  26  27
ENDBRANCH  25  26
ENDBRANCH  24  25
ENDBRANCH   1  24
TORSDOF 21
ENDMDL
