MODEL 1
REMARK VINA RESULT:     -11.1      0.000      0.000
REMARK SMILES O=C(Cn1c2ccccc2c(=O)c2ccccc21)N[C@@H](Cc1ccccc1)C(=O)OCCOCCOCCOC(=O)c1ccc(-c2c3nc(c(-c4ccc(S(=O)(=O)[O-])cc4)c4ccc([nH]4)c(-c4ccc(S(=O)(=O)[O-])cc4)c4nc(c(-c5ccc(S(=O)(=O)[O-])cc5)c5ccc2[nH]5)C=C4)C=C3)cc1
REMARK SMILES IDX 34 1 33 2 32 3 31 4 30 5 28 6 29 7 20 8 19 9 1 10 2 11 3 13
REMARK SMILES IDX 4 14 5 15 18 16 6 17 10 18 13 19 17 20 7 21 9 22 11 23 14 24
REMARK SMILES IDX 16 25 8 26 12 27 15 28 21 29 22 30 23 31 27 32 24 33 26 34
REMARK SMILES IDX 25 35 35 36 36 37 37 38 38 39 39 40 40 41 41 42 42 43 43 44
REMARK SMILES IDX 101 45 44 46 100 47 45 48 46 49 47 50 94 51 48 52 99 53
REMARK SMILES IDX 93 54 95 55 49 56 98 57 92 58 91 59 50 61 80 62 61 63 79 64
REMARK SMILES IDX 62 65 65 66 78 67 96 68 63 69 64 70 77 72 97 73 66 74 51 75
REMARK SMILES IDX 52 76 60 77 53 78 59 79 54 80 55 81 56 82 57 83 58 84 81 85
REMARK SMILES IDX 82 86 90 87 83 88 89 89 84 90 85 91 86 92 87 93 88 94 67 95
REMARK SMILES IDX 68 96 76 97 69 98 75 99 70 100 71 101 72 102 73 103 74 104
REMARK H PARENT 19 12 95 60 65 71
REMARK Flexibility Score: inf
ROOT
ATOM      1  C   UNL A   1      33.042  29.257  25.459  1.00  0.00     0.188 C 
ENDROOT
BRANCH   1   2
ATOM      2  O   UNL A   1      33.170  29.338  24.043  1.00  0.00    -0.376 OA
BRANCH   2   3
ATOM      3  C   UNL A   1      34.248  28.641  23.427  1.00  0.00     0.202 C 
BRANCH   3   4
ATOM      4  C   UNL A   1      33.892  27.585  22.373  1.00  0.00     0.261 C 
BRANCH   4   5
ATOM      5  O   UNL A   1      32.468  27.361  22.245  1.00  0.00    -0.462 OA
BRANCH   5   6
ATOM      6  C   UNL A   1      32.065  26.079  22.048  1.00  0.00     0.329 C 
ATOM      7  O   UNL A   1      32.053  25.534  20.948  1.00  0.00    -0.250 OA
BRANCH   6   8
ATOM      8  C   UNL A   1      31.441  25.401  23.301  1.00  0.00     0.196 C 
BRANCH   8   9
ATOM      9  N   UNL A   1      32.085  24.380  24.166  1.00  0.00    -0.341 N 
ATOM     10  O   UNL A   1      31.857  22.573  22.782  1.00  0.00    -0.273 OA
ATOM     11  C   UNL A   1      32.114  23.025  23.895  1.00  0.00     0.240 C 
ATOM     12  H   UNL A   1      32.522  24.691  24.992  1.00  0.00     0.164 HD
BRANCH  11  13
ATOM     13  C   UNL A   1      32.374  22.104  25.109  1.00  0.00     0.222 C 
BRANCH  13  14
ATOM     14  N   UNL A   1      33.648  21.346  25.038  1.00  0.00    -0.331 N 
ATOM     15  C   UNL A   1      34.865  22.048  25.268  1.00  0.00     0.053 A 
ATOM     16  C   UNL A   1      33.630  19.983  24.649  1.00  0.00     0.053 A 
ATOM     17  C   UNL A   1      34.944  23.421  25.570  1.00  0.00     0.027 A 
ATOM     18  C   UNL A   1      36.097  21.367  25.181  1.00  0.00     0.046 A 
ATOM     19  C   UNL A   1      34.827  19.241  24.635  1.00  0.00     0.046 A 
ATOM     20  C   UNL A   1      32.476  19.286  24.247  1.00  0.00     0.027 A 
ATOM     21  C   UNL A   1      36.174  24.073  25.750  1.00  0.00     0.002 A 
ATOM     22  C   UNL A   1      37.330  22.017  25.341  1.00  0.00     0.014 A 
ATOM     23  C   UNL A   1      36.104  19.912  24.941  1.00  0.00     0.197 A 
ATOM     24  C   UNL A   1      34.862  17.872  24.319  1.00  0.00     0.014 A 
ATOM     25  C   UNL A   1      32.507  17.926  23.908  1.00  0.00     0.002 A 
ATOM     26  C   UNL A   1      37.368  23.374  25.627  1.00  0.00     0.001 A 
ATOM     27  O   UNL A   1      37.144  19.261  24.993  1.00  0.00    -0.288 OA
ATOM     28  C   UNL A   1      33.696  17.212  23.962  1.00  0.00     0.001 A 
ENDBRANCH  13  14
ENDBRANCH  11  13
ENDBRANCH   8   9
BRANCH   8  29
ATOM     29  C   UNL A   1      30.971  26.568  24.194  1.00  0.00     0.072 C 
BRANCH  29  30
ATOM     30  C   UNL A   1      29.673  27.285  23.840  1.00  0.00    -0.045 A 
ATOM     31  C   UNL A   1      28.390  26.717  23.890  1.00  0.00     0.004 A 
ATOM     32  C   UNL A   1      29.775  28.622  23.431  1.00  0.00     0.004 A 
ATOM     33  C   UNL A   1      27.256  27.446  23.528  1.00  0.00     0.000 A 
ATOM     34  C   UNL A   1      28.641  29.358  23.079  1.00  0.00     0.000 A 
ATOM     35  C   UNL A   1      27.382  28.767  23.121  1.00  0.00     0.000 A 
ENDBRANCH  29  30
ENDBRANCH   8  29
ENDBRANCH   6   8
ENDBRANCH   5   6
ENDBRANCH   4   5
ENDBRANCH   3   4
ENDBRANCH   2   3
ENDBRANCH   1   2
BRANCH   1  36
ATOM     36  C   UNL A   1      32.190  30.329  26.177  1.00  0.00     0.188 C 
BRANCH  36  37
ATOM     37  O   UNL A   1      32.917  31.179  27.044  1.00  0.00    -0.376 OA
BRANCH  37  38
ATOM     38  C   UNL A   1      34.167  30.685  27.494  1.00  0.00     0.202 C 
BRANCH  38  39
ATOM     39  C   UNL A   1      35.304  31.680  27.786  1.00  0.00     0.261 C 
BRANCH  39  40
ATOM     40  O   UNL A   1      36.584  31.069  28.033  1.00  0.00    -0.460 OA
BRANCH  40  41
ATOM     41  C   UNL A   1      36.651  29.727  28.153  1.00  0.00     0.338 C 
ATOM     42  O   UNL A   1      35.713  28.956  28.268  1.00  0.00    -0.246 OA
BRANCH  41  43
ATOM     43  C   UNL A   1      38.076  29.325  28.146  1.00  0.00     0.060 A 
ATOM     44  C   UNL A   1      38.764  29.372  26.938  1.00  0.00     0.016 A 
ATOM     45  C   UNL A   1      38.741  28.910  29.312  1.00  0.00     0.016 A 
ATOM     46  C   UNL A   1      40.114  29.013  26.900  1.00  0.00     0.010 A 
ATOM     47  C   UNL A   1      40.095  28.556  29.276  1.00  0.00     0.010 A 
ATOM     48  C   UNL A   1      40.793  28.615  28.067  1.00  0.00    -0.014 A 
BRANCH  48  49
ATOM     49  C   UNL A   1      42.260  28.397  27.999  1.00  0.00     0.031 A 
ATOM     50  C   UNL A   1      42.841  27.126  27.461  1.00  0.00     0.074 A 
ATOM     51  C   UNL A   1      43.068  29.414  28.359  1.00  0.00     0.049 A 
ATOM     52  N   UNL A   1      44.070  26.892  27.078  1.00  0.00    -0.248 NA
ATOM     53  C   UNL A   1      41.939  25.973  27.332  1.00  0.00     0.031 C 
ATOM     54  C   UNL A   1      42.604  30.679  28.934  1.00  0.00     0.029 A 
ATOM     55  N   UNL A   1      44.427  29.570  28.254  1.00  0.00    -0.354 N 
ATOM     56  C   UNL A   1      44.083  25.580  26.622  1.00  0.00     0.074 A 
ATOM     57  C   UNL A   1      42.754  25.048  26.837  1.00  0.00     0.031 C 
ATOM     58  C   UNL A   1      43.651  31.505  29.071  1.00  0.00     0.029 A 
ATOM     59  C   UNL A   1      44.861  30.826  28.611  1.00  0.00     0.049 A 
ATOM     60  H   UNL A   1      45.031  28.854  27.953  1.00  0.00     0.167 HD
ATOM     61  C   UNL A   1      45.107  24.902  26.053  1.00  0.00     0.031 A 
ATOM     62  C   UNL A   1      46.086  31.388  28.540  1.00  0.00     0.031 A 
ATOM     63  C   UNL A   1      46.432  25.447  25.873  1.00  0.00     0.049 A 
ATOM     64  C   UNL A   1      47.215  30.606  27.928  1.00  0.00     0.074 A 
ATOM     65  C   UNL A   1      47.524  24.854  25.265  1.00  0.00     0.029 A 
ATOM     66  N   UNL A   1      46.848  26.697  26.309  1.00  0.00    -0.354 N 
ATOM     67  N   UNL A   1      47.186  29.406  27.396  1.00  0.00    -0.248 NA
ATOM     68  C   UNL A   1      48.532  31.253  27.885  1.00  0.00     0.031 C 
ATOM     69  C   UNL A   1      48.620  25.708  25.406  1.00  0.00     0.029 A 
ATOM     70  C   UNL A   1      48.193  26.874  26.023  1.00  0.00     0.049 A 
ATOM     71  H   UNL A   1      46.273  27.360  26.756  1.00  0.00     0.167 HD
ATOM     72  C   UNL A   1      48.477  29.162  26.939  1.00  0.00     0.074 A 
ATOM     73  C   UNL A   1      49.256  30.347  27.237  1.00  0.00     0.031 C 
ATOM     74  C   UNL A   1      48.966  28.054  26.330  1.00  0.00     0.031 A 
BRANCH  61  75
ATOM     75  C   UNL A   1      44.856  23.503  25.546  1.00  0.00    -0.014 A 
ATOM     76  C   UNL A   1      44.697  22.440  26.456  1.00  0.00     0.010 A 
ATOM     77  C   UNL A   1      44.934  23.213  24.172  1.00  0.00     0.010 A 
ATOM     78  C   UNL A   1      44.662  21.116  26.007  1.00  0.00     0.020 A 
ATOM     79  C   UNL A   1      44.870  21.892  23.715  1.00  0.00     0.020 A 
ATOM     80  C   UNL A   1      44.762  20.851  24.639  1.00  0.00     0.054 A 
BRANCH  80  81
ATOM     81  S   UNL A   1      44.768  19.123  24.081  1.00  0.00     0.124 S 
ATOM     82  O   UNL A   1      44.544  19.261  22.645  1.00  0.00    -0.237 OA
ATOM     83  O   UNL A   1      46.099  18.666  24.472  1.00  0.00    -0.237 OA
ATOM     84  O   UNL A   1      43.666  18.517  24.828  1.00  0.00    -0.744 OA
ENDBRANCH  80  81
ENDBRANCH  61  75
BRANCH  62  85
ATOM     85  C   UNL A   1      46.260  32.795  28.998  1.00  0.00    -0.014 A 
ATOM     86  C   UNL A   1      46.457  33.077  30.364  1.00  0.00     0.010 A 
ATOM     87  C   UNL A   1      46.129  33.866  28.096  1.00  0.00     0.010 A 
ATOM     88  C   UNL A   1      46.452  34.394  30.828  1.00  0.00     0.020 A 
ATOM     89  C   UNL A   1      46.158  35.189  28.552  1.00  0.00     0.020 A 
ATOM     90  C   UNL A   1      46.286  35.441  29.919  1.00  0.00     0.054 A 
BRANCH  90  91
ATOM     91  S   UNL A   1      46.212  37.138  30.556  1.00  0.00     0.124 S 
ATOM     92  O   UNL A   1      45.242  37.009  31.641  1.00  0.00    -0.237 OA
ATOM     93  O   UNL A   1      47.591  37.383  30.972  1.00  0.00    -0.237 OA
ATOM     94  O   UNL A   1      45.763  37.918  29.406  1.00  0.00    -0.744 OA
ENDBRANCH  90  91
ENDBRANCH  62  85
BRANCH  74  95
ATOM     95  C   UNL A   1      50.427  28.034  25.948  1.00  0.00    -0.014 A 
ATOM     96  C   UNL A   1      50.814  28.387  24.641  1.00  0.00     0.010 A 
ATOM     97  C   UNL A   1      51.394  27.519  26.830  1.00  0.00     0.010 A 
ATOM     98  C   UNL A   1      52.126  28.181  24.208  1.00  0.00     0.020 A 
ATOM     99  C   UNL A   1      52.716  27.344  26.411  1.00  0.00     0.020 A 
ATOM    100  C   UNL A   1      53.066  27.647  25.093  1.00  0.00     0.054 A 
BRANCH 100 101
ATOM    101  S   UNL A   1      54.750  27.332  24.495  1.00  0.00     0.124 S 
ATOM    102  O   UNL A   1      54.619  26.009  23.890  1.00  0.00    -0.237 OA
ATOM    103  O   UNL A   1      54.968  28.433  23.559  1.00  0.00    -0.237 OA
ATOM    104  O   UNL A   1      55.561  27.386  25.708  1.00  0.00    -0.744 OA
ENDBRANCH 100 101
ENDBRANCH  74  95
ENDBRANCH  48  49
ENDBRANCH  41  43
ENDBRANCH  40  41
ENDBRANCH  39  40
ENDBRANCH  38  39
ENDBRANCH  37  38
ENDBRANCH  36  37
ENDBRANCH   1  36
TORSDOF 25
ENDMDL
MODEL 2
REMARK VINA RESULT:     -10.9      2.058      8.071
REMARK SMILES O=C(Cn1c2ccccc2c(=O)c2ccccc21)N[C@@H](Cc1ccccc1)C(=O)OCCOCCOCCOC(=O)c1ccc(-c2c3nc(c(-c4ccc(S(=O)(=O)[O-])cc4)c4ccc([nH]4)c(-c4ccc(S(=O)(=O)[O-])cc4)c4nc(c(-c5ccc(S(=O)(=O)[O-])cc5)c5ccc2[nH]5)C=C4)C=C3)cc1
REMARK SMILES IDX 34 1 33 2 32 3 31 4 30 5 28 6 29 7 20 8 19 9 1 10 2 11 3 13
REMARK SMILES IDX 4 14 5 15 18 16 6 17 10 18 13 19 17 20 7 21 9 22 11 23 14 24
REMARK SMILES IDX 16 25 8 26 12 27 15 28 21 29 22 30 23 31 27 32 24 33 26 34
REMARK SMILES IDX 25 35 35 36 36 37 37 38 38 39 39 40 40 41 41 42 42 43 43 44
REMARK SMILES IDX 101 45 44 46 100 47 45 48 46 49 47 50 94 51 48 52 99 53
REMARK SMILES IDX 93 54 95 55 49 56 98 57 92 58 91 59 50 61 80 62 61 63 79 64
REMARK SMILES IDX 62 65 65 66 78 67 96 68 63 69 64 70 77 72 97 73 66 74 51 75
REMARK SMILES IDX 52 76 60 77 53 78 59 79 54 80 55 81 56 82 57 83 58 84 81 85
REMARK SMILES IDX 82 86 90 87 83 88 89 89 84 90 85 91 86 92 87 93 88 94 67 95
REMARK SMILES IDX 68 96 76 97 69 98 75 99 70 100 71 101 72 102 73 103 74 104
REMARK H PARENT 19 12 95 60 65 71
REMARK Flexibility Score: inf
ROOT
ATOM      1  C   UNL A   1      34.831  33.617  29.155  1.00  0.00     0.188 C 
ENDROOT
BRANCH   1   2
ATOM      2  O   UNL A   1      34.411  32.288  28.865  1.00  0.00    -0.376 OA
BRANCH   2   3
ATOM      3  C   UNL A   1      33.954  32.004  27.547  1.00  0.00     0.202 C 
BRANCH   3   4
ATOM      4  C   UNL A   1      33.477  30.574  27.262  1.00  0.00     0.261 C 
BRANCH   4   5
ATOM      5  O   UNL A   1      32.447  30.505  26.249  1.00  0.00    -0.462 OA
BRANCH   5   6
ATOM      6  C   UNL A   1      31.982  29.269  25.931  1.00  0.00     0.329 C 
ATOM      7  O   UNL A   1      31.333  28.570  26.705  1.00  0.00    -0.250 OA
BRANCH   6   8
ATOM      8  C   UNL A   1      32.489  28.721  24.567  1.00  0.00     0.196 C 
BRANCH   8   9
ATOM      9  N   UNL A   1      32.576  27.293  24.165  1.00  0.00    -0.341 N 
ATOM     10  O   UNL A   1      34.260  26.650  25.573  1.00  0.00    -0.273 OA
ATOM     11  C   UNL A   1      33.548  26.412  24.601  1.00  0.00     0.240 C 
ATOM     12  H   UNL A   1      31.893  26.951  23.544  1.00  0.00     0.164 HD
BRANCH  11  13
ATOM     13  C   UNL A   1      33.763  25.162  23.717  1.00  0.00     0.222 C 
BRANCH  13  14
ATOM     14  N   UNL A   1      33.668  23.875  24.450  1.00  0.00    -0.331 N 
ATOM     15  C   UNL A   1      32.487  23.608  25.198  1.00  0.00     0.053 A 
ATOM     16  C   UNL A   1      34.782  22.997  24.469  1.00  0.00     0.053 A 
ATOM     17  C   UNL A   1      31.389  24.485  25.285  1.00  0.00     0.027 A 
ATOM     18  C   UNL A   1      32.373  22.408  25.929  1.00  0.00     0.046 A 
ATOM     19  C   UNL A   1      34.681  21.748  25.112  1.00  0.00     0.046 A 
ATOM     20  C   UNL A   1      36.031  23.286  23.890  1.00  0.00     0.027 A 
ATOM     21  C   UNL A   1      30.262  24.190  26.069  1.00  0.00     0.002 A 
ATOM     22  C   UNL A   1      31.259  22.116  26.730  1.00  0.00     0.014 A 
ATOM     23  C   UNL A   1      33.446  21.400  25.837  1.00  0.00     0.197 A 
ATOM     24  C   UNL A   1      35.730  20.813  25.109  1.00  0.00     0.014 A 
ATOM     25  C   UNL A   1      37.089  22.366  23.903  1.00  0.00     0.002 A 
ATOM     26  C   UNL A   1      30.200  23.010  26.799  1.00  0.00     0.001 A 
ATOM     27  O   UNL A   1      33.324  20.289  26.346  1.00  0.00    -0.288 OA
ATOM     28  C   UNL A   1      36.934  21.121  24.496  1.00  0.00     0.001 A 
ENDBRANCH  13  14
ENDBRANCH  11  13
ENDBRANCH   8   9
BRANCH   8  29
ATOM     29  C   UNL A   1      31.665  29.476  23.503  1.00  0.00     0.072 C 
BRANCH  29  30
ATOM     30  C   UNL A   1      30.172  29.190  23.394  1.00  0.00    -0.045 A 
ATOM     31  C   UNL A   1      29.582  27.917  23.432  1.00  0.00     0.004 A 
ATOM     32  C   UNL A   1      29.322  30.296  23.241  1.00  0.00     0.004 A 
ATOM     33  C   UNL A   1      28.202  27.750  23.305  1.00  0.00     0.000 A 
ATOM     34  C   UNL A   1      27.939  30.131  23.124  1.00  0.00     0.000 A 
ATOM     35  C   UNL A   1      27.380  28.857  23.149  1.00  0.00     0.000 A 
ENDBRANCH  29  30
ENDBRANCH   8  29
ENDBRANCH   6   8
ENDBRANCH   5   6
ENDBRANCH   4   5
ENDBRANCH   3   4
ENDBRANCH   2   3
ENDBRANCH   1   2
BRANCH   1  36
ATOM     36  C   UNL A   1      34.353  34.262  30.477  1.00  0.00     0.188 C 
BRANCH  36  37
ATOM     37  O   UNL A   1      35.225  34.076  31.576  1.00  0.00    -0.376 OA
BRANCH  37  38
ATOM     38  C   UNL A   1      34.937  32.971  32.417  1.00  0.00     0.202 C 
BRANCH  38  39
ATOM     39  C   UNL A   1      36.068  31.993  32.783  1.00  0.00     0.261 C 
BRANCH  39  40
ATOM     40  O   UNL A   1      36.877  31.574  31.669  1.00  0.00    -0.460 OA
BRANCH  40  41
ATOM     41  C   UNL A   1      37.150  30.261  31.521  1.00  0.00     0.338 C 
ATOM     42  O   UNL A   1      36.491  29.327  31.944  1.00  0.00    -0.246 OA
BRANCH  41  43
ATOM     43  C   UNL A   1      38.417  30.126  30.767  1.00  0.00     0.060 A 
ATOM     44  C   UNL A   1      39.587  29.906  31.488  1.00  0.00     0.016 A 
ATOM     45  C   UNL A   1      38.466  30.209  29.366  1.00  0.00     0.016 A 
ATOM     46  C   UNL A   1      40.798  29.759  30.807  1.00  0.00     0.010 A 
ATOM     47  C   UNL A   1      39.678  30.057  28.682  1.00  0.00     0.010 A 
ATOM     48  C   UNL A   1      40.853  29.820  29.401  1.00  0.00    -0.014 A 
BRANCH  48  49
ATOM     49  C   UNL A   1      42.135  29.502  28.724  1.00  0.00     0.031 A 
ATOM     50  C   UNL A   1      43.225  30.519  28.589  1.00  0.00     0.074 A 
ATOM     51  C   UNL A   1      42.330  28.237  28.302  1.00  0.00     0.049 A 
ATOM     52  N   UNL A   1      44.483  30.327  28.285  1.00  0.00    -0.248 NA
ATOM     53  C   UNL A   1      42.869  31.926  28.824  1.00  0.00     0.031 C 
ATOM     54  C   UNL A   1      41.317  27.180  28.349  1.00  0.00     0.029 A 
ATOM     55  N   UNL A   1      43.444  27.613  27.800  1.00  0.00    -0.354 N 
ATOM     56  C   UNL A   1      45.082  31.579  28.333  1.00  0.00     0.074 A 
ATOM     57  C   UNL A   1      44.035  32.534  28.632  1.00  0.00     0.031 C 
ATOM     58  C   UNL A   1      41.874  26.025  27.957  1.00  0.00     0.029 A 
ATOM     59  C   UNL A   1      43.275  26.260  27.614  1.00  0.00     0.049 A 
ATOM     60  H   UNL A   1      44.282  28.086  27.594  1.00  0.00     0.167 HD
ATOM     61  C   UNL A   1      46.390  31.889  28.170  1.00  0.00     0.031 A 
ATOM     62  C   UNL A   1      44.154  25.303  27.249  1.00  0.00     0.031 A 
ATOM     63  C   UNL A   1      47.411  30.922  27.846  1.00  0.00     0.049 A 
ATOM     64  C   UNL A   1      45.597  25.676  27.047  1.00  0.00     0.074 A 
ATOM     65  C   UNL A   1      48.772  31.131  27.706  1.00  0.00     0.029 A 
ATOM     66  N   UNL A   1      47.188  29.575  27.600  1.00  0.00    -0.354 N 
ATOM     67  N   UNL A   1      46.171  26.845  27.208  1.00  0.00    -0.248 NA
ATOM     68  C   UNL A   1      46.514  24.605  26.637  1.00  0.00     0.031 C 
ATOM     69  C   UNL A   1      49.358  29.932  27.294  1.00  0.00     0.029 A 
ATOM     70  C   UNL A   1      48.379  28.950  27.264  1.00  0.00     0.049 A 
ATOM     71  H   UNL A   1      46.312  29.128  27.656  1.00  0.00     0.167 HD
ATOM     72  C   UNL A   1      47.520  26.646  26.935  1.00  0.00     0.074 A 
ATOM     73  C   UNL A   1      47.680  25.241  26.622  1.00  0.00     0.031 C 
ATOM     74  C   UNL A   1      48.530  27.550  26.944  1.00  0.00     0.031 A 
BRANCH  61  75
ATOM     75  C   UNL A   1      46.824  33.322  28.362  1.00  0.00    -0.014 A 
ATOM     76  C   UNL A   1      47.173  33.789  29.643  1.00  0.00     0.010 A 
ATOM     77  C   UNL A   1      46.734  34.245  27.304  1.00  0.00     0.010 A 
ATOM     78  C   UNL A   1      47.384  35.153  29.872  1.00  0.00     0.020 A 
ATOM     79  C   UNL A   1      46.973  35.607  27.522  1.00  0.00     0.020 A 
ATOM     80  C   UNL A   1      47.270  36.054  28.811  1.00  0.00     0.054 A 
BRANCH  80  81
ATOM     81  S   UNL A   1      47.495  37.825  29.139  1.00  0.00     0.124 S 
ATOM     82  O   UNL A   1      46.160  38.359  28.890  1.00  0.00    -0.237 OA
ATOM     83  O   UNL A   1      47.931  37.838  30.533  1.00  0.00    -0.237 OA
ATOM     84  O   UNL A   1      48.518  38.226  28.173  1.00  0.00    -0.744 OA
ENDBRANCH  80  81
ENDBRANCH  61  75
BRANCH  62  85
ATOM     85  C   UNL A   1      43.681  23.895  27.136  1.00  0.00    -0.014 A 
ATOM     86  C   UNL A   1      43.472  23.317  25.869  1.00  0.00     0.010 A 
ATOM     87  C   UNL A   1      43.338  23.158  28.284  1.00  0.00     0.010 A 
ATOM     88  C   UNL A   1      42.871  22.063  25.749  1.00  0.00     0.020 A 
ATOM     89  C   UNL A   1      42.766  21.886  28.169  1.00  0.00     0.020 A 
ATOM     90  C   UNL A   1      42.507  21.362  26.901  1.00  0.00     0.054 A 
BRANCH  90  91
ATOM     91  S   UNL A   1      41.663  19.767  26.716  1.00  0.00     0.124 S 
ATOM     92  O   UNL A   1      41.764  19.541  25.276  1.00  0.00    -0.237 OA
ATOM     93  O   UNL A   1      42.471  18.880  27.549  1.00  0.00    -0.237 OA
ATOM     94  O   UNL A   1      40.316  20.030  27.214  1.00  0.00    -0.744 OA
ENDBRANCH  90  91
ENDBRANCH  62  85
BRANCH  74  95
ATOM     95  C   UNL A   1      49.918  27.077  26.587  1.00  0.00    -0.014 A 
ATOM     96  C   UNL A   1      50.349  27.119  25.246  1.00  0.00     0.010 A 
ATOM     97  C   UNL A   1      50.735  26.451  27.546  1.00  0.00     0.010 A 
ATOM     98  C   UNL A   1      51.543  26.502  24.863  1.00  0.00     0.020 A 
ATOM     99  C   UNL A   1      51.947  25.864  27.172  1.00  0.00     0.020 A 
ATOM    100  C   UNL A   1      52.328  25.866  25.828  1.00  0.00     0.054 A 
BRANCH 100 101
ATOM    101  S   UNL A   1      53.845  25.021  25.302  1.00  0.00     0.124 S 
ATOM    102  O   UNL A   1      54.811  25.476  26.297  1.00  0.00    -0.237 OA
ATOM    103  O   UNL A   1      53.471  23.610  25.387  1.00  0.00    -0.237 OA
ATOM    104  O   UNL A   1      54.064  25.518  23.946  1.00  0.00    -0.744 OA
ENDBRANCH 100 101
ENDBRANCH  74  95
ENDBRANCH  48  49
ENDBRANCH  41  43
ENDBRANCH  40  41
ENDBRANCH  39  40
ENDBRANCH  38  39
ENDBRANCH  37  38
ENDBRANCH  36  37
ENDBRANCH   1  36
TORSDOF 25
ENDMDL
MODEL 3
REMARK VINA RESULT:     -10.8      5.649     10.482
REMARK SMILES O=C(Cn1c2ccccc2c(=O)c2ccccc21)N[C@@H](Cc1ccccc1)C(=O)OCCOCCOCCOC(=O)c1ccc(-c2c3nc(c(-c4ccc(S(=O)(=O)[O-])cc4)c4ccc([nH]4)c(-c4ccc(S(=O)(=O)[O-])cc4)c4nc(c(-c5ccc(S(=O)(=O)[O-])cc5)c5ccc2[nH]5)C=C4)C=C3)cc1
REMARK SMILES IDX 34 1 33 2 32 3 31 4 30 5 28 6 29 7 20 8 19 9 1 10 2 11 3 13
REMARK SMILES IDX 4 14 5 15 18 16 6 17 10 18 13 19 17 20 7 21 9 22 11 23 14 24
REMARK SMILES IDX 16 25 8 26 12 27 15 28 21 29 22 30 23 31 27 32 24 33 26 34
REMARK SMILES IDX 25 35 35 36 36 37 37 38 38 39 39 40 40 41 41 42 42 43 43 44
REMARK SMILES IDX 101 45 44 46 100 47 45 48 46 49 47 50 94 51 48 52 99 53
REMARK SMILES IDX 93 54 95 55 49 56 98 57 92 58 91 59 50 61 80 62 61 63 79 64
REMARK SMILES IDX 62 65 65 66 78 67 96 68 63 69 64 70 77 72 97 73 66 74 51 75
REMARK SMILES IDX 52 76 60 77 53 78 59 79 54 80 55 81 56 82 57 83 58 84 81 85
REMARK SMILES IDX 82 86 90 87 83 88 89 89 84 90 85 91 86 92 87 93 88 94 67 95
REMARK SMILES IDX 68 96 76 97 69 98 75 99 70 100 71 101 72 102 73 103 74 104
REMARK H PARENT 19 12 95 60 65 71
REMARK Flexibility Score: inf
ROOT
ATOM      1  C   UNL A   1      33.626  28.421  25.330  1.00  0.00     0.188 C 
ENDROOT
BRANCH   1   2
ATOM      2  O   UNL A   1      33.095  28.839  24.077  1.00  0.00    -0.376 OA
BRANCH   2   3
ATOM      3  C   UNL A   1      33.898  28.655  22.915  1.00  0.00     0.202 C 
BRANCH   3   4
ATOM      4  C   UNL A   1      34.010  27.231  22.356  1.00  0.00     0.261 C 
BRANCH   4   5
ATOM      5  O   UNL A   1      33.027  26.936  21.337  1.00  0.00    -0.462 OA
BRANCH   5   6
ATOM      6  C   UNL A   1      32.879  25.632  20.988  1.00  0.00     0.329 C 
ATOM      7  O   UNL A   1      33.245  25.174  19.909  1.00  0.00    -0.250 OA
BRANCH   6   8
ATOM      8  C   UNL A   1      32.039  24.788  21.989  1.00  0.00     0.196 C 
BRANCH   8   9
ATOM      9  N   UNL A   1      32.566  23.889  23.047  1.00  0.00    -0.341 N 
ATOM     10  O   UNL A   1      32.048  21.885  22.073  1.00  0.00    -0.273 OA
ATOM     11  C   UNL A   1      32.401  22.517  23.065  1.00  0.00     0.240 C 
ATOM     12  H   UNL A   1      33.069  24.300  23.787  1.00  0.00     0.164 HD
BRANCH  11  13
ATOM     13  C   UNL A   1      32.572  21.840  24.445  1.00  0.00     0.222 C 
BRANCH  13  14
ATOM     14  N   UNL A   1      33.819  21.048  24.584  1.00  0.00    -0.331 N 
ATOM     15  C   UNL A   1      35.027  21.737  24.891  1.00  0.00     0.053 A 
ATOM     16  C   UNL A   1      33.798  19.656  24.313  1.00  0.00     0.053 A 
ATOM     17  C   UNL A   1      35.119  23.128  25.082  1.00  0.00     0.027 A 
ATOM     18  C   UNL A   1      36.236  21.020  25.003  1.00  0.00     0.046 A 
ATOM     19  C   UNL A   1      34.963  18.886  24.498  1.00  0.00     0.046 A 
ATOM     20  C   UNL A   1      32.672  18.956  23.842  1.00  0.00     0.027 A 
ATOM     21  C   UNL A   1      36.344  23.763  25.345  1.00  0.00     0.002 A 
ATOM     22  C   UNL A   1      37.466  21.650  25.247  1.00  0.00     0.014 A 
ATOM     23  C   UNL A   1      36.220  19.550  24.889  1.00  0.00     0.197 A 
ATOM     24  C   UNL A   1      34.984  17.494  24.305  1.00  0.00     0.014 A 
ATOM     25  C   UNL A   1      32.694  17.570  23.625  1.00  0.00     0.002 A 
ATOM     26  C   UNL A   1      37.519  23.026  25.419  1.00  0.00     0.001 A 
ATOM     27  O   UNL A   1      37.224  18.880  25.115  1.00  0.00    -0.288 OA
ATOM     28  C   UNL A   1      33.844  16.835  23.875  1.00  0.00     0.001 A 
ENDBRANCH  13  14
ENDBRANCH  11  13
ENDBRANCH   8   9
BRANCH   8  29
ATOM     29  C   UNL A   1      31.072  25.796  22.645  1.00  0.00     0.072 C 
BRANCH  29  30
ATOM     30  C   UNL A   1      30.809  25.690  24.144  1.00  0.00    -0.045 A 
ATOM     31  C   UNL A   1      29.545  25.717  24.752  1.00  0.00     0.004 A 
ATOM     32  C   UNL A   1      31.929  25.557  24.978  1.00  0.00     0.004 A 
ATOM     33  C   UNL A   1      29.401  25.633  26.138  1.00  0.00     0.000 A 
ATOM     34  C   UNL A   1      31.787  25.462  26.365  1.00  0.00     0.000 A 
ATOM     35  C   UNL A   1      30.523  25.508  26.945  1.00  0.00     0.000 A 
ENDBRANCH  29  30
ENDBRANCH   8  29
ENDBRANCH   6   8
ENDBRANCH   5   6
ENDBRANCH   4   5
ENDBRANCH   3   4
ENDBRANCH   2   3
ENDBRANCH   1   2
BRANCH   1  36
ATOM     36  C   UNL A   1      32.933  28.920  26.619  1.00  0.00     0.188 C 
BRANCH  36  37
ATOM     37  O   UNL A   1      31.734  29.641  26.405  1.00  0.00    -0.376 OA
BRANCH  37  38
ATOM     38  C   UNL A   1      31.812  31.045  26.591  1.00  0.00     0.202 C 
BRANCH  38  39
ATOM     39  C   UNL A   1      33.029  31.636  27.324  1.00  0.00     0.261 C 
BRANCH  39  40
ATOM     40  O   UNL A   1      33.227  33.046  27.111  1.00  0.00    -0.460 OA
BRANCH  40  41
ATOM     41  C   UNL A   1      33.272  33.865  28.182  1.00  0.00     0.338 C 
ATOM     42  O   UNL A   1      32.443  34.704  28.494  1.00  0.00    -0.246 OA
BRANCH  41  43
ATOM     43  C   UNL A   1      34.524  33.600  28.925  1.00  0.00     0.060 A 
ATOM     44  C   UNL A   1      34.444  32.855  30.097  1.00  0.00     0.016 A 
ATOM     45  C   UNL A   1      35.771  34.071  28.481  1.00  0.00     0.016 A 
ATOM     46  C   UNL A   1      35.609  32.575  30.816  1.00  0.00     0.010 A 
ATOM     47  C   UNL A   1      36.939  33.786  29.197  1.00  0.00     0.010 A 
ATOM     48  C   UNL A   1      36.866  33.025  30.367  1.00  0.00    -0.014 A 
BRANCH  48  49
ATOM     49  C   UNL A   1      38.083  32.567  31.081  1.00  0.00     0.031 A 
ATOM     50  C   UNL A   1      38.468  33.126  32.416  1.00  0.00     0.074 A 
ATOM     51  C   UNL A   1      38.798  31.564  30.533  1.00  0.00     0.049 A 
ATOM     52  N   UNL A   1      39.323  32.647  33.282  1.00  0.00    -0.248 NA
ATOM     53  C   UNL A   1      37.819  34.375  32.837  1.00  0.00     0.031 C 
ATOM     54  C   UNL A   1      38.531  30.976  29.219  1.00  0.00     0.029 A 
ATOM     55  N   UNL A   1      39.852  30.832  31.021  1.00  0.00    -0.354 N 
ATOM     56  C   UNL A   1      39.285  33.508  34.371  1.00  0.00     0.074 A 
ATOM     57  C   UNL A   1      38.371  34.577  34.029  1.00  0.00     0.031 C 
ATOM     58  C   UNL A   1      39.355  29.935  29.032  1.00  0.00     0.029 A 
ATOM     59  C   UNL A   1      40.218  29.790  30.202  1.00  0.00     0.049 A 
ATOM     60  H   UNL A   1      40.301  31.035  31.873  1.00  0.00     0.167 HD
ATOM     61  C   UNL A   1      39.935  33.392  35.553  1.00  0.00     0.031 A 
ATOM     62  C   UNL A   1      41.118  28.801  30.383  1.00  0.00     0.031 A 
ATOM     63  C   UNL A   1      40.863  32.330  35.861  1.00  0.00     0.049 A 
ATOM     64  C   UNL A   1      41.848  28.709  31.694  1.00  0.00     0.074 A 
ATOM     65  C   UNL A   1      41.537  32.102  37.048  1.00  0.00     0.029 A 
ATOM     66  N   UNL A   1      41.258  31.333  34.981  1.00  0.00    -0.354 N 
ATOM     67  N   UNL A   1      41.718  29.464  32.760  1.00  0.00    -0.248 NA
ATOM     68  C   UNL A   1      42.827  27.624  31.841  1.00  0.00     0.031 C 
ATOM     69  C   UNL A   1      42.399  31.019  36.859  1.00  0.00     0.029 A 
ATOM     70  C   UNL A   1      42.200  30.514  35.583  1.00  0.00     0.049 A 
ATOM     71  H   UNL A   1      40.918  31.223  34.063  1.00  0.00     0.167 HD
ATOM     72  C   UNL A   1      42.586  28.936  33.709  1.00  0.00     0.074 A 
ATOM     73  C   UNL A   1      43.219  27.784  33.100  1.00  0.00     0.031 C 
ATOM     74  C   UNL A   1      42.833  29.372  34.968  1.00  0.00     0.031 A 
BRANCH  61  75
ATOM     75  C   UNL A   1      39.663  34.413  36.632  1.00  0.00    -0.014 A 
ATOM     76  C   UNL A   1      40.369  35.630  36.648  1.00  0.00     0.010 A 
ATOM     77  C   UNL A   1      38.824  34.101  37.717  1.00  0.00     0.010 A 
ATOM     78  C   UNL A   1      40.274  36.496  37.742  1.00  0.00     0.020 A 
ATOM     79  C   UNL A   1      38.703  34.977  38.802  1.00  0.00     0.020 A 
ATOM     80  C   UNL A   1      39.451  36.157  38.818  1.00  0.00     0.054 A 
BRANCH  80  81
ATOM     81  S   UNL A   1      39.383  37.267  40.252  1.00  0.00     0.124 S 
ATOM     82  O   UNL A   1      38.796  38.476  39.680  1.00  0.00    -0.237 OA
ATOM     83  O   UNL A   1      38.532  36.532  41.185  1.00  0.00    -0.237 OA
ATOM     84  O   UNL A   1      40.782  37.387  40.661  1.00  0.00    -0.744 OA
ENDBRANCH  80  81
ENDBRANCH  61  75
BRANCH  62  85
ATOM     85  C   UNL A   1      41.299  27.786  29.307  1.00  0.00    -0.014 A 
ATOM     86  C   UNL A   1      40.467  26.651  29.257  1.00  0.00     0.010 A 
ATOM     87  C   UNL A   1      42.362  27.889  28.393  1.00  0.00     0.010 A 
ATOM     88  C   UNL A   1      40.732  25.612  28.362  1.00  0.00     0.020 A 
ATOM     89  C   UNL A   1      42.611  26.866  27.471  1.00  0.00     0.020 A 
ATOM     90  C   UNL A   1      41.814  25.720  27.486  1.00  0.00     0.054 A 
BRANCH  90  91
ATOM     91  S   UNL A   1      42.179  24.327  26.383  1.00  0.00     0.124 S 
ATOM     92  O   UNL A   1      42.609  25.013  25.166  1.00  0.00    -0.237 OA
ATOM     93  O   UNL A   1      43.229  23.614  27.107  1.00  0.00    -0.237 OA
ATOM     94  O   UNL A   1      40.905  23.621  26.285  1.00  0.00    -0.744 OA
ENDBRANCH  90  91
ENDBRANCH  62  85
BRANCH  74  95
ATOM     95  C   UNL A   1      43.849  28.625  35.798  1.00  0.00    -0.014 A 
ATOM     96  C   UNL A   1      43.435  27.562  36.624  1.00  0.00     0.010 A 
ATOM     97  C   UNL A   1      45.181  29.070  35.877  1.00  0.00     0.010 A 
ATOM     98  C   UNL A   1      44.316  26.993  37.548  1.00  0.00     0.020 A 
ATOM     99  C   UNL A   1      46.076  28.480  36.775  1.00  0.00     0.020 A 
ATOM    100  C   UNL A   1      45.628  27.467  37.626  1.00  0.00     0.054 A 
BRANCH 100 101
ATOM    101  S   UNL A   1      46.740  26.756  38.871  1.00  0.00     0.124 S 
ATOM    102  O   UNL A   1      45.807  26.080  39.768  1.00  0.00    -0.237 OA
ATOM    103  O   UNL A   1      47.595  25.879  38.074  1.00  0.00    -0.237 OA
ATOM    104  O   UNL A   1      47.414  27.923  39.437  1.00  0.00    -0.744 OA
ENDBRANCH 100 101
ENDBRANCH  74  95
ENDBRANCH  48  49
ENDBRANCH  41  43
ENDBRANCH  40  41
ENDBRANCH  39  40
ENDBRANCH  38  39
ENDBRANCH  37  38
ENDBRANCH  36  37
ENDBRANCH   1  36
TORSDOF 25
ENDMDL
