MODEL 1
REMARK VINA RESULT:      -9.9      0.000      0.000
REMARK SMILES C[C@@H](C(=O)OCCOCCOCCOC(=O)c1ccc(-c2c3nc(c(-c4ccc(S(=O)(=O)[O-])cc4)c4ccc([nH]4)c(-c4ccc(S(=O)(=O)[O-])cc4)c4nc(c(-c5ccc(S(=O)(=O)[O-])cc5)c5ccc2[nH]5)C=C4)C=C3)cc1)c1ccc(C[C@H]2CCCC2=O)cc1
REMARK SMILES IDX 9 1 8 2 7 3 6 4 5 5 3 6 4 7 2 8 1 9 77 10 78 11 89 12 79 13
REMARK SMILES IDX 88 14 80 15 81 16 82 17 83 18 86 19 84 20 85 21 87 22 10 23
REMARK SMILES IDX 11 24 12 25 13 26 14 27 15 28 16 29 17 30 18 31 76 32 19 33
REMARK SMILES IDX 75 34 20 35 21 36 22 37 69 38 23 39 74 40 68 41 70 42 24 43
REMARK SMILES IDX 73 44 67 45 66 46 25 48 55 49 36 50 54 51 37 52 40 53 53 54
REMARK SMILES IDX 71 55 38 56 39 57 52 59 72 60 41 61 26 62 27 63 35 64 28 65
REMARK SMILES IDX 34 66 29 67 30 68 31 69 32 70 33 71 56 72 57 73 65 74 58 75
REMARK SMILES IDX 64 76 59 77 60 78 61 79 62 80 63 81 42 82 43 83 51 84 44 85
REMARK SMILES IDX 50 86 45 87 46 88 47 89 48 90 49 91
REMARK H PARENT 70 47 40 58
REMARK Flexibility Score: inf
ROOT
ATOM      1  C   UNL A   1      35.802  24.016  23.835  1.00  0.00     0.188 C 
ENDROOT
BRANCH   1   2
ATOM      2  O   UNL A   1      34.689  24.196  22.974  1.00  0.00    -0.376 OA
BRANCH   2   3
ATOM      3  C   UNL A   1      34.032  25.459  22.971  1.00  0.00     0.202 C 
BRANCH   3   4
ATOM      4  C   UNL A   1      33.060  25.826  21.834  1.00  0.00     0.261 C 
BRANCH   4   5
ATOM      5  O   UNL A   1      31.671  25.557  22.112  1.00  0.00    -0.463 OA
BRANCH   5   6
ATOM      6  C   UNL A   1      31.189  25.990  23.311  1.00  0.00     0.313 C 
ATOM      7  O   UNL A   1      31.138  27.174  23.629  1.00  0.00    -0.252 OA
BRANCH   6   8
ATOM      8  C   UNL A   1      30.680  24.866  24.227  1.00  0.00     0.126 C 
ATOM      9  C   UNL A   1      30.330  25.301  25.663  1.00  0.00     0.025 C 
BRANCH   8  10
ATOM     10  C   UNL A   1      31.487  23.559  24.194  1.00  0.00    -0.034 A 
ATOM     11  C   UNL A   1      32.231  23.188  25.326  1.00  0.00     0.005 A 
ATOM     12  C   UNL A   1      31.461  22.646  23.129  1.00  0.00     0.005 A 
ATOM     13  C   UNL A   1      32.909  21.963  25.396  1.00  0.00     0.004 A 
ATOM     14  C   UNL A   1      32.170  21.432  23.186  1.00  0.00     0.004 A 
ATOM     15  C   UNL A   1      32.906  21.069  24.323  1.00  0.00    -0.047 A 
BRANCH  15  16
ATOM     16  C   UNL A   1      33.505  19.678  24.443  1.00  0.00     0.047 C 
BRANCH  16  17
ATOM     17  C   UNL A   1      32.705  18.433  24.021  1.00  0.00     0.060 C 
ATOM     18  C   UNL A   1      33.230  17.707  22.788  1.00  0.00     0.012 C 
ATOM     19  C   UNL A   1      32.666  17.315  25.036  1.00  0.00     0.136 C 
ATOM     20  C   UNL A   1      34.056  16.538  23.300  1.00  0.00     0.009 C 
ATOM     21  C   UNL A   1      33.311  16.049  24.529  1.00  0.00     0.076 C 
ATOM     22  O   UNL A   1      32.165  17.413  26.150  1.00  0.00    -0.299 OA
ENDBRANCH  16  17
ENDBRANCH  15  16
ENDBRANCH   8  10
ENDBRANCH   6   8
ENDBRANCH   5   6
ENDBRANCH   4   5
ENDBRANCH   3   4
ENDBRANCH   2   3
ENDBRANCH   1   2
BRANCH   1  23
ATOM     23  C   UNL A   1      36.591  22.696  23.769  1.00  0.00     0.188 C 
BRANCH  23  24
ATOM     24  O   UNL A   1      36.444  21.824  24.859  1.00  0.00    -0.376 OA
BRANCH  24  25
ATOM     25  C   UNL A   1      37.523  20.988  25.237  1.00  0.00     0.202 C 
BRANCH  25  26
ATOM     26  C   UNL A   1      38.894  21.459  25.777  1.00  0.00     0.261 C 
BRANCH  26  27
ATOM     27  O   UNL A   1      39.605  20.623  26.695  1.00  0.00    -0.460 OA
BRANCH  27  28
ATOM     28  C   UNL A   1      40.843  20.227  26.317  1.00  0.00     0.338 C 
ATOM     29  O   UNL A   1      41.154  19.156  25.811  1.00  0.00    -0.246 OA
BRANCH  28  30
ATOM     30  C   UNL A   1      41.757  21.375  26.447  1.00  0.00     0.060 A 
ATOM     31  C   UNL A   1      42.081  21.837  27.724  1.00  0.00     0.016 A 
ATOM     32  C   UNL A   1      42.280  22.010  25.321  1.00  0.00     0.016 A 
ATOM     33  C   UNL A   1      42.946  22.915  27.873  1.00  0.00     0.010 A 
ATOM     34  C   UNL A   1      43.101  23.140  25.480  1.00  0.00     0.010 A 
ATOM     35  C   UNL A   1      43.414  23.624  26.761  1.00  0.00    -0.014 A 
BRANCH  35  36
ATOM     36  C   UNL A   1      44.033  24.968  26.960  1.00  0.00     0.031 A 
ATOM     37  C   UNL A   1      43.208  26.056  27.610  1.00  0.00     0.074 A 
ATOM     38  C   UNL A   1      45.343  25.200  26.735  1.00  0.00     0.049 A 
ATOM     39  N   UNL A   1      43.520  27.303  27.853  1.00  0.00    -0.248 NA
ATOM     40  C   UNL A   1      41.859  25.677  28.061  1.00  0.00     0.031 C 
ATOM     41  C   UNL A   1      46.316  24.203  26.292  1.00  0.00     0.029 A 
ATOM     42  N   UNL A   1      46.096  26.336  26.933  1.00  0.00    -0.354 N 
ATOM     43  C   UNL A   1      42.384  27.877  28.414  1.00  0.00     0.074 A 
ATOM     44  C   UNL A   1      41.386  26.833  28.503  1.00  0.00     0.031 C 
ATOM     45  C   UNL A   1      47.542  24.755  26.304  1.00  0.00     0.029 A 
ATOM     46  C   UNL A   1      47.436  26.168  26.670  1.00  0.00     0.049 A 
ATOM     47  H   UNL A   1      45.710  27.189  27.235  1.00  0.00     0.167 HD
ATOM     48  C   UNL A   1      42.178  29.159  28.799  1.00  0.00     0.031 A 
ATOM     49  C   UNL A   1      48.457  27.053  26.692  1.00  0.00     0.031 A 
ATOM     50  C   UNL A   1      43.173  30.198  28.742  1.00  0.00     0.049 A 
ATOM     51  C   UNL A   1      48.185  28.498  27.034  1.00  0.00     0.074 A 
ATOM     52  C   UNL A   1      43.038  31.535  29.079  1.00  0.00     0.029 A 
ATOM     53  N   UNL A   1      44.484  30.022  28.334  1.00  0.00    -0.354 N 
ATOM     54  N   UNL A   1      47.077  29.050  27.468  1.00  0.00    -0.248 NA
ATOM     55  C   UNL A   1      49.299  29.444  26.864  1.00  0.00     0.031 C 
ATOM     56  C   UNL A   1      44.248  32.180  28.807  1.00  0.00     0.029 A 
ATOM     57  C   UNL A   1      45.159  31.231  28.377  1.00  0.00     0.049 A 
ATOM     58  H   UNL A   1      44.878  29.164  28.053  1.00  0.00     0.167 HD
ATOM     59  C   UNL A   1      47.366  30.404  27.630  1.00  0.00     0.074 A 
ATOM     60  C   UNL A   1      48.759  30.581  27.280  1.00  0.00     0.031 C 
ATOM     61  C   UNL A   1      46.545  31.410  28.025  1.00  0.00     0.031 A 
BRANCH  48  62
ATOM     62  C   UNL A   1      40.783  29.544  29.223  1.00  0.00    -0.014 A 
ATOM     63  C   UNL A   1      40.450  29.808  30.562  1.00  0.00     0.010 A 
ATOM     64  C   UNL A   1      39.792  29.682  28.230  1.00  0.00     0.010 A 
ATOM     65  C   UNL A   1      39.142  30.167  30.904  1.00  0.00     0.020 A 
ATOM     66  C   UNL A   1      38.494  30.070  28.564  1.00  0.00     0.020 A 
ATOM     67  C   UNL A   1      38.172  30.294  29.902  1.00  0.00     0.054 A 
BRANCH  67  68
ATOM     68  S   UNL A   1      36.489  30.780  30.372  1.00  0.00     0.124 S 
ATOM     69  O   UNL A   1      35.989  29.560  31.001  1.00  0.00    -0.237 OA
ATOM     70  O   UNL A   1      36.722  31.903  31.276  1.00  0.00    -0.237 OA
ATOM     71  O   UNL A   1      35.860  31.126  29.099  1.00  0.00    -0.744 OA
ENDBRANCH  67  68
ENDBRANCH  48  62
BRANCH  49  72
ATOM     72  C   UNL A   1      49.834  26.623  26.304  1.00  0.00    -0.014 A 
ATOM     73  C   UNL A   1      50.303  26.783  24.987  1.00  0.00     0.010 A 
ATOM     74  C   UNL A   1      50.676  26.011  27.252  1.00  0.00     0.010 A 
ATOM     75  C   UNL A   1      51.579  26.332  24.626  1.00  0.00     0.020 A 
ATOM     76  C   UNL A   1      51.964  25.596  26.907  1.00  0.00     0.020 A 
ATOM     77  C   UNL A   1      52.404  25.748  25.592  1.00  0.00     0.054 A 
BRANCH  77  78
ATOM     78  S   UNL A   1      54.074  25.217  25.122  1.00  0.00     0.124 S 
ATOM     79  O   UNL A   1      54.293  25.961  23.886  1.00  0.00    -0.237 OA
ATOM     80  O   UNL A   1      54.873  25.643  26.269  1.00  0.00    -0.237 OA
ATOM     81  O   UNL A   1      53.940  23.770  24.968  1.00  0.00    -0.744 OA
ENDBRANCH  77  78
ENDBRANCH  49  72
BRANCH  61  82
ATOM     82  C   UNL A   1      47.126  32.799  28.128  1.00  0.00    -0.014 A 
ATOM     83  C   UNL A   1      47.088  33.693  27.042  1.00  0.00     0.010 A 
ATOM     84  C   UNL A   1      47.661  33.241  29.353  1.00  0.00     0.010 A 
ATOM     85  C   UNL A   1      47.603  34.987  27.169  1.00  0.00     0.020 A 
ATOM     86  C   UNL A   1      48.149  34.545  29.493  1.00  0.00     0.020 A 
ATOM     87  C   UNL A   1      48.130  35.406  28.395  1.00  0.00     0.054 A 
BRANCH  87  88
ATOM     88  S   UNL A   1      48.753  37.103  28.544  1.00  0.00     0.124 S 
ATOM     89  O   UNL A   1      50.000  37.037  27.785  1.00  0.00    -0.237 OA
ATOM     90  O   UNL A   1      47.686  37.891  27.933  1.00  0.00    -0.237 OA
ATOM     91  O   UNL A   1      48.912  37.290  29.984  1.00  0.00    -0.744 OA
ENDBRANCH  87  88
ENDBRANCH  61  82
ENDBRANCH  35  36
ENDBRANCH  28  30
ENDBRANCH  27  28
ENDBRANCH  26  27
ENDBRANCH  25  26
ENDBRANCH  24  25
ENDBRANCH  23  24
ENDBRANCH   1  23
TORSDOF 23
ENDMDL
MODEL 2
REMARK VINA RESULT:      -9.8      3.920      9.263
REMARK SMILES C[C@@H](C(=O)OCCOCCOCCOC(=O)c1ccc(-c2c3nc(c(-c4ccc(S(=O)(=O)[O-])cc4)c4ccc([nH]4)c(-c4ccc(S(=O)(=O)[O-])cc4)c4nc(c(-c5ccc(S(=O)(=O)[O-])cc5)c5ccc2[nH]5)C=C4)C=C3)cc1)c1ccc(C[C@H]2CCCC2=O)cc1
REMARK SMILES IDX 9 1 8 2 7 3 6 4 5 5 3 6 4 7 2 8 1 9 77 10 78 11 89 12 79 13
REMARK SMILES IDX 88 14 80 15 81 16 82 17 83 18 86 19 84 20 85 21 87 22 10 23
REMARK SMILES IDX 11 24 12 25 13 26 14 27 15 28 16 29 17 30 18 31 76 32 19 33
REMARK SMILES IDX 75 34 20 35 21 36 22 37 69 38 23 39 74 40 68 41 70 42 24 43
REMARK SMILES IDX 73 44 67 45 66 46 25 48 55 49 36 50 54 51 37 52 40 53 53 54
REMARK SMILES IDX 71 55 38 56 39 57 52 59 72 60 41 61 26 62 27 63 35 64 28 65
REMARK SMILES IDX 34 66 29 67 30 68 31 69 32 70 33 71 56 72 57 73 65 74 58 75
REMARK SMILES IDX 64 76 59 77 60 78 61 79 62 80 63 81 42 82 43 83 51 84 44 85
REMARK SMILES IDX 50 86 45 87 46 88 47 89 48 90 49 91
REMARK H PARENT 70 47 40 58
REMARK Flexibility Score: inf
ROOT
ATOM      1  C   UNL A   1      34.261  24.247  25.750  1.00  0.00     0.188 C 
ENDROOT
BRANCH   1   2
ATOM      2  O   UNL A   1      34.686  25.510  25.263  1.00  0.00    -0.376 OA
BRANCH   2   3
ATOM      3  C   UNL A   1      33.700  26.427  24.804  1.00  0.00     0.202 C 
BRANCH   3   4
ATOM      4  C   UNL A   1      33.520  26.685  23.295  1.00  0.00     0.261 C 
BRANCH   4   5
ATOM      5  O   UNL A   1      32.342  26.092  22.713  1.00  0.00    -0.463 OA
BRANCH   5   6
ATOM      6  C   UNL A   1      32.445  24.796  22.305  1.00  0.00     0.313 C 
ATOM      7  O   UNL A   1      33.365  24.379  21.608  1.00  0.00    -0.252 OA
BRANCH   6   8
ATOM      8  C   UNL A   1      31.322  23.883  22.823  1.00  0.00     0.126 C 
ATOM      9  C   UNL A   1      30.248  24.587  23.674  1.00  0.00     0.025 C 
BRANCH   8  10
ATOM     10  C   UNL A   1      31.775  22.551  23.440  1.00  0.00    -0.034 A 
ATOM     11  C   UNL A   1      31.691  22.381  24.831  1.00  0.00     0.005 A 
ATOM     12  C   UNL A   1      32.186  21.438  22.692  1.00  0.00     0.005 A 
ATOM     13  C   UNL A   1      31.996  21.158  25.445  1.00  0.00     0.004 A 
ATOM     14  C   UNL A   1      32.525  20.221  23.311  1.00  0.00     0.004 A 
ATOM     15  C   UNL A   1      32.434  20.060  24.701  1.00  0.00    -0.047 A 
BRANCH  15  16
ATOM     16  C   UNL A   1      32.618  18.691  25.332  1.00  0.00     0.047 C 
BRANCH  16  17
ATOM     17  C   UNL A   1      33.030  17.476  24.482  1.00  0.00     0.060 C 
ATOM     18  C   UNL A   1      34.451  17.514  23.935  1.00  0.00     0.012 C 
ATOM     19  C   UNL A   1      33.020  16.149  25.204  1.00  0.00     0.136 C 
ATOM     20  C   UNL A   1      35.295  16.666  24.874  1.00  0.00     0.009 C 
ATOM     21  C   UNL A   1      34.388  15.516  25.272  1.00  0.00     0.076 C 
ATOM     22  O   UNL A   1      32.017  15.632  25.682  1.00  0.00    -0.299 OA
ENDBRANCH  16  17
ENDBRANCH  15  16
ENDBRANCH   8  10
ENDBRANCH   6   8
ENDBRANCH   5   6
ENDBRANCH   4   5
ENDBRANCH   3   4
ENDBRANCH   2   3
ENDBRANCH   1   2
BRANCH   1  23
ATOM     23  C   UNL A   1      35.308  23.279  26.328  1.00  0.00     0.188 C 
BRANCH  23  24
ATOM     24  O   UNL A   1      35.293  21.969  25.824  1.00  0.00    -0.376 OA
BRANCH  24  25
ATOM     25  C   UNL A   1      36.378  21.511  25.036  1.00  0.00     0.202 C 
BRANCH  25  26
ATOM     26  C   UNL A   1      37.874  21.563  25.427  1.00  0.00     0.261 C 
BRANCH  26  27
ATOM     27  O   UNL A   1      38.532  22.832  25.490  1.00  0.00    -0.460 OA
BRANCH  27  28
ATOM     28  C   UNL A   1      39.676  22.884  26.213  1.00  0.00     0.338 C 
ATOM     29  O   UNL A   1      40.589  22.070  26.211  1.00  0.00    -0.246 OA
BRANCH  28  30
ATOM     30  C   UNL A   1      39.737  24.193  26.886  1.00  0.00     0.060 A 
ATOM     31  C   UNL A   1      40.364  25.257  26.236  1.00  0.00     0.016 A 
ATOM     32  C   UNL A   1      39.197  24.373  28.160  1.00  0.00     0.016 A 
ATOM     33  C   UNL A   1      40.429  26.503  26.848  1.00  0.00     0.010 A 
ATOM     34  C   UNL A   1      39.326  25.618  28.798  1.00  0.00     0.010 A 
ATOM     35  C   UNL A   1      39.976  26.689  28.159  1.00  0.00    -0.014 A 
BRANCH  35  36
ATOM     36  C   UNL A   1      40.380  27.916  28.905  1.00  0.00     0.031 A 
ATOM     37  C   UNL A   1      41.827  28.070  29.316  1.00  0.00     0.074 A 
ATOM     38  C   UNL A   1      39.546  28.962  29.080  1.00  0.00     0.049 A 
ATOM     39  N   UNL A   1      42.401  29.029  29.997  1.00  0.00    -0.248 NA
ATOM     40  C   UNL A   1      42.750  27.007  28.883  1.00  0.00     0.031 C 
ATOM     41  C   UNL A   1      38.178  29.049  28.574  1.00  0.00     0.029 A 
ATOM     42  N   UNL A   1      39.763  30.190  29.665  1.00  0.00    -0.354 N 
ATOM     43  C   UNL A   1      43.732  28.649  30.139  1.00  0.00     0.074 A 
ATOM     44  C   UNL A   1      43.886  27.388  29.448  1.00  0.00     0.031 C 
ATOM     45  C   UNL A   1      37.698  30.281  28.821  1.00  0.00     0.029 A 
ATOM     46  C   UNL A   1      38.689  31.045  29.580  1.00  0.00     0.049 A 
ATOM     47  H   UNL A   1      40.610  30.433  30.103  1.00  0.00     0.167 HD
ATOM     48  C   UNL A   1      44.731  29.278  30.804  1.00  0.00     0.031 A 
ATOM     49  C   UNL A   1      38.508  32.288  30.079  1.00  0.00     0.031 A 
ATOM     50  C   UNL A   1      44.596  30.547  31.470  1.00  0.00     0.049 A 
ATOM     51  C   UNL A   1      39.603  32.930  30.896  1.00  0.00     0.074 A 
ATOM     52  C   UNL A   1      45.548  31.240  32.199  1.00  0.00     0.029 A 
ATOM     53  N   UNL A   1      43.446  31.320  31.483  1.00  0.00    -0.354 N 
ATOM     54  N   UNL A   1      40.829  32.513  31.109  1.00  0.00    -0.248 NA
ATOM     55  C   UNL A   1      39.279  34.202  31.562  1.00  0.00     0.031 C 
ATOM     56  C   UNL A   1      44.953  32.396  32.711  1.00  0.00     0.029 A 
ATOM     57  C   UNL A   1      43.655  32.464  32.236  1.00  0.00     0.049 A 
ATOM     58  H   UNL A   1      42.605  31.089  31.027  1.00  0.00     0.167 HD
ATOM     59  C   UNL A   1      41.421  33.476  31.924  1.00  0.00     0.074 A 
ATOM     60  C   UNL A   1      40.432  34.510  32.139  1.00  0.00     0.031 C 
ATOM     61  C   UNL A   1      42.670  33.494  32.454  1.00  0.00     0.031 A 
BRANCH  48  62
ATOM     62  C   UNL A   1      46.045  28.552  30.937  1.00  0.00    -0.014 A 
ATOM     63  C   UNL A   1      46.300  27.641  31.976  1.00  0.00     0.010 A 
ATOM     64  C   UNL A   1      47.035  28.769  29.958  1.00  0.00     0.010 A 
ATOM     65  C   UNL A   1      47.535  26.989  32.053  1.00  0.00     0.020 A 
ATOM     66  C   UNL A   1      48.257  28.096  30.014  1.00  0.00     0.020 A 
ATOM     67  C   UNL A   1      48.506  27.222  31.072  1.00  0.00     0.054 A 
BRANCH  67  68
ATOM     68  S   UNL A   1      50.091  26.347  31.185  1.00  0.00     0.124 S 
ATOM     69  O   UNL A   1      50.166  26.047  32.613  1.00  0.00    -0.237 OA
ATOM     70  O   UNL A   1      49.882  25.196  30.311  1.00  0.00    -0.237 OA
ATOM     71  O   UNL A   1      51.063  27.326  30.704  1.00  0.00    -0.744 OA
ENDBRANCH  67  68
ENDBRANCH  48  62
BRANCH  49  72
ATOM     72  C   UNL A   1      37.204  32.992  29.891  1.00  0.00    -0.014 A 
ATOM     73  C   UNL A   1      36.188  32.914  30.861  1.00  0.00     0.010 A 
ATOM     74  C   UNL A   1      36.958  33.719  28.711  1.00  0.00     0.010 A 
ATOM     75  C   UNL A   1      34.954  33.541  30.651  1.00  0.00     0.020 A 
ATOM     76  C   UNL A   1      35.744  34.378  28.513  1.00  0.00     0.020 A 
ATOM     77  C   UNL A   1      34.743  34.276  29.480  1.00  0.00     0.054 A 
BRANCH  77  78
ATOM     78  S   UNL A   1      33.157  35.126  29.245  1.00  0.00     0.124 S 
ATOM     79  O   UNL A   1      32.477  34.246  28.301  1.00  0.00    -0.237 OA
ATOM     80  O   UNL A   1      32.609  35.149  30.599  1.00  0.00    -0.237 OA
ATOM     81  O   UNL A   1      33.547  36.432  28.716  1.00  0.00    -0.744 OA
ENDBRANCH  77  78
ENDBRANCH  49  72
BRANCH  61  82
ATOM     82  C   UNL A   1      43.063  34.678  33.303  1.00  0.00    -0.014 A 
ATOM     83  C   UNL A   1      42.893  34.668  34.700  1.00  0.00     0.010 A 
ATOM     84  C   UNL A   1      43.673  35.795  32.701  1.00  0.00     0.010 A 
ATOM     85  C   UNL A   1      43.294  35.764  35.472  1.00  0.00     0.020 A 
ATOM     86  C   UNL A   1      44.103  36.879  33.473  1.00  0.00     0.020 A 
ATOM     87  C   UNL A   1      43.897  36.863  34.853  1.00  0.00     0.054 A 
BRANCH  87  88
ATOM     88  S   UNL A   1      44.446  38.252  35.883  1.00  0.00     0.124 S 
ATOM     89  O   UNL A   1      43.950  39.403  35.131  1.00  0.00    -0.237 OA
ATOM     90  O   UNL A   1      43.773  37.995  37.154  1.00  0.00    -0.237 OA
ATOM     91  O   UNL A   1      45.900  38.110  35.914  1.00  0.00    -0.744 OA
ENDBRANCH  87  88
ENDBRANCH  61  82
ENDBRANCH  35  36
ENDBRANCH  28  30
ENDBRANCH  27  28
ENDBRANCH  26  27
ENDBRANCH  25  26
ENDBRANCH  24  25
ENDBRANCH  23  24
ENDBRANCH   1  23
TORSDOF 23
ENDMDL
MODEL 3
REMARK VINA RESULT:      -9.8      5.028     10.210
REMARK SMILES C[C@@H](C(=O)OCCOCCOCCOC(=O)c1ccc(-c2c3nc(c(-c4ccc(S(=O)(=O)[O-])cc4)c4ccc([nH]4)c(-c4ccc(S(=O)(=O)[O-])cc4)c4nc(c(-c5ccc(S(=O)(=O)[O-])cc5)c5ccc2[nH]5)C=C4)C=C3)cc1)c1ccc(C[C@H]2CCCC2=O)cc1
REMARK SMILES IDX 9 1 8 2 7 3 6 4 5 5 3 6 4 7 2 8 1 9 77 10 78 11 89 12 79 13
REMARK SMILES IDX 88 14 80 15 81 16 82 17 83 18 86 19 84 20 85 21 87 22 10 23
REMARK SMILES IDX 11 24 12 25 13 26 14 27 15 28 16 29 17 30 18 31 76 32 19 33
REMARK SMILES IDX 75 34 20 35 21 36 22 37 69 38 23 39 74 40 68 41 70 42 24 43
REMARK SMILES IDX 73 44 67 45 66 46 25 48 55 49 36 50 54 51 37 52 40 53 53 54
REMARK SMILES IDX 71 55 38 56 39 57 52 59 72 60 41 61 26 62 27 63 35 64 28 65
REMARK SMILES IDX 34 66 29 67 30 68 31 69 32 70 33 71 56 72 57 73 65 74 58 75
REMARK SMILES IDX 64 76 59 77 60 78 61 79 62 80 63 81 42 82 43 83 51 84 44 85
REMARK SMILES IDX 50 86 45 87 46 88 47 89 48 90 49 91
REMARK H PARENT 70 47 40 58
REMARK Flexibility Score: inf
ROOT
ATOM      1  C   UNL A   1      42.800  18.938  25.763  1.00  0.00     0.188 C 
ENDROOT
BRANCH   1   2
ATOM      2  O   UNL A   1      42.143  20.196  25.763  1.00  0.00    -0.376 OA
BRANCH   2   3
ATOM      3  C   UNL A   1      40.938  20.331  26.508  1.00  0.00     0.202 C 
BRANCH   3   4
ATOM      4  C   UNL A   1      40.083  21.606  26.378  1.00  0.00     0.261 C 
BRANCH   4   5
ATOM      5  O   UNL A   1      38.810  21.421  25.726  1.00  0.00    -0.463 OA
BRANCH   5   6
ATOM      6  C   UNL A   1      37.927  22.456  25.799  1.00  0.00     0.313 C 
ATOM      7  O   UNL A   1      38.270  23.627  25.930  1.00  0.00    -0.252 OA
BRANCH   6   8
ATOM      8  C   UNL A   1      36.455  22.037  25.667  1.00  0.00     0.126 C 
ATOM      9  C   UNL A   1      36.226  20.625  25.092  1.00  0.00     0.025 C 
BRANCH   8  10
ATOM     10  C   UNL A   1      35.516  23.080  25.043  1.00  0.00    -0.034 A 
ATOM     11  C   UNL A   1      34.900  24.028  25.876  1.00  0.00     0.005 A 
ATOM     12  C   UNL A   1      35.298  23.216  23.664  1.00  0.00     0.005 A 
ATOM     13  C   UNL A   1      34.110  25.064  25.359  1.00  0.00     0.004 A 
ATOM     14  C   UNL A   1      34.477  24.236  23.147  1.00  0.00     0.004 A 
ATOM     15  C   UNL A   1      33.870  25.180  23.988  1.00  0.00    -0.047 A 
BRANCH  15  16
ATOM     16  C   UNL A   1      33.148  26.382  23.403  1.00  0.00     0.047 C 
BRANCH  16  17
ATOM     17  C   UNL A   1      31.612  26.463  23.410  1.00  0.00     0.060 C 
ATOM     18  C   UNL A   1      30.887  25.125  23.334  1.00  0.00     0.012 C 
ATOM     19  C   UNL A   1      31.002  27.065  24.654  1.00  0.00     0.136 C 
ATOM     20  C   UNL A   1      30.498  24.767  24.760  1.00  0.00     0.009 C 
ATOM     21  C   UNL A   1      30.125  26.091  25.400  1.00  0.00     0.076 C 
ATOM     22  O   UNL A   1      31.189  28.219  25.024  1.00  0.00    -0.299 OA
ENDBRANCH  16  17
ENDBRANCH  15  16
ENDBRANCH   8  10
ENDBRANCH   6   8
ENDBRANCH   5   6
ENDBRANCH   4   5
ENDBRANCH   3   4
ENDBRANCH   2   3
ENDBRANCH   1   2
BRANCH   1  23
ATOM     23  C   UNL A   1      43.891  18.665  24.712  1.00  0.00     0.188 C 
BRANCH  23  24
ATOM     24  O   UNL A   1      45.145  18.270  25.203  1.00  0.00    -0.376 OA
BRANCH  24  25
ATOM     25  C   UNL A   1      46.179  19.230  25.336  1.00  0.00     0.202 C 
BRANCH  25  26
ATOM     26  C   UNL A   1      46.123  20.700  24.856  1.00  0.00     0.261 C 
BRANCH  26  27
ATOM     27  O   UNL A   1      45.507  21.682  25.694  1.00  0.00    -0.460 OA
BRANCH  27  28
ATOM     28  C   UNL A   1      44.568  22.467  25.117  1.00  0.00     0.338 C 
ATOM     29  O   UNL A   1      44.067  22.328  24.008  1.00  0.00    -0.246 OA
BRANCH  28  30
ATOM     30  C   UNL A   1      44.096  23.439  26.119  1.00  0.00     0.060 A 
ATOM     31  C   UNL A   1      44.324  24.798  25.900  1.00  0.00     0.016 A 
ATOM     32  C   UNL A   1      43.449  23.017  27.281  1.00  0.00     0.016 A 
ATOM     33  C   UNL A   1      43.882  25.734  26.828  1.00  0.00     0.010 A 
ATOM     34  C   UNL A   1      43.066  23.965  28.245  1.00  0.00     0.010 A 
ATOM     35  C   UNL A   1      43.311  25.335  28.041  1.00  0.00    -0.014 A 
BRANCH  35  36
ATOM     36  C   UNL A   1      43.184  26.326  29.150  1.00  0.00     0.031 A 
ATOM     37  C   UNL A   1      44.365  26.540  30.068  1.00  0.00     0.074 A 
ATOM     38  C   UNL A   1      42.122  27.151  29.261  1.00  0.00     0.049 A 
ATOM     39  N   UNL A   1      44.475  27.320  31.114  1.00  0.00    -0.248 NA
ATOM     40  C   UNL A   1      45.590  25.788  29.751  1.00  0.00     0.031 C 
ATOM     41  C   UNL A   1      40.988  27.202  28.341  1.00  0.00     0.029 A 
ATOM     42  N   UNL A   1      41.869  28.165  30.158  1.00  0.00    -0.354 N 
ATOM     43  C   UNL A   1      45.750  27.095  31.623  1.00  0.00     0.074 A 
ATOM     44  C   UNL A   1      46.386  26.130  30.753  1.00  0.00     0.031 C 
ATOM     45  C   UNL A   1      40.191  28.229  28.687  1.00  0.00     0.029 A 
ATOM     46  C   UNL A   1      40.706  28.856  29.904  1.00  0.00     0.049 A 
ATOM     47  H   UNL A   1      42.466  28.376  30.911  1.00  0.00     0.167 HD
ATOM     48  C   UNL A   1      46.332  27.623  32.726  1.00  0.00     0.031 A 
ATOM     49  C   UNL A   1      40.108  29.857  30.586  1.00  0.00     0.031 A 
ATOM     50  C   UNL A   1      45.719  28.606  33.582  1.00  0.00     0.049 A 
ATOM     51  C   UNL A   1      40.730  30.365  31.865  1.00  0.00     0.074 A 
ATOM     52  C   UNL A   1      46.225  29.169  34.741  1.00  0.00     0.029 A 
ATOM     53  N   UNL A   1      44.476  29.179  33.371  1.00  0.00    -0.354 N 
ATOM     54  N   UNL A   1      41.895  30.070  32.391  1.00  0.00    -0.248 NA
ATOM     55  C   UNL A   1      39.942  31.325  32.654  1.00  0.00     0.031 C 
ATOM     56  C   UNL A   1      45.258  30.030  35.269  1.00  0.00     0.029 A 
ATOM     57  C   UNL A   1      44.184  30.063  34.396  1.00  0.00     0.049 A 
ATOM     58  H   UNL A   1      43.887  28.985  32.606  1.00  0.00     0.167 HD
ATOM     59  C   UNL A   1      41.981  30.815  33.566  1.00  0.00     0.074 A 
ATOM     60  C   UNL A   1      40.766  31.597  33.656  1.00  0.00     0.031 C 
ATOM     61  C   UNL A   1      42.973  30.840  34.490  1.00  0.00     0.031 A 
BRANCH  48  62
ATOM     62  C   UNL A   1      47.673  27.072  33.138  1.00  0.00    -0.014 A 
ATOM     63  C   UNL A   1      47.801  25.928  33.943  1.00  0.00     0.010 A 
ATOM     64  C   UNL A   1      48.837  27.709  32.663  1.00  0.00     0.010 A 
ATOM     65  C   UNL A   1      49.069  25.453  34.295  1.00  0.00     0.020 A 
ATOM     66  C   UNL A   1      50.104  27.219  32.986  1.00  0.00     0.020 A 
ATOM     67  C   UNL A   1      50.212  26.103  33.814  1.00  0.00     0.054 A 
BRANCH  67  68
ATOM     68  S   UNL A   1      51.844  25.453  34.269  1.00  0.00     0.124 S 
ATOM     69  O   UNL A   1      51.507  24.125  34.775  1.00  0.00    -0.237 OA
ATOM     70  O   UNL A   1      52.562  25.479  32.998  1.00  0.00    -0.237 OA
ATOM     71  O   UNL A   1      52.325  26.398  35.275  1.00  0.00    -0.744 OA
ENDBRANCH  67  68
ENDBRANCH  48  62
BRANCH  49  72
ATOM     72  C   UNL A   1      38.798  30.405  30.123  1.00  0.00    -0.014 A 
ATOM     73  C   UNL A   1      37.605  29.678  30.290  1.00  0.00     0.010 A 
ATOM     74  C   UNL A   1      38.745  31.653  29.473  1.00  0.00     0.010 A 
ATOM     75  C   UNL A   1      36.390  30.184  29.808  1.00  0.00     0.020 A 
ATOM     76  C   UNL A   1      37.532  32.179  29.026  1.00  0.00     0.020 A 
ATOM     77  C   UNL A   1      36.362  31.435  29.185  1.00  0.00     0.054 A 
BRANCH  77  78
ATOM     78  S   UNL A   1      34.773  32.101  28.615  1.00  0.00     0.124 S 
ATOM     79  O   UNL A   1      34.109  30.906  28.105  1.00  0.00    -0.237 OA
ATOM     80  O   UNL A   1      34.211  32.666  29.839  1.00  0.00    -0.237 OA
ATOM     81  O   UNL A   1      35.160  33.083  27.604  1.00  0.00    -0.744 OA
ENDBRANCH  77  78
ENDBRANCH  49  72
BRANCH  61  82
ATOM     82  C   UNL A   1      42.813  31.758  35.678  1.00  0.00    -0.014 A 
ATOM     83  C   UNL A   1      43.227  33.102  35.627  1.00  0.00     0.010 A 
ATOM     84  C   UNL A   1      42.179  31.287  36.843  1.00  0.00     0.010 A 
ATOM     85  C   UNL A   1      43.041  33.944  36.728  1.00  0.00     0.020 A 
ATOM     86  C   UNL A   1      41.963  32.134  37.934  1.00  0.00     0.020 A 
ATOM     87  C   UNL A   1      42.409  33.455  37.875  1.00  0.00     0.054 A 
BRANCH  87  88
ATOM     88  S   UNL A   1      42.142  34.581  39.272  1.00  0.00     0.124 S 
ATOM     89  O   UNL A   1      40.974  33.990  39.921  1.00  0.00    -0.237 OA
ATOM     90  O   UNL A   1      43.395  34.473  40.015  1.00  0.00    -0.237 OA
ATOM     91  O   UNL A   1      41.911  35.877  38.636  1.00  0.00    -0.744 OA
ENDBRANCH  87  88
ENDBRANCH  61  82
ENDBRANCH  35  36
ENDBRANCH  28  30
ENDBRANCH  27  28
ENDBRANCH  26  27
ENDBRANCH  25  26
ENDBRANCH  24  25
ENDBRANCH  23  24
ENDBRANCH   1  23
TORSDOF 23
ENDMDL
