MODEL 1
REMARK VINA RESULT:      -8.7      0.000      0.000
REMARK SMILES [NH3+][C@@H](Cc1ccc(OC(F)F)cc1)C(=O)OCCOCCOCCOC(=O)c1ccc(-c2c3nc(c(-c4ccc(S(=O)(=O)[O-])cc4)c4ccc([nH]4)c(-c4ccc(S(=O)(=O)[O-])cc4)c4nc(c(-c5ccc(S(=O)(=O)[O-])cc5)c5ccc2[nH]5)C=C4)C=C3)cc1
REMARK SMILES IDX 20 1 19 2 18 3 17 4 16 5 14 6 15 7 2 8 1 9 3 13 4 14 5 15
REMARK SMILES IDX 13 16 6 17 12 18 7 19 8 20 9 21 10 22 11 23 21 24 22 25
REMARK SMILES IDX 23 26 24 27 25 28 26 29 27 30 28 31 29 32 87 33 30 34 86 35
REMARK SMILES IDX 31 36 32 37 33 38 80 39 34 40 85 41 79 42 81 43 35 44 84 45
REMARK SMILES IDX 78 46 77 47 36 49 66 50 47 51 65 52 48 53 51 54 64 55 82 56
REMARK SMILES IDX 49 57 50 58 63 60 83 61 52 62 37 63 38 64 46 65 39 66 45 67
REMARK SMILES IDX 40 68 41 69 42 70 43 71 44 72 67 73 68 74 76 75 69 76 75 77
REMARK SMILES IDX 70 78 71 79 72 80 73 81 74 82 53 83 54 84 62 85 55 86 61 87
REMARK SMILES IDX 56 88 57 89 58 90 59 91 60 92
REMARK H PARENT 1 10 1 11 1 12 81 48 51 59
REMARK Flexibility Score: inf
ROOT
ATOM      1  C   UNL A   1      34.729  32.198  27.925  1.00  0.00     0.188 C 
ENDROOT
BRANCH   1   2
ATOM      2  O   UNL A   1      33.666  31.284  28.186  1.00  0.00    -0.376 OA
BRANCH   2   3
ATOM      3  C   UNL A   1      33.138  30.539  27.094  1.00  0.00     0.202 C 
BRANCH   3   4
ATOM      4  C   UNL A   1      32.623  29.119  27.369  1.00  0.00     0.261 C 
BRANCH   4   5
ATOM      5  O   UNL A   1      32.769  28.212  26.259  1.00  0.00    -0.459 OA
BRANCH   5   6
ATOM      6  C   UNL A   1      31.788  27.287  26.083  1.00  0.00     0.365 C 
ATOM      7  O   UNL A   1      30.959  27.001  26.941  1.00  0.00    -0.245 OA
BRANCH   6   8
ATOM      8  C   UNL A   1      31.851  26.534  24.737  1.00  0.00     0.296 C 
BRANCH   8   9
ATOM      9  N   UNL A   1      32.657  25.291  24.692  1.00  0.00    -0.346 N 
ATOM     10  H   UNL A   1      33.568  25.460  25.118  1.00  0.00     0.345 HD
ATOM     11  H   UNL A   1      32.784  25.003  23.721  1.00  0.00     0.345 HD
ATOM     12  H   UNL A   1      32.173  24.553  25.204  1.00  0.00     0.345 HD
ENDBRANCH   8   9
BRANCH   8  13
ATOM     13  C   UNL A   1      30.441  26.328  24.160  1.00  0.00     0.113 C 
BRANCH  13  14
ATOM     14  C   UNL A   1      29.729  27.445  23.418  1.00  0.00    -0.041 A 
ATOM     15  C   UNL A   1      30.528  28.350  22.705  1.00  0.00     0.008 A 
ATOM     16  C   UNL A   1      28.349  27.672  23.423  1.00  0.00     0.008 A 
ATOM     17  C   UNL A   1      29.971  29.474  22.088  1.00  0.00     0.047 A 
ATOM     18  C   UNL A   1      27.792  28.809  22.828  1.00  0.00     0.047 A 
ATOM     19  C   UNL A   1      28.603  29.730  22.176  1.00  0.00     0.126 A 
BRANCH  19  20
ATOM     20  O   UNL A   1      28.189  30.891  21.589  1.00  0.00    -0.435 OA
BRANCH  20  21
ATOM     21  C   UNL A   1      28.215  32.075  22.378  1.00  0.00     0.542 C 
ATOM     22  F   UNL A   1      27.936  33.155  21.609  1.00  0.00    -0.167 F 
ATOM     23  F   UNL A   1      27.295  32.006  23.370  1.00  0.00    -0.167 F 
ENDBRANCH  20  21
ENDBRANCH  19  20
ENDBRANCH  13  14
ENDBRANCH   8  13
ENDBRANCH   6   8
ENDBRANCH   5   6
ENDBRANCH   4   5
ENDBRANCH   3   4
ENDBRANCH   2   3
ENDBRANCH   1   2
BRANCH   1  24
ATOM     24  C   UNL A   1      34.491  33.698  28.203  1.00  0.00     0.188 C 
BRANCH  24  25
ATOM     25  O   UNL A   1      33.166  34.124  27.975  1.00  0.00    -0.376 OA
BRANCH  25  26
ATOM     26  C   UNL A   1      32.605  35.026  28.906  1.00  0.00     0.202 C 
BRANCH  26  27
ATOM     27  C   UNL A   1      33.509  35.974  29.722  1.00  0.00     0.261 C 
BRANCH  27  28
ATOM     28  O   UNL A   1      33.051  36.385  31.023  1.00  0.00    -0.460 OA
BRANCH  28  29
ATOM     29  C   UNL A   1      32.921  35.431  31.974  1.00  0.00     0.338 C 
ATOM     30  O   UNL A   1      31.879  35.074  32.506  1.00  0.00    -0.246 OA
BRANCH  29  31
ATOM     31  C   UNL A   1      34.218  34.723  32.121  1.00  0.00     0.060 A 
ATOM     32  C   UNL A   1      34.214  33.346  32.391  1.00  0.00     0.016 A 
ATOM     33  C   UNL A   1      35.432  35.400  31.986  1.00  0.00     0.016 A 
ATOM     34  C   UNL A   1      35.419  32.652  32.551  1.00  0.00     0.010 A 
ATOM     35  C   UNL A   1      36.638  34.707  32.171  1.00  0.00     0.010 A 
ATOM     36  C   UNL A   1      36.641  33.334  32.483  1.00  0.00    -0.014 A 
BRANCH  36  37
ATOM     37  C   UNL A   1      37.900  32.654  32.894  1.00  0.00     0.031 A 
ATOM     38  C   UNL A   1      38.431  32.893  34.287  1.00  0.00     0.074 A 
ATOM     39  C   UNL A   1      38.557  31.816  32.069  1.00  0.00     0.049 A 
ATOM     40  N   UNL A   1      39.524  32.445  34.849  1.00  0.00    -0.248 NA
ATOM     41  C   UNL A   1      37.617  33.755  35.160  1.00  0.00     0.031 C 
ATOM     42  C   UNL A   1      38.138  31.458  30.714  1.00  0.00     0.029 A 
ATOM     43  N   UNL A   1      39.730  31.119  32.251  1.00  0.00    -0.354 N 
ATOM     44  C   UNL A   1      39.532  32.969  36.137  1.00  0.00     0.074 A 
ATOM     45  C   UNL A   1      38.352  33.796  36.262  1.00  0.00     0.031 C 
ATOM     46  C   UNL A   1      39.046  30.617  30.184  1.00  0.00     0.029 A 
ATOM     47  C   UNL A   1      40.127  30.403  31.145  1.00  0.00     0.049 A 
ATOM     48  H   UNL A   1      40.237  31.132  33.095  1.00  0.00     0.167 HD
ATOM     49  C   UNL A   1      40.432  32.776  37.131  1.00  0.00     0.031 A 
ATOM     50  C   UNL A   1      41.245  29.679  30.923  1.00  0.00     0.031 A 
ATOM     51  C   UNL A   1      41.616  31.967  37.007  1.00  0.00     0.049 A 
ATOM     52  C   UNL A   1      42.276  29.549  32.019  1.00  0.00     0.074 A 
ATOM     53  C   UNL A   1      42.585  31.709  37.963  1.00  0.00     0.029 A 
ATOM     54  N   UNL A   1      42.000  31.289  35.860  1.00  0.00    -0.354 N 
ATOM     55  N   UNL A   1      42.253  30.032  33.240  1.00  0.00    -0.248 NA
ATOM     56  C   UNL A   1      43.480  28.763  31.709  1.00  0.00     0.031 C 
ATOM     57  C   UNL A   1      43.584  30.925  37.376  1.00  0.00     0.029 A 
ATOM     58  C   UNL A   1      43.203  30.635  36.077  1.00  0.00     0.049 A 
ATOM     59  H   UNL A   1      41.493  31.274  35.017  1.00  0.00     0.167 HD
ATOM     60  C   UNL A   1      43.424  29.584  33.847  1.00  0.00     0.074 A 
ATOM     61  C   UNL A   1      44.116  28.768  32.872  1.00  0.00     0.031 C 
ATOM     62  C   UNL A   1      43.887  29.826  35.100  1.00  0.00     0.031 A 
BRANCH  49  63
ATOM     63  C   UNL A   1      40.186  33.468  38.447  1.00  0.00    -0.014 A 
ATOM     64  C   UNL A   1      39.395  32.871  39.445  1.00  0.00     0.010 A 
ATOM     65  C   UNL A   1      40.812  34.699  38.716  1.00  0.00     0.010 A 
ATOM     66  C   UNL A   1      39.221  33.500  40.680  1.00  0.00     0.020 A 
ATOM     67  C   UNL A   1      40.664  35.318  39.960  1.00  0.00     0.020 A 
ATOM     68  C   UNL A   1      39.861  34.718  40.932  1.00  0.00     0.054 A 
BRANCH  68  69
ATOM     69  S   UNL A   1      39.662  35.482  42.566  1.00  0.00     0.124 S 
ATOM     70  O   UNL A   1      39.469  36.887  42.220  1.00  0.00    -0.237 OA
ATOM     71  O   UNL A   1      38.484  34.798  43.094  1.00  0.00    -0.237 OA
ATOM     72  O   UNL A   1      40.916  35.176  43.249  1.00  0.00    -0.744 OA
ENDBRANCH  68  69
ENDBRANCH  49  63
BRANCH  50  73
ATOM     73  C   UNL A   1      41.483  29.041  29.594  1.00  0.00    -0.014 A 
ATOM     74  C   UNL A   1      41.121  27.703  29.357  1.00  0.00     0.010 A 
ATOM     75  C   UNL A   1      42.127  29.761  28.570  1.00  0.00     0.010 A 
ATOM     76  C   UNL A   1      41.430  27.088  28.140  1.00  0.00     0.020 A 
ATOM     77  C   UNL A   1      42.405  29.161  27.338  1.00  0.00     0.020 A 
ATOM     78  C   UNL A   1      42.072  27.822  27.138  1.00  0.00     0.054 A 
BRANCH  78  79
ATOM     79  S   UNL A   1      42.447  27.007  25.560  1.00  0.00     0.124 S 
ATOM     80  O   UNL A   1      41.322  26.090  25.415  1.00  0.00    -0.237 OA
ATOM     81  O   UNL A   1      42.475  28.129  24.625  1.00  0.00    -0.237 OA
ATOM     82  O   UNL A   1      43.743  26.375  25.801  1.00  0.00    -0.744 OA
ENDBRANCH  78  79
ENDBRANCH  50  73
BRANCH  62  83
ATOM     83  C   UNL A   1      45.185  29.170  35.503  1.00  0.00    -0.014 A 
ATOM     84  C   UNL A   1      46.422  29.817  35.325  1.00  0.00     0.010 A 
ATOM     85  C   UNL A   1      45.164  27.893  36.095  1.00  0.00     0.010 A 
ATOM     86  C   UNL A   1      47.614  29.177  35.681  1.00  0.00     0.020 A 
ATOM     87  C   UNL A   1      46.351  27.265  36.485  1.00  0.00     0.020 A 
ATOM     88  C   UNL A   1      47.570  27.904  36.256  1.00  0.00     0.054 A 
BRANCH  88  89
ATOM     89  S   UNL A   1      49.130  27.100  36.718  1.00  0.00     0.124 S 
ATOM     90  O   UNL A   1      49.631  26.642  35.425  1.00  0.00    -0.237 OA
ATOM     91  O   UNL A   1      49.882  28.191  37.332  1.00  0.00    -0.237 OA
ATOM     92  O   UNL A   1      48.717  26.041  37.636  1.00  0.00    -0.744 OA
ENDBRANCH  88  89
ENDBRANCH  62  83
ENDBRANCH  36  37
ENDBRANCH  29  31
ENDBRANCH  28  29
ENDBRANCH  27  28
ENDBRANCH  26  27
ENDBRANCH  25  26
ENDBRANCH  24  25
ENDBRANCH   1  24
TORSDOF 25
ENDMDL
MODEL 2
REMARK VINA RESULT:      -8.6      7.992     13.370
REMARK SMILES [NH3+][C@@H](Cc1ccc(OC(F)F)cc1)C(=O)OCCOCCOCCOC(=O)c1ccc(-c2c3nc(c(-c4ccc(S(=O)(=O)[O-])cc4)c4ccc([nH]4)c(-c4ccc(S(=O)(=O)[O-])cc4)c4nc(c(-c5ccc(S(=O)(=O)[O-])cc5)c5ccc2[nH]5)C=C4)C=C3)cc1
REMARK SMILES IDX 20 1 19 2 18 3 17 4 16 5 14 6 15 7 2 8 1 9 3 13 4 14 5 15
REMARK SMILES IDX 13 16 6 17 12 18 7 19 8 20 9 21 10 22 11 23 21 24 22 25
REMARK SMILES IDX 23 26 24 27 25 28 26 29 27 30 28 31 29 32 87 33 30 34 86 35
REMARK SMILES IDX 31 36 32 37 33 38 80 39 34 40 85 41 79 42 81 43 35 44 84 45
REMARK SMILES IDX 78 46 77 47 36 49 66 50 47 51 65 52 48 53 51 54 64 55 82 56
REMARK SMILES IDX 49 57 50 58 63 60 83 61 52 62 37 63 38 64 46 65 39 66 45 67
REMARK SMILES IDX 40 68 41 69 42 70 43 71 44 72 67 73 68 74 76 75 69 76 75 77
REMARK SMILES IDX 70 78 71 79 72 80 73 81 74 82 53 83 54 84 62 85 55 86 61 87
REMARK SMILES IDX 56 88 57 89 58 90 59 91 60 92
REMARK H PARENT 1 10 1 11 1 12 81 48 51 59
REMARK Flexibility Score: inf
ROOT
ATOM      1  C   UNL A   1      45.938  18.771  25.393  1.00  0.00     0.188 C 
ENDROOT
BRANCH   1   2
ATOM      2  O   UNL A   1      44.683  18.191  25.044  1.00  0.00    -0.376 OA
BRANCH   2   3
ATOM      3  C   UNL A   1      43.550  18.509  25.844  1.00  0.00     0.202 C 
BRANCH   3   4
ATOM      4  C   UNL A   1      42.986  19.935  25.767  1.00  0.00     0.261 C 
BRANCH   4   5
ATOM      5  O   UNL A   1      41.551  19.997  25.658  1.00  0.00    -0.459 OA
BRANCH   5   6
ATOM      6  C   UNL A   1      40.884  20.660  26.642  1.00  0.00     0.365 C 
ATOM      7  O   UNL A   1      40.779  20.245  27.792  1.00  0.00    -0.245 OA
BRANCH   6   8
ATOM      8  C   UNL A   1      40.172  21.947  26.178  1.00  0.00     0.296 C 
BRANCH   8   9
ATOM      9  N   UNL A   1      38.795  21.807  25.646  1.00  0.00    -0.346 N 
ATOM     10  H   UNL A   1      38.422  20.895  25.905  1.00  0.00     0.345 HD
ATOM     11  H   UNL A   1      38.814  21.891  24.628  1.00  0.00     0.345 HD
ATOM     12  H   UNL A   1      38.204  22.541  26.036  1.00  0.00     0.345 HD
ENDBRANCH   8   9
BRANCH   8  13
ATOM     13  C   UNL A   1      40.266  23.042  27.254  1.00  0.00     0.113 C 
BRANCH  13  14
ATOM     14  C   UNL A   1      41.557  23.806  27.482  1.00  0.00    -0.041 A 
ATOM     15  C   UNL A   1      42.279  23.506  28.647  1.00  0.00     0.008 A 
ATOM     16  C   UNL A   1      42.064  24.812  26.653  1.00  0.00     0.008 A 
ATOM     17  C   UNL A   1      43.418  24.237  28.998  1.00  0.00     0.047 A 
ATOM     18  C   UNL A   1      43.188  25.562  27.015  1.00  0.00     0.047 A 
ATOM     19  C   UNL A   1      43.859  25.295  28.202  1.00  0.00     0.126 A 
BRANCH  19  20
ATOM     20  O   UNL A   1      44.941  25.974  28.683  1.00  0.00    -0.435 OA
BRANCH  20  21
ATOM     21  C   UNL A   1      45.949  25.223  29.349  1.00  0.00     0.542 C 
ATOM     22  F   UNL A   1      46.420  24.249  28.534  1.00  0.00    -0.167 F 
ATOM     23  F   UNL A   1      46.983  26.024  29.704  1.00  0.00    -0.167 F 
ENDBRANCH  20  21
ENDBRANCH  19  20
ENDBRANCH  13  14
ENDBRANCH   8  13
ENDBRANCH   6   8
ENDBRANCH   5   6
ENDBRANCH   4   5
ENDBRANCH   3   4
ENDBRANCH   2   3
ENDBRANCH   1   2
BRANCH   1  24
ATOM     24  C   UNL A   1      46.405  20.026  24.625  1.00  0.00     0.188 C 
BRANCH  24  25
ATOM     25  O   UNL A   1      46.341  21.220  25.374  1.00  0.00    -0.376 OA
BRANCH  25  26
ATOM     26  C   UNL A   1      45.974  22.398  24.686  1.00  0.00     0.202 C 
BRANCH  26  27
ATOM     27  C   UNL A   1      46.042  23.769  25.391  1.00  0.00     0.261 C 
BRANCH  27  28
ATOM     28  O   UNL A   1      47.330  24.403  25.503  1.00  0.00    -0.460 OA
BRANCH  28  29
ATOM     29  C   UNL A   1      47.565  25.490  24.732  1.00  0.00     0.338 C 
ATOM     30  O   UNL A   1      47.904  25.486  23.557  1.00  0.00    -0.246 OA
BRANCH  29  31
ATOM     31  C   UNL A   1      47.134  26.704  25.472  1.00  0.00     0.060 A 
ATOM     32  C   UNL A   1      46.073  27.468  24.966  1.00  0.00     0.016 A 
ATOM     33  C   UNL A   1      47.760  27.086  26.660  1.00  0.00     0.016 A 
ATOM     34  C   UNL A   1      45.652  28.626  25.630  1.00  0.00     0.010 A 
ATOM     35  C   UNL A   1      47.354  28.261  27.312  1.00  0.00     0.010 A 
ATOM     36  C   UNL A   1      46.316  29.055  26.787  1.00  0.00    -0.014 A 
BRANCH  36  37
ATOM     37  C   UNL A   1      46.036  30.405  27.351  1.00  0.00     0.031 A 
ATOM     38  C   UNL A   1      44.761  30.613  28.131  1.00  0.00     0.074 A 
ATOM     39  C   UNL A   1      46.900  31.428  27.206  1.00  0.00     0.049 A 
ATOM     40  N   UNL A   1      44.289  31.704  28.677  1.00  0.00    -0.248 NA
ATOM     41  C   UNL A   1      43.905  29.429  28.319  1.00  0.00     0.031 C 
ATOM     42  C   UNL A   1      48.188  31.360  26.516  1.00  0.00     0.029 A 
ATOM     43  N   UNL A   1      46.815  32.735  27.627  1.00  0.00    -0.354 N 
ATOM     44  C   UNL A   1      43.083  31.343  29.269  1.00  0.00     0.074 A 
ATOM     45  C   UNL A   1      42.880  29.938  28.988  1.00  0.00     0.031 C 
ATOM     46  C   UNL A   1      48.767  32.575  26.552  1.00  0.00     0.029 A 
ATOM     47  C   UNL A   1      47.879  33.515  27.235  1.00  0.00     0.049 A 
ATOM     48  H   UNL A   1      46.062  33.081  28.160  1.00  0.00     0.167 HD
ATOM     49  C   UNL A   1      42.225  32.104  29.990  1.00  0.00     0.031 A 
ATOM     50  C   UNL A   1      48.102  34.838  27.386  1.00  0.00     0.031 A 
ATOM     51  C   UNL A   1      42.414  33.505  30.259  1.00  0.00     0.049 A 
ATOM     52  C   UNL A   1      47.086  35.683  28.120  1.00  0.00     0.074 A 
ATOM     53  C   UNL A   1      41.598  34.358  30.985  1.00  0.00     0.029 A 
ATOM     54  N   UNL A   1      43.485  34.264  29.814  1.00  0.00    -0.354 N 
ATOM     55  N   UNL A   1      45.964  35.317  28.695  1.00  0.00    -0.248 NA
ATOM     56  C   UNL A   1      47.378  37.120  28.236  1.00  0.00     0.031 C 
ATOM     57  C   UNL A   1      42.145  35.645  30.927  1.00  0.00     0.029 A 
ATOM     58  C   UNL A   1      43.338  35.579  30.227  1.00  0.00     0.049 A 
ATOM     59  H   UNL A   1      44.239  33.919  29.283  1.00  0.00     0.167 HD
ATOM     60  C   UNL A   1      45.434  36.473  29.262  1.00  0.00     0.074 A 
ATOM     61  C   UNL A   1      46.371  37.542  28.987  1.00  0.00     0.031 C 
ATOM     62  C   UNL A   1      44.274  36.638  29.947  1.00  0.00     0.031 A 
BRANCH  49  63
ATOM     63  C   UNL A   1      40.982  31.443  30.528  1.00  0.00    -0.014 A 
ATOM     64  C   UNL A   1      40.946  30.917  31.832  1.00  0.00     0.010 A 
ATOM     65  C   UNL A   1      39.813  31.413  29.747  1.00  0.00     0.010 A 
ATOM     66  C   UNL A   1      39.771  30.357  32.337  1.00  0.00     0.020 A 
ATOM     67  C   UNL A   1      38.626  30.880  30.258  1.00  0.00     0.020 A 
ATOM     68  C   UNL A   1      38.615  30.346  31.549  1.00  0.00     0.054 A 
BRANCH  68  69
ATOM     69  S   UNL A   1      37.089  29.664  32.253  1.00  0.00     0.124 S 
ATOM     70  O   UNL A   1      37.591  28.524  33.016  1.00  0.00    -0.237 OA
ATOM     71  O   UNL A   1      36.582  30.778  33.050  1.00  0.00    -0.237 OA
ATOM     72  O   UNL A   1      36.287  29.322  31.082  1.00  0.00    -0.744 OA
ENDBRANCH  68  69
ENDBRANCH  49  63
BRANCH  50  73
ATOM     73  C   UNL A   1      49.320  35.473  26.803  1.00  0.00    -0.014 A 
ATOM     74  C   UNL A   1      49.357  35.864  25.452  1.00  0.00     0.010 A 
ATOM     75  C   UNL A   1      50.476  35.639  27.589  1.00  0.00     0.010 A 
ATOM     76  C   UNL A   1      50.532  36.375  24.891  1.00  0.00     0.020 A 
ATOM     77  C   UNL A   1      51.642  36.183  27.042  1.00  0.00     0.020 A 
ATOM     78  C   UNL A   1      51.669  36.530  25.691  1.00  0.00     0.054 A 
BRANCH  78  79
ATOM     79  S   UNL A   1      53.177  37.210  24.945  1.00  0.00     0.124 S 
ATOM     80  O   UNL A   1      52.906  37.062  23.519  1.00  0.00    -0.237 OA
ATOM     81  O   UNL A   1      53.187  38.581  25.449  1.00  0.00    -0.237 OA
ATOM     82  O   UNL A   1      54.236  36.353  25.474  1.00  0.00    -0.744 OA
ENDBRANCH  78  79
ENDBRANCH  50  73
BRANCH  62  83
ATOM     83  C   UNL A   1      43.970  38.016  30.485  1.00  0.00    -0.014 A 
ATOM     84  C   UNL A   1      44.316  38.385  31.798  1.00  0.00     0.010 A 
ATOM     85  C   UNL A   1      43.351  38.966  29.651  1.00  0.00     0.010 A 
ATOM     86  C   UNL A   1      44.000  39.659  32.282  1.00  0.00     0.020 A 
ATOM     87  C   UNL A   1      43.066  40.252  30.121  1.00  0.00     0.020 A 
ATOM     88  C   UNL A   1      43.374  40.583  31.441  1.00  0.00     0.054 A 
BRANCH  88  89
ATOM     89  S   UNL A   1      42.984  42.231  32.091  1.00  0.00     0.124 S 
ATOM     90  O   UNL A   1      41.531  42.277  31.950  1.00  0.00    -0.237 OA
ATOM     91  O   UNL A   1      43.479  42.159  33.463  1.00  0.00    -0.237 OA
ATOM     92  O   UNL A   1      43.724  43.135  31.213  1.00  0.00    -0.744 OA
ENDBRANCH  88  89
ENDBRANCH  62  83
ENDBRANCH  36  37
ENDBRANCH  29  31
ENDBRANCH  28  29
ENDBRANCH  27  28
ENDBRANCH  26  27
ENDBRANCH  25  26
ENDBRANCH  24  25
ENDBRANCH   1  24
TORSDOF 25
ENDMDL
MODEL 3
REMARK VINA RESULT:      -8.6      5.948     10.473
REMARK SMILES [NH3+][C@@H](Cc1ccc(OC(F)F)cc1)C(=O)OCCOCCOCCOC(=O)c1ccc(-c2c3nc(c(-c4ccc(S(=O)(=O)[O-])cc4)c4ccc([nH]4)c(-c4ccc(S(=O)(=O)[O-])cc4)c4nc(c(-c5ccc(S(=O)(=O)[O-])cc5)c5ccc2[nH]5)C=C4)C=C3)cc1
REMARK SMILES IDX 20 1 19 2 18 3 17 4 16 5 14 6 15 7 2 8 1 9 3 13 4 14 5 15
REMARK SMILES IDX 13 16 6 17 12 18 7 19 8 20 9 21 10 22 11 23 21 24 22 25
REMARK SMILES IDX 23 26 24 27 25 28 26 29 27 30 28 31 29 32 87 33 30 34 86 35
REMARK SMILES IDX 31 36 32 37 33 38 80 39 34 40 85 41 79 42 81 43 35 44 84 45
REMARK SMILES IDX 78 46 77 47 36 49 66 50 47 51 65 52 48 53 51 54 64 55 82 56
REMARK SMILES IDX 49 57 50 58 63 60 83 61 52 62 37 63 38 64 46 65 39 66 45 67
REMARK SMILES IDX 40 68 41 69 42 70 43 71 44 72 67 73 68 74 76 75 69 76 75 77
REMARK SMILES IDX 70 78 71 79 72 80 73 81 74 82 53 83 54 84 62 85 55 86 61 87
REMARK SMILES IDX 56 88 57 89 58 90 59 91 60 92
REMARK H PARENT 1 10 1 11 1 12 81 48 51 59
REMARK Flexibility Score: inf
ROOT
ATOM      1  C   UNL A   1      36.110  33.914  28.638  1.00  0.00     0.188 C 
ENDROOT
BRANCH   1   2
ATOM      2  O   UNL A   1      35.601  33.078  27.601  1.00  0.00    -0.376 OA
BRANCH   2   3
ATOM      3  C   UNL A   1      35.102  31.794  27.958  1.00  0.00     0.202 C 
BRANCH   3   4
ATOM      4  C   UNL A   1      33.612  31.506  27.724  1.00  0.00     0.261 C 
BRANCH   4   5
ATOM      5  O   UNL A   1      33.356  30.448  26.780  1.00  0.00    -0.459 OA
BRANCH   5   6
ATOM      6  C   UNL A   1      34.005  29.269  26.981  1.00  0.00     0.365 C 
ATOM      7  O   UNL A   1      35.223  29.139  26.902  1.00  0.00    -0.245 OA
BRANCH   6   8
ATOM      8  C   UNL A   1      33.077  28.060  27.224  1.00  0.00     0.296 C 
BRANCH   8   9
ATOM      9  N   UNL A   1      31.751  28.333  27.828  1.00  0.00    -0.346 N 
ATOM     10  H   UNL A   1      31.875  28.804  28.724  1.00  0.00     0.345 HD
ATOM     11  H   UNL A   1      31.255  27.452  27.972  1.00  0.00     0.345 HD
ATOM     12  H   UNL A   1      31.209  28.929  27.202  1.00  0.00     0.345 HD
ENDBRANCH   8   9
BRANCH   8  13
ATOM     13  C   UNL A   1      32.967  27.193  25.959  1.00  0.00     0.113 C 
BRANCH  13  14
ATOM     14  C   UNL A   1      32.112  27.629  24.784  1.00  0.00    -0.041 A 
ATOM     15  C   UNL A   1      32.738  28.388  23.784  1.00  0.00     0.008 A 
ATOM     16  C   UNL A   1      30.744  27.374  24.635  1.00  0.00     0.008 A 
ATOM     17  C   UNL A   1      32.005  28.929  22.724  1.00  0.00     0.047 A 
ATOM     18  C   UNL A   1      30.005  27.936  23.589  1.00  0.00     0.047 A 
ATOM     19  C   UNL A   1      30.626  28.736  22.639  1.00  0.00     0.126 A 
BRANCH  19  20
ATOM     20  O   UNL A   1      30.012  29.368  21.596  1.00  0.00    -0.435 OA
BRANCH  20  21
ATOM     21  C   UNL A   1      28.874  30.169  21.887  1.00  0.00     0.542 C 
ATOM     22  F   UNL A   1      29.206  31.483  21.854  1.00  0.00    -0.167 F 
ATOM     23  F   UNL A   1      27.894  29.952  20.977  1.00  0.00    -0.167 F 
ENDBRANCH  20  21
ENDBRANCH  19  20
ENDBRANCH  13  14
ENDBRANCH   8  13
ENDBRANCH   6   8
ENDBRANCH   5   6
ENDBRANCH   4   5
ENDBRANCH   3   4
ENDBRANCH   2   3
ENDBRANCH   1   2
BRANCH   1  24
ATOM     24  C   UNL A   1      37.615  33.832  28.973  1.00  0.00     0.188 C 
BRANCH  24  25
ATOM     25  O   UNL A   1      37.895  33.721  30.352  1.00  0.00    -0.376 OA
BRANCH  25  26
ATOM     26  C   UNL A   1      36.807  33.831  31.245  1.00  0.00     0.202 C 
BRANCH  26  27
ATOM     27  C   UNL A   1      36.146  32.567  31.834  1.00  0.00     0.261 C 
BRANCH  27  28
ATOM     28  O   UNL A   1      36.439  31.303  31.209  1.00  0.00    -0.460 OA
BRANCH  28  29
ATOM     29  C   UNL A   1      37.090  30.373  31.946  1.00  0.00     0.338 C 
ATOM     30  O   UNL A   1      36.679  29.840  32.968  1.00  0.00    -0.246 OA
BRANCH  29  31
ATOM     31  C   UNL A   1      38.297  29.933  31.202  1.00  0.00     0.060 A 
ATOM     32  C   UNL A   1      39.337  29.304  31.903  1.00  0.00     0.016 A 
ATOM     33  C   UNL A   1      38.407  30.126  29.823  1.00  0.00     0.016 A 
ATOM     34  C   UNL A   1      40.494  28.890  31.234  1.00  0.00     0.010 A 
ATOM     35  C   UNL A   1      39.580  29.733  29.159  1.00  0.00     0.010 A 
ATOM     36  C   UNL A   1      40.644  29.138  29.863  1.00  0.00    -0.014 A 
BRANCH  36  37
ATOM     37  C   UNL A   1      41.963  28.926  29.205  1.00  0.00     0.031 A 
ATOM     38  C   UNL A   1      42.286  27.558  28.655  1.00  0.00     0.074 A 
ATOM     39  C   UNL A   1      42.856  29.925  29.067  1.00  0.00     0.049 A 
ATOM     40  N   UNL A   1      43.380  27.130  28.081  1.00  0.00    -0.248 NA
ATOM     41  C   UNL A   1      41.229  26.539  28.770  1.00  0.00     0.031 C 
ATOM     42  C   UNL A   1      42.661  31.305  29.509  1.00  0.00     0.029 A 
ATOM     43  N   UNL A   1      44.117  29.926  28.517  1.00  0.00    -0.354 N 
ATOM     44  C   UNL A   1      43.149  25.794  27.768  1.00  0.00     0.074 A 
ATOM     45  C   UNL A   1      41.821  25.474  28.246  1.00  0.00     0.031 C 
ATOM     46  C   UNL A   1      43.768  32.016  29.225  1.00  0.00     0.029 A 
ATOM     47  C   UNL A   1      44.763  31.137  28.611  1.00  0.00     0.049 A 
ATOM     48  H   UNL A   1      44.520  29.132  28.095  1.00  0.00     0.167 HD
ATOM     49  C   UNL A   1      43.960  24.914  27.134  1.00  0.00     0.031 A 
ATOM     50  C   UNL A   1      46.019  31.492  28.266  1.00  0.00     0.031 A 
ATOM     51  C   UNL A   1      45.287  25.223  26.671  1.00  0.00     0.049 A 
ATOM     52  C   UNL A   1      46.935  30.467  27.638  1.00  0.00     0.074 A 
ATOM     53  C   UNL A   1      46.181  24.394  26.012  1.00  0.00     0.029 A 
ATOM     54  N   UNL A   1      45.916  26.449  26.817  1.00  0.00    -0.354 N 
ATOM     55  N   UNL A   1      46.688  29.216  27.327  1.00  0.00    -0.248 NA
ATOM     56  C   UNL A   1      48.296  30.910  27.301  1.00  0.00     0.031 C 
ATOM     57  C   UNL A   1      47.373  25.102  25.816  1.00  0.00     0.029 A 
ATOM     58  C   UNL A   1      47.195  26.392  26.286  1.00  0.00     0.049 A 
ATOM     59  H   UNL A   1      45.514  27.243  27.237  1.00  0.00     0.167 HD
ATOM     60  C   UNL A   1      47.854  28.735  26.735  1.00  0.00     0.074 A 
ATOM     61  C   UNL A   1      48.792  29.836  26.704  1.00  0.00     0.031 C 
ATOM     62  C   UNL A   1      48.125  27.492  26.261  1.00  0.00     0.031 A 
BRANCH  49  63
ATOM     63  C   UNL A   1      43.444  23.515  26.916  1.00  0.00    -0.014 A 
ATOM     64  C   UNL A   1      43.555  22.535  27.919  1.00  0.00     0.010 A 
ATOM     65  C   UNL A   1      42.774  23.196  25.721  1.00  0.00     0.010 A 
ATOM     66  C   UNL A   1      43.022  21.259  27.724  1.00  0.00     0.020 A 
ATOM     67  C   UNL A   1      42.214  21.930  25.532  1.00  0.00     0.020 A 
ATOM     68  C   UNL A   1      42.350  20.965  26.533  1.00  0.00     0.054 A 
BRANCH  68  69
ATOM     69  S   UNL A   1      41.619  19.317  26.332  1.00  0.00     0.124 S 
ATOM     70  O   UNL A   1      40.317  19.632  25.751  1.00  0.00    -0.237 OA
ATOM     71  O   UNL A   1      42.565  18.658  25.434  1.00  0.00    -0.237 OA
ATOM     72  O   UNL A   1      41.580  18.784  27.691  1.00  0.00    -0.744 OA
ENDBRANCH  68  69
ENDBRANCH  49  63
BRANCH  50  73
ATOM     73  C   UNL A   1      46.517  32.873  28.535  1.00  0.00    -0.014 A 
ATOM     74  C   UNL A   1      47.110  33.202  29.768  1.00  0.00     0.010 A 
ATOM     75  C   UNL A   1      46.350  33.885  27.572  1.00  0.00     0.010 A 
ATOM     76  C   UNL A   1      47.491  34.519  30.045  1.00  0.00     0.020 A 
ATOM     77  C   UNL A   1      46.763  35.196  27.830  1.00  0.00     0.020 A 
ATOM     78  C   UNL A   1      47.313  35.509  29.073  1.00  0.00     0.054 A 
BRANCH  78  79
ATOM     79  S   UNL A   1      47.831  37.207  29.449  1.00  0.00     0.124 S 
ATOM     80  O   UNL A   1      48.774  37.484  28.371  1.00  0.00    -0.237 OA
ATOM     81  O   UNL A   1      46.569  37.941  29.391  1.00  0.00    -0.237 OA
ATOM     82  O   UNL A   1      48.419  37.098  30.782  1.00  0.00    -0.744 OA
ENDBRANCH  78  79
ENDBRANCH  50  73
BRANCH  62  83
ATOM     83  C   UNL A   1      49.478  27.266  25.630  1.00  0.00    -0.014 A 
ATOM     84  C   UNL A   1      49.696  27.490  24.258  1.00  0.00     0.010 A 
ATOM     85  C   UNL A   1      50.557  26.847  26.430  1.00  0.00     0.010 A 
ATOM     86  C   UNL A   1      50.951  27.248  23.691  1.00  0.00     0.020 A 
ATOM     87  C   UNL A   1      51.822  26.637  25.873  1.00  0.00     0.020 A 
ATOM     88  C   UNL A   1      52.005  26.819  24.502  1.00  0.00     0.054 A 
BRANCH  88  89
ATOM     89  S   UNL A   1      53.626  26.521  23.743  1.00  0.00     0.124 S 
ATOM     90  O   UNL A   1      54.260  27.832  23.857  1.00  0.00    -0.237 OA
ATOM     91  O   UNL A   1      54.189  25.475  24.592  1.00  0.00    -0.237 OA
ATOM     92  O   UNL A   1      53.301  26.103  22.381  1.00  0.00    -0.744 OA
ENDBRANCH  88  89
ENDBRANCH  62  83
ENDBRANCH  36  37
ENDBRANCH  29  31
ENDBRANCH  28  29
ENDBRANCH  27  28
ENDBRANCH  26  27
ENDBRANCH  25  26
ENDBRANCH  24  25
ENDBRANCH   1  24
TORSDOF 25
ENDMDL
