MODEL 1
REMARK VINA RESULT:      -9.3      0.000      0.000
REMARK SMILES CC[C@@H]1CC[C@](C[C@@H]2CCCc3ccccc32)(C(=O)OCCOCCOCCOC(=O)c2ccc(-c3c4nc(c(-c5ccc(S(=O)(=O)[O-])cc5)c5ccc([nH]5)c(-c5ccc(S(=O)(=O)[O-])cc5)c5nc(c(-c6ccc(S(=O)(=O)[O-])cc6)c6ccc3[nH]6)C=C5)C=C4)cc2)C1
REMARK SMILES IDX 25 1 24 2 23 3 22 4 21 5 20 6 18 7 19 8 6 9 3 10 4 11 92 12
REMARK SMILES IDX 5 13 2 14 1 15 7 16 8 17 9 18 17 19 10 20 12 21 16 22 11 23
REMARK SMILES IDX 13 24 15 25 14 26 26 27 27 28 28 29 29 30 30 31 31 32 32 33
REMARK SMILES IDX 33 34 91 35 34 36 90 37 35 38 36 39 37 40 84 41 38 42 89 43
REMARK SMILES IDX 83 44 85 45 39 46 88 47 82 48 81 49 40 51 70 52 51 53 69 54
REMARK SMILES IDX 52 55 55 56 68 57 86 58 53 59 54 60 67 62 87 63 56 64 41 65
REMARK SMILES IDX 42 66 50 67 43 68 49 69 44 70 45 71 46 72 47 73 48 74 71 75
REMARK SMILES IDX 72 76 80 77 73 78 79 79 74 80 75 81 76 82 77 83 78 84 57 85
REMARK SMILES IDX 58 86 66 87 59 88 65 89 60 90 61 91 62 92 63 93 64 94
REMARK H PARENT 85 50 55 61
REMARK Flexibility Score: inf
ROOT
ATOM      1  C   UNL A   1      44.378  40.532  25.972  1.00  0.00     0.188 C 
ENDROOT
BRANCH   1   2
ATOM      2  C   UNL A   1      43.632  41.825  25.594  1.00  0.00     0.188 C 
BRANCH   2   3
ATOM      3  O   UNL A   1      42.943  41.813  24.369  1.00  0.00    -0.376 OA
BRANCH   3   4
ATOM      4  C   UNL A   1      42.615  43.024  23.715  1.00  0.00     0.202 C 
BRANCH   4   5
ATOM      5  C   UNL A   1      42.087  43.177  22.276  1.00  0.00     0.261 C 
BRANCH   5   6
ATOM      6  O   UNL A   1      42.877  43.889  21.323  1.00  0.00    -0.463 OA
BRANCH   6   7
ATOM      7  C   UNL A   1      43.715  43.138  20.554  1.00  0.00     0.312 C 
ATOM      8  O   UNL A   1      43.620  41.918  20.464  1.00  0.00    -0.252 OA
BRANCH   7   9
ATOM      9  C   UNL A   1      44.762  43.990  19.770  1.00  0.00     0.069 C 
ATOM     10  C   UNL A   1      47.117  44.189  20.460  1.00  0.00    -0.010 C 
ATOM     11  C   UNL A   1      46.260  44.867  21.513  1.00  0.00     0.005 C 
ATOM     12  C   UNL A   1      46.119  43.242  19.780  1.00  0.00     0.022 C 
ATOM     13  C   UNL A   1      45.003  45.214  20.697  1.00  0.00     0.019 C 
BRANCH  10  14
ATOM     14  C   UNL A   1      48.402  43.522  20.942  1.00  0.00     0.000 C 
ATOM     15  C   UNL A   1      48.739  43.936  22.373  1.00  0.00     0.004 C 
ENDBRANCH  10  14
BRANCH   9  16
ATOM     16  C   UNL A   1      44.215  44.280  18.322  1.00  0.00     0.027 C 
BRANCH  16  17
ATOM     17  C   UNL A   1      44.756  45.299  17.272  1.00  0.00     0.020 C 
ATOM     18  C   UNL A   1      46.251  45.648  17.250  1.00  0.00     0.009 C 
ATOM     19  C   UNL A   1      43.871  46.505  17.157  1.00  0.00    -0.042 A 
ATOM     20  C   UNL A   1      46.661  46.834  18.100  1.00  0.00     0.005 C 
ATOM     21  C   UNL A   1      44.272  47.744  17.673  1.00  0.00    -0.045 A 
ATOM     22  C   UNL A   1      42.576  46.339  16.637  1.00  0.00     0.004 A 
ATOM     23  C   UNL A   1      45.699  48.025  18.069  1.00  0.00     0.036 C 
ATOM     24  C   UNL A   1      43.305  48.751  17.803  1.00  0.00     0.004 A 
ATOM     25  C   UNL A   1      41.639  47.356  16.741  1.00  0.00     0.000 A 
ATOM     26  C   UNL A   1      41.993  48.549  17.364  1.00  0.00     0.000 A 
ENDBRANCH  16  17
ENDBRANCH   9  16
ENDBRANCH   7   9
ENDBRANCH   6   7
ENDBRANCH   5   6
ENDBRANCH   4   5
ENDBRANCH   3   4
ENDBRANCH   2   3
ENDBRANCH   1   2
BRANCH   1  27
ATOM     27  O   UNL A   1      45.228  40.490  27.101  1.00  0.00    -0.376 OA
BRANCH  27  28
ATOM     28  C   UNL A   1      45.010  39.479  28.073  1.00  0.00     0.202 C 
BRANCH  28  29
ATOM     29  C   UNL A   1      46.164  38.893  28.910  1.00  0.00     0.261 C 
BRANCH  29  30
ATOM     30  O   UNL A   1      46.192  37.464  29.062  1.00  0.00    -0.460 OA
BRANCH  30  31
ATOM     31  C   UNL A   1      47.425  36.902  29.054  1.00  0.00     0.338 C 
ATOM     32  O   UNL A   1      48.477  37.433  29.402  1.00  0.00    -0.246 OA
BRANCH  31  33
ATOM     33  C   UNL A   1      47.325  35.454  28.776  1.00  0.00     0.060 A 
ATOM     34  C   UNL A   1      46.797  35.049  27.541  1.00  0.00     0.016 A 
ATOM     35  C   UNL A   1      47.677  34.503  29.734  1.00  0.00     0.016 A 
ATOM     36  C   UNL A   1      46.592  33.698  27.274  1.00  0.00     0.010 A 
ATOM     37  C   UNL A   1      47.446  33.146  29.472  1.00  0.00     0.010 A 
ATOM     38  C   UNL A   1      46.870  32.740  28.254  1.00  0.00    -0.014 A 
BRANCH  38  39
ATOM     39  C   UNL A   1      46.343  31.363  28.072  1.00  0.00     0.031 A 
ATOM     40  C   UNL A   1      47.291  30.294  27.598  1.00  0.00     0.074 A 
ATOM     41  C   UNL A   1      45.075  31.041  28.388  1.00  0.00     0.049 A 
ATOM     42  N   UNL A   1      47.063  29.030  27.352  1.00  0.00    -0.248 NA
ATOM     43  C   UNL A   1      48.686  30.708  27.378  1.00  0.00     0.031 C 
ATOM     44  C   UNL A   1      44.076  31.960  28.928  1.00  0.00     0.029 A 
ATOM     45  N   UNL A   1      44.414  29.840  28.295  1.00  0.00    -0.354 N 
ATOM     46  C   UNL A   1      48.278  28.502  26.930  1.00  0.00     0.074 A 
ATOM     47  C   UNL A   1      49.234  29.587  26.934  1.00  0.00     0.031 C 
ATOM     48  C   UNL A   1      42.921  31.293  29.102  1.00  0.00     0.029 A 
ATOM     49  C   UNL A   1      43.089  29.911  28.654  1.00  0.00     0.049 A 
ATOM     50  H   UNL A   1      44.848  29.008  27.999  1.00  0.00     0.167 HD
ATOM     51  C   UNL A   1      48.574  27.231  26.570  1.00  0.00     0.031 A 
ATOM     52  C   UNL A   1      42.117  28.977  28.599  1.00  0.00     0.031 A 
ATOM     53  C   UNL A   1      47.622  26.153  26.550  1.00  0.00     0.049 A 
ATOM     54  C   UNL A   1      42.448  27.586  28.119  1.00  0.00     0.074 A 
ATOM     55  C   UNL A   1      47.827  24.830  26.205  1.00  0.00     0.029 A 
ATOM     56  N   UNL A   1      46.279  26.276  26.878  1.00  0.00    -0.354 N 
ATOM     57  N   UNL A   1      43.603  27.099  27.730  1.00  0.00    -0.248 NA
ATOM     58  C   UNL A   1      41.344  26.615  28.081  1.00  0.00     0.031 C 
ATOM     59  C   UNL A   1      46.597  24.167  26.261  1.00  0.00     0.029 A 
ATOM     60  C   UNL A   1      45.638  25.060  26.712  1.00  0.00     0.049 A 
ATOM     61  H   UNL A   1      45.846  27.106  27.184  1.00  0.00     0.167 HD
ATOM     62  C   UNL A   1      43.370  25.760  27.427  1.00  0.00     0.074 A 
ATOM     63  C   UNL A   1      41.969  25.511  27.694  1.00  0.00     0.031 C 
ATOM     64  C   UNL A   1      44.240  24.822  26.973  1.00  0.00     0.031 A 
BRANCH  51  65
ATOM     65  C   UNL A   1      49.982  26.957  26.105  1.00  0.00    -0.014 A 
ATOM     66  C   UNL A   1      50.336  27.026  24.746  1.00  0.00     0.010 A 
ATOM     67  C   UNL A   1      50.967  26.627  27.054  1.00  0.00     0.010 A 
ATOM     68  C   UNL A   1      51.638  26.719  24.339  1.00  0.00     0.020 A 
ATOM     69  C   UNL A   1      52.277  26.351  26.654  1.00  0.00     0.020 A 
ATOM     70  C   UNL A   1      52.598  26.377  25.296  1.00  0.00     0.054 A 
BRANCH  70  71
ATOM     71  S   UNL A   1      54.279  25.980  24.742  1.00  0.00     0.124 S 
ATOM     72  O   UNL A   1      55.093  26.785  25.649  1.00  0.00    -0.237 OA
ATOM     73  O   UNL A   1      54.352  24.536  24.947  1.00  0.00    -0.237 OA
ATOM     74  O   UNL A   1      54.294  26.409  23.346  1.00  0.00    -0.744 OA
ENDBRANCH  70  71
ENDBRANCH  51  65
BRANCH  52  75
ATOM     75  C   UNL A   1      40.720  29.341  28.973  1.00  0.00    -0.014 A 
ATOM     76  C   UNL A   1      40.372  29.618  30.306  1.00  0.00     0.010 A 
ATOM     77  C   UNL A   1      39.725  29.413  27.980  1.00  0.00     0.010 A 
ATOM     78  C   UNL A   1      39.056  29.953  30.640  1.00  0.00     0.020 A 
ATOM     79  C   UNL A   1      38.415  29.776  28.305  1.00  0.00     0.020 A 
ATOM     80  C   UNL A   1      38.086  30.036  29.636  1.00  0.00     0.054 A 
BRANCH  80  81
ATOM     81  S   UNL A   1      36.400  30.536  30.082  1.00  0.00     0.124 S 
ATOM     82  O   UNL A   1      36.177  29.790  31.317  1.00  0.00    -0.237 OA
ATOM     83  O   UNL A   1      36.532  31.983  30.233  1.00  0.00    -0.237 OA
ATOM     84  O   UNL A   1      35.601  30.107  28.938  1.00  0.00    -0.744 OA
ENDBRANCH  80  81
ENDBRANCH  52  75
BRANCH  64  85
ATOM     85  C   UNL A   1      43.715  23.422  26.771  1.00  0.00    -0.014 A 
ATOM     86  C   UNL A   1      43.584  22.861  25.488  1.00  0.00     0.010 A 
ATOM     87  C   UNL A   1      43.391  22.636  27.893  1.00  0.00     0.010 A 
ATOM     88  C   UNL A   1      43.097  21.558  25.330  1.00  0.00     0.020 A 
ATOM     89  C   UNL A   1      42.937  21.323  27.742  1.00  0.00     0.020 A 
ATOM     90  C   UNL A   1      42.775  20.798  26.458  1.00  0.00     0.054 A 
BRANCH  90  91
ATOM     91  S   UNL A   1      42.170  19.104  26.230  1.00  0.00     0.124 S 
ATOM     92  O   UNL A   1      42.304  18.550  27.574  1.00  0.00    -0.237 OA
ATOM     93  O   UNL A   1      40.799  19.312  25.770  1.00  0.00    -0.237 OA
ATOM     94  O   UNL A   1      43.077  18.542  25.232  1.00  0.00    -0.744 OA
ENDBRANCH  90  91
ENDBRANCH  64  85
ENDBRANCH  38  39
ENDBRANCH  31  33
ENDBRANCH  30  31
ENDBRANCH  29  30
ENDBRANCH  28  29
ENDBRANCH  27  28
ENDBRANCH   1  27
TORSDOF 23
ENDMDL
MODEL 2
REMARK VINA RESULT:      -8.8      6.869     14.002
REMARK SMILES CC[C@@H]1CC[C@](C[C@@H]2CCCc3ccccc32)(C(=O)OCCOCCOCCOC(=O)c2ccc(-c3c4nc(c(-c5ccc(S(=O)(=O)[O-])cc5)c5ccc([nH]5)c(-c5ccc(S(=O)(=O)[O-])cc5)c5nc(c(-c6ccc(S(=O)(=O)[O-])cc6)c6ccc3[nH]6)C=C5)C=C4)cc2)C1
REMARK SMILES IDX 25 1 24 2 23 3 22 4 21 5 20 6 18 7 19 8 6 9 3 10 4 11 92 12
REMARK SMILES IDX 5 13 2 14 1 15 7 16 8 17 9 18 17 19 10 20 12 21 16 22 11 23
REMARK SMILES IDX 13 24 15 25 14 26 26 27 27 28 28 29 29 30 30 31 31 32 32 33
REMARK SMILES IDX 33 34 91 35 34 36 90 37 35 38 36 39 37 40 84 41 38 42 89 43
REMARK SMILES IDX 83 44 85 45 39 46 88 47 82 48 81 49 40 51 70 52 51 53 69 54
REMARK SMILES IDX 52 55 55 56 68 57 86 58 53 59 54 60 67 62 87 63 56 64 41 65
REMARK SMILES IDX 42 66 50 67 43 68 49 69 44 70 45 71 46 72 47 73 48 74 71 75
REMARK SMILES IDX 72 76 80 77 73 78 79 79 74 80 75 81 76 82 77 83 78 84 57 85
REMARK SMILES IDX 58 86 66 87 59 88 65 89 60 90 61 91 62 92 63 93 64 94
REMARK H PARENT 85 50 55 61
REMARK Flexibility Score: inf
ROOT
ATOM      1  C   UNL A   1      38.535  32.879  39.457  1.00  0.00     0.188 C 
ENDROOT
BRANCH   1   2
ATOM      2  C   UNL A   1      37.159  32.552  38.848  1.00  0.00     0.188 C 
BRANCH   2   3
ATOM      3  O   UNL A   1      37.129  32.327  37.460  1.00  0.00    -0.376 OA
BRANCH   3   4
ATOM      4  C   UNL A   1      37.176  33.412  36.553  1.00  0.00     0.202 C 
BRANCH   4   5
ATOM      5  C   UNL A   1      36.006  33.957  35.713  1.00  0.00     0.261 C 
BRANCH   5   6
ATOM      6  O   UNL A   1      35.814  33.456  34.389  1.00  0.00    -0.463 OA
BRANCH   6   7
ATOM      7  C   UNL A   1      36.723  33.860  33.456  1.00  0.00     0.312 C 
ATOM      8  O   UNL A   1      37.028  35.037  33.292  1.00  0.00    -0.252 OA
BRANCH   7   9
ATOM      9  C   UNL A   1      37.362  32.675  32.666  1.00  0.00     0.069 C 
ATOM     10  C   UNL A   1      36.559  31.950  30.454  1.00  0.00    -0.010 C 
ATOM     11  C   UNL A   1      35.472  31.652  31.470  1.00  0.00     0.005 C 
ATOM     12  C   UNL A   1      37.381  33.037  31.159  1.00  0.00     0.022 C 
ATOM     13  C   UNL A   1      36.294  31.551  32.766  1.00  0.00     0.019 C 
BRANCH  10  14
ATOM     14  C   UNL A   1      36.104  32.309  29.043  1.00  0.00     0.000 C 
ATOM     15  C   UNL A   1      36.553  31.256  28.031  1.00  0.00     0.004 C 
ENDBRANCH  10  14
BRANCH   9  16
ATOM     16  C   UNL A   1      38.789  32.368  33.256  1.00  0.00     0.027 C 
BRANCH  16  17
ATOM     17  C   UNL A   1      39.941  31.535  32.614  1.00  0.00     0.020 C 
ATOM     18  C   UNL A   1      40.952  32.223  31.686  1.00  0.00     0.009 C 
ATOM     19  C   UNL A   1      39.448  30.224  32.075  1.00  0.00    -0.042 A 
ATOM     20  C   UNL A   1      40.595  32.222  30.212  1.00  0.00     0.005 C 
ATOM     21  C   UNL A   1      39.337  30.009  30.696  1.00  0.00    -0.045 A 
ATOM     22  C   UNL A   1      38.976  29.261  32.983  1.00  0.00     0.004 A 
ATOM     23  C   UNL A   1      39.989  30.918  29.686  1.00  0.00     0.036 C 
ATOM     24  C   UNL A   1      38.605  28.897  30.257  1.00  0.00     0.004 A 
ATOM     25  C   UNL A   1      38.284  28.147  32.533  1.00  0.00     0.000 A 
ATOM     26  C   UNL A   1      38.061  27.987  31.169  1.00  0.00     0.000 A 
ENDBRANCH  16  17
ENDBRANCH   9  16
ENDBRANCH   7   9
ENDBRANCH   6   7
ENDBRANCH   5   6
ENDBRANCH   4   5
ENDBRANCH   3   4
ENDBRANCH   2   3
ENDBRANCH   1   2
BRANCH   1  27
ATOM     27  O   UNL A   1      38.637  33.613  40.661  1.00  0.00    -0.376 OA
BRANCH  27  28
ATOM     28  C   UNL A   1      39.123  34.945  40.601  1.00  0.00     0.202 C 
BRANCH  28  29
ATOM     29  C   UNL A   1      40.628  35.267  40.686  1.00  0.00     0.261 C 
BRANCH  29  30
ATOM     30  O   UNL A   1      41.013  36.632  40.449  1.00  0.00    -0.460 OA
BRANCH  30  31
ATOM     31  C   UNL A   1      40.415  37.231  39.391  1.00  0.00     0.338 C 
ATOM     32  O   UNL A   1      39.591  38.141  39.432  1.00  0.00    -0.246 OA
BRANCH  31  33
ATOM     33  C   UNL A   1      41.054  36.799  38.131  1.00  0.00     0.060 A 
ATOM     34  C   UNL A   1      40.229  36.381  37.076  1.00  0.00     0.016 A 
ATOM     35  C   UNL A   1      42.442  36.738  38.003  1.00  0.00     0.016 A 
ATOM     36  C   UNL A   1      40.789  35.874  35.907  1.00  0.00     0.010 A 
ATOM     37  C   UNL A   1      43.001  36.202  36.834  1.00  0.00     0.010 A 
ATOM     38  C   UNL A   1      42.175  35.736  35.794  1.00  0.00    -0.014 A 
BRANCH  38  39
ATOM     39  C   UNL A   1      42.721  34.901  34.693  1.00  0.00     0.031 A 
ATOM     40  C   UNL A   1      43.228  35.595  33.457  1.00  0.00     0.074 A 
ATOM     41  C   UNL A   1      42.838  33.566  34.807  1.00  0.00     0.049 A 
ATOM     42  N   UNL A   1      43.732  35.084  32.364  1.00  0.00    -0.248 NA
ATOM     43  C   UNL A   1      43.162  37.066  33.460  1.00  0.00     0.031 C 
ATOM     44  C   UNL A   1      42.458  32.777  35.976  1.00  0.00     0.029 A 
ATOM     45  N   UNL A   1      43.314  32.637  33.913  1.00  0.00    -0.354 N 
ATOM     46  C   UNL A   1      44.025  36.166  31.542  1.00  0.00     0.074 A 
ATOM     47  C   UNL A   1      43.622  37.359  32.253  1.00  0.00     0.031 C 
ATOM     48  C   UNL A   1      42.699  31.478  35.721  1.00  0.00     0.029 A 
ATOM     49  C   UNL A   1      43.217  31.341  34.360  1.00  0.00     0.049 A 
ATOM     50  H   UNL A   1      43.688  32.877  33.035  1.00  0.00     0.167 HD
ATOM     51  C   UNL A   1      44.576  36.170  30.305  1.00  0.00     0.031 A 
ATOM     52  C   UNL A   1      43.485  30.177  33.734  1.00  0.00     0.031 A 
ATOM     53  C   UNL A   1      44.962  34.983  29.588  1.00  0.00     0.049 A 
ATOM     54  C   UNL A   1      44.025  30.197  32.325  1.00  0.00     0.074 A 
ATOM     55  C   UNL A   1      45.533  34.885  28.332  1.00  0.00     0.029 A 
ATOM     56  N   UNL A   1      44.806  33.688  30.059  1.00  0.00    -0.354 N 
ATOM     57  N   UNL A   1      44.304  31.228  31.562  1.00  0.00    -0.248 NA
ATOM     58  C   UNL A   1      44.296  28.895  31.698  1.00  0.00     0.031 C 
ATOM     59  C   UNL A   1      45.663  33.528  28.016  1.00  0.00     0.029 A 
ATOM     60  C   UNL A   1      45.241  32.782  29.104  1.00  0.00     0.049 A 
ATOM     61  H   UNL A   1      44.441  33.447  30.941  1.00  0.00     0.167 HD
ATOM     62  C   UNL A   1      44.807  30.699  30.376  1.00  0.00     0.074 A 
ATOM     63  C   UNL A   1      44.811  29.259  30.531  1.00  0.00     0.031 C 
ATOM     64  C   UNL A   1      45.233  31.349  29.263  1.00  0.00     0.031 A 
BRANCH  51  65
ATOM     65  C   UNL A   1      44.732  37.505  29.624  1.00  0.00    -0.014 A 
ATOM     66  C   UNL A   1      45.846  38.329  29.864  1.00  0.00     0.010 A 
ATOM     67  C   UNL A   1      43.741  37.938  28.724  1.00  0.00     0.010 A 
ATOM     68  C   UNL A   1      45.940  39.585  29.255  1.00  0.00     0.020 A 
ATOM     69  C   UNL A   1      43.847  39.178  28.090  1.00  0.00     0.020 A 
ATOM     70  C   UNL A   1      44.936  40.003  28.377  1.00  0.00     0.054 A 
BRANCH  70  71
ATOM     71  S   UNL A   1      45.080  41.637  27.603  1.00  0.00     0.124 S 
ATOM     72  O   UNL A   1      46.311  41.496  26.830  1.00  0.00    -0.237 OA
ATOM     73  O   UNL A   1      43.852  41.730  26.818  1.00  0.00    -0.237 OA
ATOM     74  O   UNL A   1      45.160  42.553  28.738  1.00  0.00    -0.744 OA
ENDBRANCH  70  71
ENDBRANCH  51  65
BRANCH  52  75
ATOM     75  C   UNL A   1      43.209  28.884  34.424  1.00  0.00    -0.014 A 
ATOM     76  C   UNL A   1      44.183  28.262  35.224  1.00  0.00     0.010 A 
ATOM     77  C   UNL A   1      41.950  28.269  34.281  1.00  0.00     0.010 A 
ATOM     78  C   UNL A   1      43.908  27.047  35.860  1.00  0.00     0.020 A 
ATOM     79  C   UNL A   1      41.661  27.070  34.939  1.00  0.00     0.020 A 
ATOM     80  C   UNL A   1      42.646  26.462  35.718  1.00  0.00     0.054 A 
BRANCH  80  81
ATOM     81  S   UNL A   1      42.289  24.920  36.606  1.00  0.00     0.124 S 
ATOM     82  O   UNL A   1      42.166  23.960  35.513  1.00  0.00    -0.237 OA
ATOM     83  O   UNL A   1      43.469  24.766  37.454  1.00  0.00    -0.237 OA
ATOM     84  O   UNL A   1      41.050  25.216  37.323  1.00  0.00    -0.744 OA
ENDBRANCH  80  81
ENDBRANCH  52  75
BRANCH  64  85
ATOM     85  C   UNL A   1      45.777  30.513  28.131  1.00  0.00    -0.014 A 
ATOM     86  C   UNL A   1      47.148  30.217  28.025  1.00  0.00     0.010 A 
ATOM     87  C   UNL A   1      44.889  29.973  27.182  1.00  0.00     0.010 A 
ATOM     88  C   UNL A   1      47.625  29.435  26.967  1.00  0.00     0.020 A 
ATOM     89  C   UNL A   1      45.357  29.164  26.142  1.00  0.00     0.020 A 
ATOM     90  C   UNL A   1      46.726  28.915  26.031  1.00  0.00     0.054 A 
BRANCH  90  91
ATOM     91  S   UNL A   1      47.365  27.885  24.682  1.00  0.00     0.124 S 
ATOM     92  O   UNL A   1      48.808  28.051  24.830  1.00  0.00    -0.237 OA
ATOM     93  O   UNL A   1      46.848  26.561  25.018  1.00  0.00    -0.237 OA
ATOM     94  O   UNL A   1      46.789  28.486  23.482  1.00  0.00    -0.744 OA
ENDBRANCH  90  91
ENDBRANCH  64  85
ENDBRANCH  38  39
ENDBRANCH  31  33
ENDBRANCH  30  31
ENDBRANCH  29  30
ENDBRANCH  28  29
ENDBRANCH  27  28
ENDBRANCH   1  27
TORSDOF 23
ENDMDL
MODEL 3
REMARK VINA RESULT:      -8.8      6.928     17.043
REMARK SMILES CC[C@@H]1CC[C@](C[C@@H]2CCCc3ccccc32)(C(=O)OCCOCCOCCOC(=O)c2ccc(-c3c4nc(c(-c5ccc(S(=O)(=O)[O-])cc5)c5ccc([nH]5)c(-c5ccc(S(=O)(=O)[O-])cc5)c5nc(c(-c6ccc(S(=O)(=O)[O-])cc6)c6ccc3[nH]6)C=C5)C=C4)cc2)C1
REMARK SMILES IDX 25 1 24 2 23 3 22 4 21 5 20 6 18 7 19 8 6 9 3 10 4 11 92 12
REMARK SMILES IDX 5 13 2 14 1 15 7 16 8 17 9 18 17 19 10 20 12 21 16 22 11 23
REMARK SMILES IDX 13 24 15 25 14 26 26 27 27 28 28 29 29 30 30 31 31 32 32 33
REMARK SMILES IDX 33 34 91 35 34 36 90 37 35 38 36 39 37 40 84 41 38 42 89 43
REMARK SMILES IDX 83 44 85 45 39 46 88 47 82 48 81 49 40 51 70 52 51 53 69 54
REMARK SMILES IDX 52 55 55 56 68 57 86 58 53 59 54 60 67 62 87 63 56 64 41 65
REMARK SMILES IDX 42 66 50 67 43 68 49 69 44 70 45 71 46 72 47 73 48 74 71 75
REMARK SMILES IDX 72 76 80 77 73 78 79 79 74 80 75 81 76 82 77 83 78 84 57 85
REMARK SMILES IDX 58 86 66 87 59 88 65 89 60 90 61 91 62 92 63 93 64 94
REMARK H PARENT 85 50 55 61
REMARK Flexibility Score: inf
ROOT
ATOM      1  C   UNL A   1      41.248  25.458  27.823  1.00  0.00     0.188 C 
ENDROOT
BRANCH   1   2
ATOM      2  C   UNL A   1      39.715  25.595  27.837  1.00  0.00     0.188 C 
BRANCH   2   3
ATOM      3  O   UNL A   1      38.981  24.419  27.605  1.00  0.00    -0.376 OA
BRANCH   3   4
ATOM      4  C   UNL A   1      38.414  24.162  26.333  1.00  0.00     0.202 C 
BRANCH   4   5
ATOM      5  C   UNL A   1      37.002  23.616  26.051  1.00  0.00     0.261 C 
BRANCH   5   6
ATOM      6  O   UNL A   1      36.071  24.440  25.349  1.00  0.00    -0.463 OA
BRANCH   6   7
ATOM      7  C   UNL A   1      34.755  24.261  25.658  1.00  0.00     0.312 C 
ATOM      8  O   UNL A   1      34.368  24.006  26.794  1.00  0.00    -0.252 OA
BRANCH   7   9
ATOM      9  C   UNL A   1      33.803  24.463  24.437  1.00  0.00     0.069 C 
ATOM     10  C   UNL A   1      32.919  22.593  23.102  1.00  0.00    -0.010 C 
ATOM     11  C   UNL A   1      34.419  22.661  22.880  1.00  0.00     0.005 C 
ATOM     12  C   UNL A   1      32.748  23.328  24.438  1.00  0.00     0.022 C 
ATOM     13  C   UNL A   1      34.704  24.136  23.214  1.00  0.00     0.019 C 
BRANCH  10  14
ATOM     14  C   UNL A   1      32.276  21.210  23.047  1.00  0.00     0.000 C 
ATOM     15  C   UNL A   1      32.213  20.573  24.434  1.00  0.00     0.004 C 
ENDBRANCH  10  14
BRANCH   9  16
ATOM     16  C   UNL A   1      33.174  25.905  24.504  1.00  0.00     0.027 C 
BRANCH  16  17
ATOM     17  C   UNL A   1      31.724  26.308  24.913  1.00  0.00     0.020 C 
ATOM     18  C   UNL A   1      30.567  26.094  23.927  1.00  0.00     0.009 C 
ATOM     19  C   UNL A   1      31.685  27.652  25.580  1.00  0.00    -0.042 A 
ATOM     20  C   UNL A   1      30.262  27.263  23.010  1.00  0.00     0.005 C 
ATOM     21  C   UNL A   1      31.162  28.769  24.917  1.00  0.00    -0.045 A 
ATOM     22  C   UNL A   1      32.303  27.796  26.834  1.00  0.00     0.004 A 
ATOM     23  C   UNL A   1      30.331  28.645  23.666  1.00  0.00     0.036 C 
ATOM     24  C   UNL A   1      31.415  30.038  25.458  1.00  0.00     0.004 A 
ATOM     25  C   UNL A   1      32.516  29.056  27.375  1.00  0.00     0.000 A 
ATOM     26  C   UNL A   1      32.108  30.180  26.664  1.00  0.00     0.000 A 
ENDBRANCH  16  17
ENDBRANCH   9  16
ENDBRANCH   7   9
ENDBRANCH   6   7
ENDBRANCH   5   6
ENDBRANCH   4   5
ENDBRANCH   3   4
ENDBRANCH   2   3
ENDBRANCH   1   2
BRANCH   1  27
ATOM     27  O   UNL A   1      41.898  24.699  26.824  1.00  0.00    -0.376 OA
BRANCH  27  28
ATOM     28  C   UNL A   1      42.500  23.468  27.195  1.00  0.00     0.202 C 
BRANCH  28  29
ATOM     29  C   UNL A   1      43.686  22.872  26.411  1.00  0.00     0.261 C 
BRANCH  29  30
ATOM     30  O   UNL A   1      44.570  23.805  25.766  1.00  0.00    -0.460 OA
BRANCH  30  31
ATOM     31  C   UNL A   1      45.741  24.034  26.406  1.00  0.00     0.338 C 
ATOM     32  O   UNL A   1      46.627  23.213  26.634  1.00  0.00    -0.246 OA
BRANCH  31  33
ATOM     33  C   UNL A   1      45.936  25.484  26.611  1.00  0.00     0.060 A 
ATOM     34  C   UNL A   1      46.463  25.918  27.837  1.00  0.00     0.016 A 
ATOM     35  C   UNL A   1      45.547  26.414  25.647  1.00  0.00     0.016 A 
ATOM     36  C   UNL A   1      46.572  27.278  28.113  1.00  0.00     0.010 A 
ATOM     37  C   UNL A   1      45.635  27.783  25.938  1.00  0.00     0.010 A 
ATOM     38  C   UNL A   1      46.116  28.220  27.186  1.00  0.00    -0.014 A 
BRANCH  38  39
ATOM     39  C   UNL A   1      45.940  29.627  27.630  1.00  0.00     0.031 A 
ATOM     40  C   UNL A   1      44.687  29.985  28.384  1.00  0.00     0.074 A 
ATOM     41  C   UNL A   1      46.895  30.555  27.441  1.00  0.00     0.049 A 
ATOM     42  N   UNL A   1      44.303  31.142  28.857  1.00  0.00    -0.248 NA
ATOM     43  C   UNL A   1      43.742  28.885  28.642  1.00  0.00     0.031 C 
ATOM     44  C   UNL A   1      48.186  30.325  26.795  1.00  0.00     0.029 A 
ATOM     45  N   UNL A   1      46.918  31.887  27.777  1.00  0.00    -0.354 N 
ATOM     46  C   UNL A   1      43.067  30.915  29.452  1.00  0.00     0.074 A 
ATOM     47  C   UNL A   1      42.756  29.516  29.260  1.00  0.00     0.031 C 
ATOM     48  C   UNL A   1      48.869  31.483  26.766  1.00  0.00     0.029 A 
ATOM     49  C   UNL A   1      48.052  32.542  27.359  1.00  0.00     0.049 A 
ATOM     50  H   UNL A   1      46.192  32.330  28.271  1.00  0.00     0.167 HD
ATOM     51  C   UNL A   1      42.260  31.790  30.097  1.00  0.00     0.031 A 
ATOM     52  C   UNL A   1      48.380  33.849  27.420  1.00  0.00     0.031 A 
ATOM     53  C   UNL A   1      42.560  33.186  30.275  1.00  0.00     0.049 A 
ATOM     54  C   UNL A   1      47.433  34.824  28.072  1.00  0.00     0.074 A 
ATOM     55  C   UNL A   1      41.807  34.152  30.919  1.00  0.00     0.029 A 
ATOM     56  N   UNL A   1      43.698  33.819  29.797  1.00  0.00    -0.354 N 
ATOM     57  N   UNL A   1      46.270  34.595  28.637  1.00  0.00    -0.248 NA
ATOM     58  C   UNL A   1      47.848  36.234  28.105  1.00  0.00     0.031 C 
ATOM     59  C   UNL A   1      42.458  35.382  30.775  1.00  0.00     0.029 A 
ATOM     60  C   UNL A   1      43.653  35.170  30.105  1.00  0.00     0.049 A 
ATOM     61  H   UNL A   1      44.430  33.375  29.312  1.00  0.00     0.167 HD
ATOM     62  C   UNL A   1      45.828  35.826  29.114  1.00  0.00     0.074 A 
ATOM     63  C   UNL A   1      46.857  36.792  28.788  1.00  0.00     0.031 C 
ATOM     64  C   UNL A   1      44.677  36.127  29.768  1.00  0.00     0.031 A 
BRANCH  51  65
ATOM     65  C   UNL A   1      40.940  31.267  30.602  1.00  0.00    -0.014 A 
ATOM     66  C   UNL A   1      39.760  31.390  29.848  1.00  0.00     0.010 A 
ATOM     67  C   UNL A   1      40.887  30.636  31.860  1.00  0.00     0.010 A 
ATOM     68  C   UNL A   1      38.541  30.938  30.364  1.00  0.00     0.020 A 
ATOM     69  C   UNL A   1      39.677  30.155  32.365  1.00  0.00     0.020 A 
ATOM     70  C   UNL A   1      38.508  30.329  31.623  1.00  0.00     0.054 A 
BRANCH  70  71
ATOM     71  S   UNL A   1      36.914  29.755  32.271  1.00  0.00     0.124 S 
ATOM     72  O   UNL A   1      37.325  28.687  33.178  1.00  0.00    -0.237 OA
ATOM     73  O   UNL A   1      36.378  30.953  32.912  1.00  0.00    -0.237 OA
ATOM     74  O   UNL A   1      36.193  29.316  31.079  1.00  0.00    -0.744 OA
ENDBRANCH  70  71
ENDBRANCH  51  65
BRANCH  52  75
ATOM     75  C   UNL A   1      49.655  34.321  26.806  1.00  0.00    -0.014 A 
ATOM     76  C   UNL A   1      50.840  34.399  27.558  1.00  0.00     0.010 A 
ATOM     77  C   UNL A   1      49.683  34.695  25.449  1.00  0.00     0.010 A 
ATOM     78  C   UNL A   1      52.025  34.849  26.967  1.00  0.00     0.020 A 
ATOM     79  C   UNL A   1      50.871  35.117  24.848  1.00  0.00     0.020 A 
ATOM     80  C   UNL A   1      52.035  35.199  25.613  1.00  0.00     0.054 A 
BRANCH  80  81
ATOM     81  S   UNL A   1      53.598  35.717  24.852  1.00  0.00     0.124 S 
ATOM     82  O   UNL A   1      53.160  36.768  23.939  1.00  0.00    -0.237 OA
ATOM     83  O   UNL A   1      54.376  36.163  26.005  1.00  0.00    -0.237 OA
ATOM     84  O   UNL A   1      54.089  34.498  24.213  1.00  0.00    -0.744 OA
ENDBRANCH  80  81
ENDBRANCH  52  75
BRANCH  64  85
ATOM     85  C   UNL A   1      44.479  37.555  30.213  1.00  0.00    -0.014 A 
ATOM     86  C   UNL A   1      44.879  37.993  31.488  1.00  0.00     0.010 A 
ATOM     87  C   UNL A   1      43.925  38.488  29.316  1.00  0.00     0.010 A 
ATOM     88  C   UNL A   1      44.687  39.324  31.874  1.00  0.00     0.020 A 
ATOM     89  C   UNL A   1      43.762  39.826  29.685  1.00  0.00     0.020 A 
ATOM     90  C   UNL A   1      44.128  40.232  30.969  1.00  0.00     0.054 A 
BRANCH  90  91
ATOM     91  S   UNL A   1      43.911  41.958  31.482  1.00  0.00     0.124 S 
ATOM     92  O   UNL A   1      43.833  42.649  30.198  1.00  0.00    -0.237 OA
ATOM     93  O   UNL A   1      42.668  41.912  32.247  1.00  0.00    -0.237 OA
ATOM     94  O   UNL A   1      45.110  42.241  32.268  1.00  0.00    -0.744 OA
ENDBRANCH  90  91
ENDBRANCH  64  85
ENDBRANCH  38  39
ENDBRANCH  31  33
ENDBRANCH  30  31
ENDBRANCH  29  30
ENDBRANCH  28  29
ENDBRANCH  27  28
ENDBRANCH   1  27
TORSDOF 23
ENDMDL
