MODEL 1
REMARK VINA RESULT:      -9.8      0.000      0.000
REMARK SMILES CCc1c(C)nn(CC(=O)N2CCC[C@@H](Cn3cc(C(=O)OCCOCCOCCOC(=O)c4ccc(-c5c6nc(c(-c7ccc(S(=O)(=O)[O-])cc7)c7ccc([nH]7)c(-c7ccc(S(=O)(=O)[O-])cc7)c7nc(c(-c8ccc(S(=O)(=O)[O-])cc8)c8ccc5[nH]8)C=C7)C=C6)cc4)nn3)C2)c1C
REMARK SMILES IDX 25 1 24 2 23 3 22 4 20 5 21 6 19 7 17 8 18 9 95 10 94 11
REMARK SMILES IDX 16 12 15 13 11 14 12 15 96 16 13 17 14 18 9 19 10 20 8 21
REMARK SMILES IDX 7 22 3 23 4 24 97 25 5 26 6 27 98 28 2 29 1 30 26 31 27 32
REMARK SMILES IDX 28 33 29 34 30 35 31 36 32 37 33 38 34 39 35 40 93 41 36 42
REMARK SMILES IDX 92 43 37 44 38 45 39 46 86 47 40 48 91 49 85 50 87 51 41 52
REMARK SMILES IDX 90 53 84 54 83 55 42 57 72 58 53 59 71 60 54 61 57 62 70 63
REMARK SMILES IDX 88 64 55 65 56 66 69 68 89 69 58 70 43 71 44 72 52 73 45 74
REMARK SMILES IDX 51 75 46 76 47 77 48 78 49 79 50 80 73 81 74 82 82 83 75 84
REMARK SMILES IDX 81 85 76 86 77 87 78 88 79 89 80 90 59 91 60 92 68 93 61 94
REMARK SMILES IDX 67 95 62 96 63 97 64 98 65 99 66 100
REMARK H PARENT 87 56 57 67
REMARK Flexibility Score: inf
ROOT
ATOM      1  O   UNL A   1      32.182  25.573  26.522  1.00  0.00    -0.376 OA
ENDROOT
BRANCH   1   2
ATOM      2  C   UNL A   1      33.567  25.502  26.217  1.00  0.00     0.202 C 
BRANCH   2   3
ATOM      3  C   UNL A   1      34.283  24.159  25.965  1.00  0.00     0.261 C 
BRANCH   3   4
ATOM      4  O   UNL A   1      34.332  23.283  27.097  1.00  0.00    -0.458 OA
BRANCH   4   5
ATOM      5  C   UNL A   1      33.219  22.518  27.295  1.00  0.00     0.360 C 
ATOM      6  O   UNL A   1      32.496  22.596  28.272  1.00  0.00    -0.244 OA
BRANCH   5   7
ATOM      7  C   UNL A   1      32.929  21.654  26.159  1.00  0.00     0.190 A 
ATOM      8  N   UNL A   1      32.221  20.802  24.318  1.00  0.00    -0.251 N 
ATOM      9  C   UNL A   1      31.803  21.588  25.358  1.00  0.00     0.146 A 
ATOM     10  N   UNL A   1      33.308  20.098  24.668  1.00  0.00    -0.067 NA
ATOM     11  N   UNL A   1      33.812  20.684  25.745  1.00  0.00    -0.123 NA
BRANCH   8  12
ATOM     12  C   UNL A   1      31.983  21.065  22.908  1.00  0.00     0.151 C 
BRANCH  12  13
ATOM     13  C   UNL A   1      32.730  22.329  22.401  1.00  0.00     0.030 C 
ATOM     14  N   UNL A   1      32.575  24.842  22.388  1.00  0.00    -0.341 N 
ATOM     15  C   UNL A   1      33.933  24.949  22.926  1.00  0.00     0.119 C 
ATOM     16  C   UNL A   1      31.912  23.595  22.700  1.00  0.00     0.125 C 
ATOM     17  C   UNL A   1      34.806  23.773  22.510  1.00  0.00     0.022 C 
ATOM     18  C   UNL A   1      34.171  22.447  22.917  1.00  0.00     0.009 C 
BRANCH  14  19
ATOM     19  C   UNL A   1      31.978  25.968  21.838  1.00  0.00     0.244 C 
ATOM     20  O   UNL A   1      31.551  25.912  20.673  1.00  0.00    -0.273 OA
BRANCH  19  21
ATOM     21  C   UNL A   1      31.995  27.352  22.486  1.00  0.00     0.244 C 
BRANCH  21  22
ATOM     22  N   UNL A   1      30.808  28.189  22.481  1.00  0.00    -0.260 N 
ATOM     23  C   UNL A   1      28.772  29.014  22.742  1.00  0.00    -0.004 A 
ATOM     24  C   UNL A   1      29.607  29.865  21.961  1.00  0.00     0.063 A 
ATOM     25  C   UNL A   1      29.590  27.942  23.077  1.00  0.00     0.039 A 
ATOM     26  C   UNL A   1      29.270  31.127  21.254  1.00  0.00     0.069 C 
ATOM     27  N   UNL A   1      30.848  29.377  21.849  1.00  0.00    -0.177 NA
ATOM     28  C   UNL A   1      29.299  26.711  23.861  1.00  0.00     0.066 C 
BRANCH  23  29
ATOM     29  C   UNL A   1      27.324  29.201  23.078  1.00  0.00     0.036 C 
ATOM     30  C   UNL A   1      27.007  30.569  23.664  1.00  0.00     0.009 C 
ENDBRANCH  23  29
ENDBRANCH  21  22
ENDBRANCH  19  21
ENDBRANCH  14  19
ENDBRANCH  12  13
ENDBRANCH   8  12
ENDBRANCH   5   7
ENDBRANCH   4   5
ENDBRANCH   3   4
ENDBRANCH   2   3
ENDBRANCH   1   2
BRANCH   1  31
ATOM     31  C   UNL A   1      31.531  26.824  26.687  1.00  0.00     0.188 C 
BRANCH  31  32
ATOM     32  C   UNL A   1      32.070  28.095  26.000  1.00  0.00     0.188 C 
BRANCH  32  33
ATOM     33  O   UNL A   1      31.126  29.108  25.726  1.00  0.00    -0.376 OA
BRANCH  33  34
ATOM     34  C   UNL A   1      31.510  30.446  25.439  1.00  0.00     0.202 C 
BRANCH  34  35
ATOM     35  C   UNL A   1      31.977  31.465  26.481  1.00  0.00     0.261 C 
BRANCH  35  36
ATOM     36  O   UNL A   1      33.303  31.322  26.928  1.00  0.00    -0.460 OA
BRANCH  36  37
ATOM     37  C   UNL A   1      33.644  32.185  27.909  1.00  0.00     0.338 C 
ATOM     38  O   UNL A   1      33.214  33.312  28.077  1.00  0.00    -0.246 OA
BRANCH  37  39
ATOM     39  C   UNL A   1      34.650  31.536  28.749  1.00  0.00     0.060 A 
ATOM     40  C   UNL A   1      35.077  32.251  29.869  1.00  0.00     0.016 A 
ATOM     41  C   UNL A   1      35.386  30.486  28.185  1.00  0.00     0.016 A 
ATOM     42  C   UNL A   1      36.395  32.127  30.228  1.00  0.00     0.010 A 
ATOM     43  C   UNL A   1      36.708  30.395  28.517  1.00  0.00     0.010 A 
ATOM     44  C   UNL A   1      37.206  31.296  29.452  1.00  0.00    -0.014 A 
BRANCH  44  45
ATOM     45  C   UNL A   1      38.633  31.411  29.611  1.00  0.00     0.031 A 
ATOM     46  C   UNL A   1      39.358  30.194  29.221  1.00  0.00     0.074 A 
ATOM     47  C   UNL A   1      39.208  32.574  29.960  1.00  0.00     0.049 A 
ATOM     48  N   UNL A   1      39.954  29.353  29.995  1.00  0.00    -0.248 NA
ATOM     49  C   UNL A   1      39.236  29.761  27.821  1.00  0.00     0.031 C 
ATOM     50  C   UNL A   1      38.597  33.904  30.050  1.00  0.00     0.029 A 
ATOM     51  N   UNL A   1      40.523  32.826  30.172  1.00  0.00    -0.354 N 
ATOM     52  C   UNL A   1      40.478  28.393  29.143  1.00  0.00     0.074 A 
ATOM     53  C   UNL A   1      39.809  28.561  27.878  1.00  0.00     0.031 C 
ATOM     54  C   UNL A   1      39.577  34.837  30.042  1.00  0.00     0.029 A 
ATOM     55  C   UNL A   1      40.868  34.164  30.068  1.00  0.00     0.049 A 
ATOM     56  H   UNL A   1      41.176  32.120  30.383  1.00  0.00     0.167 HD
ATOM     57  C   UNL A   1      41.627  27.729  29.437  1.00  0.00     0.031 A 
ATOM     58  C   UNL A   1      42.126  34.646  29.900  1.00  0.00     0.031 A 
ATOM     59  C   UNL A   1      41.994  27.874  30.823  1.00  0.00     0.049 A 
ATOM     60  C   UNL A   1      43.068  33.563  30.299  1.00  0.00     0.074 A 
ATOM     61  C   UNL A   1      41.370  27.589  32.021  1.00  0.00     0.029 A 
ATOM     62  N   UNL A   1      42.998  28.769  31.119  1.00  0.00    -0.354 N 
ATOM     63  N   UNL A   1      43.192  33.132  31.523  1.00  0.00    -0.248 NA
ATOM     64  C   UNL A   1      43.530  32.641  29.270  1.00  0.00     0.031 C 
ATOM     65  C   UNL A   1      41.716  28.667  32.885  1.00  0.00     0.029 A 
ATOM     66  C   UNL A   1      42.579  29.517  32.190  1.00  0.00     0.049 A 
ATOM     67  H   UNL A   1      43.860  28.855  30.650  1.00  0.00     0.167 HD
ATOM     68  C   UNL A   1      43.340  31.755  31.408  1.00  0.00     0.074 A 
ATOM     69  C   UNL A   1      43.638  31.524  29.996  1.00  0.00     0.031 C 
ATOM     70  C   UNL A   1      42.926  30.909  32.399  1.00  0.00     0.031 A 
BRANCH  57  71
ATOM     71  C   UNL A   1      42.611  27.312  28.376  1.00  0.00    -0.014 A 
ATOM     72  C   UNL A   1      43.051  25.978  28.344  1.00  0.00     0.010 A 
ATOM     73  C   UNL A   1      43.318  28.243  27.582  1.00  0.00     0.010 A 
ATOM     74  C   UNL A   1      44.179  25.609  27.599  1.00  0.00     0.020 A 
ATOM     75  C   UNL A   1      44.407  27.877  26.796  1.00  0.00     0.020 A 
ATOM     76  C   UNL A   1      44.855  26.567  26.841  1.00  0.00     0.054 A 
BRANCH  76  77
ATOM     77  S   UNL A   1      46.373  26.110  25.974  1.00  0.00     0.124 S 
ATOM     78  O   UNL A   1      46.053  26.482  24.600  1.00  0.00    -0.237 OA
ATOM     79  O   UNL A   1      47.372  26.940  26.643  1.00  0.00    -0.237 OA
ATOM     80  O   UNL A   1      46.492  24.676  26.226  1.00  0.00    -0.744 OA
ENDBRANCH  76  77
ENDBRANCH  57  71
BRANCH  58  81
ATOM     81  C   UNL A   1      42.545  35.820  29.091  1.00  0.00    -0.014 A 
ATOM     82  C   UNL A   1      41.977  36.061  27.826  1.00  0.00     0.010 A 
ATOM     83  C   UNL A   1      43.304  36.859  29.672  1.00  0.00     0.010 A 
ATOM     84  C   UNL A   1      42.103  37.315  27.202  1.00  0.00     0.020 A 
ATOM     85  C   UNL A   1      43.446  38.104  29.051  1.00  0.00     0.020 A 
ATOM     86  C   UNL A   1      42.820  38.336  27.829  1.00  0.00     0.054 A 
BRANCH  86  87
ATOM     87  S   UNL A   1      42.816  40.006  27.115  1.00  0.00     0.124 S 
ATOM     88  O   UNL A   1      43.941  39.950  26.186  1.00  0.00    -0.237 OA
ATOM     89  O   UNL A   1      41.493  40.087  26.502  1.00  0.00    -0.237 OA
ATOM     90  O   UNL A   1      43.012  40.877  28.273  1.00  0.00    -0.744 OA
ENDBRANCH  86  87
ENDBRANCH  58  81
BRANCH  70  91
ATOM     91  C   UNL A   1      42.554  31.494  33.744  1.00  0.00    -0.014 A 
ATOM     92  C   UNL A   1      41.309  32.096  34.017  1.00  0.00     0.010 A 
ATOM     93  C   UNL A   1      43.438  31.275  34.815  1.00  0.00     0.010 A 
ATOM     94  C   UNL A   1      40.971  32.490  35.320  1.00  0.00     0.020 A 
ATOM     95  C   UNL A   1      43.100  31.648  36.119  1.00  0.00     0.020 A 
ATOM     96  C   UNL A   1      41.872  32.261  36.364  1.00  0.00     0.054 A 
BRANCH  96  97
ATOM     97  S   UNL A   1      41.410  32.723  38.059  1.00  0.00     0.124 S 
ATOM     98  O   UNL A   1      42.162  31.766  38.865  1.00  0.00    -0.237 OA
ATOM     99  O   UNL A   1      41.858  34.112  38.151  1.00  0.00    -0.237 OA
ATOM    100  O   UNL A   1      39.959  32.548  38.085  1.00  0.00    -0.744 OA
ENDBRANCH  96  97
ENDBRANCH  70  91
ENDBRANCH  44  45
ENDBRANCH  37  39
ENDBRANCH  36  37
ENDBRANCH  35  36
ENDBRANCH  34  35
ENDBRANCH  33  34
ENDBRANCH  32  33
ENDBRANCH  31  32
ENDBRANCH   1  31
TORSDOF 26
ENDMDL
MODEL 2
REMARK VINA RESULT:      -9.4      7.507     12.675
REMARK SMILES CCc1c(C)nn(CC(=O)N2CCC[C@@H](Cn3cc(C(=O)OCCOCCOCCOC(=O)c4ccc(-c5c6nc(c(-c7ccc(S(=O)(=O)[O-])cc7)c7ccc([nH]7)c(-c7ccc(S(=O)(=O)[O-])cc7)c7nc(c(-c8ccc(S(=O)(=O)[O-])cc8)c8ccc5[nH]8)C=C7)C=C6)cc4)nn3)C2)c1C
REMARK SMILES IDX 25 1 24 2 23 3 22 4 20 5 21 6 19 7 17 8 18 9 95 10 94 11
REMARK SMILES IDX 16 12 15 13 11 14 12 15 96 16 13 17 14 18 9 19 10 20 8 21
REMARK SMILES IDX 7 22 3 23 4 24 97 25 5 26 6 27 98 28 2 29 1 30 26 31 27 32
REMARK SMILES IDX 28 33 29 34 30 35 31 36 32 37 33 38 34 39 35 40 93 41 36 42
REMARK SMILES IDX 92 43 37 44 38 45 39 46 86 47 40 48 91 49 85 50 87 51 41 52
REMARK SMILES IDX 90 53 84 54 83 55 42 57 72 58 53 59 71 60 54 61 57 62 70 63
REMARK SMILES IDX 88 64 55 65 56 66 69 68 89 69 58 70 43 71 44 72 52 73 45 74
REMARK SMILES IDX 51 75 46 76 47 77 48 78 49 79 50 80 73 81 74 82 82 83 75 84
REMARK SMILES IDX 81 85 76 86 77 87 78 88 79 89 80 90 59 91 60 92 68 93 61 94
REMARK SMILES IDX 67 95 62 96 63 97 64 98 65 99 66 100
REMARK H PARENT 87 56 57 67
REMARK Flexibility Score: inf
ROOT
ATOM      1  O   UNL A   1      33.997  32.775  29.571  1.00  0.00    -0.376 OA
ENDROOT
BRANCH   1   2
ATOM      2  C   UNL A   1      33.855  34.001  28.870  1.00  0.00     0.202 C 
BRANCH   2   3
ATOM      3  C   UNL A   1      33.031  35.177  29.433  1.00  0.00     0.261 C 
BRANCH   3   4
ATOM      4  O   UNL A   1      33.610  35.829  30.568  1.00  0.00    -0.458 OA
BRANCH   4   5
ATOM      5  C   UNL A   1      33.111  35.451  31.781  1.00  0.00     0.360 C 
ATOM      6  O   UNL A   1      31.924  35.420  32.057  1.00  0.00    -0.244 OA
BRANCH   5   7
ATOM      7  C   UNL A   1      34.149  34.993  32.692  1.00  0.00     0.190 A 
ATOM      8  N   UNL A   1      35.506  33.834  33.890  1.00  0.00    -0.251 N 
ATOM      9  C   UNL A   1      34.197  33.861  33.487  1.00  0.00     0.146 A 
ATOM     10  N   UNL A   1      36.069  35.043  33.741  1.00  0.00    -0.067 NA
ATOM     11  N   UNL A   1      35.290  35.728  32.916  1.00  0.00    -0.123 NA
BRANCH   8  12
ATOM     12  C   UNL A   1      36.364  32.660  33.904  1.00  0.00     0.151 C 
BRANCH  12  13
ATOM     13  C   UNL A   1      37.504  32.766  34.954  1.00  0.00     0.030 C 
ATOM     14  N   UNL A   1      39.886  33.537  35.211  1.00  0.00    -0.341 N 
ATOM     15  C   UNL A   1      39.517  34.362  36.364  1.00  0.00     0.119 C 
ATOM     16  C   UNL A   1      38.796  33.276  34.297  1.00  0.00     0.125 C 
ATOM     17  C   UNL A   1      38.328  33.784  37.120  1.00  0.00     0.022 C 
ATOM     18  C   UNL A   1      37.131  33.591  36.194  1.00  0.00     0.009 C 
BRANCH  14  19
ATOM     19  C   UNL A   1      41.228  33.269  34.978  1.00  0.00     0.244 C 
ATOM     20  O   UNL A   1      41.561  32.117  34.652  1.00  0.00    -0.273 OA
BRANCH  19  21
ATOM     21  C   UNL A   1      42.367  34.235  35.300  1.00  0.00     0.244 C 
BRANCH  21  22
ATOM     22  N   UNL A   1      43.028  34.984  34.245  1.00  0.00    -0.260 N 
ATOM     23  C   UNL A   1      44.336  35.639  32.586  1.00  0.00    -0.004 A 
ATOM     24  C   UNL A   1      43.507  36.692  33.074  1.00  0.00     0.063 A 
ATOM     25  C   UNL A   1      43.986  34.539  33.359  1.00  0.00     0.039 A 
ATOM     26  C   UNL A   1      43.483  38.127  32.692  1.00  0.00     0.069 C 
ATOM     27  N   UNL A   1      42.690  36.271  34.046  1.00  0.00    -0.177 NA
ATOM     28  C   UNL A   1      44.509  33.146  33.352  1.00  0.00     0.066 C 
BRANCH  23  29
ATOM     29  C   UNL A   1      45.388  35.713  31.522  1.00  0.00     0.036 C 
ATOM     30  C   UNL A   1      46.795  35.449  32.038  1.00  0.00     0.009 C 
ENDBRANCH  23  29
ENDBRANCH  21  22
ENDBRANCH  19  21
ENDBRANCH  14  19
ENDBRANCH  12  13
ENDBRANCH   8  12
ENDBRANCH   5   7
ENDBRANCH   4   5
ENDBRANCH   3   4
ENDBRANCH   2   3
ENDBRANCH   1   2
BRANCH   1  31
ATOM     31  C   UNL A   1      35.231  32.410  30.169  1.00  0.00     0.188 C 
BRANCH  31  32
ATOM     32  C   UNL A   1      36.111  31.300  29.558  1.00  0.00     0.188 C 
BRANCH  32  33
ATOM     33  O   UNL A   1      37.394  31.133  30.124  1.00  0.00    -0.376 OA
BRANCH  33  34
ATOM     34  C   UNL A   1      38.455  32.045  29.877  1.00  0.00     0.202 C 
BRANCH  34  35
ATOM     35  C   UNL A   1      39.345  32.667  30.955  1.00  0.00     0.261 C 
BRANCH  35  36
ATOM     36  O   UNL A   1      40.140  33.752  30.544  1.00  0.00    -0.460 OA
BRANCH  36  37
ATOM     37  C   UNL A   1      41.438  33.435  30.352  1.00  0.00     0.338 C 
ATOM     38  O   UNL A   1      42.126  32.705  31.044  1.00  0.00    -0.246 OA
BRANCH  37  39
ATOM     39  C   UNL A   1      41.901  34.139  29.158  1.00  0.00     0.060 A 
ATOM     40  C   UNL A   1      43.226  33.916  28.780  1.00  0.00     0.016 A 
ATOM     41  C   UNL A   1      41.163  35.252  28.733  1.00  0.00     0.016 A 
ATOM     42  C   UNL A   1      43.913  34.974  28.241  1.00  0.00     0.010 A 
ATOM     43  C   UNL A   1      41.858  36.317  28.235  1.00  0.00     0.010 A 
ATOM     44  C   UNL A   1      43.237  36.189  28.107  1.00  0.00    -0.014 A 
BRANCH  44  45
ATOM     45  C   UNL A   1      44.022  37.370  27.857  1.00  0.00     0.031 A 
ATOM     46  C   UNL A   1      45.462  37.096  27.754  1.00  0.00     0.074 A 
ATOM     47  C   UNL A   1      43.444  38.559  27.621  1.00  0.00     0.049 A 
ATOM     48  N   UNL A   1      46.383  37.405  28.601  1.00  0.00    -0.248 NA
ATOM     49  C   UNL A   1      45.897  36.199  26.672  1.00  0.00     0.031 C 
ATOM     50  C   UNL A   1      42.027  38.854  27.386  1.00  0.00     0.029 A 
ATOM     51  N   UNL A   1      44.046  39.753  27.399  1.00  0.00    -0.354 N 
ATOM     52  C   UNL A   1      47.558  36.930  28.039  1.00  0.00     0.074 A 
ATOM     53  C   UNL A   1      47.172  36.006  27.004  1.00  0.00     0.031 C 
ATOM     54  C   UNL A   1      41.925  40.074  26.808  1.00  0.00     0.029 A 
ATOM     55  C   UNL A   1      43.247  40.679  26.750  1.00  0.00     0.049 A 
ATOM     56  H   UNL A   1      44.971  39.945  27.677  1.00  0.00     0.167 HD
ATOM     57  C   UNL A   1      48.752  37.545  28.254  1.00  0.00     0.031 A 
ATOM     58  C   UNL A   1      43.686  41.798  26.117  1.00  0.00     0.031 A 
ATOM     59  C   UNL A   1      48.693  38.463  29.363  1.00  0.00     0.049 A 
ATOM     60  C   UNL A   1      45.058  42.080  26.625  1.00  0.00     0.074 A 
ATOM     61  C   UNL A   1      48.368  38.341  30.700  1.00  0.00     0.029 A 
ATOM     62  N   UNL A   1      48.596  39.804  29.068  1.00  0.00    -0.354 N 
ATOM     63  N   UNL A   1      45.311  42.444  27.851  1.00  0.00    -0.248 NA
ATOM     64  C   UNL A   1      46.188  41.506  25.905  1.00  0.00     0.031 C 
ATOM     65  C   UNL A   1      47.645  39.527  31.015  1.00  0.00     0.029 A 
ATOM     66  C   UNL A   1      47.621  40.333  29.875  1.00  0.00     0.049 A 
ATOM     67  H   UNL A   1      49.129  40.294  28.401  1.00  0.00     0.167 HD
ATOM     68  C   UNL A   1      46.477  41.770  28.194  1.00  0.00     0.074 A 
ATOM     69  C   UNL A   1      47.022  41.288  26.928  1.00  0.00     0.031 C 
ATOM     70  C   UNL A   1      46.741  41.419  29.489  1.00  0.00     0.031 A 
BRANCH  57  71
ATOM     71  C   UNL A   1      49.824  37.615  27.199  1.00  0.00    -0.014 A 
ATOM     72  C   UNL A   1      49.710  36.799  26.061  1.00  0.00     0.010 A 
ATOM     73  C   UNL A   1      51.065  38.254  27.413  1.00  0.00     0.010 A 
ATOM     74  C   UNL A   1      50.806  36.588  25.214  1.00  0.00     0.020 A 
ATOM     75  C   UNL A   1      52.145  38.093  26.548  1.00  0.00     0.020 A 
ATOM     76  C   UNL A   1      52.019  37.229  25.474  1.00  0.00     0.054 A 
BRANCH  76  77
ATOM     77  S   UNL A   1      53.459  36.864  24.445  1.00  0.00     0.124 S 
ATOM     78  O   UNL A   1      54.148  38.150  24.433  1.00  0.00    -0.237 OA
ATOM     79  O   UNL A   1      54.114  35.798  25.198  1.00  0.00    -0.237 OA
ATOM     80  O   UNL A   1      52.874  36.452  23.171  1.00  0.00    -0.744 OA
ENDBRANCH  76  77
ENDBRANCH  57  71
BRANCH  58  81
ATOM     81  C   UNL A   1      43.149  42.403  24.871  1.00  0.00    -0.014 A 
ATOM     82  C   UNL A   1      43.729  43.566  24.329  1.00  0.00     0.010 A 
ATOM     83  C   UNL A   1      42.241  41.690  24.059  1.00  0.00     0.010 A 
ATOM     84  C   UNL A   1      43.465  43.957  23.004  1.00  0.00     0.020 A 
ATOM     85  C   UNL A   1      41.962  42.081  22.745  1.00  0.00     0.020 A 
ATOM     86  C   UNL A   1      42.599  43.199  22.213  1.00  0.00     0.054 A 
BRANCH  86  87
ATOM     87  S   UNL A   1      42.414  43.595  20.450  1.00  0.00     0.124 S 
ATOM     88  O   UNL A   1      43.631  44.351  20.172  1.00  0.00    -0.237 OA
ATOM     89  O   UNL A   1      42.334  42.274  19.834  1.00  0.00    -0.237 OA
ATOM     90  O   UNL A   1      41.176  44.373  20.400  1.00  0.00    -0.744 OA
ENDBRANCH  86  87
ENDBRANCH  58  81
BRANCH  70  91
ATOM     91  C   UNL A   1      45.887  42.008  30.590  1.00  0.00    -0.014 A 
ATOM     92  C   UNL A   1      46.209  43.196  31.278  1.00  0.00     0.010 A 
ATOM     93  C   UNL A   1      44.629  41.424  30.821  1.00  0.00     0.010 A 
ATOM     94  C   UNL A   1      45.306  43.767  32.188  1.00  0.00     0.020 A 
ATOM     95  C   UNL A   1      43.717  41.998  31.712  1.00  0.00     0.020 A 
ATOM     96  C   UNL A   1      44.063  43.162  32.397  1.00  0.00     0.054 A 
BRANCH  96  97
ATOM     97  S   UNL A   1      42.876  43.932  33.534  1.00  0.00     0.124 S 
ATOM     98  O   UNL A   1      42.210  42.778  34.129  1.00  0.00    -0.237 OA
ATOM     99  O   UNL A   1      43.738  44.696  34.437  1.00  0.00    -0.237 OA
ATOM    100  O   UNL A   1      42.035  44.749  32.660  1.00  0.00    -0.744 OA
ENDBRANCH  96  97
ENDBRANCH  70  91
ENDBRANCH  44  45
ENDBRANCH  37  39
ENDBRANCH  36  37
ENDBRANCH  35  36
ENDBRANCH  34  35
ENDBRANCH  33  34
ENDBRANCH  32  33
ENDBRANCH  31  32
ENDBRANCH   1  31
TORSDOF 26
ENDMDL
MODEL 3
REMARK VINA RESULT:      -9.1      6.595     12.626
REMARK SMILES CCc1c(C)nn(CC(=O)N2CCC[C@@H](Cn3cc(C(=O)OCCOCCOCCOC(=O)c4ccc(-c5c6nc(c(-c7ccc(S(=O)(=O)[O-])cc7)c7ccc([nH]7)c(-c7ccc(S(=O)(=O)[O-])cc7)c7nc(c(-c8ccc(S(=O)(=O)[O-])cc8)c8ccc5[nH]8)C=C7)C=C6)cc4)nn3)C2)c1C
REMARK SMILES IDX 25 1 24 2 23 3 22 4 20 5 21 6 19 7 17 8 18 9 95 10 94 11
REMARK SMILES IDX 16 12 15 13 11 14 12 15 96 16 13 17 14 18 9 19 10 20 8 21
REMARK SMILES IDX 7 22 3 23 4 24 97 25 5 26 6 27 98 28 2 29 1 30 26 31 27 32
REMARK SMILES IDX 28 33 29 34 30 35 31 36 32 37 33 38 34 39 35 40 93 41 36 42
REMARK SMILES IDX 92 43 37 44 38 45 39 46 86 47 40 48 91 49 85 50 87 51 41 52
REMARK SMILES IDX 90 53 84 54 83 55 42 57 72 58 53 59 71 60 54 61 57 62 70 63
REMARK SMILES IDX 88 64 55 65 56 66 69 68 89 69 58 70 43 71 44 72 52 73 45 74
REMARK SMILES IDX 51 75 46 76 47 77 48 78 49 79 50 80 73 81 74 82 82 83 75 84
REMARK SMILES IDX 81 85 76 86 77 87 78 88 79 89 80 90 59 91 60 92 68 93 61 94
REMARK SMILES IDX 67 95 62 96 63 97 64 98 65 99 66 100
REMARK H PARENT 87 56 57 67
REMARK Flexibility Score: inf
ROOT
ATOM      1  O   UNL A   1      33.418  34.257  30.143  1.00  0.00    -0.376 OA
ENDROOT
BRANCH   1   2
ATOM      2  C   UNL A   1      34.317  34.646  29.115  1.00  0.00     0.202 C 
BRANCH   2   3
ATOM      3  C   UNL A   1      34.680  33.707  27.946  1.00  0.00     0.261 C 
BRANCH   3   4
ATOM      4  O   UNL A   1      34.023  32.435  27.969  1.00  0.00    -0.458 OA
BRANCH   4   5
ATOM      5  C   UNL A   1      34.787  31.373  27.580  1.00  0.00     0.360 C 
ATOM      6  O   UNL A   1      36.002  31.332  27.664  1.00  0.00    -0.244 OA
BRANCH   5   7
ATOM      7  C   UNL A   1      33.983  30.243  27.137  1.00  0.00     0.190 A 
ATOM      8  N   UNL A   1      33.106  28.611  26.049  1.00  0.00    -0.251 N 
ATOM      9  C   UNL A   1      33.592  29.877  25.861  1.00  0.00     0.146 A 
ATOM     10  N   UNL A   1      32.808  28.409  27.341  1.00  0.00    -0.067 NA
ATOM     11  N   UNL A   1      33.435  29.352  28.029  1.00  0.00    -0.123 NA
BRANCH   8  12
ATOM     12  C   UNL A   1      33.394  27.460  25.209  1.00  0.00     0.151 C 
BRANCH  12  13
ATOM     13  C   UNL A   1      32.160  26.537  25.017  1.00  0.00     0.030 C 
ATOM     14  N   UNL A   1      30.804  24.779  26.205  1.00  0.00    -0.341 N 
ATOM     15  C   UNL A   1      29.571  25.530  25.954  1.00  0.00     0.119 C 
ATOM     16  C   UNL A   1      32.000  25.593  26.219  1.00  0.00     0.125 C 
ATOM     17  C   UNL A   1      29.658  26.355  24.677  1.00  0.00     0.022 C 
ATOM     18  C   UNL A   1      30.859  27.294  24.711  1.00  0.00     0.009 C 
BRANCH  14  19
ATOM     19  C   UNL A   1      30.715  23.454  26.609  1.00  0.00     0.244 C 
ATOM     20  O   UNL A   1      30.021  23.174  27.601  1.00  0.00    -0.273 OA
BRANCH  19  21
ATOM     21  C   UNL A   1      31.581  22.326  26.051  1.00  0.00     0.244 C 
BRANCH  21  22
ATOM     22  N   UNL A   1      32.660  22.608  25.119  1.00  0.00    -0.260 N 
ATOM     23  C   UNL A   1      34.612  23.059  24.182  1.00  0.00    -0.004 A 
ATOM     24  C   UNL A   1      33.542  23.060  23.239  1.00  0.00     0.063 A 
ATOM     25  C   UNL A   1      34.005  22.745  25.391  1.00  0.00     0.039 A 
ATOM     26  C   UNL A   1      33.559  23.405  21.794  1.00  0.00     0.069 C 
ATOM     27  N   UNL A   1      32.376  22.741  23.811  1.00  0.00    -0.177 NA
ATOM     28  C   UNL A   1      34.579  22.613  26.758  1.00  0.00     0.066 C 
BRANCH  23  29
ATOM     29  C   UNL A   1      36.054  23.382  23.938  1.00  0.00     0.036 C 
ATOM     30  C   UNL A   1      36.883  22.178  23.512  1.00  0.00     0.009 C 
ENDBRANCH  23  29
ENDBRANCH  21  22
ENDBRANCH  19  21
ENDBRANCH  14  19
ENDBRANCH  12  13
ENDBRANCH   8  12
ENDBRANCH   5   7
ENDBRANCH   4   5
ENDBRANCH   3   4
ENDBRANCH   2   3
ENDBRANCH   1   2
BRANCH   1  31
ATOM     31  C   UNL A   1      33.636  34.641  31.492  1.00  0.00     0.188 C 
BRANCH  31  32
ATOM     32  C   UNL A   1      35.066  34.811  32.047  1.00  0.00     0.188 C 
BRANCH  32  33
ATOM     33  O   UNL A   1      35.675  33.653  32.577  1.00  0.00    -0.376 OA
BRANCH  33  34
ATOM     34  C   UNL A   1      36.213  32.633  31.747  1.00  0.00     0.202 C 
BRANCH  34  35
ATOM     35  C   UNL A   1      37.705  32.414  31.483  1.00  0.00     0.261 C 
BRANCH  35  36
ATOM     36  O   UNL A   1      38.428  31.800  32.521  1.00  0.00    -0.460 OA
BRANCH  36  37
ATOM     37  C   UNL A   1      39.185  32.657  33.239  1.00  0.00     0.338 C 
ATOM     38  O   UNL A   1      39.715  33.679  32.841  1.00  0.00    -0.246 OA
BRANCH  37  39
ATOM     39  C   UNL A   1      39.279  32.139  34.603  1.00  0.00     0.060 A 
ATOM     40  C   UNL A   1      38.077  31.996  35.297  1.00  0.00     0.016 A 
ATOM     41  C   UNL A   1      40.525  32.213  35.240  1.00  0.00     0.016 A 
ATOM     42  C   UNL A   1      38.095  32.252  36.644  1.00  0.00     0.010 A 
ATOM     43  C   UNL A   1      40.535  32.507  36.573  1.00  0.00     0.010 A 
ATOM     44  C   UNL A   1      39.309  32.631  37.220  1.00  0.00    -0.014 A 
BRANCH  44  45
ATOM     45  C   UNL A   1      39.277  33.211  38.537  1.00  0.00     0.031 A 
ATOM     46  C   UNL A   1      39.807  34.581  38.579  1.00  0.00     0.074 A 
ATOM     47  C   UNL A   1      38.694  32.577  39.569  1.00  0.00     0.049 A 
ATOM     48  N   UNL A   1      40.918  34.979  39.097  1.00  0.00    -0.248 NA
ATOM     49  C   UNL A   1      39.105  35.595  37.775  1.00  0.00     0.031 C 
ATOM     50  C   UNL A   1      37.866  31.367  39.545  1.00  0.00     0.029 A 
ATOM     51  N   UNL A   1      38.610  32.982  40.859  1.00  0.00    -0.354 N 
ATOM     52  C   UNL A   1      40.945  36.347  38.875  1.00  0.00     0.074 A 
ATOM     53  C   UNL A   1      39.951  36.618  37.869  1.00  0.00     0.031 C 
ATOM     54  C   UNL A   1      37.167  31.295  40.702  1.00  0.00     0.029 A 
ATOM     55  C   UNL A   1      37.592  32.377  41.578  1.00  0.00     0.049 A 
ATOM     56  H   UNL A   1      39.221  33.647  41.252  1.00  0.00     0.167 HD
ATOM     57  C   UNL A   1      41.564  37.197  39.739  1.00  0.00     0.031 A 
ATOM     58  C   UNL A   1      37.076  32.826  42.751  1.00  0.00     0.031 A 
ATOM     59  C   UNL A   1      42.441  36.501  40.644  1.00  0.00     0.049 A 
ATOM     60  C   UNL A   1      38.070  33.772  43.333  1.00  0.00     0.074 A 
ATOM     61  C   UNL A   1      43.530  35.668  40.482  1.00  0.00     0.029 A 
ATOM     62  N   UNL A   1      41.987  36.290  41.927  1.00  0.00    -0.354 N 
ATOM     63  N   UNL A   1      39.243  33.406  43.768  1.00  0.00    -0.248 NA
ATOM     64  C   UNL A   1      37.947  35.186  43.003  1.00  0.00     0.031 C 
ATOM     65  C   UNL A   1      43.388  34.672  41.491  1.00  0.00     0.029 A 
ATOM     66  C   UNL A   1      42.258  34.984  42.249  1.00  0.00     0.049 A 
ATOM     67  H   UNL A   1      41.549  36.955  42.507  1.00  0.00     0.167 HD
ATOM     68  C   UNL A   1      40.108  34.418  43.370  1.00  0.00     0.074 A 
ATOM     69  C   UNL A   1      39.239  35.530  42.991  1.00  0.00     0.031 C 
ATOM     70  C   UNL A   1      41.427  34.167  43.111  1.00  0.00     0.031 A 
BRANCH  57  71
ATOM     71  C   UNL A   1      41.043  38.582  40.017  1.00  0.00    -0.014 A 
ATOM     72  C   UNL A   1      41.929  39.670  39.935  1.00  0.00     0.010 A 
ATOM     73  C   UNL A   1      39.784  38.820  40.612  1.00  0.00     0.010 A 
ATOM     74  C   UNL A   1      41.590  40.917  40.478  1.00  0.00     0.020 A 
ATOM     75  C   UNL A   1      39.417  40.068  41.107  1.00  0.00     0.020 A 
ATOM     76  C   UNL A   1      40.340  41.100  41.071  1.00  0.00     0.054 A 
BRANCH  76  77
ATOM     77  S   UNL A   1      39.954  42.674  41.870  1.00  0.00     0.124 S 
ATOM     78  O   UNL A   1      40.907  42.688  42.975  1.00  0.00    -0.237 OA
ATOM     79  O   UNL A   1      40.208  43.634  40.799  1.00  0.00    -0.237 OA
ATOM     80  O   UNL A   1      38.551  42.530  42.251  1.00  0.00    -0.744 OA
ENDBRANCH  76  77
ENDBRANCH  57  71
BRANCH  58  81
ATOM     81  C   UNL A   1      35.661  32.768  43.200  1.00  0.00    -0.014 A 
ATOM     82  C   UNL A   1      35.344  32.481  44.542  1.00  0.00     0.010 A 
ATOM     83  C   UNL A   1      34.626  33.261  42.378  1.00  0.00     0.010 A 
ATOM     84  C   UNL A   1      34.062  32.746  45.056  1.00  0.00     0.020 A 
ATOM     85  C   UNL A   1      33.344  33.514  42.878  1.00  0.00     0.020 A 
ATOM     86  C   UNL A   1      33.076  33.282  44.224  1.00  0.00     0.054 A 
BRANCH  86  87
ATOM     87  S   UNL A   1      31.488  33.803  44.936  1.00  0.00     0.124 S 
ATOM     88  O   UNL A   1      31.369  32.933  46.103  1.00  0.00    -0.237 OA
ATOM     89  O   UNL A   1      31.715  35.217  45.221  1.00  0.00    -0.237 OA
ATOM     90  O   UNL A   1      30.527  33.538  43.866  1.00  0.00    -0.744 OA
ENDBRANCH  86  87
ENDBRANCH  58  81
BRANCH  70  91
ATOM     91  C   UNL A   1      42.006  32.831  43.524  1.00  0.00    -0.014 A 
ATOM     92  C   UNL A   1      41.926  31.667  42.733  1.00  0.00     0.010 A 
ATOM     93  C   UNL A   1      42.804  32.799  44.681  1.00  0.00     0.010 A 
ATOM     94  C   UNL A   1      42.606  30.497  43.106  1.00  0.00     0.020 A 
ATOM     95  C   UNL A   1      43.500  31.643  45.048  1.00  0.00     0.020 A 
ATOM     96  C   UNL A   1      43.391  30.496  44.263  1.00  0.00     0.054 A 
BRANCH  96  97
ATOM     97  S   UNL A   1      44.313  28.998  44.713  1.00  0.00     0.124 S 
ATOM     98  O   UNL A   1      44.095  28.911  46.154  1.00  0.00    -0.237 OA
ATOM     99  O   UNL A   1      43.659  27.961  43.915  1.00  0.00    -0.237 OA
ATOM    100  O   UNL A   1      45.686  29.299  44.313  1.00  0.00    -0.744 OA
ENDBRANCH  96  97
ENDBRANCH  70  91
ENDBRANCH  44  45
ENDBRANCH  37  39
ENDBRANCH  36  37
ENDBRANCH  35  36
ENDBRANCH  34  35
ENDBRANCH  33  34
ENDBRANCH  32  33
ENDBRANCH  31  32
ENDBRANCH   1  31
TORSDOF 26
ENDMDL
