MODEL 1
REMARK VINA RESULT:      -9.2      0.000      0.000
REMARK SMILES O=C(Cc1ccc(=O)n(C(F)F)c1)OCCOCCOCCOC(=O)c1ccc(-c2c3nc(c(-c4ccc(S(=O)(=O)[O-])cc4)c4ccc([nH]4)c(-c4ccc(S(=O)(=O)[O-])cc4)c4nc(c(-c5ccc(S(=O)(=O)[O-])cc5)c5ccc2[nH]5)C=C4)C=C3)cc1
REMARK SMILES IDX 19 1 18 2 17 3 16 4 15 5 14 6 2 7 1 8 3 9 4 10 5 11 13 12
REMARK SMILES IDX 6 13 9 14 7 15 8 16 10 17 11 18 12 19 20 20 21 21 22 22
REMARK SMILES IDX 23 23 24 24 25 25 26 26 27 27 85 28 28 29 84 30 29 31 30 32
REMARK SMILES IDX 31 33 78 34 32 35 83 36 77 37 79 38 33 39 82 40 76 41 75 42
REMARK SMILES IDX 34 44 64 45 45 46 63 47 46 48 49 49 62 50 80 51 47 52 48 53
REMARK SMILES IDX 61 55 81 56 50 57 35 58 36 59 44 60 37 61 43 62 38 63 39 64
REMARK SMILES IDX 40 65 41 66 42 67 65 68 66 69 74 70 67 71 73 72 68 73 69 74
REMARK SMILES IDX 70 75 71 76 72 77 51 78 52 79 60 80 53 81 59 82 54 83 55 84
REMARK SMILES IDX 56 85 57 86 58 87
REMARK H PARENT 79 43 49 54
REMARK Flexibility Score: inf
ROOT
ATOM      1  C   UNL A   1      35.819  22.214  24.995  1.00  0.00     0.188 C 
ENDROOT
BRANCH   1   2
ATOM      2  C   UNL A   1      34.852  21.085  25.380  1.00  0.00     0.188 C 
BRANCH   2   3
ATOM      3  O   UNL A   1      33.640  21.067  24.658  1.00  0.00    -0.376 OA
BRANCH   3   4
ATOM      4  C   UNL A   1      32.516  21.657  25.277  1.00  0.00     0.202 C 
BRANCH   4   5
ATOM      5  C   UNL A   1      32.320  23.128  24.931  1.00  0.00     0.261 C 
BRANCH   5   6
ATOM      6  O   UNL A   1      31.776  24.012  25.955  1.00  0.00    -0.463 OA
BRANCH   6   7
ATOM      7  C   UNL A   1      30.548  24.186  26.490  1.00  0.00     0.310 C 
ATOM      8  O   UNL A   1      30.110  23.325  27.251  1.00  0.00    -0.252 OA
BRANCH   7   9
ATOM      9  C   UNL A   1      29.676  25.376  26.104  1.00  0.00     0.159 C 
BRANCH   9  10
ATOM     10  C   UNL A   1      30.314  26.414  25.235  1.00  0.00    -0.020 A 
ATOM     11  C   UNL A   1      29.694  26.686  23.952  1.00  0.00     0.011 A 
ATOM     12  C   UNL A   1      31.462  27.032  25.544  1.00  0.00     0.099 A 
ATOM     13  C   UNL A   1      30.298  27.479  23.058  1.00  0.00     0.072 A 
ATOM     14  N   UNL A   1      32.141  27.789  24.615  1.00  0.00    -0.258 N 
ATOM     15  C   UNL A   1      31.632  28.069  23.356  1.00  0.00     0.254 A 
ATOM     16  O   UNL A   1      32.206  28.715  22.486  1.00  0.00    -0.269 OA
BRANCH  14  17
ATOM     17  C   UNL A   1      33.481  28.223  24.904  1.00  0.00     0.451 C 
ATOM     18  F   UNL A   1      33.652  28.411  26.237  1.00  0.00    -0.185 F 
ATOM     19  F   UNL A   1      34.401  27.331  24.475  1.00  0.00    -0.185 F 
ENDBRANCH  14  17
ENDBRANCH   9  10
ENDBRANCH   7   9
ENDBRANCH   6   7
ENDBRANCH   5   6
ENDBRANCH   4   5
ENDBRANCH   3   4
ENDBRANCH   2   3
ENDBRANCH   1   2
BRANCH   1  20
ATOM     20  O   UNL A   1      37.059  22.344  25.674  1.00  0.00    -0.376 OA
BRANCH  20  21
ATOM     21  C   UNL A   1      38.119  21.445  25.371  1.00  0.00     0.202 C 
BRANCH  21  22
ATOM     22  C   UNL A   1      39.422  21.514  26.187  1.00  0.00     0.261 C 
BRANCH  22  23
ATOM     23  O   UNL A   1      39.997  20.247  26.568  1.00  0.00    -0.460 OA
BRANCH  23  24
ATOM     24  C   UNL A   1      41.280  20.021  26.171  1.00  0.00     0.338 C 
ATOM     25  O   UNL A   1      41.684  19.078  25.522  1.00  0.00    -0.246 OA
BRANCH  24  26
ATOM     26  C   UNL A   1      42.120  21.207  26.482  1.00  0.00     0.060 A 
ATOM     27  C   UNL A   1      42.642  22.011  25.469  1.00  0.00     0.016 A 
ATOM     28  C   UNL A   1      42.375  21.524  27.827  1.00  0.00     0.016 A 
ATOM     29  C   UNL A   1      43.383  23.151  25.806  1.00  0.00     0.010 A 
ATOM     30  C   UNL A   1      43.131  22.656  28.162  1.00  0.00     0.010 A 
ATOM     31  C   UNL A   1      43.616  23.500  27.154  1.00  0.00    -0.014 A 
BRANCH  31  32
ATOM     32  C   UNL A   1      44.150  24.853  27.477  1.00  0.00     0.031 A 
ATOM     33  C   UNL A   1      45.590  25.235  27.301  1.00  0.00     0.074 A 
ATOM     34  C   UNL A   1      43.277  25.772  27.934  1.00  0.00     0.049 A 
ATOM     35  N   UNL A   1      46.129  26.428  27.352  1.00  0.00    -0.248 NA
ATOM     36  C   UNL A   1      46.549  24.152  27.046  1.00  0.00     0.031 C 
ATOM     37  C   UNL A   1      41.863  25.507  28.206  1.00  0.00     0.029 A 
ATOM     38  N   UNL A   1      43.429  27.107  28.218  1.00  0.00    -0.354 N 
ATOM     39  C   UNL A   1      47.484  26.251  27.100  1.00  0.00     0.074 A 
ATOM     40  C   UNL A   1      47.693  24.823  26.960  1.00  0.00     0.031 C 
ATOM     41  C   UNL A   1      41.264  26.653  28.554  1.00  0.00     0.029 A 
ATOM     42  C   UNL A   1      42.252  27.730  28.563  1.00  0.00     0.049 A 
ATOM     43  H   UNL A   1      44.296  27.573  28.179  1.00  0.00     0.167 HD
ATOM     44  C   UNL A   1      48.450  27.195  26.974  1.00  0.00     0.031 A 
ATOM     45  C   UNL A   1      41.977  29.023  28.830  1.00  0.00     0.031 A 
ATOM     46  C   UNL A   1      48.234  28.612  27.160  1.00  0.00     0.049 A 
ATOM     47  C   UNL A   1      43.064  30.049  28.707  1.00  0.00     0.074 A 
ATOM     48  C   UNL A   1      49.143  29.646  27.003  1.00  0.00     0.029 A 
ATOM     49  N   UNL A   1      47.041  29.199  27.563  1.00  0.00    -0.354 N 
ATOM     50  N   UNL A   1      44.314  29.881  28.344  1.00  0.00    -0.248 NA
ATOM     51  C   UNL A   1      42.705  31.442  29.008  1.00  0.00     0.031 C 
ATOM     52  C   UNL A   1      48.528  30.839  27.392  1.00  0.00     0.029 A 
ATOM     53  C   UNL A   1      47.206  30.570  27.704  1.00  0.00     0.049 A 
ATOM     54  H   UNL A   1      46.200  28.712  27.724  1.00  0.00     0.167 HD
ATOM     55  C   UNL A   1      44.891  31.146  28.370  1.00  0.00     0.074 A 
ATOM     56  C   UNL A   1      43.843  32.074  28.747  1.00  0.00     0.031 C 
ATOM     57  C   UNL A   1      46.174  31.498  28.111  1.00  0.00     0.031 A 
BRANCH  44  58
ATOM     58  C   UNL A   1      49.842  26.747  26.584  1.00  0.00    -0.014 A 
ATOM     59  C   UNL A   1      50.176  26.550  25.230  1.00  0.00     0.010 A 
ATOM     60  C   UNL A   1      50.781  26.390  27.570  1.00  0.00     0.010 A 
ATOM     61  C   UNL A   1      51.405  25.986  24.872  1.00  0.00     0.020 A 
ATOM     62  C   UNL A   1      52.024  25.857  27.216  1.00  0.00     0.020 A 
ATOM     63  C   UNL A   1      52.320  25.639  25.868  1.00  0.00     0.054 A 
BRANCH  63  64
ATOM     64  S   UNL A   1      53.905  24.898  25.388  1.00  0.00     0.124 S 
ATOM     65  O   UNL A   1      54.704  25.062  26.597  1.00  0.00    -0.237 OA
ATOM     66  O   UNL A   1      53.526  23.527  25.059  1.00  0.00    -0.237 OA
ATOM     67  O   UNL A   1      54.326  25.707  24.245  1.00  0.00    -0.744 OA
ENDBRANCH  63  64
ENDBRANCH  44  58
BRANCH  45  68
ATOM     68  C   UNL A   1      40.572  29.394  29.161  1.00  0.00    -0.014 A 
ATOM     69  C   UNL A   1      39.611  29.512  28.139  1.00  0.00     0.010 A 
ATOM     70  C   UNL A   1      40.226  29.770  30.471  1.00  0.00     0.010 A 
ATOM     71  C   UNL A   1      38.365  30.086  28.401  1.00  0.00     0.020 A 
ATOM     72  C   UNL A   1      38.966  30.310  30.744  1.00  0.00     0.020 A 
ATOM     73  C   UNL A   1      38.060  30.502  29.698  1.00  0.00     0.054 A 
BRANCH  73  74
ATOM     74  S   UNL A   1      36.485  31.353  29.986  1.00  0.00     0.124 S 
ATOM     75  O   UNL A   1      36.927  32.723  30.239  1.00  0.00    -0.237 OA
ATOM     76  O   UNL A   1      35.775  31.143  28.727  1.00  0.00    -0.237 OA
ATOM     77  O   UNL A   1      35.923  30.656  31.140  1.00  0.00    -0.744 OA
ENDBRANCH  73  74
ENDBRANCH  45  68
BRANCH  57  78
ATOM     78  C   UNL A   1      46.559  32.953  28.264  1.00  0.00    -0.014 A 
ATOM     79  C   UNL A   1      46.942  33.457  29.521  1.00  0.00     0.010 A 
ATOM     80  C   UNL A   1      46.429  33.849  27.187  1.00  0.00     0.010 A 
ATOM     81  C   UNL A   1      47.148  34.828  29.709  1.00  0.00     0.020 A 
ATOM     82  C   UNL A   1      46.671  35.216  27.360  1.00  0.00     0.020 A 
ATOM     83  C   UNL A   1      47.002  35.700  28.627  1.00  0.00     0.054 A 
BRANCH  83  84
ATOM     84  S   UNL A   1      47.236  37.479  28.899  1.00  0.00     0.124 S 
ATOM     85  O   UNL A   1      46.975  38.029  27.573  1.00  0.00    -0.237 OA
ATOM     86  O   UNL A   1      46.231  37.782  29.916  1.00  0.00    -0.237 OA
ATOM     87  O   UNL A   1      48.621  37.578  29.354  1.00  0.00    -0.744 OA
ENDBRANCH  83  84
ENDBRANCH  57  78
ENDBRANCH  31  32
ENDBRANCH  24  26
ENDBRANCH  23  24
ENDBRANCH  22  23
ENDBRANCH  21  22
ENDBRANCH  20  21
ENDBRANCH   1  20
TORSDOF 22
ENDMDL
MODEL 2
REMARK VINA RESULT:      -9.2      5.921      8.188
REMARK SMILES O=C(Cc1ccc(=O)n(C(F)F)c1)OCCOCCOCCOC(=O)c1ccc(-c2c3nc(c(-c4ccc(S(=O)(=O)[O-])cc4)c4ccc([nH]4)c(-c4ccc(S(=O)(=O)[O-])cc4)c4nc(c(-c5ccc(S(=O)(=O)[O-])cc5)c5ccc2[nH]5)C=C4)C=C3)cc1
REMARK SMILES IDX 19 1 18 2 17 3 16 4 15 5 14 6 2 7 1 8 3 9 4 10 5 11 13 12
REMARK SMILES IDX 6 13 9 14 7 15 8 16 10 17 11 18 12 19 20 20 21 21 22 22
REMARK SMILES IDX 23 23 24 24 25 25 26 26 27 27 85 28 28 29 84 30 29 31 30 32
REMARK SMILES IDX 31 33 78 34 32 35 83 36 77 37 79 38 33 39 82 40 76 41 75 42
REMARK SMILES IDX 34 44 64 45 45 46 63 47 46 48 49 49 62 50 80 51 47 52 48 53
REMARK SMILES IDX 61 55 81 56 50 57 35 58 36 59 44 60 37 61 43 62 38 63 39 64
REMARK SMILES IDX 40 65 41 66 42 67 65 68 66 69 74 70 67 71 73 72 68 73 69 74
REMARK SMILES IDX 70 75 71 76 72 77 51 78 52 79 60 80 53 81 59 82 54 83 55 84
REMARK SMILES IDX 56 85 57 86 58 87
REMARK H PARENT 79 43 49 54
REMARK Flexibility Score: inf
ROOT
ATOM      1  C   UNL A   1      40.365  21.598  26.645  1.00  0.00     0.188 C 
ENDROOT
BRANCH   1   2
ATOM      2  C   UNL A   1      39.528  22.884  26.598  1.00  0.00     0.188 C 
BRANCH   2   3
ATOM      3  O   UNL A   1      38.217  22.724  26.100  1.00  0.00    -0.376 OA
BRANCH   3   4
ATOM      4  C   UNL A   1      37.959  21.567  25.333  1.00  0.00     0.202 C 
BRANCH   4   5
ATOM      5  C   UNL A   1      36.627  21.598  24.595  1.00  0.00     0.261 C 
BRANCH   5   6
ATOM      6  O   UNL A   1      35.402  21.465  25.374  1.00  0.00    -0.463 OA
BRANCH   6   7
ATOM      7  C   UNL A   1      34.529  22.347  25.910  1.00  0.00     0.310 C 
ATOM      8  O   UNL A   1      33.537  21.912  26.492  1.00  0.00    -0.252 OA
BRANCH   7   9
ATOM      9  C   UNL A   1      34.710  23.850  25.733  1.00  0.00     0.159 C 
BRANCH   9  10
ATOM     10  C   UNL A   1      34.108  24.453  24.503  1.00  0.00    -0.020 A 
ATOM     11  C   UNL A   1      33.717  23.550  23.437  1.00  0.00     0.011 A 
ATOM     12  C   UNL A   1      33.996  25.774  24.306  1.00  0.00     0.099 A 
ATOM     13  C   UNL A   1      33.325  24.027  22.249  1.00  0.00     0.072 A 
ATOM     14  N   UNL A   1      33.671  26.290  23.071  1.00  0.00    -0.258 N 
ATOM     15  C   UNL A   1      33.316  25.494  21.994  1.00  0.00     0.254 A 
ATOM     16  O   UNL A   1      33.042  25.901  20.870  1.00  0.00    -0.269 OA
BRANCH  14  17
ATOM     17  C   UNL A   1      33.806  27.703  22.841  1.00  0.00     0.451 C 
ATOM     18  F   UNL A   1      32.600  28.269  22.585  1.00  0.00    -0.185 F 
ATOM     19  F   UNL A   1      34.359  28.334  23.900  1.00  0.00    -0.185 F 
ENDBRANCH  14  17
ENDBRANCH   9  10
ENDBRANCH   7   9
ENDBRANCH   6   7
ENDBRANCH   5   6
ENDBRANCH   4   5
ENDBRANCH   3   4
ENDBRANCH   2   3
ENDBRANCH   1   2
BRANCH   1  20
ATOM     20  O   UNL A   1      41.450  21.428  25.745  1.00  0.00    -0.376 OA
BRANCH  20  21
ATOM     21  C   UNL A   1      42.763  21.780  26.161  1.00  0.00     0.202 C 
BRANCH  21  22
ATOM     22  C   UNL A   1      43.366  23.120  25.702  1.00  0.00     0.261 C 
BRANCH  22  23
ATOM     23  O   UNL A   1      42.570  24.294  25.962  1.00  0.00    -0.460 OA
BRANCH  23  24
ATOM     24  C   UNL A   1      43.242  25.475  26.041  1.00  0.00     0.338 C 
ATOM     25  O   UNL A   1      44.064  25.897  25.252  1.00  0.00    -0.246 OA
BRANCH  24  26
ATOM     26  C   UNL A   1      42.692  26.296  27.150  1.00  0.00     0.060 A 
ATOM     27  C   UNL A   1      41.664  25.820  27.964  1.00  0.00     0.016 A 
ATOM     28  C   UNL A   1      43.234  27.572  27.384  1.00  0.00     0.016 A 
ATOM     29  C   UNL A   1      41.212  26.604  29.033  1.00  0.00     0.010 A 
ATOM     30  C   UNL A   1      42.768  28.362  28.444  1.00  0.00     0.010 A 
ATOM     31  C   UNL A   1      41.773  27.871  29.301  1.00  0.00    -0.014 A 
BRANCH  31  32
ATOM     32  C   UNL A   1      41.477  28.544  30.597  1.00  0.00     0.031 A 
ATOM     33  C   UNL A   1      42.313  28.366  31.829  1.00  0.00     0.074 A 
ATOM     34  C   UNL A   1      40.408  29.365  30.640  1.00  0.00     0.049 A 
ATOM     35  N   UNL A   1      42.276  29.050  32.945  1.00  0.00    -0.248 NA
ATOM     36  C   UNL A   1      43.307  27.285  31.819  1.00  0.00     0.031 C 
ATOM     37  C   UNL A   1      39.481  29.574  29.526  1.00  0.00     0.029 A 
ATOM     38  N   UNL A   1      39.938  30.192  31.629  1.00  0.00    -0.354 N 
ATOM     39  C   UNL A   1      43.263  28.513  33.761  1.00  0.00     0.074 A 
ATOM     40  C   UNL A   1      43.839  27.400  33.032  1.00  0.00     0.031 C 
ATOM     41  C   UNL A   1      38.594  30.517  29.871  1.00  0.00     0.029 A 
ATOM     42  C   UNL A   1      38.865  30.958  31.237  1.00  0.00     0.049 A 
ATOM     43  H   UNL A   1      40.330  30.233  32.532  1.00  0.00     0.167 HD
ATOM     44  C   UNL A   1      43.663  28.928  34.990  1.00  0.00     0.031 A 
ATOM     45  C   UNL A   1      38.184  31.929  31.880  1.00  0.00     0.031 A 
ATOM     46  C   UNL A   1      43.049  30.011  35.723  1.00  0.00     0.049 A 
ATOM     47  C   UNL A   1      38.627  32.358  33.248  1.00  0.00     0.074 A 
ATOM     48  C   UNL A   1      43.420  30.533  36.952  1.00  0.00     0.029 A 
ATOM     49  N   UNL A   1      41.929  30.727  35.317  1.00  0.00    -0.354 N 
ATOM     50  N   UNL A   1      39.644  31.924  33.955  1.00  0.00    -0.248 NA
ATOM     51  C   UNL A   1      37.850  33.421  33.899  1.00  0.00     0.031 C 
ATOM     52  C   UNL A   1      42.480  31.497  37.325  1.00  0.00     0.029 A 
ATOM     53  C   UNL A   1      41.572  31.649  36.291  1.00  0.00     0.049 A 
ATOM     54  H   UNL A   1      41.459  30.598  34.461  1.00  0.00     0.167 HD
ATOM     55  C   UNL A   1      39.630  32.662  35.134  1.00  0.00     0.074 A 
ATOM     56  C   UNL A   1      38.527  33.597  35.027  1.00  0.00     0.031 C 
ATOM     57  C   UNL A   1      40.455  32.563  36.205  1.00  0.00     0.031 A 
BRANCH  44  58
ATOM     58  C   UNL A   1      44.847  28.235  35.630  1.00  0.00    -0.014 A 
ATOM     59  C   UNL A   1      46.119  28.293  35.027  1.00  0.00     0.010 A 
ATOM     60  C   UNL A   1      44.671  27.412  36.757  1.00  0.00     0.010 A 
ATOM     61  C   UNL A   1      47.179  27.528  35.523  1.00  0.00     0.020 A 
ATOM     62  C   UNL A   1      45.736  26.670  37.277  1.00  0.00     0.020 A 
ATOM     63  C   UNL A   1      46.980  26.718  36.643  1.00  0.00     0.054 A 
BRANCH  63  64
ATOM     64  S   UNL A   1      48.363  25.723  37.267  1.00  0.00     0.124 S 
ATOM     65  O   UNL A   1      49.323  26.745  37.672  1.00  0.00    -0.237 OA
ATOM     66  O   UNL A   1      47.744  24.968  38.354  1.00  0.00    -0.237 OA
ATOM     67  O   UNL A   1      48.754  24.920  36.110  1.00  0.00    -0.744 OA
ENDBRANCH  63  64
ENDBRANCH  44  58
BRANCH  45  68
ATOM     68  C   UNL A   1      37.059  32.596  31.166  1.00  0.00    -0.014 A 
ATOM     69  C   UNL A   1      35.741  32.130  31.329  1.00  0.00     0.010 A 
ATOM     70  C   UNL A   1      37.317  33.599  30.215  1.00  0.00     0.010 A 
ATOM     71  C   UNL A   1      34.720  32.585  30.492  1.00  0.00     0.020 A 
ATOM     72  C   UNL A   1      36.289  34.085  29.401  1.00  0.00     0.020 A 
ATOM     73  C   UNL A   1      35.007  33.544  29.517  1.00  0.00     0.054 A 
BRANCH  73  74
ATOM     74  S   UNL A   1      33.693  34.027  28.366  1.00  0.00     0.124 S 
ATOM     75  O   UNL A   1      33.354  32.749  27.745  1.00  0.00    -0.237 OA
ATOM     76  O   UNL A   1      32.678  34.583  29.257  1.00  0.00    -0.237 OA
ATOM     77  O   UNL A   1      34.344  34.994  27.486  1.00  0.00    -0.744 OA
ENDBRANCH  73  74
ENDBRANCH  45  68
BRANCH  57  78
ATOM     78  C   UNL A   1      40.187  33.458  37.395  1.00  0.00    -0.014 A 
ATOM     79  C   UNL A   1      39.243  33.082  38.368  1.00  0.00     0.010 A 
ATOM     80  C   UNL A   1      40.786  34.728  37.489  1.00  0.00     0.010 A 
ATOM     81  C   UNL A   1      38.873  33.968  39.386  1.00  0.00     0.020 A 
ATOM     82  C   UNL A   1      40.448  35.603  38.527  1.00  0.00     0.020 A 
ATOM     83  C   UNL A   1      39.473  35.228  39.452  1.00  0.00     0.054 A 
BRANCH  83  84
ATOM     84  S   UNL A   1      38.952  36.377  40.756  1.00  0.00     0.124 S 
ATOM     85  O   UNL A   1      40.178  36.538  41.531  1.00  0.00    -0.237 OA
ATOM     86  O   UNL A   1      38.528  37.552  39.997  1.00  0.00    -0.237 OA
ATOM     87  O   UNL A   1      37.874  35.662  41.436  1.00  0.00    -0.744 OA
ENDBRANCH  83  84
ENDBRANCH  57  78
ENDBRANCH  31  32
ENDBRANCH  24  26
ENDBRANCH  23  24
ENDBRANCH  22  23
ENDBRANCH  21  22
ENDBRANCH  20  21
ENDBRANCH   1  20
TORSDOF 22
ENDMDL
MODEL 3
REMARK VINA RESULT:      -9.0      1.888      8.699
REMARK SMILES O=C(Cc1ccc(=O)n(C(F)F)c1)OCCOCCOCCOC(=O)c1ccc(-c2c3nc(c(-c4ccc(S(=O)(=O)[O-])cc4)c4ccc([nH]4)c(-c4ccc(S(=O)(=O)[O-])cc4)c4nc(c(-c5ccc(S(=O)(=O)[O-])cc5)c5ccc2[nH]5)C=C4)C=C3)cc1
REMARK SMILES IDX 19 1 18 2 17 3 16 4 15 5 14 6 2 7 1 8 3 9 4 10 5 11 13 12
REMARK SMILES IDX 6 13 9 14 7 15 8 16 10 17 11 18 12 19 20 20 21 21 22 22
REMARK SMILES IDX 23 23 24 24 25 25 26 26 27 27 85 28 28 29 84 30 29 31 30 32
REMARK SMILES IDX 31 33 78 34 32 35 83 36 77 37 79 38 33 39 82 40 76 41 75 42
REMARK SMILES IDX 34 44 64 45 45 46 63 47 46 48 49 49 62 50 80 51 47 52 48 53
REMARK SMILES IDX 61 55 81 56 50 57 35 58 36 59 44 60 37 61 43 62 38 63 39 64
REMARK SMILES IDX 40 65 41 66 42 67 65 68 66 69 74 70 67 71 73 72 68 73 69 74
REMARK SMILES IDX 70 75 71 76 72 77 51 78 52 79 60 80 53 81 59 82 54 83 55 84
REMARK SMILES IDX 56 85 57 86 58 87
REMARK H PARENT 79 43 49 54
REMARK Flexibility Score: inf
ROOT
ATOM      1  C   UNL A   1      40.927  21.210  26.888  1.00  0.00     0.188 C 
ENDROOT
BRANCH   1   2
ATOM      2  C   UNL A   1      40.439  22.639  26.611  1.00  0.00     0.188 C 
BRANCH   2   3
ATOM      3  O   UNL A   1      39.047  22.767  26.423  1.00  0.00    -0.376 OA
BRANCH   3   4
ATOM      4  C   UNL A   1      38.397  21.731  25.718  1.00  0.00     0.202 C 
BRANCH   4   5
ATOM      5  C   UNL A   1      37.333  22.219  24.742  1.00  0.00     0.261 C 
BRANCH   5   6
ATOM      6  O   UNL A   1      36.238  21.317  24.404  1.00  0.00    -0.463 OA
BRANCH   6   7
ATOM      7  C   UNL A   1      35.128  20.904  25.053  1.00  0.00     0.310 C 
ATOM      8  O   UNL A   1      34.717  19.762  24.847  1.00  0.00    -0.252 OA
BRANCH   7   9
ATOM      9  C   UNL A   1      34.341  21.844  25.958  1.00  0.00     0.159 C 
BRANCH   9  10
ATOM     10  C   UNL A   1      33.129  22.486  25.359  1.00  0.00    -0.020 A 
ATOM     11  C   UNL A   1      32.801  22.147  23.988  1.00  0.00     0.011 A 
ATOM     12  C   UNL A   1      32.395  23.412  25.991  1.00  0.00     0.099 A 
ATOM     13  C   UNL A   1      31.832  22.804  23.336  1.00  0.00     0.072 A 
ATOM     14  N   UNL A   1      31.447  24.155  25.322  1.00  0.00    -0.258 N 
ATOM     15  C   UNL A   1      31.098  23.915  24.003  1.00  0.00     0.254 A 
ATOM     16  O   UNL A   1      30.280  24.560  23.356  1.00  0.00    -0.269 OA
BRANCH  14  17
ATOM     17  C   UNL A   1      30.864  25.300  25.969  1.00  0.00     0.451 C 
ATOM     18  F   UNL A   1      31.124  26.434  25.271  1.00  0.00    -0.185 F 
ATOM     19  F   UNL A   1      29.525  25.174  26.099  1.00  0.00    -0.185 F 
ENDBRANCH  14  17
ENDBRANCH   9  10
ENDBRANCH   7   9
ENDBRANCH   6   7
ENDBRANCH   5   6
ENDBRANCH   4   5
ENDBRANCH   3   4
ENDBRANCH   2   3
ENDBRANCH   1   2
BRANCH   1  20
ATOM     20  O   UNL A   1      41.706  20.529  25.915  1.00  0.00    -0.376 OA
BRANCH  20  21
ATOM     21  C   UNL A   1      41.976  19.143  26.083  1.00  0.00     0.202 C 
BRANCH  21  22
ATOM     22  C   UNL A   1      43.325  18.574  25.606  1.00  0.00     0.261 C 
BRANCH  22  23
ATOM     23  O   UNL A   1      43.796  19.050  24.328  1.00  0.00    -0.460 OA
BRANCH  23  24
ATOM     24  C   UNL A   1      45.030  19.623  24.314  1.00  0.00     0.338 C 
ATOM     25  O   UNL A   1      46.049  19.144  23.858  1.00  0.00    -0.246 OA
BRANCH  24  26
ATOM     26  C   UNL A   1      44.936  21.034  24.774  1.00  0.00     0.060 A 
ATOM     27  C   UNL A   1      45.274  21.395  26.077  1.00  0.00     0.016 A 
ATOM     28  C   UNL A   1      44.511  22.017  23.864  1.00  0.00     0.016 A 
ATOM     29  C   UNL A   1      45.225  22.744  26.454  1.00  0.00     0.010 A 
ATOM     30  C   UNL A   1      44.446  23.364  24.248  1.00  0.00     0.010 A 
ATOM     31  C   UNL A   1      44.834  23.745  25.539  1.00  0.00    -0.014 A 
BRANCH  31  32
ATOM     32  C   UNL A   1      45.068  25.177  25.878  1.00  0.00     0.031 A 
ATOM     33  C   UNL A   1      44.002  26.079  26.425  1.00  0.00     0.074 A 
ATOM     34  C   UNL A   1      46.311  25.664  25.695  1.00  0.00     0.049 A 
ATOM     35  N   UNL A   1      44.133  27.274  26.946  1.00  0.00    -0.248 NA
ATOM     36  C   UNL A   1      42.617  25.594  26.375  1.00  0.00     0.031 C 
ATOM     37  C   UNL A   1      47.419  24.904  25.113  1.00  0.00     0.029 A 
ATOM     38  N   UNL A   1      46.863  26.884  26.000  1.00  0.00    -0.354 N 
ATOM     39  C   UNL A   1      42.857  27.674  27.323  1.00  0.00     0.074 A 
ATOM     40  C   UNL A   1      41.956  26.617  26.909  1.00  0.00     0.031 C 
ATOM     41  C   UNL A   1      48.531  25.650  25.163  1.00  0.00     0.029 A 
ATOM     42  C   UNL A   1      48.214  26.950  25.748  1.00  0.00     0.049 A 
ATOM     43  H   UNL A   1      46.343  27.637  26.364  1.00  0.00     0.167 HD
ATOM     44  C   UNL A   1      42.483  28.805  27.973  1.00  0.00     0.031 A 
ATOM     45  C   UNL A   1      49.113  27.927  25.983  1.00  0.00     0.031 A 
ATOM     46  C   UNL A   1      43.389  29.871  28.339  1.00  0.00     0.049 A 
ATOM     47  C   UNL A   1      48.676  29.180  26.683  1.00  0.00     0.074 A 
ATOM     48  C   UNL A   1      43.107  31.030  29.044  1.00  0.00     0.029 A 
ATOM     49  N   UNL A   1      44.739  29.927  28.019  1.00  0.00    -0.354 N 
ATOM     50  N   UNL A   1      47.488  29.489  27.146  1.00  0.00    -0.248 NA
ATOM     51  C   UNL A   1      49.700  30.209  26.913  1.00  0.00     0.031 C 
ATOM     52  C   UNL A   1      44.258  31.821  29.073  1.00  0.00     0.029 A 
ATOM     53  C   UNL A   1      45.288  31.120  28.469  1.00  0.00     0.049 A 
ATOM     54  H   UNL A   1      45.234  29.222  27.541  1.00  0.00     0.167 HD
ATOM     55  C   UNL A   1      47.621  30.747  27.725  1.00  0.00     0.074 A 
ATOM     56  C   UNL A   1      49.014  31.123  27.588  1.00  0.00     0.031 C 
ATOM     57  C   UNL A   1      46.670  31.516  28.309  1.00  0.00     0.031 A 
BRANCH  44  58
ATOM     58  C   UNL A   1      41.031  28.956  28.370  1.00  0.00    -0.014 A 
ATOM     59  C   UNL A   1      40.049  29.227  27.397  1.00  0.00     0.010 A 
ATOM     60  C   UNL A   1      40.657  28.963  29.727  1.00  0.00     0.010 A 
ATOM     61  C   UNL A   1      38.735  29.524  27.772  1.00  0.00     0.020 A 
ATOM     62  C   UNL A   1      39.336  29.226  30.105  1.00  0.00     0.020 A 
ATOM     63  C   UNL A   1      38.388  29.525  29.125  1.00  0.00     0.054 A 
BRANCH  63  64
ATOM     64  S   UNL A   1      36.681  29.923  29.595  1.00  0.00     0.124 S 
ATOM     65  O   UNL A   1      35.918  29.396  28.469  1.00  0.00    -0.237 OA
ATOM     66  O   UNL A   1      36.526  29.205  30.857  1.00  0.00    -0.237 OA
ATOM     67  O   UNL A   1      36.692  31.379  29.717  1.00  0.00    -0.744 OA
ENDBRANCH  63  64
ENDBRANCH  44  58
BRANCH  45  68
ATOM     68  C   UNL A   1      50.535  27.686  25.605  1.00  0.00    -0.014 A 
ATOM     69  C   UNL A   1      51.435  27.146  26.544  1.00  0.00     0.010 A 
ATOM     70  C   UNL A   1      51.025  28.128  24.364  1.00  0.00     0.010 A 
ATOM     71  C   UNL A   1      52.808  27.139  26.285  1.00  0.00     0.020 A 
ATOM     72  C   UNL A   1      52.395  28.086  24.087  1.00  0.00     0.020 A 
ATOM     73  C   UNL A   1      53.280  27.630  25.067  1.00  0.00     0.054 A 
BRANCH  73  74
ATOM     74  S   UNL A   1      55.072  27.721  24.806  1.00  0.00     0.124 S 
ATOM     75  O   UNL A   1      55.557  27.993  26.157  1.00  0.00    -0.237 OA
ATOM     76  O   UNL A   1      55.384  26.395  24.279  1.00  0.00    -0.237 OA
ATOM     77  O   UNL A   1      55.226  28.820  23.856  1.00  0.00    -0.744 OA
ENDBRANCH  73  74
ENDBRANCH  45  68
BRANCH  57  78
ATOM     78  C   UNL A   1      47.072  32.882  28.818  1.00  0.00    -0.014 A 
ATOM     79  C   UNL A   1      47.405  33.065  30.173  1.00  0.00     0.010 A 
ATOM     80  C   UNL A   1      47.008  34.010  27.979  1.00  0.00     0.010 A 
ATOM     81  C   UNL A   1      47.626  34.347  30.689  1.00  0.00     0.020 A 
ATOM     82  C   UNL A   1      47.266  35.290  28.481  1.00  0.00     0.020 A 
ATOM     83  C   UNL A   1      47.545  35.452  29.839  1.00  0.00     0.054 A 
BRANCH  83  84
ATOM     84  S   UNL A   1      47.798  37.110  30.534  1.00  0.00     0.124 S 
ATOM     85  O   UNL A   1      46.815  37.903  29.802  1.00  0.00    -0.237 OA
ATOM     86  O   UNL A   1      47.514  36.908  31.954  1.00  0.00    -0.237 OA
ATOM     87  O   UNL A   1      49.194  37.405  30.222  1.00  0.00    -0.744 OA
ENDBRANCH  83  84
ENDBRANCH  57  78
ENDBRANCH  31  32
ENDBRANCH  24  26
ENDBRANCH  23  24
ENDBRANCH  22  23
ENDBRANCH  21  22
ENDBRANCH  20  21
ENDBRANCH   1  20
TORSDOF 22
ENDMDL
