MODEL 1
REMARK VINA RESULT:      -8.0      0.000      0.000
REMARK SMILES Cc1ccc(-n2nc(C(=O)OCCOCCOCCOC(=O)c3ccc(-c4c5nc(c(-c6ccc(S(=O)(=O)[O-])cc6)c6ccc([nH]6)c(-c6ccc(S(=O)(=O)[O-])cc6)c6nc(c(-c7ccc(S(=O)(=O)[O-])cc7)c7ccc4[nH]7)C=C6)C=C5)cc3)c(C)c(C#N)c2=O)cc1Cl
REMARK SMILES IDX 16 1 15 2 14 3 13 4 12 5 11 6 9 7 10 8 8 9 6 10 7 11 88 12
REMARK SMILES IDX 85 13 89 14 83 15 84 16 5 17 1 18 2 19 3 20 91 21 4 22 90 23
REMARK SMILES IDX 92 24 86 25 87 26 17 27 18 28 19 29 20 30 21 31 22 32 23 33
REMARK SMILES IDX 24 34 82 35 25 36 81 37 26 38 27 39 28 40 75 41 29 42 80 43
REMARK SMILES IDX 74 44 76 45 30 46 79 47 73 48 72 49 31 51 61 52 42 53 60 54
REMARK SMILES IDX 43 55 46 56 59 57 77 58 44 59 45 60 58 62 78 63 47 64 32 65
REMARK SMILES IDX 33 66 41 67 34 68 40 69 35 70 36 71 37 72 38 73 39 74 62 75
REMARK SMILES IDX 63 76 71 77 64 78 70 79 65 80 66 81 67 82 68 83 69 84 48 85
REMARK SMILES IDX 49 86 57 87 50 88 56 89 51 90 52 91 53 92 54 93 55 94
REMARK H PARENT 76 50 46 61
REMARK Flexibility Score: inf
ROOT
ATOM      1  C   UNL A   1      34.455  34.249  31.764  1.00  0.00     0.188 C 
ENDROOT
BRANCH   1   2
ATOM      2  C   UNL A   1      35.926  34.285  32.238  1.00  0.00     0.188 C 
BRANCH   2   3
ATOM      3  O   UNL A   1      36.868  33.456  31.586  1.00  0.00    -0.376 OA
BRANCH   3   4
ATOM      4  C   UNL A   1      38.062  33.069  32.246  1.00  0.00     0.202 C 
BRANCH   4   5
ATOM      5  C   UNL A   1      39.336  33.935  32.252  1.00  0.00     0.261 C 
BRANCH   5   6
ATOM      6  O   UNL A   1      39.407  34.896  33.313  1.00  0.00    -0.458 OA
BRANCH   6   7
ATOM      7  C   UNL A   1      40.402  34.752  34.211  1.00  0.00     0.359 C 
ATOM      8  O   UNL A   1      41.263  35.562  34.492  1.00  0.00    -0.244 OA
BRANCH   7   9
ATOM      9  C   UNL A   1      40.312  33.377  34.905  1.00  0.00     0.173 A 
ATOM     10  N   UNL A   1      40.921  31.167  34.961  1.00  0.00    -0.195 N 
ATOM     11  N   UNL A   1      41.119  32.446  34.484  1.00  0.00    -0.157 NA
ATOM     12  C   UNL A   1      39.849  30.798  35.768  1.00  0.00     0.289 A 
ATOM     13  C   UNL A   1      39.079  31.924  36.357  1.00  0.00     0.125 A 
ATOM     14  O   UNL A   1      39.551  29.641  36.063  1.00  0.00    -0.266 OA
ATOM     15  C   UNL A   1      39.303  33.198  35.988  1.00  0.00     0.007 A 
ATOM     16  C   UNL A   1      38.655  34.401  36.608  1.00  0.00     0.049 C 
BRANCH  10  17
ATOM     17  C   UNL A   1      41.725  30.166  34.350  1.00  0.00     0.070 A 
ATOM     18  C   UNL A   1      44.037  26.897  32.692  1.00  0.00     0.046 C 
ATOM     19  C   UNL A   1      43.249  28.034  33.283  1.00  0.00    -0.032 A 
ATOM     20  C   UNL A   1      41.921  28.238  32.883  1.00  0.00     0.007 A 
ATOM     21  C   UNL A   1      43.797  28.904  34.238  1.00  0.00     0.046 A 
ATOM     22  C   UNL A   1      41.163  29.282  33.425  1.00  0.00     0.029 A 
ATOM     23  C   UNL A   1      43.048  29.975  34.753  1.00  0.00     0.049 A 
ATOM     24  Cl  UNL A   1      45.387  28.632  34.859  1.00  0.00    -0.084 Cl
ENDBRANCH  10  17
BRANCH  13  25
ATOM     25  C   UNL A   1      38.115  31.588  37.348  1.00  0.00     0.105 C 
ATOM     26  N   UNL A   1      37.307  31.250  38.112  1.00  0.00    -0.192 NA
ENDBRANCH  13  25
ENDBRANCH   7   9
ENDBRANCH   6   7
ENDBRANCH   5   6
ENDBRANCH   4   5
ENDBRANCH   3   4
ENDBRANCH   2   3
ENDBRANCH   1   2
BRANCH   1  27
ATOM     27  O   UNL A   1      34.136  34.960  30.591  1.00  0.00    -0.376 OA
BRANCH  27  28
ATOM     28  C   UNL A   1      33.904  34.243  29.388  1.00  0.00     0.202 C 
BRANCH  28  29
ATOM     29  C   UNL A   1      34.825  33.165  28.768  1.00  0.00     0.261 C 
BRANCH  29  30
ATOM     30  O   UNL A   1      34.898  31.874  29.383  1.00  0.00    -0.460 OA
BRANCH  30  31
ATOM     31  C   UNL A   1      34.913  30.811  28.537  1.00  0.00     0.338 C 
ATOM     32  O   UNL A   1      34.055  30.506  27.729  1.00  0.00    -0.246 OA
BRANCH  31  33
ATOM     33  C   UNL A   1      36.254  30.193  28.587  1.00  0.00     0.060 A 
ATOM     34  C   UNL A   1      36.700  29.651  29.797  1.00  0.00     0.016 A 
ATOM     35  C   UNL A   1      37.068  30.151  27.455  1.00  0.00     0.016 A 
ATOM     36  C   UNL A   1      37.950  29.044  29.867  1.00  0.00     0.010 A 
ATOM     37  C   UNL A   1      38.348  29.589  27.548  1.00  0.00     0.010 A 
ATOM     38  C   UNL A   1      38.804  29.048  28.762  1.00  0.00    -0.014 A 
BRANCH  38  39
ATOM     39  C   UNL A   1      40.230  28.681  28.961  1.00  0.00     0.031 A 
ATOM     40  C   UNL A   1      41.146  29.700  29.581  1.00  0.00     0.074 A 
ATOM     41  C   UNL A   1      40.691  27.447  28.682  1.00  0.00     0.049 A 
ATOM     42  N   UNL A   1      42.433  29.637  29.800  1.00  0.00    -0.248 NA
ATOM     43  C   UNL A   1      40.522  30.962  30.013  1.00  0.00     0.031 C 
ATOM     44  C   UNL A   1      39.885  26.331  28.191  1.00  0.00     0.029 A 
ATOM     45  N   UNL A   1      41.959  26.927  28.785  1.00  0.00    -0.354 N 
ATOM     46  C   UNL A   1      42.776  30.854  30.379  1.00  0.00     0.074 A 
ATOM     47  C   UNL A   1      41.568  31.647  30.446  1.00  0.00     0.031 C 
ATOM     48  C   UNL A   1      40.680  25.258  28.030  1.00  0.00     0.029 A 
ATOM     49  C   UNL A   1      42.058  25.624  28.361  1.00  0.00     0.049 A 
ATOM     50  H   UNL A   1      42.724  27.441  29.131  1.00  0.00     0.167 HD
ATOM     51  C   UNL A   1      43.986  31.273  30.819  1.00  0.00     0.031 A 
ATOM     52  C   UNL A   1      43.137  24.825  28.227  1.00  0.00     0.031 A 
ATOM     53  C   UNL A   1      45.184  30.480  30.748  1.00  0.00     0.049 A 
ATOM     54  C   UNL A   1      44.497  25.351  28.611  1.00  0.00     0.074 A 
ATOM     55  C   UNL A   1      46.461  30.819  31.158  1.00  0.00     0.029 A 
ATOM     56  N   UNL A   1      45.256  29.193  30.233  1.00  0.00    -0.354 N 
ATOM     57  N   UNL A   1      44.815  26.512  29.135  1.00  0.00    -0.248 NA
ATOM     58  C   UNL A   1      45.645  24.461  28.386  1.00  0.00     0.031 C 
ATOM     59  C   UNL A   1      47.319  29.767  30.822  1.00  0.00     0.029 A 
ATOM     60  C   UNL A   1      46.564  28.740  30.277  1.00  0.00     0.049 A 
ATOM     61  H   UNL A   1      44.491  28.680  29.888  1.00  0.00     0.167 HD
ATOM     62  C   UNL A   1      46.194  26.482  29.323  1.00  0.00     0.074 A 
ATOM     63  C   UNL A   1      46.647  25.181  28.874  1.00  0.00     0.031 C 
ATOM     64  C   UNL A   1      47.009  27.446  29.822  1.00  0.00     0.031 A 
BRANCH  51  65
ATOM     65  C   UNL A   1      44.082  32.671  31.372  1.00  0.00    -0.014 A 
ATOM     66  C   UNL A   1      43.966  32.928  32.749  1.00  0.00     0.010 A 
ATOM     67  C   UNL A   1      44.332  33.744  30.495  1.00  0.00     0.010 A 
ATOM     68  C   UNL A   1      44.059  34.235  33.234  1.00  0.00     0.020 A 
ATOM     69  C   UNL A   1      44.460  35.048  30.980  1.00  0.00     0.020 A 
ATOM     70  C   UNL A   1      44.307  35.286  32.347  1.00  0.00     0.054 A 
BRANCH  70  71
ATOM     71  S   UNL A   1      44.440  36.969  33.010  1.00  0.00     0.124 S 
ATOM     72  O   UNL A   1      43.102  37.502  32.757  1.00  0.00    -0.237 OA
ATOM     73  O   UNL A   1      44.766  36.732  34.413  1.00  0.00    -0.237 OA
ATOM     74  O   UNL A   1      45.508  37.574  32.217  1.00  0.00    -0.744 OA
ENDBRANCH  70  71
ENDBRANCH  51  65
BRANCH  52  75
ATOM     75  C   UNL A   1      42.973  23.445  27.685  1.00  0.00    -0.014 A 
ATOM     76  C   UNL A   1      42.519  22.399  28.506  1.00  0.00     0.010 A 
ATOM     77  C   UNL A   1      43.244  23.178  26.329  1.00  0.00     0.010 A 
ATOM     78  C   UNL A   1      42.331  21.116  27.981  1.00  0.00     0.020 A 
ATOM     79  C   UNL A   1      43.029  21.904  25.794  1.00  0.00     0.020 A 
ATOM     80  C   UNL A   1      42.574  20.881  26.625  1.00  0.00     0.054 A 
BRANCH  80  81
ATOM     81  S   UNL A   1      42.237  19.228  25.954  1.00  0.00     0.124 S 
ATOM     82  O   UNL A   1      42.993  19.245  24.705  1.00  0.00    -0.237 OA
ATOM     83  O   UNL A   1      42.763  18.355  26.999  1.00  0.00    -0.237 OA
ATOM     84  O   UNL A   1      40.784  19.206  25.804  1.00  0.00    -0.744 OA
ENDBRANCH  80  81
ENDBRANCH  52  75
BRANCH  64  85
ATOM     85  C   UNL A   1      48.482  27.141  29.931  1.00  0.00    -0.014 A 
ATOM     86  C   UNL A   1      49.397  27.619  28.978  1.00  0.00     0.010 A 
ATOM     87  C   UNL A   1      48.968  26.445  31.054  1.00  0.00     0.010 A 
ATOM     88  C   UNL A   1      50.767  27.387  29.131  1.00  0.00     0.020 A 
ATOM     89  C   UNL A   1      50.340  26.240  31.230  1.00  0.00     0.020 A 
ATOM     90  C   UNL A   1      51.231  26.705  30.260  1.00  0.00     0.054 A 
BRANCH  90  91
ATOM     91  S   UNL A   1      53.018  26.464  30.458  1.00  0.00     0.124 S 
ATOM     92  O   UNL A   1      53.420  26.048  29.117  1.00  0.00    -0.237 OA
ATOM     93  O   UNL A   1      53.472  27.790  30.867  1.00  0.00    -0.237 OA
ATOM     94  O   UNL A   1      53.120  25.430  31.486  1.00  0.00    -0.744 OA
ENDBRANCH  90  91
ENDBRANCH  64  85
ENDBRANCH  38  39
ENDBRANCH  31  33
ENDBRANCH  30  31
ENDBRANCH  29  30
ENDBRANCH  28  29
ENDBRANCH  27  28
ENDBRANCH   1  27
TORSDOF 22
ENDMDL
MODEL 2
REMARK VINA RESULT:      -7.0      3.504      9.110
REMARK SMILES Cc1ccc(-n2nc(C(=O)OCCOCCOCCOC(=O)c3ccc(-c4c5nc(c(-c6ccc(S(=O)(=O)[O-])cc6)c6ccc([nH]6)c(-c6ccc(S(=O)(=O)[O-])cc6)c6nc(c(-c7ccc(S(=O)(=O)[O-])cc7)c7ccc4[nH]7)C=C6)C=C5)cc3)c(C)c(C#N)c2=O)cc1Cl
REMARK SMILES IDX 16 1 15 2 14 3 13 4 12 5 11 6 9 7 10 8 8 9 6 10 7 11 88 12
REMARK SMILES IDX 85 13 89 14 83 15 84 16 5 17 1 18 2 19 3 20 91 21 4 22 90 23
REMARK SMILES IDX 92 24 86 25 87 26 17 27 18 28 19 29 20 30 21 31 22 32 23 33
REMARK SMILES IDX 24 34 82 35 25 36 81 37 26 38 27 39 28 40 75 41 29 42 80 43
REMARK SMILES IDX 74 44 76 45 30 46 79 47 73 48 72 49 31 51 61 52 42 53 60 54
REMARK SMILES IDX 43 55 46 56 59 57 77 58 44 59 45 60 58 62 78 63 47 64 32 65
REMARK SMILES IDX 33 66 41 67 34 68 40 69 35 70 36 71 37 72 38 73 39 74 62 75
REMARK SMILES IDX 63 76 71 77 64 78 70 79 65 80 66 81 67 82 68 83 69 84 48 85
REMARK SMILES IDX 49 86 57 87 50 88 56 89 51 90 52 91 53 92 54 93 55 94
REMARK H PARENT 76 50 46 61
REMARK Flexibility Score: inf
ROOT
ATOM      1  C   UNL A   1      34.385  33.750  30.815  1.00  0.00     0.188 C 
ENDROOT
BRANCH   1   2
ATOM      2  C   UNL A   1      35.128  34.159  32.108  1.00  0.00     0.188 C 
BRANCH   2   3
ATOM      3  O   UNL A   1      36.292  33.445  32.474  1.00  0.00    -0.376 OA
BRANCH   3   4
ATOM      4  C   UNL A   1      36.240  32.463  33.495  1.00  0.00     0.202 C 
BRANCH   4   5
ATOM      5  C   UNL A   1      37.470  32.055  34.330  1.00  0.00     0.261 C 
BRANCH   5   6
ATOM      6  O   UNL A   1      37.281  32.111  35.749  1.00  0.00    -0.458 OA
BRANCH   6   7
ATOM      7  C   UNL A   1      38.256  31.593  36.523  1.00  0.00     0.359 C 
ATOM      8  O   UNL A   1      38.898  30.582  36.320  1.00  0.00    -0.244 OA
BRANCH   7   9
ATOM      9  C   UNL A   1      38.504  32.487  37.756  1.00  0.00     0.173 A 
ATOM     10  N   UNL A   1      38.317  32.796  40.020  1.00  0.00    -0.195 N 
ATOM     11  N   UNL A   1      38.285  31.958  38.926  1.00  0.00    -0.157 NA
ATOM     12  C   UNL A   1      38.456  34.179  39.935  1.00  0.00     0.289 A 
ATOM     13  C   UNL A   1      38.881  34.694  38.607  1.00  0.00     0.125 A 
ATOM     14  O   UNL A   1      38.314  34.962  40.872  1.00  0.00    -0.266 OA
ATOM     15  C   UNL A   1      38.952  33.891  37.532  1.00  0.00     0.007 A 
ATOM     16  C   UNL A   1      39.476  34.298  36.185  1.00  0.00     0.049 C 
BRANCH  10  17
ATOM     17  C   UNL A   1      37.917  32.199  41.247  1.00  0.00     0.070 A 
ATOM     18  C   UNL A   1      36.683  30.093  44.828  1.00  0.00     0.046 C 
ATOM     19  C   UNL A   1      37.091  30.826  43.579  1.00  0.00    -0.032 A 
ATOM     20  C   UNL A   1      38.425  30.777  43.152  1.00  0.00     0.007 A 
ATOM     21  C   UNL A   1      36.174  31.560  42.811  1.00  0.00     0.046 A 
ATOM     22  C   UNL A   1      38.828  31.442  41.989  1.00  0.00     0.029 A 
ATOM     23  C   UNL A   1      36.587  32.259  41.665  1.00  0.00     0.049 A 
ATOM     24  Cl  UNL A   1      34.493  31.560  43.219  1.00  0.00    -0.084 Cl
ENDBRANCH  10  17
BRANCH  13  25
ATOM     25  C   UNL A   1      39.234  36.070  38.541  1.00  0.00     0.105 C 
ATOM     26  N   UNL A   1      39.522  37.196  38.569  1.00  0.00    -0.192 NA
ENDBRANCH  13  25
ENDBRANCH   7   9
ENDBRANCH   6   7
ENDBRANCH   5   6
ENDBRANCH   4   5
ENDBRANCH   3   4
ENDBRANCH   2   3
ENDBRANCH   1   2
BRANCH   1  27
ATOM     27  O   UNL A   1      34.318  34.701  29.779  1.00  0.00    -0.376 OA
BRANCH  27  28
ATOM     28  C   UNL A   1      34.575  34.291  28.444  1.00  0.00     0.202 C 
BRANCH  28  29
ATOM     29  C   UNL A   1      34.403  32.863  27.872  1.00  0.00     0.261 C 
BRANCH  29  30
ATOM     30  O   UNL A   1      35.556  32.028  27.723  1.00  0.00    -0.460 OA
BRANCH  30  31
ATOM     31  C   UNL A   1      35.470  30.789  28.272  1.00  0.00     0.338 C 
ATOM     32  O   UNL A   1      34.650  29.928  28.011  1.00  0.00    -0.246 OA
BRANCH  31  33
ATOM     33  C   UNL A   1      36.678  30.554  29.088  1.00  0.00     0.060 A 
ATOM     34  C   UNL A   1      37.864  31.212  28.740  1.00  0.00     0.016 A 
ATOM     35  C   UNL A   1      36.649  29.690  30.183  1.00  0.00     0.016 A 
ATOM     36  C   UNL A   1      39.011  31.025  29.503  1.00  0.00     0.010 A 
ATOM     37  C   UNL A   1      37.824  29.464  30.913  1.00  0.00     0.010 A 
ATOM     38  C   UNL A   1      39.018  30.117  30.565  1.00  0.00    -0.014 A 
BRANCH  38  39
ATOM     39  C   UNL A   1      40.323  29.712  31.148  1.00  0.00     0.031 A 
ATOM     40  C   UNL A   1      41.058  28.563  30.515  1.00  0.00     0.074 A 
ATOM     41  C   UNL A   1      40.891  30.394  32.161  1.00  0.00     0.049 A 
ATOM     42  N   UNL A   1      42.176  27.990  30.877  1.00  0.00    -0.248 NA
ATOM     43  C   UNL A   1      40.447  27.983  29.306  1.00  0.00     0.031 C 
ATOM     44  C   UNL A   1      40.343  31.596  32.786  1.00  0.00     0.029 A 
ATOM     45  N   UNL A   1      42.068  30.171  32.833  1.00  0.00    -0.354 N 
ATOM     46  C   UNL A   1      42.393  26.973  29.953  1.00  0.00     0.074 A 
ATOM     47  C   UNL A   1      41.276  26.987  29.035  1.00  0.00     0.031 C 
ATOM     48  C   UNL A   1      41.182  32.003  33.756  1.00  0.00     0.029 A 
ATOM     49  C   UNL A   1      42.300  31.063  33.852  1.00  0.00     0.049 A 
ATOM     50  H   UNL A   1      42.687  29.440  32.606  1.00  0.00     0.167 HD
ATOM     51  C   UNL A   1      43.432  26.108  29.872  1.00  0.00     0.031 A 
ATOM     52  C   UNL A   1      43.284  31.105  34.774  1.00  0.00     0.031 A 
ATOM     53  C   UNL A   1      44.540  26.098  30.790  1.00  0.00     0.049 A 
ATOM     54  C   UNL A   1      44.370  30.059  34.742  1.00  0.00     0.074 A 
ATOM     55  C   UNL A   1      45.637  25.254  30.799  1.00  0.00     0.029 A 
ATOM     56  N   UNL A   1      44.694  26.968  31.860  1.00  0.00    -0.354 N 
ATOM     57  N   UNL A   1      44.554  29.087  33.880  1.00  0.00    -0.248 NA
ATOM     58  C   UNL A   1      45.382  30.114  35.807  1.00  0.00     0.031 C 
ATOM     59  C   UNL A   1      46.415  25.565  31.918  1.00  0.00     0.029 A 
ATOM     60  C   UNL A   1      45.847  26.654  32.561  1.00  0.00     0.049 A 
ATOM     61  H   UNL A   1      44.076  27.699  32.086  1.00  0.00     0.167 HD
ATOM     62  C   UNL A   1      45.713  28.431  34.285  1.00  0.00     0.074 A 
ATOM     63  C   UNL A   1      46.197  29.128  35.459  1.00  0.00     0.031 C 
ATOM     64  C   UNL A   1      46.319  27.349  33.734  1.00  0.00     0.031 A 
BRANCH  51  65
ATOM     65  C   UNL A   1      43.392  25.069  28.783  1.00  0.00    -0.014 A 
ATOM     66  C   UNL A   1      42.849  23.791  29.005  1.00  0.00     0.010 A 
ATOM     67  C   UNL A   1      43.876  25.393  27.502  1.00  0.00     0.010 A 
ATOM     68  C   UNL A   1      42.825  22.845  27.976  1.00  0.00     0.020 A 
ATOM     69  C   UNL A   1      43.822  24.461  26.461  1.00  0.00     0.020 A 
ATOM     70  C   UNL A   1      43.311  23.187  26.711  1.00  0.00     0.054 A 
BRANCH  70  71
ATOM     71  S   UNL A   1      43.250  21.943  25.393  1.00  0.00     0.124 S 
ATOM     72  O   UNL A   1      44.387  21.088  25.730  1.00  0.00    -0.237 OA
ATOM     73  O   UNL A   1      41.934  21.342  25.584  1.00  0.00    -0.237 OA
ATOM     74  O   UNL A   1      43.405  22.724  24.167  1.00  0.00    -0.744 OA
ENDBRANCH  70  71
ENDBRANCH  51  65
BRANCH  52  75
ATOM     75  C   UNL A   1      43.273  32.168  35.820  1.00  0.00    -0.014 A 
ATOM     76  C   UNL A   1      43.979  33.369  35.633  1.00  0.00     0.010 A 
ATOM     77  C   UNL A   1      42.528  31.994  37.003  1.00  0.00     0.010 A 
ATOM     78  C   UNL A   1      43.933  34.377  36.602  1.00  0.00     0.020 A 
ATOM     79  C   UNL A   1      42.455  33.011  37.959  1.00  0.00     0.020 A 
ATOM     80  C   UNL A   1      43.160  34.197  37.752  1.00  0.00     0.054 A 
BRANCH  80  81
ATOM     81  S   UNL A   1      43.049  35.557  38.949  1.00  0.00     0.124 S 
ATOM     82  O   UNL A   1      42.612  36.669  38.111  1.00  0.00    -0.237 OA
ATOM     83  O   UNL A   1      42.061  35.054  39.900  1.00  0.00    -0.237 OA
ATOM     84  O   UNL A   1      44.408  35.667  39.473  1.00  0.00    -0.744 OA
ENDBRANCH  80  81
ENDBRANCH  52  75
BRANCH  64  85
ATOM     85  C   UNL A   1      47.588  26.845  34.373  1.00  0.00    -0.014 A 
ATOM     86  C   UNL A   1      47.560  25.837  35.353  1.00  0.00     0.010 A 
ATOM     87  C   UNL A   1      48.834  27.321  33.922  1.00  0.00     0.010 A 
ATOM     88  C   UNL A   1      48.749  25.332  35.885  1.00  0.00     0.020 A 
ATOM     89  C   UNL A   1      50.027  26.795  34.426  1.00  0.00     0.020 A 
ATOM     90  C   UNL A   1      49.976  25.810  35.413  1.00  0.00     0.054 A 
BRANCH  90  91
ATOM     91  S   UNL A   1      51.503  25.099  36.086  1.00  0.00     0.124 S 
ATOM     92  O   UNL A   1      52.127  24.531  34.893  1.00  0.00    -0.237 OA
ATOM     93  O   UNL A   1      52.174  26.267  36.651  1.00  0.00    -0.237 OA
ATOM     94  O   UNL A   1      51.033  24.122  37.066  1.00  0.00    -0.744 OA
ENDBRANCH  90  91
ENDBRANCH  64  85
ENDBRANCH  38  39
ENDBRANCH  31  33
ENDBRANCH  30  31
ENDBRANCH  29  30
ENDBRANCH  28  29
ENDBRANCH  27  28
ENDBRANCH   1  27
TORSDOF 22
ENDMDL
MODEL 3
REMARK VINA RESULT:      -7.0      3.447      5.053
REMARK SMILES Cc1ccc(-n2nc(C(=O)OCCOCCOCCOC(=O)c3ccc(-c4c5nc(c(-c6ccc(S(=O)(=O)[O-])cc6)c6ccc([nH]6)c(-c6ccc(S(=O)(=O)[O-])cc6)c6nc(c(-c7ccc(S(=O)(=O)[O-])cc7)c7ccc4[nH]7)C=C6)C=C5)cc3)c(C)c(C#N)c2=O)cc1Cl
REMARK SMILES IDX 16 1 15 2 14 3 13 4 12 5 11 6 9 7 10 8 8 9 6 10 7 11 88 12
REMARK SMILES IDX 85 13 89 14 83 15 84 16 5 17 1 18 2 19 3 20 91 21 4 22 90 23
REMARK SMILES IDX 92 24 86 25 87 26 17 27 18 28 19 29 20 30 21 31 22 32 23 33
REMARK SMILES IDX 24 34 82 35 25 36 81 37 26 38 27 39 28 40 75 41 29 42 80 43
REMARK SMILES IDX 74 44 76 45 30 46 79 47 73 48 72 49 31 51 61 52 42 53 60 54
REMARK SMILES IDX 43 55 46 56 59 57 77 58 44 59 45 60 58 62 78 63 47 64 32 65
REMARK SMILES IDX 33 66 41 67 34 68 40 69 35 70 36 71 37 72 38 73 39 74 62 75
REMARK SMILES IDX 63 76 71 77 64 78 70 79 65 80 66 81 67 82 68 83 69 84 48 85
REMARK SMILES IDX 49 86 57 87 50 88 56 89 51 90 52 91 53 92 54 93 55 94
REMARK H PARENT 76 50 46 61
REMARK Flexibility Score: inf
ROOT
ATOM      1  C   UNL A   1      34.503  33.143  30.367  1.00  0.00     0.188 C 
ENDROOT
BRANCH   1   2
ATOM      2  C   UNL A   1      34.699  34.226  31.454  1.00  0.00     0.188 C 
BRANCH   2   3
ATOM      3  O   UNL A   1      35.837  34.147  32.290  1.00  0.00    -0.376 OA
BRANCH   3   4
ATOM      4  C   UNL A   1      35.865  33.243  33.382  1.00  0.00     0.202 C 
BRANCH   4   5
ATOM      5  C   UNL A   1      37.174  32.738  34.020  1.00  0.00     0.261 C 
BRANCH   5   6
ATOM      6  O   UNL A   1      37.039  32.235  35.355  1.00  0.00    -0.458 OA
BRANCH   6   7
ATOM      7  C   UNL A   1      38.034  31.456  35.824  1.00  0.00     0.359 C 
ATOM      8  O   UNL A   1      38.457  30.427  35.334  1.00  0.00    -0.244 OA
BRANCH   7   9
ATOM      9  C   UNL A   1      38.632  32.055  37.114  1.00  0.00     0.173 A 
ATOM     10  N   UNL A   1      38.420  32.484  39.356  1.00  0.00    -0.195 N 
ATOM     11  N   UNL A   1      38.010  31.803  38.229  1.00  0.00    -0.157 NA
ATOM     12  C   UNL A   1      39.375  33.498  39.345  1.00  0.00     0.289 A 
ATOM     13  C   UNL A   1      40.170  33.610  38.094  1.00  0.00     0.125 A 
ATOM     14  O   UNL A   1      39.632  34.236  40.294  1.00  0.00    -0.266 OA
ATOM     15  C   UNL A   1      39.860  32.894  36.999  1.00  0.00     0.007 A 
ATOM     16  C   UNL A   1      40.669  32.860  35.735  1.00  0.00     0.049 C 
BRANCH  10  17
ATOM     17  C   UNL A   1      37.608  32.289  40.506  1.00  0.00     0.070 A 
ATOM     18  C   UNL A   1      35.012  31.426  43.868  1.00  0.00     0.046 C 
ATOM     19  C   UNL A   1      35.897  31.736  42.691  1.00  0.00    -0.032 A 
ATOM     20  C   UNL A   1      37.110  31.051  42.538  1.00  0.00     0.007 A 
ATOM     21  C   UNL A   1      35.546  32.690  41.724  1.00  0.00     0.046 A 
ATOM     22  C   UNL A   1      37.947  31.313  41.447  1.00  0.00     0.029 A 
ATOM     23  C   UNL A   1      36.404  32.980  40.650  1.00  0.00     0.049 A 
ATOM     24  Cl  UNL A   1      34.009  33.481  41.792  1.00  0.00    -0.084 Cl
ENDBRANCH  10  17
BRANCH  13  25
ATOM     25  C   UNL A   1      41.287  34.489  38.125  1.00  0.00     0.105 C 
ATOM     26  N   UNL A   1      42.197  35.203  38.232  1.00  0.00    -0.192 NA
ENDBRANCH  13  25
ENDBRANCH   7   9
ENDBRANCH   6   7
ENDBRANCH   5   6
ENDBRANCH   4   5
ENDBRANCH   3   4
ENDBRANCH   2   3
ENDBRANCH   1   2
BRANCH   1  27
ATOM     27  O   UNL A   1      34.683  33.533  29.026  1.00  0.00    -0.376 OA
BRANCH  27  28
ATOM     28  C   UNL A   1      35.185  32.589  28.091  1.00  0.00     0.202 C 
BRANCH  28  29
ATOM     29  C   UNL A   1      35.108  31.048  28.211  1.00  0.00     0.261 C 
BRANCH  29  30
ATOM     30  O   UNL A   1      36.288  30.271  27.978  1.00  0.00    -0.460 OA
BRANCH  30  31
ATOM     31  C   UNL A   1      36.966  29.870  29.084  1.00  0.00     0.338 C 
ATOM     32  O   UNL A   1      36.516  29.724  30.206  1.00  0.00    -0.246 OA
BRANCH  31  33
ATOM     33  C   UNL A   1      38.307  29.411  28.669  1.00  0.00     0.060 A 
ATOM     34  C   UNL A   1      39.187  28.931  29.647  1.00  0.00     0.016 A 
ATOM     35  C   UNL A   1      38.699  29.455  27.331  1.00  0.00     0.016 A 
ATOM     36  C   UNL A   1      40.448  28.474  29.280  1.00  0.00     0.010 A 
ATOM     37  C   UNL A   1      39.992  29.045  26.979  1.00  0.00     0.010 A 
ATOM     38  C   UNL A   1      40.881  28.568  27.956  1.00  0.00    -0.014 A 
BRANCH  38  39
ATOM     39  C   UNL A   1      42.324  28.369  27.662  1.00  0.00     0.031 A 
ATOM     40  C   UNL A   1      43.271  29.501  27.950  1.00  0.00     0.074 A 
ATOM     41  C   UNL A   1      42.804  27.187  27.230  1.00  0.00     0.049 A 
ATOM     42  N   UNL A   1      44.556  29.589  27.724  1.00  0.00    -0.248 NA
ATOM     43  C   UNL A   1      42.686  30.697  28.581  1.00  0.00     0.031 C 
ATOM     44  C   UNL A   1      42.015  25.975  27.025  1.00  0.00     0.029 A 
ATOM     45  N   UNL A   1      44.084  26.816  26.897  1.00  0.00    -0.354 N 
ATOM     46  C   UNL A   1      44.930  30.853  28.169  1.00  0.00     0.074 A 
ATOM     47  C   UNL A   1      43.731  31.507  28.646  1.00  0.00     0.031 C 
ATOM     48  C   UNL A   1      42.828  24.993  26.595  1.00  0.00     0.029 A 
ATOM     49  C   UNL A   1      44.185  25.521  26.449  1.00  0.00     0.049 A 
ATOM     50  H   UNL A   1      44.857  27.422  26.972  1.00  0.00     0.167 HD
ATOM     51  C   UNL A   1      46.160  31.417  28.183  1.00  0.00     0.031 A 
ATOM     52  C   UNL A   1      45.242  24.844  25.953  1.00  0.00     0.031 A 
ATOM     53  C   UNL A   1      47.349  30.761  27.706  1.00  0.00     0.049 A 
ATOM     54  C   UNL A   1      46.582  25.530  25.865  1.00  0.00     0.074 A 
ATOM     55  C   UNL A   1      48.642  31.252  27.668  1.00  0.00     0.029 A 
ATOM     56  N   UNL A   1      47.392  29.477  27.182  1.00  0.00    -0.354 N 
ATOM     57  N   UNL A   1      46.921  26.734  26.265  1.00  0.00    -0.248 NA
ATOM     58  C   UNL A   1      47.683  24.768  25.258  1.00  0.00     0.031 C 
ATOM     59  C   UNL A   1      49.453  30.295  27.052  1.00  0.00     0.029 A 
ATOM     60  C   UNL A   1      48.683  29.175  26.779  1.00  0.00     0.049 A 
ATOM     61  H   UNL A   1      46.620  28.872  27.108  1.00  0.00     0.167 HD
ATOM     62  C   UNL A   1      48.277  26.863  25.979  1.00  0.00     0.074 A 
ATOM     63  C   UNL A   1      48.701  25.610  25.390  1.00  0.00     0.031 C 
ATOM     64  C   UNL A   1      49.095  27.926  26.187  1.00  0.00     0.031 A 
BRANCH  51  65
ATOM     65  C   UNL A   1      46.274  32.832  28.687  1.00  0.00    -0.014 A 
ATOM     66  C   UNL A   1      46.081  33.934  27.835  1.00  0.00     0.010 A 
ATOM     67  C   UNL A   1      46.544  33.060  30.049  1.00  0.00     0.010 A 
ATOM     68  C   UNL A   1      46.193  35.237  28.329  1.00  0.00     0.020 A 
ATOM     69  C   UNL A   1      46.623  34.360  30.554  1.00  0.00     0.020 A 
ATOM     70  C   UNL A   1      46.463  35.441  29.685  1.00  0.00     0.054 A 
BRANCH  70  71
ATOM     71  S   UNL A   1      46.585  37.144  30.298  1.00  0.00     0.124 S 
ATOM     72  O   UNL A   1      46.895  37.884  29.077  1.00  0.00    -0.237 OA
ATOM     73  O   UNL A   1      45.255  37.377  30.854  1.00  0.00    -0.237 OA
ATOM     74  O   UNL A   1      47.667  37.085  31.279  1.00  0.00    -0.744 OA
ENDBRANCH  70  71
ENDBRANCH  51  65
BRANCH  52  75
ATOM     75  C   UNL A   1      45.066  23.440  25.481  1.00  0.00    -0.014 A 
ATOM     76  C   UNL A   1      44.888  23.157  24.117  1.00  0.00     0.010 A 
ATOM     77  C   UNL A   1      45.106  22.372  26.398  1.00  0.00     0.010 A 
ATOM     78  C   UNL A   1      44.762  21.835  23.676  1.00  0.00     0.020 A 
ATOM     79  C   UNL A   1      45.011  21.048  25.960  1.00  0.00     0.020 A 
ATOM     80  C   UNL A   1      44.839  20.789  24.599  1.00  0.00     0.054 A 
BRANCH  80  81
ATOM     81  S   UNL A   1      44.760  19.081  23.989  1.00  0.00     0.124 S 
ATOM     82  O   UNL A   1      43.670  18.522  24.782  1.00  0.00    -0.237 OA
ATOM     83  O   UNL A   1      44.476  19.271  22.570  1.00  0.00    -0.237 OA
ATOM     84  O   UNL A   1      46.086  18.547  24.287  1.00  0.00    -0.744 OA
ENDBRANCH  80  81
ENDBRANCH  52  75
BRANCH  64  85
ATOM     85  C   UNL A   1      50.545  27.792  25.793  1.00  0.00    -0.014 A 
ATOM     86  C   UNL A   1      51.511  27.343  26.710  1.00  0.00     0.010 A 
ATOM     87  C   UNL A   1      50.930  28.031  24.460  1.00  0.00     0.010 A 
ATOM     88  C   UNL A   1      52.837  27.157  26.309  1.00  0.00     0.020 A 
ATOM     89  C   UNL A   1      52.248  27.814  24.046  1.00  0.00     0.020 A 
ATOM     90  C   UNL A   1      53.196  27.388  24.978  1.00  0.00     0.054 A 
BRANCH  90  91
ATOM     91  S   UNL A   1      54.913  27.089  24.476  1.00  0.00     0.124 S 
ATOM     92  O   UNL A   1      54.823  27.169  23.020  1.00  0.00    -0.237 OA
ATOM     93  O   UNL A   1      55.627  28.188  25.122  1.00  0.00    -0.237 OA
ATOM     94  O   UNL A   1      55.208  25.762  25.009  1.00  0.00    -0.744 OA
ENDBRANCH  90  91
ENDBRANCH  64  85
ENDBRANCH  38  39
ENDBRANCH  31  33
ENDBRANCH  30  31
ENDBRANCH  29  30
ENDBRANCH  28  29
ENDBRANCH  27  28
ENDBRANCH   1  27
TORSDOF 22
ENDMDL
