MODEL 1
REMARK VINA RESULT:     -10.3      0.000      0.000
REMARK SMILES CC(C)(C)c1cc(NC(=O)[C@H]2[C@@H](C(=O)OCCOCCOCCOC(=O)c3ccc(-c4c5nc(c(-c6ccc(S(=O)(=O)[O-])cc6)c6ccc([nH]6)c(-c6ccc(S(=O)(=O)[O-])cc6)c6nc(c(-c7ccc(S(=O)(=O)[O-])cc7)c7ccc4[nH]7)C=C6)C=C5)cc3)[C@H]3C=C[C@@H]2C3)no1
REMARK SMILES IDX 19 1 18 2 17 3 16 4 15 5 13 6 14 7 12 8 11 9 90 10 87 11
REMARK SMILES IDX 89 12 91 13 88 14 9 15 8 16 10 18 7 19 5 20 6 21 93 22 92 23
REMARK SMILES IDX 2 24 1 25 3 26 4 27 20 28 21 29 22 30 23 31 24 32 25 33
REMARK SMILES IDX 26 34 27 35 28 36 86 37 29 38 85 39 30 40 31 41 32 42 79 43
REMARK SMILES IDX 33 44 84 45 78 46 80 47 34 48 83 49 77 50 76 51 35 53 65 54
REMARK SMILES IDX 46 55 64 56 47 57 50 58 63 59 81 60 48 61 49 62 62 64 82 65
REMARK SMILES IDX 51 66 36 67 37 68 45 69 38 70 44 71 39 72 40 73 41 74 42 75
REMARK SMILES IDX 43 76 66 77 67 78 75 79 68 80 74 81 69 82 70 83 71 84 72 85
REMARK SMILES IDX 73 86 52 87 53 88 61 89 54 90 60 91 55 92 56 93 57 94 58 95
REMARK SMILES IDX 59 96
REMARK H PARENT 8 17 80 52 50 63
REMARK Flexibility Score: inf
ROOT
ATOM      1  C   UNL A   1      32.746  30.640  26.933  1.00  0.00     0.188 C 
ENDROOT
BRANCH   1   2
ATOM      2  O   UNL A   1      32.519  30.081  25.648  1.00  0.00    -0.376 OA
BRANCH   2   3
ATOM      3  C   UNL A   1      31.979  28.773  25.538  1.00  0.00     0.202 C 
BRANCH   3   4
ATOM      4  C   UNL A   1      30.915  28.490  24.462  1.00  0.00     0.261 C 
BRANCH   4   5
ATOM      5  O   UNL A   1      30.963  27.212  23.767  1.00  0.00    -0.463 OA
BRANCH   5   6
ATOM      6  C   UNL A   1      31.155  26.133  24.573  1.00  0.00     0.310 C 
ATOM      7  O   UNL A   1      30.748  26.118  25.735  1.00  0.00    -0.252 OA
BRANCH   6   8
ATOM      8  C   UNL A   1      32.067  25.016  24.042  1.00  0.00     0.119 C 
ATOM      9  C   UNL A   1      32.528  23.628  24.647  1.00  0.00     0.100 C 
ATOM     10  C   UNL A   1      34.087  23.753  24.674  1.00  0.00     0.025 C 
ATOM     11  C   UNL A   1      33.461  25.697  23.801  1.00  0.00     0.027 C 
ATOM     12  C   UNL A   1      34.504  24.822  25.645  1.00  0.00    -0.027 C 
ATOM     13  C   UNL A   1      34.334  24.518  23.377  1.00  0.00     0.017 C 
ATOM     14  C   UNL A   1      34.106  25.994  25.141  1.00  0.00    -0.027 C 
BRANCH   9  15
ATOM     15  C   UNL A   1      32.020  23.020  25.947  1.00  0.00     0.230 C 
ATOM     16  N   UNL A   1      31.819  21.688  26.104  1.00  0.00    -0.308 N 
ATOM     17  H   UNL A   1      31.353  21.422  26.929  1.00  0.00     0.171 HD
ATOM     18  O   UNL A   1      31.826  23.706  26.955  1.00  0.00    -0.274 OA
BRANCH  16  19
ATOM     19  C   UNL A   1      32.180  20.664  25.271  1.00  0.00     0.176 A 
ATOM     20  C   UNL A   1      33.071  18.775  24.570  1.00  0.00     0.144 A 
ATOM     21  C   UNL A   1      32.694  19.426  25.721  1.00  0.00     0.096 A 
ATOM     22  O   UNL A   1      32.746  19.553  23.504  1.00  0.00    -0.359 OA
ATOM     23  N   UNL A   1      32.165  20.712  23.940  1.00  0.00    -0.062 NA
BRANCH  20  24
ATOM     24  C   UNL A   1      33.770  17.493  24.240  1.00  0.00     0.023 C 
ATOM     25  C   UNL A   1      33.233  16.332  25.091  1.00  0.00     0.019 C 
ATOM     26  C   UNL A   1      35.275  17.666  24.516  1.00  0.00     0.019 C 
ATOM     27  C   UNL A   1      33.550  17.161  22.752  1.00  0.00     0.019 C 
ENDBRANCH  20  24
ENDBRANCH  16  19
ENDBRANCH   9  15
ENDBRANCH   6   8
ENDBRANCH   5   6
ENDBRANCH   4   5
ENDBRANCH   3   4
ENDBRANCH   2   3
ENDBRANCH   1   2
BRANCH   1  28
ATOM     28  C   UNL A   1      34.177  30.708  27.466  1.00  0.00     0.188 C 
BRANCH  28  29
ATOM     29  O   UNL A   1      34.791  31.983  27.419  1.00  0.00    -0.376 OA
BRANCH  29  30
ATOM     30  C   UNL A   1      34.116  33.011  28.123  1.00  0.00     0.202 C 
BRANCH  30  31
ATOM     31  C   UNL A   1      34.678  33.255  29.527  1.00  0.00     0.261 C 
BRANCH  31  32
ATOM     32  O   UNL A   1      36.044  32.832  29.719  1.00  0.00    -0.460 OA
BRANCH  32  33
ATOM     33  C   UNL A   1      36.265  31.838  30.612  1.00  0.00     0.338 C 
ATOM     34  O   UNL A   1      35.494  31.459  31.484  1.00  0.00    -0.246 OA
BRANCH  33  35
ATOM     35  C   UNL A   1      37.527  31.168  30.234  1.00  0.00     0.060 A 
ATOM     36  C   UNL A   1      38.393  30.705  31.231  1.00  0.00     0.016 A 
ATOM     37  C   UNL A   1      37.857  30.987  28.894  1.00  0.00     0.016 A 
ATOM     38  C   UNL A   1      39.578  30.050  30.899  1.00  0.00     0.010 A 
ATOM     39  C   UNL A   1      39.061  30.353  28.561  1.00  0.00     0.010 A 
ATOM     40  C   UNL A   1      39.935  29.887  29.562  1.00  0.00    -0.014 A 
BRANCH  40  41
ATOM     41  C   UNL A   1      41.294  29.398  29.218  1.00  0.00     0.031 A 
ATOM     42  C   UNL A   1      42.430  30.381  29.263  1.00  0.00     0.074 A 
ATOM     43  C   UNL A   1      41.540  28.108  28.921  1.00  0.00     0.049 A 
ATOM     44  N   UNL A   1      43.647  30.263  28.804  1.00  0.00    -0.248 NA
ATOM     45  C   UNL A   1      42.152  31.672  29.916  1.00  0.00     0.031 C 
ATOM     46  C   UNL A   1      40.573  27.013  28.996  1.00  0.00     0.029 A 
ATOM     47  N   UNL A   1      42.695  27.503  28.485  1.00  0.00    -0.354 N 
ATOM     48  C   UNL A   1      44.261  31.484  29.055  1.00  0.00     0.074 A 
ATOM     49  C   UNL A   1      43.289  32.322  29.722  1.00  0.00     0.031 C 
ATOM     50  C   UNL A   1      41.171  25.874  28.602  1.00  0.00     0.029 A 
ATOM     51  C   UNL A   1      42.536  26.171  28.175  1.00  0.00     0.049 A 
ATOM     52  H   UNL A   1      43.554  27.976  28.403  1.00  0.00     0.167 HD
ATOM     53  C   UNL A   1      45.516  31.875  28.735  1.00  0.00     0.031 A 
ATOM     54  C   UNL A   1      43.375  25.310  27.560  1.00  0.00     0.031 A 
ATOM     55  C   UNL A   1      46.483  31.023  28.095  1.00  0.00     0.049 A 
ATOM     56  C   UNL A   1      44.728  25.803  27.102  1.00  0.00     0.074 A 
ATOM     57  C   UNL A   1      47.781  31.328  27.724  1.00  0.00     0.029 A 
ATOM     58  N   UNL A   1      46.259  29.704  27.733  1.00  0.00    -0.354 N 
ATOM     59  N   UNL A   1      45.285  26.977  27.282  1.00  0.00    -0.248 NA
ATOM     60  C   UNL A   1      45.559  24.858  26.341  1.00  0.00     0.031 C 
ATOM     61  C   UNL A   1      48.319  30.213  27.075  1.00  0.00     0.029 A 
ATOM     62  C   UNL A   1      47.384  29.191  27.111  1.00  0.00     0.049 A 
ATOM     63  H   UNL A   1      45.425  29.206  27.894  1.00  0.00     0.167 HD
ATOM     64  C   UNL A   1      46.542  26.899  26.690  1.00  0.00     0.074 A 
ATOM     65  C   UNL A   1      46.669  25.560  26.153  1.00  0.00     0.031 C 
ATOM     66  C   UNL A   1      47.506  27.848  26.601  1.00  0.00     0.031 A 
BRANCH  53  67
ATOM     67  C   UNL A   1      45.891  33.308  28.991  1.00  0.00    -0.014 A 
ATOM     68  C   UNL A   1      46.521  33.715  30.179  1.00  0.00     0.010 A 
ATOM     69  C   UNL A   1      45.647  34.260  27.982  1.00  0.00     0.010 A 
ATOM     70  C   UNL A   1      46.877  35.055  30.364  1.00  0.00     0.020 A 
ATOM     71  C   UNL A   1      46.027  35.592  28.150  1.00  0.00     0.020 A 
ATOM     72  C   UNL A   1      46.630  35.984  29.347  1.00  0.00     0.054 A 
BRANCH  72  73
ATOM     73  S   UNL A   1      47.140  37.706  29.595  1.00  0.00     0.124 S 
ATOM     74  O   UNL A   1      45.870  38.417  29.475  1.00  0.00    -0.237 OA
ATOM     75  O   UNL A   1      47.719  37.677  30.935  1.00  0.00    -0.237 OA
ATOM     76  O   UNL A   1      48.092  37.947  28.513  1.00  0.00    -0.744 OA
ENDBRANCH  72  73
ENDBRANCH  53  67
BRANCH  54  77
ATOM     77  C   UNL A   1      42.945  23.913  27.259  1.00  0.00    -0.014 A 
ATOM     78  C   UNL A   1      42.829  22.957  28.284  1.00  0.00     0.010 A 
ATOM     79  C   UNL A   1      42.700  23.514  25.931  1.00  0.00     0.010 A 
ATOM     80  C   UNL A   1      42.506  21.628  27.986  1.00  0.00     0.020 A 
ATOM     81  C   UNL A   1      42.343  22.196  25.632  1.00  0.00     0.020 A 
ATOM     82  C   UNL A   1      42.266  21.256  26.660  1.00  0.00     0.054 A 
BRANCH  82  83
ATOM     83  S   UNL A   1      41.833  19.532  26.297  1.00  0.00     0.124 S 
ATOM     84  O   UNL A   1      42.562  19.291  25.056  1.00  0.00    -0.237 OA
ATOM     85  O   UNL A   1      42.335  18.826  27.473  1.00  0.00    -0.237 OA
ATOM     86  O   UNL A   1      40.378  19.562  26.171  1.00  0.00    -0.744 OA
ENDBRANCH  82  83
ENDBRANCH  54  77
BRANCH  66  87
ATOM     87  C   UNL A   1      48.815  27.470  25.958  1.00  0.00    -0.014 A 
ATOM     88  C   UNL A   1      48.993  27.520  24.565  1.00  0.00     0.010 A 
ATOM     89  C   UNL A   1      49.916  27.150  26.777  1.00  0.00     0.010 A 
ATOM     90  C   UNL A   1      50.243  27.241  24.002  1.00  0.00     0.020 A 
ATOM     91  C   UNL A   1      51.172  26.902  26.221  1.00  0.00     0.020 A 
ATOM     92  C   UNL A   1      51.325  26.940  24.835  1.00  0.00     0.054 A 
BRANCH  92  93
ATOM     93  S   UNL A   1      52.952  26.656  24.083  1.00  0.00     0.124 S 
ATOM     94  O   UNL A   1      53.487  25.580  24.911  1.00  0.00    -0.237 OA
ATOM     95  O   UNL A   1      52.611  26.285  22.712  1.00  0.00    -0.237 OA
ATOM     96  O   UNL A   1      53.629  27.944  24.224  1.00  0.00    -0.744 OA
ENDBRANCH  92  93
ENDBRANCH  66  87
ENDBRANCH  40  41
ENDBRANCH  33  35
ENDBRANCH  32  33
ENDBRANCH  31  32
ENDBRANCH  30  31
ENDBRANCH  29  30
ENDBRANCH  28  29
ENDBRANCH   1  28
TORSDOF 23
ENDMDL
MODEL 2
REMARK VINA RESULT:     -10.2      1.588      3.755
REMARK SMILES CC(C)(C)c1cc(NC(=O)[C@H]2[C@@H](C(=O)OCCOCCOCCOC(=O)c3ccc(-c4c5nc(c(-c6ccc(S(=O)(=O)[O-])cc6)c6ccc([nH]6)c(-c6ccc(S(=O)(=O)[O-])cc6)c6nc(c(-c7ccc(S(=O)(=O)[O-])cc7)c7ccc4[nH]7)C=C6)C=C5)cc3)[C@H]3C=C[C@@H]2C3)no1
REMARK SMILES IDX 19 1 18 2 17 3 16 4 15 5 13 6 14 7 12 8 11 9 90 10 87 11
REMARK SMILES IDX 89 12 91 13 88 14 9 15 8 16 10 18 7 19 5 20 6 21 93 22 92 23
REMARK SMILES IDX 2 24 1 25 3 26 4 27 20 28 21 29 22 30 23 31 24 32 25 33
REMARK SMILES IDX 26 34 27 35 28 36 86 37 29 38 85 39 30 40 31 41 32 42 79 43
REMARK SMILES IDX 33 44 84 45 78 46 80 47 34 48 83 49 77 50 76 51 35 53 65 54
REMARK SMILES IDX 46 55 64 56 47 57 50 58 63 59 81 60 48 61 49 62 62 64 82 65
REMARK SMILES IDX 51 66 36 67 37 68 45 69 38 70 44 71 39 72 40 73 41 74 42 75
REMARK SMILES IDX 43 76 66 77 67 78 75 79 68 80 74 81 69 82 70 83 71 84 72 85
REMARK SMILES IDX 73 86 52 87 53 88 61 89 54 90 60 91 55 92 56 93 57 94 58 95
REMARK SMILES IDX 59 96
REMARK H PARENT 8 17 80 52 50 63
REMARK Flexibility Score: inf
ROOT
ATOM      1  C   UNL A   1      33.159  30.294  27.011  1.00  0.00     0.188 C 
ENDROOT
BRANCH   1   2
ATOM      2  O   UNL A   1      33.099  29.979  25.628  1.00  0.00    -0.376 OA
BRANCH   2   3
ATOM      3  C   UNL A   1      33.536  28.705  25.180  1.00  0.00     0.202 C 
BRANCH   3   4
ATOM      4  C   UNL A   1      33.559  27.530  26.175  1.00  0.00     0.261 C 
BRANCH   4   5
ATOM      5  O   UNL A   1      34.445  26.409  25.894  1.00  0.00    -0.463 OA
BRANCH   5   6
ATOM      6  C   UNL A   1      33.810  25.229  25.659  1.00  0.00     0.310 C 
ATOM      7  O   UNL A   1      33.511  24.464  26.576  1.00  0.00    -0.252 OA
BRANCH   6   8
ATOM      8  C   UNL A   1      33.655  24.799  24.191  1.00  0.00     0.119 C 
ATOM      9  C   UNL A   1      32.454  24.163  23.380  1.00  0.00     0.100 C 
ATOM     10  C   UNL A   1      33.057  22.822  22.846  1.00  0.00     0.025 C 
ATOM     11  C   UNL A   1      34.763  23.710  23.958  1.00  0.00     0.027 C 
ATOM     12  C   UNL A   1      33.360  21.897  23.991  1.00  0.00    -0.027 C 
ATOM     13  C   UNL A   1      34.484  23.259  22.526  1.00  0.00     0.017 C 
ATOM     14  C   UNL A   1      34.367  22.438  24.683  1.00  0.00    -0.027 C 
BRANCH   9  15
ATOM     15  C   UNL A   1      31.048  23.937  23.919  1.00  0.00     0.230 C 
ATOM     16  N   UNL A   1      30.114  24.919  23.965  1.00  0.00    -0.308 N 
ATOM     17  H   UNL A   1      29.294  24.704  24.464  1.00  0.00     0.171 HD
ATOM     18  O   UNL A   1      30.660  22.822  24.282  1.00  0.00    -0.274 OA
BRANCH  16  19
ATOM     19  C   UNL A   1      30.159  26.170  23.410  1.00  0.00     0.176 A 
ATOM     20  C   UNL A   1      29.664  28.277  23.001  1.00  0.00     0.144 A 
ATOM     21  C   UNL A   1      29.489  27.294  23.946  1.00  0.00     0.096 A 
ATOM     22  O   UNL A   1      30.437  27.783  21.998  1.00  0.00    -0.359 OA
ATOM     23  N   UNL A   1      30.768  26.484  22.268  1.00  0.00    -0.062 NA
BRANCH  20  24
ATOM     24  C   UNL A   1      29.178  29.680  22.807  1.00  0.00     0.023 C 
ATOM     25  C   UNL A   1      27.646  29.729  22.713  1.00  0.00     0.019 C 
ATOM     26  C   UNL A   1      29.782  30.235  21.504  1.00  0.00     0.019 C 
ATOM     27  C   UNL A   1      29.631  30.545  23.998  1.00  0.00     0.019 C 
ENDBRANCH  20  24
ENDBRANCH  16  19
ENDBRANCH   9  15
ENDBRANCH   6   8
ENDBRANCH   5   6
ENDBRANCH   4   5
ENDBRANCH   3   4
ENDBRANCH   2   3
ENDBRANCH   1   2
BRANCH   1  28
ATOM     28  C   UNL A   1      34.499  30.710  27.616  1.00  0.00     0.188 C 
BRANCH  28  29
ATOM     29  O   UNL A   1      34.869  32.063  27.419  1.00  0.00    -0.376 OA
BRANCH  29  30
ATOM     30  C   UNL A   1      34.244  32.997  28.282  1.00  0.00     0.202 C 
BRANCH  30  31
ATOM     31  C   UNL A   1      35.087  33.341  29.515  1.00  0.00     0.261 C 
BRANCH  31  32
ATOM     32  O   UNL A   1      36.397  32.739  29.546  1.00  0.00    -0.460 OA
BRANCH  32  33
ATOM     33  C   UNL A   1      36.601  31.746  30.444  1.00  0.00     0.338 C 
ATOM     34  O   UNL A   1      35.826  31.387  31.320  1.00  0.00    -0.246 OA
BRANCH  33  35
ATOM     35  C   UNL A   1      37.850  31.050  30.067  1.00  0.00     0.060 A 
ATOM     36  C   UNL A   1      38.743  30.638  31.062  1.00  0.00     0.016 A 
ATOM     37  C   UNL A   1      38.140  30.794  28.730  1.00  0.00     0.016 A 
ATOM     38  C   UNL A   1      39.915  29.960  30.733  1.00  0.00     0.010 A 
ATOM     39  C   UNL A   1      39.331  30.137  28.398  1.00  0.00     0.010 A 
ATOM     40  C   UNL A   1      40.233  29.722  29.397  1.00  0.00    -0.014 A 
BRANCH  40  41
ATOM     41  C   UNL A   1      41.579  29.208  29.041  1.00  0.00     0.031 A 
ATOM     42  C   UNL A   1      42.731  30.173  29.062  1.00  0.00     0.074 A 
ATOM     43  C   UNL A   1      41.800  27.911  28.753  1.00  0.00     0.049 A 
ATOM     44  N   UNL A   1      43.941  30.031  28.590  1.00  0.00    -0.248 NA
ATOM     45  C   UNL A   1      42.482  31.474  29.707  1.00  0.00     0.031 C 
ATOM     46  C   UNL A   1      40.817  26.833  28.850  1.00  0.00     0.029 A 
ATOM     47  N   UNL A   1      42.940  27.283  28.308  1.00  0.00    -0.354 N 
ATOM     48  C   UNL A   1      44.577  31.244  28.822  1.00  0.00     0.074 A 
ATOM     49  C   UNL A   1      43.627  32.103  29.493  1.00  0.00     0.031 C 
ATOM     50  C   UNL A   1      41.392  25.681  28.459  1.00  0.00     0.029 A 
ATOM     51  C   UNL A   1      42.756  25.952  28.013  1.00  0.00     0.049 A 
ATOM     52  H   UNL A   1      43.806  27.742  28.212  1.00  0.00     0.167 HD
ATOM     53  C   UNL A   1      45.834  31.611  28.483  1.00  0.00     0.031 A 
ATOM     54  C   UNL A   1      43.574  25.071  27.396  1.00  0.00     0.031 A 
ATOM     55  C   UNL A   1      46.779  30.738  27.839  1.00  0.00     0.049 A 
ATOM     56  C   UNL A   1      44.928  25.538  26.916  1.00  0.00     0.074 A 
ATOM     57  C   UNL A   1      48.077  31.018  27.450  1.00  0.00     0.029 A 
ATOM     58  N   UNL A   1      46.529  29.419  27.492  1.00  0.00    -0.354 N 
ATOM     59  N   UNL A   1      45.506  26.705  27.079  1.00  0.00    -0.248 NA
ATOM     60  C   UNL A   1      45.735  24.573  26.154  1.00  0.00     0.031 C 
ATOM     61  C   UNL A   1      48.589  29.889  26.804  1.00  0.00     0.029 A 
ATOM     62  C   UNL A   1      47.638  28.883  26.861  1.00  0.00     0.049 A 
ATOM     63  H   UNL A   1      45.690  28.937  27.668  1.00  0.00     0.167 HD
ATOM     64  C   UNL A   1      46.754  26.601  26.473  1.00  0.00     0.074 A 
ATOM     65  C   UNL A   1      46.853  25.255  25.947  1.00  0.00     0.031 C 
ATOM     66  C   UNL A   1      47.732  27.534  26.363  1.00  0.00     0.031 A 
BRANCH  53  67
ATOM     67  C   UNL A   1      46.235  33.041  28.721  1.00  0.00    -0.014 A 
ATOM     68  C   UNL A   1      46.883  33.449  29.899  1.00  0.00     0.010 A 
ATOM     69  C   UNL A   1      45.998  33.986  27.704  1.00  0.00     0.010 A 
ATOM     70  C   UNL A   1      47.262  34.784  30.067  1.00  0.00     0.020 A 
ATOM     71  C   UNL A   1      46.401  35.314  27.856  1.00  0.00     0.020 A 
ATOM     72  C   UNL A   1      47.021  35.707  29.042  1.00  0.00     0.054 A 
BRANCH  72  73
ATOM     73  S   UNL A   1      47.562  37.423  29.268  1.00  0.00     0.124 S 
ATOM     74  O   UNL A   1      48.758  37.256  30.090  1.00  0.00    -0.237 OA
ATOM     75  O   UNL A   1      47.799  37.866  27.897  1.00  0.00    -0.237 OA
ATOM     76  O   UNL A   1      46.431  38.060  29.939  1.00  0.00    -0.744 OA
ENDBRANCH  72  73
ENDBRANCH  53  67
BRANCH  54  77
ATOM     77  C   UNL A   1      43.117  23.679  27.114  1.00  0.00    -0.014 A 
ATOM     78  C   UNL A   1      43.282  22.658  28.067  1.00  0.00     0.010 A 
ATOM     79  C   UNL A   1      42.562  23.352  25.862  1.00  0.00     0.010 A 
ATOM     80  C   UNL A   1      42.928  21.338  27.766  1.00  0.00     0.020 A 
ATOM     81  C   UNL A   1      42.175  22.041  25.568  1.00  0.00     0.020 A 
ATOM     82  C   UNL A   1      42.377  21.038  26.516  1.00  0.00     0.054 A 
BRANCH  82  83
ATOM     83  S   UNL A   1      41.911  19.323  26.151  1.00  0.00     0.124 S 
ATOM     84  O   UNL A   1      42.224  18.649  27.408  1.00  0.00    -0.237 OA
ATOM     85  O   UNL A   1      40.491  19.442  25.834  1.00  0.00    -0.237 OA
ATOM     86  O   UNL A   1      42.767  18.968  25.022  1.00  0.00    -0.744 OA
ENDBRANCH  82  83
ENDBRANCH  54  77
BRANCH  66  87
ATOM     87  C   UNL A   1      49.027  27.129  25.707  1.00  0.00    -0.014 A 
ATOM     88  C   UNL A   1      49.260  27.348  24.338  1.00  0.00     0.010 A 
ATOM     89  C   UNL A   1      50.065  26.605  26.503  1.00  0.00     0.010 A 
ATOM     90  C   UNL A   1      50.501  27.035  23.774  1.00  0.00     0.020 A 
ATOM     91  C   UNL A   1      51.315  26.321  25.950  1.00  0.00     0.020 A 
ATOM     92  C   UNL A   1      51.522  26.530  24.585  1.00  0.00     0.054 A 
BRANCH  92  93
ATOM     93  S   UNL A   1      53.146  26.204  23.844  1.00  0.00     0.124 S 
ATOM     94  O   UNL A   1      53.924  27.354  24.294  1.00  0.00    -0.237 OA
ATOM     95  O   UNL A   1      53.517  24.921  24.438  1.00  0.00    -0.237 OA
ATOM     96  O   UNL A   1      52.871  26.163  22.409  1.00  0.00    -0.744 OA
ENDBRANCH  92  93
ENDBRANCH  66  87
ENDBRANCH  40  41
ENDBRANCH  33  35
ENDBRANCH  32  33
ENDBRANCH  31  32
ENDBRANCH  30  31
ENDBRANCH  29  30
ENDBRANCH  28  29
ENDBRANCH   1  28
TORSDOF 23
ENDMDL
MODEL 3
REMARK VINA RESULT:     -10.1      5.862     11.029
REMARK SMILES CC(C)(C)c1cc(NC(=O)[C@H]2[C@@H](C(=O)OCCOCCOCCOC(=O)c3ccc(-c4c5nc(c(-c6ccc(S(=O)(=O)[O-])cc6)c6ccc([nH]6)c(-c6ccc(S(=O)(=O)[O-])cc6)c6nc(c(-c7ccc(S(=O)(=O)[O-])cc7)c7ccc4[nH]7)C=C6)C=C5)cc3)[C@H]3C=C[C@@H]2C3)no1
REMARK SMILES IDX 19 1 18 2 17 3 16 4 15 5 13 6 14 7 12 8 11 9 90 10 87 11
REMARK SMILES IDX 89 12 91 13 88 14 9 15 8 16 10 18 7 19 5 20 6 21 93 22 92 23
REMARK SMILES IDX 2 24 1 25 3 26 4 27 20 28 21 29 22 30 23 31 24 32 25 33
REMARK SMILES IDX 26 34 27 35 28 36 86 37 29 38 85 39 30 40 31 41 32 42 79 43
REMARK SMILES IDX 33 44 84 45 78 46 80 47 34 48 83 49 77 50 76 51 35 53 65 54
REMARK SMILES IDX 46 55 64 56 47 57 50 58 63 59 81 60 48 61 49 62 62 64 82 65
REMARK SMILES IDX 51 66 36 67 37 68 45 69 38 70 44 71 39 72 40 73 41 74 42 75
REMARK SMILES IDX 43 76 66 77 67 78 75 79 68 80 74 81 69 82 70 83 71 84 72 85
REMARK SMILES IDX 73 86 52 87 53 88 61 89 54 90 60 91 55 92 56 93 57 94 58 95
REMARK SMILES IDX 59 96
REMARK H PARENT 8 17 80 52 50 63
REMARK Flexibility Score: inf
ROOT
ATOM      1  C   UNL A   1      39.817  22.055  26.760  1.00  0.00     0.188 C 
ENDROOT
BRANCH   1   2
ATOM      2  O   UNL A   1      38.510  22.420  26.344  1.00  0.00    -0.376 OA
BRANCH   2   3
ATOM      3  C   UNL A   1      37.959  21.837  25.173  1.00  0.00     0.202 C 
BRANCH   3   4
ATOM      4  C   UNL A   1      36.507  22.169  24.783  1.00  0.00     0.261 C 
BRANCH   4   5
ATOM      5  O   UNL A   1      36.280  23.240  23.824  1.00  0.00    -0.463 OA
BRANCH   5   6
ATOM      6  C   UNL A   1      34.974  23.448  23.504  1.00  0.00     0.310 C 
ATOM      7  O   UNL A   1      34.581  23.405  22.339  1.00  0.00    -0.252 OA
BRANCH   6   8
ATOM      8  C   UNL A   1      34.046  23.930  24.631  1.00  0.00     0.119 C 
ATOM      9  C   UNL A   1      32.473  24.054  24.748  1.00  0.00     0.100 C 
ATOM     10  C   UNL A   1      32.258  25.575  25.045  1.00  0.00     0.025 C 
ATOM     11  C   UNL A   1      34.469  25.417  24.909  1.00  0.00     0.027 C 
ATOM     12  C   UNL A   1      32.682  26.399  23.862  1.00  0.00    -0.027 C 
ATOM     13  C   UNL A   1      33.448  25.859  25.956  1.00  0.00     0.017 C 
ATOM     14  C   UNL A   1      34.009  26.287  23.755  1.00  0.00    -0.027 C 
BRANCH   9  15
ATOM     15  C   UNL A   1      31.471  23.566  23.711  1.00  0.00     0.230 C 
ATOM     16  N   UNL A   1      31.353  22.261  23.363  1.00  0.00    -0.308 N 
ATOM     17  H   UNL A   1      30.781  22.078  22.583  1.00  0.00     0.171 HD
ATOM     18  O   UNL A   1      30.661  24.330  23.177  1.00  0.00    -0.274 OA
BRANCH  16  19
ATOM     19  C   UNL A   1      31.921  21.163  23.951  1.00  0.00     0.176 A 
ATOM     20  C   UNL A   1      32.892  19.199  24.175  1.00  0.00     0.144 A 
ATOM     21  C   UNL A   1      32.658  20.185  23.246  1.00  0.00     0.096 A 
ATOM     22  O   UNL A   1      32.377  19.596  25.370  1.00  0.00    -0.359 OA
ATOM     23  N   UNL A   1      31.801  20.830  25.235  1.00  0.00    -0.062 NA
BRANCH  20  24
ATOM     24  C   UNL A   1      33.506  17.833  24.163  1.00  0.00     0.023 C 
ATOM     25  C   UNL A   1      32.741  16.873  25.086  1.00  0.00     0.019 C 
ATOM     26  C   UNL A   1      34.963  17.943  24.647  1.00  0.00     0.019 C 
ATOM     27  C   UNL A   1      33.477  17.273  22.729  1.00  0.00     0.019 C 
ENDBRANCH  20  24
ENDBRANCH  16  19
ENDBRANCH   9  15
ENDBRANCH   6   8
ENDBRANCH   5   6
ENDBRANCH   4   5
ENDBRANCH   3   4
ENDBRANCH   2   3
ENDBRANCH   1   2
BRANCH   1  28
ATOM     28  C   UNL A   1      41.018  22.705  26.075  1.00  0.00     0.188 C 
BRANCH  28  29
ATOM     29  O   UNL A   1      41.996  21.814  25.570  1.00  0.00    -0.376 OA
BRANCH  29  30
ATOM     30  C   UNL A   1      43.337  22.265  25.659  1.00  0.00     0.202 C 
BRANCH  30  31
ATOM     31  C   UNL A   1      43.512  23.729  25.241  1.00  0.00     0.261 C 
BRANCH  31  32
ATOM     32  O   UNL A   1      43.744  24.649  26.327  1.00  0.00    -0.460 OA
BRANCH  32  33
ATOM     33  C   UNL A   1      43.677  25.972  26.043  1.00  0.00     0.338 C 
ATOM     34  O   UNL A   1      43.906  26.496  24.962  1.00  0.00    -0.246 OA
BRANCH  33  35
ATOM     35  C   UNL A   1      43.103  26.655  27.222  1.00  0.00     0.060 A 
ATOM     36  C   UNL A   1      43.539  27.941  27.561  1.00  0.00     0.016 A 
ATOM     37  C   UNL A   1      42.125  26.032  27.992  1.00  0.00     0.016 A 
ATOM     38  C   UNL A   1      42.996  28.614  28.654  1.00  0.00     0.010 A 
ATOM     39  C   UNL A   1      41.599  26.699  29.107  1.00  0.00     0.010 A 
ATOM     40  C   UNL A   1      42.037  27.992  29.451  1.00  0.00    -0.014 A 
BRANCH  40  41
ATOM     41  C   UNL A   1      41.631  28.616  30.735  1.00  0.00     0.031 A 
ATOM     42  C   UNL A   1      40.413  29.497  30.737  1.00  0.00     0.074 A 
ATOM     43  C   UNL A   1      42.283  28.378  31.888  1.00  0.00     0.049 A 
ATOM     44  N   UNL A   1      39.985  30.318  31.658  1.00  0.00    -0.248 NA
ATOM     45  C   UNL A   1      39.564  29.441  29.534  1.00  0.00     0.031 C 
ATOM     46  C   UNL A   1      43.376  27.424  32.072  1.00  0.00     0.029 A 
ATOM     47  N   UNL A   1      42.117  28.937  33.134  1.00  0.00    -0.354 N 
ATOM     48  C   UNL A   1      38.854  30.924  31.124  1.00  0.00     0.074 A 
ATOM     49  C   UNL A   1      38.652  30.362  29.806  1.00  0.00     0.031 C 
ATOM     50  C   UNL A   1      43.793  27.477  33.350  1.00  0.00     0.029 A 
ATOM     51  C   UNL A   1      43.051  28.521  34.054  1.00  0.00     0.049 A 
ATOM     52  H   UNL A   1      41.397  29.574  33.347  1.00  0.00     0.167 HD
ATOM     53  C   UNL A   1      38.071  31.878  31.676  1.00  0.00     0.031 A 
ATOM     54  C   UNL A   1      43.316  28.974  35.298  1.00  0.00     0.031 A 
ATOM     55  C   UNL A   1      38.267  32.409  32.999  1.00  0.00     0.049 A 
ATOM     56  C   UNL A   1      42.506  30.125  35.849  1.00  0.00     0.074 A 
ATOM     57  C   UNL A   1      37.529  33.383  33.649  1.00  0.00     0.029 A 
ATOM     58  N   UNL A   1      39.268  32.012  33.872  1.00  0.00    -0.354 N 
ATOM     59  N   UNL A   1      41.477  30.740  35.317  1.00  0.00    -0.248 NA
ATOM     60  C   UNL A   1      42.906  30.653  37.162  1.00  0.00     0.031 C 
ATOM     61  C   UNL A   1      38.127  33.624  34.889  1.00  0.00     0.029 A 
ATOM     62  C   UNL A   1      39.189  32.746  35.042  1.00  0.00     0.049 A 
ATOM     63  H   UNL A   1      39.935  31.312  33.687  1.00  0.00     0.167 HD
ATOM     64  C   UNL A   1      41.086  31.701  36.245  1.00  0.00     0.074 A 
ATOM     65  C   UNL A   1      41.982  31.580  37.375  1.00  0.00     0.031 C 
ATOM     66  C   UNL A   1      40.074  32.601  36.170  1.00  0.00     0.031 A 
BRANCH  53  67
ATOM     67  C   UNL A   1      36.984  32.473  30.825  1.00  0.00    -0.014 A 
ATOM     68  C   UNL A   1      35.669  31.979  30.838  1.00  0.00     0.010 A 
ATOM     69  C   UNL A   1      37.289  33.595  30.030  1.00  0.00     0.010 A 
ATOM     70  C   UNL A   1      34.683  32.581  30.051  1.00  0.00     0.020 A 
ATOM     71  C   UNL A   1      36.301  34.217  29.264  1.00  0.00     0.020 A 
ATOM     72  C   UNL A   1      35.005  33.698  29.271  1.00  0.00     0.054 A 
BRANCH  72  73
ATOM     73  S   UNL A   1      33.698  34.485  28.292  1.00  0.00     0.124 S 
ATOM     74  O   UNL A   1      34.403  34.815  27.056  1.00  0.00    -0.237 OA
ATOM     75  O   UNL A   1      32.700  33.425  28.181  1.00  0.00    -0.237 OA
ATOM     76  O   UNL A   1      33.297  35.632  29.103  1.00  0.00    -0.744 OA
ENDBRANCH  72  73
ENDBRANCH  53  67
BRANCH  54  77
ATOM     77  C   UNL A   1      44.447  28.407  36.089  1.00  0.00    -0.014 A 
ATOM     78  C   UNL A   1      45.757  28.889  35.923  1.00  0.00     0.010 A 
ATOM     79  C   UNL A   1      44.228  27.337  36.978  1.00  0.00     0.010 A 
ATOM     80  C   UNL A   1      46.827  28.298  36.605  1.00  0.00     0.020 A 
ATOM     81  C   UNL A   1      45.287  26.766  37.689  1.00  0.00     0.020 A 
ATOM     82  C   UNL A   1      46.584  27.238  37.485  1.00  0.00     0.054 A 
BRANCH  82  83
ATOM     83  S   UNL A   1      47.982  26.496  38.371  1.00  0.00     0.124 S 
ATOM     84  O   UNL A   1      48.750  25.899  37.283  1.00  0.00    -0.237 OA
ATOM     85  O   UNL A   1      48.596  27.653  39.018  1.00  0.00    -0.237 OA
ATOM     86  O   UNL A   1      47.347  25.547  39.282  1.00  0.00    -0.744 OA
ENDBRANCH  82  83
ENDBRANCH  54  77
BRANCH  66  87
ATOM     87  C   UNL A   1      39.826  33.490  37.361  1.00  0.00    -0.014 A 
ATOM     88  C   UNL A   1      39.000  33.084  38.423  1.00  0.00     0.010 A 
ATOM     89  C   UNL A   1      40.513  34.715  37.458  1.00  0.00     0.010 A 
ATOM     90  C   UNL A   1      38.853  33.896  39.553  1.00  0.00     0.020 A 
ATOM     91  C   UNL A   1      40.393  35.514  38.597  1.00  0.00     0.020 A 
ATOM     92  C   UNL A   1      39.555  35.102  39.635  1.00  0.00     0.054 A 
BRANCH  92  93
ATOM     93  S   UNL A   1      39.405  36.100  41.143  1.00  0.00     0.124 S 
ATOM     94  O   UNL A   1      38.001  35.911  41.495  1.00  0.00    -0.237 OA
ATOM     95  O   UNL A   1      40.369  35.469  42.041  1.00  0.00    -0.237 OA
ATOM     96  O   UNL A   1      39.761  37.448  40.704  1.00  0.00    -0.744 OA
ENDBRANCH  92  93
ENDBRANCH  66  87
ENDBRANCH  40  41
ENDBRANCH  33  35
ENDBRANCH  32  33
ENDBRANCH  31  32
ENDBRANCH  30  31
ENDBRANCH  29  30
ENDBRANCH  28  29
ENDBRANCH   1  28
TORSDOF 23
ENDMDL
